MODEL 1
REMARK VINA RESULT:    -5.741      0.000      0.000
REMARK INTER + INTRA:         -15.293
REMARK INTER:                 -12.453
REMARK INTRA:                  -2.839
REMARK UNBOUND:                -2.839
REMARK SMILES CCCCCCCCCCCCCCCCCCCCCC(=O)[O-]
REMARK SMILES IDX 12 1 11 2 10 3 9 4 8 5 7 6 6 7 5 8 4 9 3 10 2 11 1 12 13 13
REMARK SMILES IDX 14 14 15 15 16 16 17 17 18 18 19 19 20 20 21 21 22 22 23 23
REMARK SMILES IDX 24 24
REMARK H PARENT
REMARK Flexibility Score: inf
ROOT
ATOM      1  C   UNL     1      11.904   3.775  53.598  1.00  0.00     0.000 C 
ENDROOT
BRANCH   1   2
ATOM      2  C   UNL     1      10.581   3.268  54.202  1.00  0.00     0.000 C 
BRANCH   2   3
ATOM      3  C   UNL     1       9.710   4.408  54.759  1.00  0.00     0.000 C 
BRANCH   3   4
ATOM      4  C   UNL     1       9.776   4.507  56.293  1.00  0.00    -0.000 C 
BRANCH   4   5
ATOM      5  C   UNL     1      11.217   4.614  56.817  1.00  0.00    -0.000 C 
BRANCH   5   6
ATOM      6  C   UNL     1      11.653   3.374  57.617  1.00  0.00    -0.000 C 
BRANCH   6   7
ATOM      7  C   UNL     1      12.999   2.805  57.136  1.00  0.00    -0.000 C 
BRANCH   7   8
ATOM      8  C   UNL     1      13.937   3.891  56.580  1.00  0.00    -0.000 C 
BRANCH   8   9
ATOM      9  C   UNL     1      14.766   3.397  55.384  1.00  0.00    -0.000 C 
BRANCH   9  10
ATOM     10  C   UNL     1      16.193   2.985  55.778  1.00  0.00    -0.000 C 
BRANCH  10  11
ATOM     11  C   UNL     1      16.442   1.505  55.465  1.00  0.00    -0.003 C 
ATOM     12  C   UNL     1      15.980   0.613  56.612  1.00  0.00     0.004 C 
ENDBRANCH  10  11
ENDBRANCH   9  10
ENDBRANCH   8   9
ENDBRANCH   7   8
ENDBRANCH   6   7
ENDBRANCH   5   6
ENDBRANCH   4   5
ENDBRANCH   3   4
ENDBRANCH   2   3
ENDBRANCH   1   2
BRANCH   1  13
ATOM     13  C   UNL     1      11.730   5.071  52.791  1.00  0.00     0.000 C 
BRANCH  13  14
ATOM     14  C   UNL     1      12.592   6.224  53.334  1.00  0.00     0.000 C 
BRANCH  14  15
ATOM     15  C   UNL     1      11.772   7.497  53.606  1.00  0.00     0.000 C 
BRANCH  15  16
ATOM     16  C   UNL     1      11.439   7.681  55.094  1.00  0.00     0.000 C 
BRANCH  16  17
ATOM     17  C   UNL     1      11.263   9.165  55.439  1.00  0.00     0.000 C 
BRANCH  17  18
ATOM     18  C   UNL     1       9.775   9.525  55.569  1.00  0.00     0.000 C 
BRANCH  18  19
ATOM     19  C   UNL     1       8.848   8.332  55.293  1.00  0.00     0.000 C 
BRANCH  19  20
ATOM     20  C   UNL     1       7.974   8.537  54.045  1.00  0.00     0.006 C 
BRANCH  20  21
ATOM     21  C   UNL     1       8.350   7.539  52.944  1.00  0.00     0.053 C 
BRANCH  21  22
ATOM     22  C   UNL     1       8.559   8.248  51.643  1.00  0.00     0.041 C 
ATOM     23  O   UNL     1       9.563   7.981  50.931  1.00  0.00    -0.550 OA
ATOM     24  O   UNL     1       7.621   9.170  51.193  1.00  0.00    -0.550 OA
ENDBRANCH  21  22
ENDBRANCH  20  21
ENDBRANCH  19  20
ENDBRANCH  18  19
ENDBRANCH  17  18
ENDBRANCH  16  17
ENDBRANCH  15  16
ENDBRANCH  14  15
ENDBRANCH  13  14
ENDBRANCH   1  13
TORSDOF 20
ENDMDL
MODEL 2
REMARK VINA RESULT:    -5.710      0.951      1.868
REMARK INTER + INTRA:         -15.226
REMARK INTER:                 -12.473
REMARK INTRA:                  -2.753
REMARK UNBOUND:                -2.839
REMARK SMILES CCCCCCCCCCCCCCCCCCCCCC(=O)[O-]
REMARK SMILES IDX 12 1 11 2 10 3 9 4 8 5 7 6 6 7 5 8 4 9 3 10 2 11 1 12 13 13
REMARK SMILES IDX 14 14 15 15 16 16 17 17 18 18 19 19 20 20 21 21 22 22 23 23
REMARK SMILES IDX 24 24
REMARK H PARENT
REMARK Flexibility Score: inf
ROOT
ATOM      1  C   UNL     1      11.240   3.194  54.224  1.00  0.00     0.000 C 
ENDROOT
BRANCH   1   2
ATOM      2  C   UNL     1      10.115   4.040  54.848  1.00  0.00     0.000 C 
BRANCH   2   3
ATOM      3  C   UNL     1      10.363   4.350  56.335  1.00  0.00     0.000 C 
BRANCH   3   4
ATOM      4  C   UNL     1      11.855   4.305  56.707  1.00  0.00    -0.000 C 
BRANCH   4   5
ATOM      5  C   UNL     1      12.133   3.411  57.927  1.00  0.00    -0.000 C 
BRANCH   5   6
ATOM      6  C   UNL     1      12.826   2.090  57.550  1.00  0.00    -0.000 C 
BRANCH   6   7
ATOM      7  C   UNL     1      13.637   1.496  58.715  1.00  0.00    -0.000 C 
BRANCH   7   8
ATOM      8  C   UNL     1      14.940   0.824  58.247  1.00  0.00    -0.000 C 
BRANCH   8   9
ATOM      9  C   UNL     1      15.118   0.883  56.721  1.00  0.00    -0.000 C 
BRANCH   9  10
ATOM     10  C   UNL     1      16.558   1.218  56.303  1.00  0.00    -0.000 C 
BRANCH  10  11
ATOM     11  C   UNL     1      16.589   2.437  55.374  1.00  0.00    -0.003 C 
ATOM     12  C   UNL     1      15.361   3.319  55.578  1.00  0.00     0.004 C 
ENDBRANCH  10  11
ENDBRANCH   9  10
ENDBRANCH   8   9
ENDBRANCH   7   8
ENDBRANCH   6   7
ENDBRANCH   5   6
ENDBRANCH   4   5
ENDBRANCH   3   4
ENDBRANCH   2   3
ENDBRANCH   1   2
BRANCH   1  13
ATOM     13  C   UNL     1      11.883   3.870  53.003  1.00  0.00     0.000 C 
BRANCH  13  14
ATOM     14  C   UNL     1      12.459   5.259  53.332  1.00  0.00     0.000 C 
BRANCH  14  15
ATOM     15  C   UNL     1      11.727   6.391  52.592  1.00  0.00     0.000 C 
BRANCH  15  16
ATOM     16  C   UNL     1      11.784   7.727  53.348  1.00  0.00     0.000 C 
BRANCH  16  17
ATOM     17  C   UNL     1      11.485   7.530  54.839  1.00  0.00     0.000 C 
BRANCH  17  18
ATOM     18  C   UNL     1      10.286   8.387  55.275  1.00  0.00     0.000 C 
BRANCH  18  19
ATOM     19  C   UNL     1       8.937   7.697  55.023  1.00  0.00     0.000 C 
BRANCH  19  20
ATOM     20  C   UNL     1       7.949   8.590  54.258  1.00  0.00     0.006 C 
BRANCH  20  21
ATOM     21  C   UNL     1       8.652   9.335  53.119  1.00  0.00     0.053 C 
BRANCH  21  22
ATOM     22  C   UNL     1       8.185   8.827  51.792  1.00  0.00     0.041 C 
ATOM     23  O   UNL     1       7.033   9.116  51.373  1.00  0.00    -0.550 OA
ATOM     24  O   UNL     1       9.038   8.072  50.995  1.00  0.00    -0.550 OA
ENDBRANCH  21  22
ENDBRANCH  20  21
ENDBRANCH  19  20
ENDBRANCH  18  19
ENDBRANCH  17  18
ENDBRANCH  16  17
ENDBRANCH  15  16
ENDBRANCH  14  15
ENDBRANCH  13  14
ENDBRANCH   1  13
TORSDOF 20
ENDMDL
MODEL 3
REMARK VINA RESULT:    -5.429      3.311      7.828
REMARK INTER + INTRA:         -14.616
REMARK INTER:                 -11.633
REMARK INTRA:                  -2.983
REMARK UNBOUND:                -2.839
REMARK SMILES CCCCCCCCCCCCCCCCCCCCCC(=O)[O-]
REMARK SMILES IDX 12 1 11 2 10 3 9 4 8 5 7 6 6 7 5 8 4 9 3 10 2 11 1 12 13 13
REMARK SMILES IDX 14 14 15 15 16 16 17 17 18 18 19 19 20 20 21 21 22 22 23 23
REMARK SMILES IDX 24 24
REMARK H PARENT
REMARK Flexibility Score: inf
ROOT
ATOM      1  C   UNL     1      12.502   4.829  53.220  1.00  0.00     0.000 C 
ENDROOT
BRANCH   1   2
ATOM      2  C   UNL     1      12.126   6.219  52.671  1.00  0.00     0.000 C 
BRANCH   2   3
ATOM      3  C   UNL     1      10.976   6.873  53.456  1.00  0.00     0.000 C 
BRANCH   3   4
ATOM      4  C   UNL     1      11.476   7.737  54.627  1.00  0.00    -0.000 C 
BRANCH   4   5
ATOM      5  C   UNL     1      10.367   8.617  55.228  1.00  0.00    -0.000 C 
BRANCH   5   6
ATOM      6  C   UNL     1       8.967   8.000  55.070  1.00  0.00    -0.000 C 
BRANCH   6   7
ATOM      7  C   UNL     1       7.844   9.044  55.200  1.00  0.00    -0.000 C 
BRANCH   7   8
ATOM      8  C   UNL     1       6.934   9.094  53.961  1.00  0.00    -0.000 C 
BRANCH   8   9
ATOM      9  C   UNL     1       7.693   8.782  52.660  1.00  0.00    -0.000 C 
BRANCH   9  10
ATOM     10  C   UNL     1       8.276  10.039  51.996  1.00  0.00    -0.000 C 
BRANCH  10  11
ATOM     11  C   UNL     1       9.583   9.713  51.262  1.00  0.00    -0.003 C 
ATOM     12  C   UNL     1       9.486   8.380  50.528  1.00  0.00     0.004 C 
ENDBRANCH  10  11
ENDBRANCH   9  10
ENDBRANCH   8   9
ENDBRANCH   7   8
ENDBRANCH   6   7
ENDBRANCH   5   6
ENDBRANCH   4   5
ENDBRANCH   3   4
ENDBRANCH   2   3
ENDBRANCH   1   2
BRANCH   1  13
ATOM     13  C   UNL     1      11.382   3.794  53.031  1.00  0.00     0.000 C 
BRANCH  13  14
ATOM     14  C   UNL     1      10.938   3.157  54.361  1.00  0.00     0.000 C 
BRANCH  14  15
ATOM     15  C   UNL     1       9.701   3.845  54.960  1.00  0.00     0.000 C 
BRANCH  15  16
ATOM     16  C   UNL     1      10.027   4.661  56.220  1.00  0.00     0.000 C 
BRANCH  16  17
ATOM     17  C   UNL     1      11.509   4.529  56.592  1.00  0.00     0.000 C 
BRANCH  17  18
ATOM     18  C   UNL     1      11.683   3.674  57.856  1.00  0.00     0.000 C 
BRANCH  18  19
ATOM     19  C   UNL     1      13.107   3.119  58.009  1.00  0.00     0.000 C 
BRANCH  19  20
ATOM     20  C   UNL     1      13.578   2.345  56.769  1.00  0.00     0.006 C 
BRANCH  20  21
ATOM     21  C   UNL     1      14.474   1.167  57.166  1.00  0.00     0.053 C 
BRANCH  21  22
ATOM     22  C   UNL     1      15.729   1.165  56.351  1.00  0.00     0.041 C 
ATOM     23  O   UNL     1      16.402   0.108  56.229  1.00  0.00    -0.550 OA
ATOM     24  O   UNL     1      16.131   2.318  55.687  1.00  0.00    -0.550 OA
ENDBRANCH  21  22
ENDBRANCH  20  21
ENDBRANCH  19  20
ENDBRANCH  18  19
ENDBRANCH  17  18
ENDBRANCH  16  17
ENDBRANCH  15  16
ENDBRANCH  14  15
ENDBRANCH  13  14
ENDBRANCH   1  13
TORSDOF 20
ENDMDL
MODEL 4
REMARK VINA RESULT:    -5.403      1.137      2.912
REMARK INTER + INTRA:         -14.560
REMARK INTER:                 -11.945
REMARK INTRA:                  -2.616
REMARK UNBOUND:                -2.839
REMARK SMILES CCCCCCCCCCCCCCCCCCCCCC(=O)[O-]
REMARK SMILES IDX 12 1 11 2 10 3 9 4 8 5 7 6 6 7 5 8 4 9 3 10 2 11 1 12 13 13
REMARK SMILES IDX 14 14 15 15 16 16 17 17 18 18 19 19 20 20 21 21 22 22 23 23
REMARK SMILES IDX 24 24
REMARK H PARENT
REMARK Flexibility Score: inf
ROOT
ATOM      1  C   UNL     1      10.171   4.352  55.667  1.00  0.00     0.000 C 
ENDROOT
BRANCH   1   2
ATOM      2  C   UNL     1      11.374   4.446  56.625  1.00  0.00     0.000 C 
BRANCH   2   3
ATOM      3  C   UNL     1      11.822   3.071  57.149  1.00  0.00     0.000 C 
BRANCH   3   4
ATOM      4  C   UNL     1      13.329   2.830  56.963  1.00  0.00    -0.000 C 
BRANCH   4   5
ATOM      5  C   UNL     1      14.052   4.045  56.357  1.00  0.00    -0.000 C 
BRANCH   5   6
ATOM      6  C   UNL     1      15.153   3.646  55.360  1.00  0.00    -0.000 C 
BRANCH   6   7
ATOM      7  C   UNL     1      16.222   2.738  55.993  1.00  0.00    -0.000 C 
BRANCH   7   8
ATOM      8  C   UNL     1      16.299   1.356  55.322  1.00  0.00    -0.000 C 
BRANCH   8   9
ATOM      9  C   UNL     1      16.486   0.217  56.338  1.00  0.00    -0.000 C 
BRANCH   9  10
ATOM     10  C   UNL     1      17.480   0.573  57.454  1.00  0.00    -0.000 C 
BRANCH  10  11
ATOM     11  C   UNL     1      16.885   0.270  58.834  1.00  0.00    -0.003 C 
ATOM     12  C   UNL     1      17.779  -0.680  59.624  1.00  0.00     0.004 C 
ENDBRANCH  10  11
ENDBRANCH   9  10
ENDBRANCH   8   9
ENDBRANCH   7   8
ENDBRANCH   6   7
ENDBRANCH   5   6
ENDBRANCH   4   5
ENDBRANCH   3   4
ENDBRANCH   2   3
ENDBRANCH   1   2
BRANCH   1  13
ATOM     13  C   UNL     1      10.425   3.401  54.487  1.00  0.00     0.000 C 
BRANCH  13  14
ATOM     14  C   UNL     1      11.744   3.707  53.755  1.00  0.00     0.000 C 
BRANCH  14  15
ATOM     15  C   UNL     1      11.648   4.958  52.866  1.00  0.00     0.000 C 
BRANCH  15  16
ATOM     16  C   UNL     1      12.479   6.133  53.403  1.00  0.00     0.000 C 
BRANCH  16  17
ATOM     17  C   UNL     1      11.662   7.430  53.405  1.00  0.00     0.000 C 
BRANCH  17  18
ATOM     18  C   UNL     1      11.334   7.869  54.841  1.00  0.00     0.000 C 
BRANCH  18  19
ATOM     19  C   UNL     1       9.828   7.839  55.144  1.00  0.00     0.000 C 
BRANCH  19  20
ATOM     20  C   UNL     1       8.985   7.465  53.915  1.00  0.00     0.006 C 
BRANCH  20  21
ATOM     21  C   UNL     1       8.007   8.591  53.560  1.00  0.00     0.053 C 
BRANCH  21  22
ATOM     22  C   UNL     1       8.055   8.884  52.093  1.00  0.00     0.041 C 
ATOM     23  O   UNL     1       6.988   9.003  51.436  1.00  0.00    -0.550 OA
ATOM     24  O   UNL     1       9.279   9.071  51.460  1.00  0.00    -0.550 OA
ENDBRANCH  21  22
ENDBRANCH  20  21
ENDBRANCH  19  20
ENDBRANCH  18  19
ENDBRANCH  17  18
ENDBRANCH  16  17
ENDBRANCH  15  16
ENDBRANCH  14  15
ENDBRANCH  13  14
ENDBRANCH   1  13
TORSDOF 20
ENDMDL
MODEL 5
REMARK VINA RESULT:    -5.396      1.364      2.463
REMARK INTER + INTRA:         -14.544
REMARK INTER:                 -11.825
REMARK INTRA:                  -2.720
REMARK UNBOUND:                -2.839
REMARK SMILES CCCCCCCCCCCCCCCCCCCCCC(=O)[O-]
REMARK SMILES IDX 12 1 11 2 10 3 9 4 8 5 7 6 6 7 5 8 4 9 3 10 2 11 1 12 13 13
REMARK SMILES IDX 14 14 15 15 16 16 17 17 18 18 19 19 20 20 21 21 22 22 23 23
REMARK SMILES IDX 24 24
REMARK H PARENT
REMARK Flexibility Score: inf
ROOT
ATOM      1  C   UNL     1      10.811   3.011  54.135  1.00  0.00     0.000 C 
ENDROOT
BRANCH   1   2
ATOM      2  C   UNL     1      11.730   3.896  53.274  1.00  0.00     0.000 C 
BRANCH   2   3
ATOM      3  C   UNL     1      12.735   4.701  54.115  1.00  0.00     0.000 C 
BRANCH   3   4
ATOM      4  C   UNL     1      13.388   3.857  55.223  1.00  0.00    -0.000 C 
BRANCH   4   5
ATOM      5  C   UNL     1      13.368   4.560  56.591  1.00  0.00    -0.000 C 
BRANCH   5   6
ATOM      6  C   UNL     1      12.514   3.813  57.630  1.00  0.00    -0.000 C 
BRANCH   6   7
ATOM      7  C   UNL     1      12.482   2.294  57.387  1.00  0.00    -0.000 C 
BRANCH   7   8
ATOM      8  C   UNL     1      13.659   1.563  58.057  1.00  0.00    -0.000 C 
BRANCH   8   9
ATOM      9  C   UNL     1      14.540   0.814  57.044  1.00  0.00    -0.000 C 
BRANCH   9  10
ATOM     10  C   UNL     1      15.959   0.549  57.569  1.00  0.00    -0.000 C 
BRANCH  10  11
ATOM     11  C   UNL     1      17.013   0.974  56.540  1.00  0.00    -0.003 C 
ATOM     12  C   UNL     1      16.420   1.922  55.502  1.00  0.00     0.004 C 
ENDBRANCH  10  11
ENDBRANCH   9  10
ENDBRANCH   8   9
ENDBRANCH   7   8
ENDBRANCH   6   7
ENDBRANCH   5   6
ENDBRANCH   4   5
ENDBRANCH   3   4
ENDBRANCH   2   3
ENDBRANCH   1   2
BRANCH   1  13
ATOM     13  C   UNL     1       9.490   3.706  54.502  1.00  0.00     0.000 C 
BRANCH  13  14
ATOM     14  C   UNL     1       9.423   4.097  55.989  1.00  0.00     0.000 C 
BRANCH  14  15
ATOM     15  C   UNL     1       9.495   5.619  56.202  1.00  0.00     0.000 C 
BRANCH  15  16
ATOM     16  C   UNL     1       9.461   6.405  54.883  1.00  0.00     0.000 C 
BRANCH  16  17
ATOM     17  C   UNL     1       9.495   7.916  55.141  1.00  0.00     0.000 C 
BRANCH  17  18
ATOM     18  C   UNL     1       8.170   8.573  54.724  1.00  0.00     0.000 C 
BRANCH  18  19
ATOM     19  C   UNL     1       8.371   9.913  54.002  1.00  0.00     0.000 C 
BRANCH  19  20
ATOM     20  C   UNL     1       7.720   9.939  52.610  1.00  0.00     0.006 C 
BRANCH  20  21
ATOM     21  C   UNL     1       7.964   8.622  51.866  1.00  0.00     0.053 C 
BRANCH  21  22
ATOM     22  C   UNL     1       9.201   8.714  51.028  1.00  0.00     0.041 C 
ATOM     23  O   UNL     1       9.690   7.677  50.507  1.00  0.00    -0.550 OA
ATOM     24  O   UNL     1       9.787   9.950  50.785  1.00  0.00    -0.550 OA
ENDBRANCH  21  22
ENDBRANCH  20  21
ENDBRANCH  19  20
ENDBRANCH  18  19
ENDBRANCH  17  18
ENDBRANCH  16  17
ENDBRANCH  15  16
ENDBRANCH  14  15
ENDBRANCH  13  14
ENDBRANCH   1  13
TORSDOF 20
ENDMDL
MODEL 6
REMARK VINA RESULT:    -5.335      3.864      7.865
REMARK INTER + INTRA:         -14.412
REMARK INTER:                 -11.560
REMARK INTRA:                  -2.852
REMARK UNBOUND:                -2.839
REMARK SMILES CCCCCCCCCCCCCCCCCCCCCC(=O)[O-]
REMARK SMILES IDX 12 1 11 2 10 3 9 4 8 5 7 6 6 7 5 8 4 9 3 10 2 11 1 12 13 13
REMARK SMILES IDX 14 14 15 15 16 16 17 17 18 18 19 19 20 20 21 21 22 22 23 23
REMARK SMILES IDX 24 24
REMARK H PARENT
REMARK Flexibility Score: inf
ROOT
ATOM      1  C   UNL     1      10.956   3.005  54.126  1.00  0.00     0.000 C 
ENDROOT
BRANCH   1   2
ATOM      2  C   UNL     1       9.549   3.499  54.512  1.00  0.00     0.000 C 
BRANCH   2   3
ATOM      3  C   UNL     1       9.580   4.575  55.610  1.00  0.00     0.000 C 
BRANCH   3   4
ATOM      4  C   UNL     1       9.325   5.988  55.060  1.00  0.00    -0.000 C 
BRANCH   4   5
ATOM      5  C   UNL     1      10.469   6.964  55.383  1.00  0.00    -0.000 C 
BRANCH   5   6
ATOM      6  C   UNL     1      10.028   8.436  55.330  1.00  0.00    -0.000 C 
BRANCH   6   7
ATOM      7  C   UNL     1       8.506   8.591  55.170  1.00  0.00    -0.000 C 
BRANCH   7   8
ATOM      8  C   UNL     1       8.085   8.824  53.709  1.00  0.00    -0.000 C 
BRANCH   8   9
ATOM      9  C   UNL     1       8.903   9.934  53.030  1.00  0.00    -0.000 C 
BRANCH   9  10
ATOM     10  C   UNL     1       9.497   9.497  51.682  1.00  0.00    -0.000 C 
BRANCH  10  11
ATOM     11  C   UNL     1       9.349   7.984  51.484  1.00  0.00    -0.003 C 
ATOM     12  C   UNL     1      10.656   7.257  51.785  1.00  0.00     0.004 C 
ENDBRANCH  10  11
ENDBRANCH   9  10
ENDBRANCH   8   9
ENDBRANCH   7   8
ENDBRANCH   6   7
ENDBRANCH   5   6
ENDBRANCH   4   5
ENDBRANCH   3   4
ENDBRANCH   2   3
ENDBRANCH   1   2
BRANCH   1  13
ATOM     13  C   UNL     1      11.684   3.968  53.176  1.00  0.00     0.000 C 
BRANCH  13  14
ATOM     14  C   UNL     1      12.788   4.774  53.884  1.00  0.00     0.000 C 
BRANCH  14  15
ATOM     15  C   UNL     1      13.463   3.980  55.015  1.00  0.00     0.000 C 
BRANCH  15  16
ATOM     16  C   UNL     1      13.363   4.686  56.376  1.00  0.00     0.000 C 
BRANCH  16  17
ATOM     17  C   UNL     1      12.383   3.959  57.303  1.00  0.00     0.000 C 
BRANCH  17  18
ATOM     18  C   UNL     1      12.545   2.435  57.186  1.00  0.00     0.000 C 
BRANCH  18  19
ATOM     19  C   UNL     1      13.435   1.845  58.290  1.00  0.00     0.000 C 
BRANCH  19  20
ATOM     20  C   UNL     1      14.378   0.750  57.767  1.00  0.00     0.006 C 
BRANCH  20  21
ATOM     21  C   UNL     1      15.352   1.316  56.728  1.00  0.00     0.053 C 
BRANCH  21  22
ATOM     22  C   UNL     1      16.495   0.375  56.511  1.00  0.00     0.041 C 
ATOM     23  O   UNL     1      16.558  -0.313  55.459  1.00  0.00    -0.550 OA
ATOM     24  O   UNL     1      17.515   0.291  57.451  1.00  0.00    -0.550 OA
ENDBRANCH  21  22
ENDBRANCH  20  21
ENDBRANCH  19  20
ENDBRANCH  18  19
ENDBRANCH  17  18
ENDBRANCH  16  17
ENDBRANCH  15  16
ENDBRANCH  14  15
ENDBRANCH  13  14
ENDBRANCH   1  13
TORSDOF 20
ENDMDL
MODEL 7
REMARK VINA RESULT:    -5.214      4.127      8.771
REMARK INTER + INTRA:         -14.149
REMARK INTER:                 -12.264
REMARK INTRA:                  -1.884
REMARK UNBOUND:                -2.839
REMARK SMILES CCCCCCCCCCCCCCCCCCCCCC(=O)[O-]
REMARK SMILES IDX 12 1 11 2 10 3 9 4 8 5 7 6 6 7 5 8 4 9 3 10 2 11 1 12 13 13
REMARK SMILES IDX 14 14 15 15 16 16 17 17 18 18 19 19 20 20 21 21 22 22 23 23
REMARK SMILES IDX 24 24
REMARK H PARENT
REMARK Flexibility Score: inf
ROOT
ATOM      1  C   UNL     1       9.598   3.800  54.393  1.00  0.00     0.000 C 
ENDROOT
BRANCH   1   2
ATOM      2  C   UNL     1       9.275   4.135  55.861  1.00  0.00     0.000 C 
BRANCH   2   3
ATOM      3  C   UNL     1       9.689   5.566  56.247  1.00  0.00     0.000 C 
BRANCH   3   4
ATOM      4  C   UNL     1       9.451   6.576  55.112  1.00  0.00    -0.000 C 
BRANCH   4   5
ATOM      5  C   UNL     1       9.613   8.034  55.574  1.00  0.00    -0.000 C 
BRANCH   5   6
ATOM      6  C   UNL     1      10.053   8.973  54.438  1.00  0.00    -0.000 C 
BRANCH   6   7
ATOM      7  C   UNL     1       8.908   9.874  53.941  1.00  0.00    -0.000 C 
BRANCH   7   8
ATOM      8  C   UNL     1       7.717   9.069  53.391  1.00  0.00    -0.000 C 
BRANCH   8   9
ATOM      9  C   UNL     1       7.772   8.904  51.864  1.00  0.00    -0.000 C 
BRANCH   9  10
ATOM     10  C   UNL     1       8.934   8.010  51.403  1.00  0.00    -0.000 C 
BRANCH  10  11
ATOM     11  C   UNL     1       9.583   8.569  50.131  1.00  0.00    -0.003 C 
ATOM     12  C   UNL     1       9.584  10.094  50.136  1.00  0.00     0.004 C 
ENDBRANCH  10  11
ENDBRANCH   9  10
ENDBRANCH   8   9
ENDBRANCH   7   8
ENDBRANCH   6   7
ENDBRANCH   5   6
ENDBRANCH   4   5
ENDBRANCH   3   4
ENDBRANCH   2   3
ENDBRANCH   1   2
BRANCH   1  13
ATOM     13  C   UNL     1      10.989   3.171  54.220  1.00  0.00     0.000 C 
BRANCH  13  14
ATOM     14  C   UNL     1      11.998   4.138  53.575  1.00  0.00     0.000 C 
BRANCH  14  15
ATOM     15  C   UNL     1      13.146   4.513  54.527  1.00  0.00     0.000 C 
BRANCH  15  16
ATOM     16  C   UNL     1      12.946   3.959  55.945  1.00  0.00     0.000 C 
BRANCH  16  17
ATOM     17  C   UNL     1      14.129   3.078  56.365  1.00  0.00     0.000 C 
BRANCH  17  18
ATOM     18  C   UNL     1      15.380   3.409  55.536  1.00  0.00     0.000 C 
BRANCH  18  19
ATOM     19  C   UNL     1      16.379   2.244  55.476  1.00  0.00     0.000 C 
BRANCH  19  20
ATOM     20  C   UNL     1      15.940   1.042  56.325  1.00  0.00     0.006 C 
BRANCH  20  21
ATOM     21  C   UNL     1      17.155   0.283  56.871  1.00  0.00     0.053 C 
BRANCH  21  22
ATOM     22  C   UNL     1      17.096   0.202  58.364  1.00  0.00     0.041 C 
ATOM     23  O   UNL     1      16.024   0.463  58.970  1.00  0.00    -0.550 OA
ATOM     24  O   UNL     1      18.213  -0.207  59.084  1.00  0.00    -0.550 OA
ENDBRANCH  21  22
ENDBRANCH  20  21
ENDBRANCH  19  20
ENDBRANCH  18  19
ENDBRANCH  17  18
ENDBRANCH  16  17
ENDBRANCH  15  16
ENDBRANCH  14  15
ENDBRANCH  13  14
ENDBRANCH   1  13
TORSDOF 20
ENDMDL
MODEL 8
REMARK VINA RESULT:    -4.998      3.574      8.107
REMARK INTER + INTRA:         -13.680
REMARK INTER:                 -11.360
REMARK INTRA:                  -2.320
REMARK UNBOUND:                -2.839
REMARK SMILES CCCCCCCCCCCCCCCCCCCCCC(=O)[O-]
REMARK SMILES IDX 12 1 11 2 10 3 9 4 8 5 7 6 6 7 5 8 4 9 3 10 2 11 1 12 13 13
REMARK SMILES IDX 14 14 15 15 16 16 17 17 18 18 19 19 20 20 21 21 22 22 23 23
REMARK SMILES IDX 24 24
REMARK H PARENT
REMARK Flexibility Score: inf
ROOT
ATOM      1  C   UNL     1       9.503   4.703  55.737  1.00  0.00     0.000 C 
ENDROOT
BRANCH   1   2
ATOM      2  C   UNL     1      10.078   6.107  55.471  1.00  0.00     0.000 C 
BRANCH   2   3
ATOM      3  C   UNL     1       9.019   7.215  55.599  1.00  0.00     0.000 C 
BRANCH   3   4
ATOM      4  C   UNL     1       9.628   8.625  55.530  1.00  0.00    -0.000 C 
BRANCH   4   5
ATOM      5  C   UNL     1       8.718   9.628  54.800  1.00  0.00    -0.000 C 
BRANCH   5   6
ATOM      6  C   UNL     1       7.431   8.979  54.262  1.00  0.00    -0.000 C 
BRANCH   6   7
ATOM      7  C   UNL     1       6.875   9.709  53.027  1.00  0.00    -0.000 C 
BRANCH   7   8
ATOM      8  C   UNL     1       7.156   8.953  51.716  1.00  0.00    -0.000 C 
BRANCH   8   9
ATOM      9  C   UNL     1       8.358   9.528  50.950  1.00  0.00    -0.000 C 
BRANCH   9  10
ATOM     10  C   UNL     1       9.460   8.487  50.702  1.00  0.00    -0.000 C 
BRANCH  10  11
ATOM     11  C   UNL     1       9.577   7.521  51.887  1.00  0.00    -0.003 C 
ATOM     12  C   UNL     1      11.036   7.199  52.195  1.00  0.00     0.004 C 
ENDBRANCH  10  11
ENDBRANCH   9  10
ENDBRANCH   8   9
ENDBRANCH   7   8
ENDBRANCH   6   7
ENDBRANCH   5   6
ENDBRANCH   4   5
ENDBRANCH   3   4
ENDBRANCH   2   3
ENDBRANCH   1   2
BRANCH   1  13
ATOM     13  C   UNL     1       9.544   3.799  54.495  1.00  0.00     0.000 C 
BRANCH  13  14
ATOM     14  C   UNL     1      10.881   3.048  54.357  1.00  0.00     0.000 C 
BRANCH  14  15
ATOM     15  C   UNL     1      11.917   3.834  53.535  1.00  0.00     0.000 C 
BRANCH  15  16
ATOM     16  C   UNL     1      12.878   4.647  54.415  1.00  0.00     0.000 C 
BRANCH  16  17
ATOM     17  C   UNL     1      13.741   3.725  55.285  1.00  0.00     0.000 C 
BRANCH  17  18
ATOM     18  C   UNL     1      13.238   3.713  56.737  1.00  0.00     0.000 C 
BRANCH  18  19
ATOM     19  C   UNL     1      12.945   2.296  57.253  1.00  0.00     0.000 C 
BRANCH  19  20
ATOM     20  C   UNL     1      14.181   1.622  57.868  1.00  0.00     0.006 C 
BRANCH  20  21
ATOM     21  C   UNL     1      14.802   0.620  56.889  1.00  0.00     0.053 C 
BRANCH  21  22
ATOM     22  C   UNL     1      16.248   0.934  56.663  1.00  0.00     0.041 C 
ATOM     23  O   UNL     1      16.582   1.795  55.807  1.00  0.00    -0.550 OA
ATOM     24  O   UNL     1      17.224   0.308  57.429  1.00  0.00    -0.550 OA
ENDBRANCH  21  22
ENDBRANCH  20  21
ENDBRANCH  19  20
ENDBRANCH  18  19
ENDBRANCH  17  18
ENDBRANCH  16  17
ENDBRANCH  15  16
ENDBRANCH  14  15
ENDBRANCH  13  14
ENDBRANCH   1  13
TORSDOF 20
ENDMDL
MODEL 9
REMARK VINA RESULT:    -4.942      4.246      8.158
REMARK INTER + INTRA:         -13.560
REMARK INTER:                 -10.750
REMARK INTRA:                  -2.810
REMARK UNBOUND:                -2.839
REMARK SMILES CCCCCCCCCCCCCCCCCCCCCC(=O)[O-]
REMARK SMILES IDX 12 1 11 2 10 3 9 4 8 5 7 6 6 7 5 8 4 9 3 10 2 11 1 12 13 13
REMARK SMILES IDX 14 14 15 15 16 16 17 17 18 18 19 19 20 20 21 21 22 22 23 23
REMARK SMILES IDX 24 24
REMARK H PARENT
REMARK Flexibility Score: inf
ROOT
ATOM      1  C   UNL     1       9.565   4.226  55.421  1.00  0.00     0.000 C 
ENDROOT
BRANCH   1   2
ATOM      2  C   UNL     1       9.532   5.623  56.069  1.00  0.00     0.000 C 
BRANCH   2   3
ATOM      3  C   UNL     1       8.995   6.704  55.116  1.00  0.00     0.000 C 
BRANCH   3   4
ATOM      4  C   UNL     1       9.316   8.129  55.598  1.00  0.00    -0.000 C 
BRANCH   4   5
ATOM      5  C   UNL     1       8.403   9.189  54.959  1.00  0.00    -0.000 C 
BRANCH   5   6
ATOM      6  C   UNL     1       8.200   8.967  53.450  1.00  0.00    -0.000 C 
BRANCH   6   7
ATOM      7  C   UNL     1       9.427   9.383  52.622  1.00  0.00    -0.000 C 
BRANCH   7   8
ATOM      8  C   UNL     1       9.729   8.400  51.476  1.00  0.00    -0.000 C 
BRANCH   8   9
ATOM      9  C   UNL     1      10.437   7.126  51.964  1.00  0.00    -0.000 C 
BRANCH   9  10
ATOM     10  C   UNL     1      11.703   7.425  52.781  1.00  0.00    -0.000 C 
BRANCH  10  11
ATOM     11  C   UNL     1      12.133   6.197  53.593  1.00  0.00    -0.003 C 
ATOM     12  C   UNL     1      12.145   4.940  52.729  1.00  0.00     0.004 C 
ENDBRANCH  10  11
ENDBRANCH   9  10
ENDBRANCH   8   9
ENDBRANCH   7   8
ENDBRANCH   6   7
ENDBRANCH   5   6
ENDBRANCH   4   5
ENDBRANCH   3   4
ENDBRANCH   2   3
ENDBRANCH   1   2
BRANCH   1  13
ATOM     13  C   UNL     1      10.773   3.390  55.873  1.00  0.00     0.000 C 
BRANCH  13  14
ATOM     14  C   UNL     1      11.463   3.976  57.119  1.00  0.00     0.000 C 
BRANCH  14  15
ATOM     15  C   UNL     1      12.996   3.880  57.044  1.00  0.00     0.000 C 
BRANCH  15  16
ATOM     16  C   UNL     1      13.493   3.393  55.675  1.00  0.00     0.000 C 
BRANCH  16  17
ATOM     17  C   UNL     1      14.896   3.935  55.374  1.00  0.00     0.000 C 
BRANCH  17  18
ATOM     18  C   UNL     1      15.973   3.082  56.061  1.00  0.00     0.000 C 
BRANCH  18  19
ATOM     19  C   UNL     1      16.422   1.887  55.206  1.00  0.00     0.000 C 
BRANCH  19  20
ATOM     20  C   UNL     1      16.310   0.549  55.952  1.00  0.00     0.006 C 
BRANCH  20  21
ATOM     21  C   UNL     1      15.654   0.740  57.324  1.00  0.00     0.053 C 
BRANCH  21  22
ATOM     22  C   UNL     1      16.584   0.312  58.415  1.00  0.00     0.041 C 
ATOM     23  O   UNL     1      17.768  -0.020  58.143  1.00  0.00    -0.550 OA
ATOM     24  O   UNL     1      16.159   0.323  59.738  1.00  0.00    -0.550 OA
ENDBRANCH  21  22
ENDBRANCH  20  21
ENDBRANCH  19  20
ENDBRANCH  18  19
ENDBRANCH  17  18
ENDBRANCH  16  17
ENDBRANCH  15  16
ENDBRANCH  14  15
ENDBRANCH  13  14
ENDBRANCH   1  13
TORSDOF 20
ENDMDL
