MODEL 1
REMARK VINA RESULT:    -6.603      0.000      0.000
REMARK INTER + INTRA:          -8.042
REMARK INTER:                  -7.761
REMARK INTRA:                  -0.281
REMARK UNBOUND:                -0.281
REMARK SMILES O=c1c(O)c(-c2ccc(O)cc2)oc2cc(O)cc(O)c12
REMARK SMILES IDX 5 1 3 2 2 3 1 4 21 5 19 6 18 7 16 8 15 9 14 10 13 11 6 12
REMARK SMILES IDX 7 13 8 14 9 15 12 16 11 17 10 18 4 20 20 22 17 24
REMARK H PARENT 10 19 4 21 20 23 17 25
REMARK Flexibility Score: inf
ROOT
ATOM      1  C   UNL     1      -9.535   8.645   5.958  1.00  0.00     0.180 A 
ATOM      2  C   UNL     1     -10.806   9.227   5.803  1.00  0.00     0.208 A 
ATOM      3  C   UNL     1     -11.935   8.394   5.757  1.00  0.00     0.238 A 
ATOM      4  O   UNL     1     -13.074   8.925   5.692  1.00  0.00    -0.285 OA
ATOM      5  C   UNL     1     -11.777   6.988   5.810  1.00  0.00     0.111 A 
ATOM      6  C   UNL     1     -12.847   6.046   5.726  1.00  0.00     0.134 A 
ATOM      7  C   UNL     1     -12.582   4.682   5.896  1.00  0.00     0.093 A 
ATOM      8  C   UNL     1     -11.281   4.219   6.083  1.00  0.00     0.123 A 
ATOM      9  C   UNL     1     -10.220   5.125   6.112  1.00  0.00     0.094 A 
ATOM     10  C   UNL     1     -10.457   6.496   5.983  1.00  0.00     0.146 A 
ATOM     11  O   UNL     1      -9.421   7.324   6.038  1.00  0.00    -0.452 OA
ENDROOT
BRANCH   1  12
ATOM     12  C   UNL     1      -8.300   9.458   6.031  1.00  0.00     0.021 A 
ATOM     13  C   UNL     1      -7.653   9.839   4.843  1.00  0.00     0.016 A 
ATOM     14  C   UNL     1      -6.473  10.587   4.887  1.00  0.00     0.047 A 
ATOM     15  C   UNL     1      -5.916  10.950   6.117  1.00  0.00     0.115 A 
ATOM     16  C   UNL     1      -7.724   9.808   7.265  1.00  0.00     0.016 A 
ATOM     17  C   UNL     1      -6.542  10.555   7.306  1.00  0.00     0.047 A 
BRANCH  15  18
ATOM     18  O   UNL     1      -4.740  11.695   6.147  1.00  0.00    -0.508 OA
ATOM     19  H   UNL     1      -3.853  11.297   5.863  1.00  0.00     0.293 HD
ENDBRANCH  15  18
ENDBRANCH   1  12
BRANCH   2  20
ATOM     20  O   UNL     1     -10.934  10.612   5.676  1.00  0.00    -0.502 OA
ATOM     21  H   UNL     1     -11.744  11.118   6.014  1.00  0.00     0.293 HD
ENDBRANCH   2  20
BRANCH   6  22
ATOM     22  O   UNL     1     -14.175   6.391   5.453  1.00  0.00    -0.507 OA
ATOM     23  H   UNL     1     -14.464   7.165   4.875  1.00  0.00     0.293 HD
ENDBRANCH   6  22
BRANCH   8  24
ATOM     24  O   UNL     1     -11.052   2.852   6.233  1.00  0.00    -0.508 OA
ATOM     25  H   UNL     1     -11.333   2.187   5.521  1.00  0.00     0.293 HD
ENDBRANCH   8  24
TORSDOF 5
ENDMDL
MODEL 2
REMARK VINA RESULT:    -5.520     17.496     19.684
REMARK INTER + INTRA:          -6.769
REMARK INTER:                  -7.332
REMARK INTRA:                   0.563
REMARK UNBOUND:                -0.281
REMARK SMILES O=c1c(O)c(-c2ccc(O)cc2)oc2cc(O)cc(O)c12
REMARK SMILES IDX 5 1 3 2 2 3 1 4 21 5 19 6 18 7 16 8 15 9 14 10 13 11 6 12
REMARK SMILES IDX 7 13 8 14 9 15 12 16 11 17 10 18 4 20 20 22 17 24
REMARK H PARENT 10 19 4 21 20 23 17 25
REMARK Flexibility Score: inf
ROOT
ATOM      1  C   UNL     1     -11.978  -2.514  -9.596  1.00  0.00     0.180 A 
ATOM      2  C   UNL     1     -10.604  -2.767  -9.442  1.00  0.00     0.208 A 
ATOM      3  C   UNL     1     -10.164  -4.096  -9.343  1.00  0.00     0.238 A 
ATOM      4  O   UNL     1      -8.926  -4.318  -9.280  1.00  0.00    -0.285 OA
ATOM      5  C   UNL     1     -11.105  -5.154  -9.344  1.00  0.00     0.111 A 
ATOM      6  C   UNL     1     -10.775  -6.536  -9.204  1.00  0.00     0.134 A 
ATOM      7  C   UNL     1     -11.781  -7.503  -9.326  1.00  0.00     0.093 A 
ATOM      8  C   UNL     1     -13.112  -7.137  -9.517  1.00  0.00     0.123 A 
ATOM      9  C   UNL     1     -13.455  -5.787  -9.600  1.00  0.00     0.094 A 
ATOM     10  C   UNL     1     -12.468  -4.800  -9.521  1.00  0.00     0.146 A 
ATOM     11  O   UNL     1     -12.835  -3.529  -9.626  1.00  0.00    -0.452 OA
ENDROOT
BRANCH   1  12
ATOM     12  C   UNL     1     -12.518  -1.142  -9.722  1.00  0.00     0.021 A 
ATOM     13  C   UNL     1     -11.667  -0.043  -9.515  1.00  0.00     0.016 A 
ATOM     14  C   UNL     1     -12.159   1.262  -9.606  1.00  0.00     0.047 A 
ATOM     15  C   UNL     1     -13.510   1.486  -9.889  1.00  0.00     0.115 A 
ATOM     16  C   UNL     1     -13.880  -0.911  -9.986  1.00  0.00     0.016 A 
ATOM     17  C   UNL     1     -14.370   0.396 -10.076  1.00  0.00     0.047 A 
BRANCH  15  18
ATOM     18  O   UNL     1     -13.988   2.792  -9.978  1.00  0.00    -0.508 OA
ATOM     19  H   UNL     1     -14.205   3.217 -10.871  1.00  0.00     0.293 HD
ENDBRANCH  15  18
ENDBRANCH   1  12
BRANCH   2  20
ATOM     20  O   UNL     1      -9.698  -1.707  -9.367  1.00  0.00    -0.502 OA
ATOM     21  H   UNL     1      -9.951  -0.755  -9.605  1.00  0.00     0.293 HD
ENDBRANCH   2  20
BRANCH   6  22
ATOM     22  O   UNL     1      -9.490  -7.011  -8.922  1.00  0.00    -0.507 OA
ATOM     23  H   UNL     1      -9.021  -7.745  -9.430  1.00  0.00     0.293 HD
ENDBRANCH   6  22
BRANCH   8  24
ATOM     24  O   UNL     1     -14.090  -8.125  -9.617  1.00  0.00    -0.508 OA
ATOM     25  H   UNL     1     -15.077  -7.898  -9.591  1.00  0.00     0.293 HD
ENDBRANCH   8  24
TORSDOF 5
ENDMDL
MODEL 3
REMARK VINA RESULT:    -4.998     16.374     18.154
REMARK INTER + INTRA:          -6.156
REMARK INTER:                  -6.435
REMARK INTRA:                   0.279
REMARK UNBOUND:                -0.281
REMARK SMILES O=c1c(O)c(-c2ccc(O)cc2)oc2cc(O)cc(O)c12
REMARK SMILES IDX 5 1 3 2 2 3 1 4 21 5 19 6 18 7 16 8 15 9 14 10 13 11 6 12
REMARK SMILES IDX 7 13 8 14 9 15 12 16 11 17 10 18 4 20 20 22 17 24
REMARK H PARENT 10 19 4 21 20 23 17 25
REMARK Flexibility Score: inf
ROOT
ATOM      1  C   UNL     1     -12.085  -0.176  -9.429  1.00  0.00     0.180 A 
ATOM      2  C   UNL     1     -12.883  -1.098 -10.128  1.00  0.00     0.208 A 
ATOM      3  C   UNL     1     -12.468  -2.437 -10.204  1.00  0.00     0.238 A 
ATOM      4  O   UNL     1     -13.224  -3.272 -10.767  1.00  0.00    -0.285 OA
ATOM      5  C   UNL     1     -11.234  -2.827  -9.630  1.00  0.00     0.111 A 
ATOM      6  C   UNL     1     -10.692  -4.147  -9.686  1.00  0.00     0.134 A 
ATOM      7  C   UNL     1      -9.513  -4.441  -8.990  1.00  0.00     0.093 A 
ATOM      8  C   UNL     1      -8.822  -3.450  -8.295  1.00  0.00     0.123 A 
ATOM      9  C   UNL     1      -9.312  -2.144  -8.279  1.00  0.00     0.094 A 
ATOM     10  C   UNL     1     -10.506  -1.829  -8.931  1.00  0.00     0.146 A 
ATOM     11  O   UNL     1     -10.948  -0.578  -8.873  1.00  0.00    -0.452 OA
ENDROOT
BRANCH   1  12
ATOM     12  C   UNL     1     -12.463   1.249  -9.292  1.00  0.00     0.021 A 
ATOM     13  C   UNL     1     -11.458   2.218  -9.132  1.00  0.00     0.016 A 
ATOM     14  C   UNL     1     -11.792   3.566  -8.978  1.00  0.00     0.047 A 
ATOM     15  C   UNL     1     -13.133   3.963  -8.967  1.00  0.00     0.115 A 
ATOM     16  C   UNL     1     -13.810   1.651  -9.260  1.00  0.00     0.016 A 
ATOM     17  C   UNL     1     -14.141   3.001  -9.105  1.00  0.00     0.047 A 
BRANCH  15  18
ATOM     18  O   UNL     1     -13.451   5.310  -8.813  1.00  0.00    -0.508 OA
ATOM     19  H   UNL     1     -13.842   5.666  -7.950  1.00  0.00     0.293 HD
ENDBRANCH  15  18
ENDBRANCH   1  12
BRANCH   2  20
ATOM     20  O   UNL     1     -14.060  -0.678 -10.753  1.00  0.00    -0.502 OA
ATOM     21  H   UNL     1     -14.720  -0.052 -10.308  1.00  0.00     0.293 HD
ENDBRANCH   2  20
BRANCH   6  22
ATOM     22  O   UNL     1     -11.254  -5.194 -10.425  1.00  0.00    -0.507 OA
ATOM     23  H   UNL     1     -11.913  -5.080 -11.180  1.00  0.00     0.293 HD
ENDBRANCH   6  22
BRANCH   8  24
ATOM     24  O   UNL     1      -7.642  -3.774  -7.628  1.00  0.00    -0.508 OA
ATOM     25  H   UNL     1      -7.006  -3.058  -7.297  1.00  0.00     0.293 HD
ENDBRANCH   8  24
TORSDOF 5
ENDMDL
MODEL 4
REMARK VINA RESULT:    -4.952      1.294      2.875
REMARK INTER + INTRA:          -6.102
REMARK INTER:                  -5.920
REMARK INTRA:                  -0.181
REMARK UNBOUND:                -0.281
REMARK SMILES O=c1c(O)c(-c2ccc(O)cc2)oc2cc(O)cc(O)c12
REMARK SMILES IDX 5 1 3 2 2 3 1 4 21 5 19 6 18 7 16 8 15 9 14 10 13 11 6 12
REMARK SMILES IDX 7 13 8 14 9 15 12 16 11 17 10 18 4 20 20 22 17 24
REMARK H PARENT 10 19 4 21 20 23 17 25
REMARK Flexibility Score: inf
ROOT
ATOM      1  C   UNL     1      -9.444   8.160   6.172  1.00  0.00     0.180 A 
ATOM      2  C   UNL     1      -9.273   6.858   6.674  1.00  0.00     0.208 A 
ATOM      3  C   UNL     1     -10.348   5.956   6.607  1.00  0.00     0.238 A 
ATOM      4  O   UNL     1     -10.165   4.771   6.990  1.00  0.00    -0.285 OA
ATOM      5  C   UNL     1     -11.595   6.382   6.091  1.00  0.00     0.111 A 
ATOM      6  C   UNL     1     -12.765   5.567   6.016  1.00  0.00     0.134 A 
ATOM      7  C   UNL     1     -13.914   6.062   5.388  1.00  0.00     0.093 A 
ATOM      8  C   UNL     1     -13.959   7.363   4.890  1.00  0.00     0.123 A 
ATOM      9  C   UNL     1     -12.839   8.188   5.006  1.00  0.00     0.094 A 
ATOM     10  C   UNL     1     -11.665   7.709   5.593  1.00  0.00     0.146 A 
ATOM     11  O   UNL     1     -10.617   8.521   5.664  1.00  0.00    -0.452 OA
ENDROOT
BRANCH   1  12
ATOM     12  C   UNL     1      -8.355   9.162   6.194  1.00  0.00     0.021 A 
ATOM     13  C   UNL     1      -7.723   9.522   4.992  1.00  0.00     0.016 A 
ATOM     14  C   UNL     1      -6.678  10.450   4.990  1.00  0.00     0.047 A 
ATOM     15  C   UNL     1      -6.239  11.017   6.191  1.00  0.00     0.115 A 
ATOM     16  C   UNL     1      -7.897   9.721   7.401  1.00  0.00     0.016 A 
ATOM     17  C   UNL     1      -6.849  10.648   7.396  1.00  0.00     0.047 A 
BRANCH  15  18
ATOM     18  O   UNL     1      -5.197  11.941   6.175  1.00  0.00    -0.508 OA
ATOM     19  H   UNL     1      -4.235  11.652   6.042  1.00  0.00     0.293 HD
ENDBRANCH  15  18
ENDBRANCH   1  12
BRANCH   2  20
ATOM     20  O   UNL     1      -8.058   6.480   7.250  1.00  0.00    -0.502 OA
ATOM     21  H   UNL     1      -7.176   6.555   6.758  1.00  0.00     0.293 HD
ENDBRANCH   2  20
BRANCH   6  22
ATOM     22  O   UNL     1     -12.861   4.282   6.561  1.00  0.00    -0.507 OA
ATOM     23  H   UNL     1     -12.637   4.041   7.514  1.00  0.00     0.293 HD
ENDBRANCH   6  22
BRANCH   8  24
ATOM     24  O   UNL     1     -15.125   7.829   4.285  1.00  0.00    -0.508 OA
ATOM     25  H   UNL     1     -15.282   7.729   3.289  1.00  0.00     0.293 HD
ENDBRANCH   8  24
TORSDOF 5
ENDMDL
MODEL 5
REMARK VINA RESULT:    -4.817     17.688     19.732
REMARK INTER + INTRA:          -5.943
REMARK INTER:                  -6.315
REMARK INTRA:                   0.372
REMARK UNBOUND:                -0.281
REMARK SMILES O=c1c(O)c(-c2ccc(O)cc2)oc2cc(O)cc(O)c12
REMARK SMILES IDX 5 1 3 2 2 3 1 4 21 5 19 6 18 7 16 8 15 9 14 10 13 11 6 12
REMARK SMILES IDX 7 13 8 14 9 15 12 16 11 17 10 18 4 20 20 22 17 24
REMARK H PARENT 10 19 4 21 20 23 17 25
REMARK Flexibility Score: inf
ROOT
ATOM      1  C   UNL     1     -12.888  -2.574  -9.828  1.00  0.00     0.180 A 
ATOM      2  C   UNL     1     -14.029  -3.227 -10.327  1.00  0.00     0.208 A 
ATOM      3  C   UNL     1     -14.071  -4.630 -10.312  1.00  0.00     0.238 A 
ATOM      4  O   UNL     1     -15.125  -5.205 -10.690  1.00  0.00    -0.285 OA
ATOM      5  C   UNL     1     -12.953  -5.365  -9.851  1.00  0.00     0.111 A 
ATOM      6  C   UNL     1     -12.868  -6.791  -9.833  1.00  0.00     0.134 A 
ATOM      7  C   UNL     1     -11.753  -7.410  -9.257  1.00  0.00     0.093 A 
ATOM      8  C   UNL     1     -10.691  -6.659  -8.756  1.00  0.00     0.123 A 
ATOM      9  C   UNL     1     -10.737  -5.266  -8.817  1.00  0.00     0.094 A 
ATOM     10  C   UNL     1     -11.854  -4.618  -9.352  1.00  0.00     0.146 A 
ATOM     11  O   UNL     1     -11.866  -3.291  -9.372  1.00  0.00    -0.452 OA
ENDROOT
BRANCH   1  12
ATOM     12  C   UNL     1     -12.774  -1.099  -9.796  1.00  0.00     0.021 A 
ATOM     13  C   UNL     1     -11.505  -0.506  -9.682  1.00  0.00     0.016 A 
ATOM     14  C   UNL     1     -11.375   0.885  -9.627  1.00  0.00     0.047 A 
ATOM     15  C   UNL     1     -12.510   1.700  -9.670  1.00  0.00     0.115 A 
ATOM     16  C   UNL     1     -13.913  -0.275  -9.819  1.00  0.00     0.016 A 
ATOM     17  C   UNL     1     -13.780   1.116  -9.763  1.00  0.00     0.047 A 
BRANCH  15  18
ATOM     18  O   UNL     1     -12.366   3.084  -9.616  1.00  0.00    -0.508 OA
ATOM     19  H   UNL     1     -12.594   3.672 -10.408  1.00  0.00     0.293 HD
ENDBRANCH  15  18
ENDBRANCH   1  12
BRANCH   2  20
ATOM     20  O   UNL     1     -15.092  -2.485 -10.847  1.00  0.00    -0.502 OA
ATOM     21  H   UNL     1     -16.044  -2.831 -10.859  1.00  0.00     0.293 HD
ENDBRANCH   2  20
BRANCH   6  22
ATOM     22  O   UNL     1     -13.832  -7.640 -10.387  1.00  0.00    -0.507 OA
ATOM     23  H   UNL     1     -14.346  -8.341  -9.876  1.00  0.00     0.293 HD
ENDBRANCH   6  22
BRANCH   8  24
ATOM     24  O   UNL     1      -9.588  -7.309  -8.204  1.00  0.00    -0.508 OA
ATOM     25  H   UNL     1      -9.221  -7.050  -7.295  1.00  0.00     0.293 HD
ENDBRANCH   8  24
TORSDOF 5
ENDMDL
MODEL 6
REMARK VINA RESULT:    -4.549     16.685     18.852
REMARK INTER + INTRA:          -5.629
REMARK INTER:                  -5.957
REMARK INTRA:                   0.328
REMARK UNBOUND:                -0.281
REMARK SMILES O=c1c(O)c(-c2ccc(O)cc2)oc2cc(O)cc(O)c12
REMARK SMILES IDX 5 1 3 2 2 3 1 4 21 5 19 6 18 7 16 8 15 9 14 10 13 11 6 12
REMARK SMILES IDX 7 13 8 14 9 15 12 16 11 17 10 18 4 20 20 22 17 24
REMARK H PARENT 10 19 4 21 20 23 17 25
REMARK Flexibility Score: inf
ROOT
ATOM      1  C   UNL     1     -11.716  -1.537  -9.663  1.00  0.00     0.180 A 
ATOM      2  C   UNL     1     -12.990  -1.428 -10.247  1.00  0.00     0.208 A 
ATOM      3  C   UNL     1     -13.591  -0.163 -10.338  1.00  0.00     0.238 A 
ATOM      4  O   UNL     1     -14.698  -0.062 -10.929  1.00  0.00    -0.285 OA
ATOM      5  C   UNL     1     -12.938   0.970  -9.794  1.00  0.00     0.111 A 
ATOM      6  C   UNL     1     -13.475   2.293  -9.790  1.00  0.00     0.134 A 
ATOM      7  C   UNL     1     -12.692   3.355  -9.319  1.00  0.00     0.093 A 
ATOM      8  C   UNL     1     -11.420   3.134  -8.793  1.00  0.00     0.123 A 
ATOM      9  C   UNL     1     -10.907   1.838  -8.741  1.00  0.00     0.094 A 
ATOM     10  C   UNL     1     -11.648   0.763  -9.239  1.00  0.00     0.146 A 
ATOM     11  O   UNL     1     -11.113  -0.451  -9.190  1.00  0.00    -0.452 OA
ENDROOT
BRANCH   1  12
ATOM     12  C   UNL     1     -11.011  -2.833  -9.544  1.00  0.00     0.021 A 
ATOM     13  C   UNL     1     -11.754  -4.008  -9.346  1.00  0.00     0.016 A 
ATOM     14  C   UNL     1     -11.109  -5.241  -9.209  1.00  0.00     0.047 A 
ATOM     15  C   UNL     1      -9.714  -5.313  -9.252  1.00  0.00     0.115 A 
ATOM     16  C   UNL     1      -9.606  -2.909  -9.567  1.00  0.00     0.016 A 
ATOM     17  C   UNL     1      -8.963  -4.143  -9.428  1.00  0.00     0.047 A 
BRANCH  15  18
ATOM     18  O   UNL     1      -9.083  -6.547  -9.115  1.00  0.00    -0.508 OA
ATOM     19  H   UNL     1      -8.888  -7.135  -9.917  1.00  0.00     0.293 HD
ENDBRANCH  15  18
ENDBRANCH   1  12
BRANCH   2  20
ATOM     20  O   UNL     1     -13.651  -2.568 -10.710  1.00  0.00    -0.502 OA
ATOM     21  H   UNL     1     -14.600  -2.796 -10.438  1.00  0.00     0.293 HD
ENDBRANCH   2  20
BRANCH   6  22
ATOM     22  O   UNL     1     -14.769   2.615 -10.210  1.00  0.00    -0.507 OA
ATOM     23  H   UNL     1     -15.123   3.553 -10.324  1.00  0.00     0.293 HD
ENDBRANCH   6  22
BRANCH   8  24
ATOM     24  O   UNL     1     -10.676   4.212  -8.317  1.00  0.00    -0.508 OA
ATOM     25  H   UNL     1     -10.603   4.409  -7.325  1.00  0.00     0.293 HD
ENDBRANCH   8  24
TORSDOF 5
ENDMDL
