MODEL 1
REMARK VINA RESULT:     1.750      0.000      0.000
REMARK INTER + INTRA:           3.056
REMARK INTER:                   4.616
REMARK INTRA:                  -1.559
REMARK UNBOUND:                -1.559
REMARK SMILES CCCCCCCCCCCCCCCCCCCCCCCCCCCCCC(=O)[O-]
REMARK SMILES IDX 16 1 17 2 18 3 19 4 20 5 21 6 22 7 23 8 24 9 25 10 26 11
REMARK SMILES IDX 27 12 28 13 29 14 30 15 31 16 32 17 15 18 14 19 13 20 12 21
REMARK SMILES IDX 11 22 10 23 9 24 8 25 7 26 6 27 5 28 4 29 3 30 2 31 1 32
REMARK H PARENT
REMARK Flexibility Score: inf
ROOT
ATOM      1  C   UNL     1      30.227   1.364  -0.597  1.00  0.00     0.000 C 
ENDROOT
BRANCH   1   2
ATOM      2  C   UNL     1      30.399   0.275  -1.678  1.00  0.00     0.000 C 
BRANCH   2   3
ATOM      3  C   UNL     1      30.506   0.832  -3.110  1.00  0.00     0.000 C 
BRANCH   3   4
ATOM      4  C   UNL     1      31.427   0.035  -4.051  1.00  0.00     0.000 C 
BRANCH   4   5
ATOM      5  C   UNL     1      32.849   0.618  -4.125  1.00  0.00     0.000 C 
BRANCH   5   6
ATOM      6  C   UNL     1      33.864  -0.173  -3.279  1.00  0.00     0.000 C 
BRANCH   6   7
ATOM      7  C   UNL     1      34.173  -1.593  -3.788  1.00  0.00     0.000 C 
BRANCH   7   8
ATOM      8  C   UNL     1      35.486  -2.159  -3.229  1.00  0.00     0.000 C 
BRANCH   8   9
ATOM      9  C   UNL     1      35.943  -3.386  -4.033  1.00  0.00     0.000 C 
BRANCH   9  10
ATOM     10  C   UNL     1      37.125  -4.115  -3.371  1.00  0.00     0.000 C 
BRANCH  10  11
ATOM     11  C   UNL     1      36.672  -5.295  -2.497  1.00  0.00     0.000 C 
BRANCH  11  12
ATOM     12  C   UNL     1      36.987  -6.662  -3.130  1.00  0.00     0.000 C 
BRANCH  12  13
ATOM     13  C   UNL     1      35.730  -7.429  -3.594  1.00  0.00     0.006 C 
BRANCH  13  14
ATOM     14  C   UNL     1      35.128  -8.288  -2.473  1.00  0.00     0.053 C 
BRANCH  14  15
ATOM     15  C   UNL     1      35.931  -9.535  -2.283  1.00  0.00     0.041 C 
ATOM     16  O   UNL     1      35.965 -10.100  -1.158  1.00  0.00    -0.550 OA
ATOM     17  O   UNL     1      36.598 -10.105  -3.360  1.00  0.00    -0.550 OA
ENDBRANCH  14  15
ENDBRANCH  13  14
ENDBRANCH  12  13
ENDBRANCH  11  12
ENDBRANCH  10  11
ENDBRANCH   9  10
ENDBRANCH   8   9
ENDBRANCH   7   8
ENDBRANCH   6   7
ENDBRANCH   5   6
ENDBRANCH   4   5
ENDBRANCH   3   4
ENDBRANCH   2   3
ENDBRANCH   1   2
BRANCH   1  18
ATOM     18  C   UNL     1      30.666   0.879   0.794  1.00  0.00     0.000 C 
BRANCH  18  19
ATOM     19  C   UNL     1      29.578   1.150   1.838  1.00  0.00     0.000 C 
BRANCH  19  20
ATOM     20  C   UNL     1      29.651   2.597   2.353  1.00  0.00     0.000 C 
BRANCH  20  21
ATOM     21  C   UNL     1      30.933   2.856   3.173  1.00  0.00     0.000 C 
BRANCH  21  22
ATOM     22  C   UNL     1      30.667   3.451   4.567  1.00  0.00     0.000 C 
BRANCH  22  23
ATOM     23  C   UNL     1      31.315   4.832   4.760  1.00  0.00     0.000 C 
BRANCH  23  24
ATOM     24  C   UNL     1      30.612   5.947   3.963  1.00  0.00    -0.000 C 
BRANCH  24  25
ATOM     25  C   UNL     1      31.377   6.440   2.719  1.00  0.00    -0.000 C 
BRANCH  25  26
ATOM     26  C   UNL     1      30.801   5.886   1.404  1.00  0.00    -0.000 C 
BRANCH  26  27
ATOM     27  C   UNL     1      30.483   6.990   0.381  1.00  0.00    -0.000 C 
BRANCH  27  28
ATOM     28  C   UNL     1      30.516   6.540  -1.095  1.00  0.00    -0.000 C 
BRANCH  28  29
ATOM     29  C   UNL     1      29.622   7.352  -2.048  1.00  0.00    -0.000 C 
BRANCH  29  30
ATOM     30  C   UNL     1      30.330   8.584  -2.632  1.00  0.00    -0.000 C 
BRANCH  30  31
ATOM     31  C   UNL     1      29.460   9.837  -2.482  1.00  0.00    -0.003 C 
ATOM     32  C   UNL     1      27.979   9.477  -2.426  1.00  0.00     0.004 C 
ENDBRANCH  30  31
ENDBRANCH  29  30
ENDBRANCH  28  29
ENDBRANCH  27  28
ENDBRANCH  26  27
ENDBRANCH  25  26
ENDBRANCH  24  25
ENDBRANCH  23  24
ENDBRANCH  22  23
ENDBRANCH  21  22
ENDBRANCH  20  21
ENDBRANCH  19  20
ENDBRANCH  18  19
ENDBRANCH   1  18
TORSDOF 28
ENDMDL
MODEL 2
REMARK VINA RESULT:     3.295      5.530     13.151
REMARK INTER + INTRA:           7.130
REMARK INTER:                   7.159
REMARK INTRA:                  -0.029
REMARK UNBOUND:                -1.559
REMARK SMILES CCCCCCCCCCCCCCCCCCCCCCCCCCCCCC(=O)[O-]
REMARK SMILES IDX 16 1 17 2 18 3 19 4 20 5 21 6 22 7 23 8 24 9 25 10 26 11
REMARK SMILES IDX 27 12 28 13 29 14 30 15 31 16 32 17 15 18 14 19 13 20 12 21
REMARK SMILES IDX 11 22 10 23 9 24 8 25 7 26 6 27 5 28 4 29 3 30 2 31 1 32
REMARK H PARENT
REMARK Flexibility Score: inf
ROOT
ATOM      1  C   UNL     1      29.938   2.678   2.007  1.00  0.00     0.000 C 
ENDROOT
BRANCH   1   2
ATOM      2  C   UNL     1      31.129   2.953   2.949  1.00  0.00     0.000 C 
BRANCH   2   3
ATOM      3  C   UNL     1      30.716   3.256   4.402  1.00  0.00     0.000 C 
BRANCH   3   4
ATOM      4  C   UNL     1      31.574   4.317   5.115  1.00  0.00     0.000 C 
BRANCH   4   5
ATOM      5  C   UNL     1      30.850   5.666   5.263  1.00  0.00     0.000 C 
BRANCH   5   6
ATOM      6  C   UNL     1      30.119   6.096   3.977  1.00  0.00     0.000 C 
BRANCH   6   7
ATOM      7  C   UNL     1      30.815   5.692   2.665  1.00  0.00     0.000 C 
BRANCH   7   8
ATOM      8  C   UNL     1      30.940   6.855   1.669  1.00  0.00     0.000 C 
BRANCH   8   9
ATOM      9  C   UNL     1      30.671   6.381   0.233  1.00  0.00     0.000 C 
BRANCH   9  10
ATOM     10  C   UNL     1      30.279   7.537  -0.703  1.00  0.00     0.000 C 
BRANCH  10  11
ATOM     11  C   UNL     1      30.077   7.074  -2.155  1.00  0.00     0.000 C 
BRANCH  11  12
ATOM     12  C   UNL     1      30.606   8.089  -3.184  1.00  0.00     0.000 C 
BRANCH  12  13
ATOM     13  C   UNL     1      29.503   8.983  -3.789  1.00  0.00     0.006 C 
BRANCH  13  14
ATOM     14  C   UNL     1      29.060  10.092  -2.825  1.00  0.00     0.053 C 
BRANCH  14  15
ATOM     15  C   UNL     1      27.636   9.889  -2.416  1.00  0.00     0.041 C 
ATOM     16  O   UNL     1      26.711  10.010  -3.262  1.00  0.00    -0.550 OA
ATOM     17  O   UNL     1      27.332   9.513  -1.114  1.00  0.00    -0.550 OA
ENDBRANCH  14  15
ENDBRANCH  13  14
ENDBRANCH  12  13
ENDBRANCH  11  12
ENDBRANCH  10  11
ENDBRANCH   9  10
ENDBRANCH   8   9
ENDBRANCH   7   8
ENDBRANCH   6   7
ENDBRANCH   5   6
ENDBRANCH   4   5
ENDBRANCH   3   4
ENDBRANCH   2   3
ENDBRANCH   1   2
BRANCH   1  18
ATOM     18  C   UNL     1      30.158   1.431   1.136  1.00  0.00     0.000 C 
BRANCH  18  19
ATOM     19  C   UNL     1      30.745   1.809  -0.228  1.00  0.00     0.000 C 
BRANCH  19  20
ATOM     20  C   UNL     1      30.654   0.635  -1.215  1.00  0.00     0.000 C 
BRANCH  20  21
ATOM     21  C   UNL     1      30.921   1.079  -2.669  1.00  0.00     0.000 C 
BRANCH  21  22
ATOM     22  C   UNL     1      30.740  -0.046  -3.703  1.00  0.00     0.000 C 
BRANCH  22  23
ATOM     23  C   UNL     1      31.269  -1.403  -3.209  1.00  0.00     0.000 C 
BRANCH  23  24
ATOM     24  C   UNL     1      32.363  -1.993  -4.118  1.00  0.00    -0.000 C 
BRANCH  24  25
ATOM     25  C   UNL     1      33.762  -1.369  -3.944  1.00  0.00    -0.000 C 
BRANCH  25  26
ATOM     26  C   UNL     1      34.724  -2.268  -3.148  1.00  0.00    -0.000 C 
BRANCH  26  27
ATOM     27  C   UNL     1      36.191  -2.101  -3.581  1.00  0.00    -0.000 C 
BRANCH  27  28
ATOM     28  C   UNL     1      36.860  -3.381  -4.124  1.00  0.00    -0.000 C 
BRANCH  28  29
ATOM     29  C   UNL     1      36.032  -4.669  -3.971  1.00  0.00    -0.000 C 
BRANCH  29  30
ATOM     30  C   UNL     1      36.890  -5.943  -4.015  1.00  0.00    -0.000 C 
BRANCH  30  31
ATOM     31  C   UNL     1      36.666  -6.796  -2.761  1.00  0.00    -0.003 C 
ATOM     32  C   UNL     1      35.401  -7.639  -2.886  1.00  0.00     0.004 C 
ENDBRANCH  30  31
ENDBRANCH  29  30
ENDBRANCH  28  29
ENDBRANCH  27  28
ENDBRANCH  26  27
ENDBRANCH  25  26
ENDBRANCH  24  25
ENDBRANCH  23  24
ENDBRANCH  22  23
ENDBRANCH  21  22
ENDBRANCH  20  21
ENDBRANCH  19  20
ENDBRANCH  18  19
ENDBRANCH   1  18
TORSDOF 28
ENDMDL
MODEL 3
REMARK VINA RESULT:     3.551      6.630     11.872
REMARK INTER + INTRA:           7.804
REMARK INTER:                   9.686
REMARK INTRA:                  -1.882
REMARK UNBOUND:                -1.559
REMARK SMILES CCCCCCCCCCCCCCCCCCCCCCCCCCCCCC(=O)[O-]
REMARK SMILES IDX 16 1 17 2 18 3 19 4 20 5 21 6 22 7 23 8 24 9 25 10 26 11
REMARK SMILES IDX 27 12 28 13 29 14 30 15 31 16 32 17 15 18 14 19 13 20 12 21
REMARK SMILES IDX 11 22 10 23 9 24 8 25 7 26 6 27 5 28 4 29 3 30 2 31 1 32
REMARK H PARENT
REMARK Flexibility Score: inf
ROOT
ATOM      1  C   UNL     1      31.500   0.810  -4.123  1.00  0.00     0.000 C 
ENDROOT
BRANCH   1   2
ATOM      2  C   UNL     1      32.578   1.909  -4.005  1.00  0.00     0.000 C 
BRANCH   2   3
ATOM      3  C   UNL     1      32.011   3.306  -3.690  1.00  0.00     0.000 C 
BRANCH   3   4
ATOM      4  C   UNL     1      32.914   4.483  -4.098  1.00  0.00     0.000 C 
BRANCH   4   5
ATOM      5  C   UNL     1      32.548   5.792  -3.376  1.00  0.00     0.000 C 
BRANCH   5   6
ATOM      6  C   UNL     1      31.235   5.687  -2.579  1.00  0.00     0.000 C 
BRANCH   6   7
ATOM      7  C   UNL     1      30.602   7.034  -2.184  1.00  0.00     0.000 C 
BRANCH   7   8
ATOM      8  C   UNL     1      30.452   7.998  -3.370  1.00  0.00     0.000 C 
BRANCH   8   9
ATOM      9  C   UNL     1      30.191   9.432  -2.884  1.00  0.00     0.000 C 
BRANCH   9  10
ATOM     10  C   UNL     1      28.985  10.080  -3.585  1.00  0.00     0.000 C 
BRANCH  10  11
ATOM     11  C   UNL     1      27.653   9.424  -3.187  1.00  0.00     0.000 C 
BRANCH  11  12
ATOM     12  C   UNL     1      26.495   9.810  -4.125  1.00  0.00     0.000 C 
BRANCH  12  13
ATOM     13  C   UNL     1      25.179  10.124  -3.381  1.00  0.00     0.006 C 
BRANCH  13  14
ATOM     14  C   UNL     1      23.959   9.498  -4.068  1.00  0.00     0.053 C 
BRANCH  14  15
ATOM     15  C   UNL     1      22.926   9.119  -3.055  1.00  0.00     0.041 C 
ATOM     16  O   UNL     1      22.843   7.930  -2.650  1.00  0.00    -0.550 OA
ATOM     17  O   UNL     1      22.090  10.090  -2.517  1.00  0.00    -0.550 OA
ENDBRANCH  14  15
ENDBRANCH  13  14
ENDBRANCH  12  13
ENDBRANCH  11  12
ENDBRANCH  10  11
ENDBRANCH   9  10
ENDBRANCH   8   9
ENDBRANCH   7   8
ENDBRANCH   6   7
ENDBRANCH   5   6
ENDBRANCH   4   5
ENDBRANCH   3   4
ENDBRANCH   2   3
ENDBRANCH   1   2
BRANCH   1  18
ATOM     18  C   UNL     1      32.091  -0.602  -3.998  1.00  0.00     0.000 C 
BRANCH  18  19
ATOM     19  C   UNL     1      32.475  -0.912  -2.547  1.00  0.00     0.000 C 
BRANCH  19  20
ATOM     20  C   UNL     1      31.320  -0.588  -1.587  1.00  0.00     0.000 C 
BRANCH  20  21
ATOM     21  C   UNL     1      31.750   0.387  -0.470  1.00  0.00     0.000 C 
BRANCH  21  22
ATOM     22  C   UNL     1      30.577   1.146   0.176  1.00  0.00     0.000 C 
BRANCH  22  23
ATOM     23  C   UNL     1      30.523   0.975   1.703  1.00  0.00     0.000 C 
BRANCH  23  24
ATOM     24  C   UNL     1      29.518   1.923   2.383  1.00  0.00    -0.000 C 
BRANCH  24  25
ATOM     25  C   UNL     1      30.033   3.355   2.626  1.00  0.00    -0.000 C 
BRANCH  25  26
ATOM     26  C   UNL     1      31.295   3.396   3.506  1.00  0.00    -0.000 C 
BRANCH  26  27
ATOM     27  C   UNL     1      31.522   4.771   4.157  1.00  0.00    -0.000 C 
BRANCH  27  28
ATOM     28  C   UNL     1      30.996   5.973   3.344  1.00  0.00    -0.000 C 
BRANCH  28  29
ATOM     29  C   UNL     1      30.192   7.008   4.150  1.00  0.00    -0.000 C 
BRANCH  29  30
ATOM     30  C   UNL     1      29.730   6.479   5.516  1.00  0.00    -0.000 C 
BRANCH  30  31
ATOM     31  C   UNL     1      30.150   7.432   6.641  1.00  0.00    -0.003 C 
ATOM     32  C   UNL     1      30.011   8.889   6.210  1.00  0.00     0.004 C 
ENDBRANCH  30  31
ENDBRANCH  29  30
ENDBRANCH  28  29
ENDBRANCH  27  28
ENDBRANCH  26  27
ENDBRANCH  25  26
ENDBRANCH  24  25
ENDBRANCH  23  24
ENDBRANCH  22  23
ENDBRANCH  21  22
ENDBRANCH  20  21
ENDBRANCH  19  20
ENDBRANCH  18  19
ENDBRANCH   1  18
TORSDOF 28
ENDMDL
MODEL 4
REMARK VINA RESULT:     3.676      6.665     11.169
REMARK INTER + INTRA:           8.133
REMARK INTER:                   8.670
REMARK INTRA:                  -0.537
REMARK UNBOUND:                -1.559
REMARK SMILES CCCCCCCCCCCCCCCCCCCCCCCCCCCCCC(=O)[O-]
REMARK SMILES IDX 16 1 17 2 18 3 19 4 20 5 21 6 22 7 23 8 24 9 25 10 26 11
REMARK SMILES IDX 27 12 28 13 29 14 30 15 31 16 32 17 15 18 14 19 13 20 12 21
REMARK SMILES IDX 11 22 10 23 9 24 8 25 7 26 6 27 5 28 4 29 3 30 2 31 1 32
REMARK H PARENT
REMARK Flexibility Score: inf
ROOT
ATOM      1  C   UNL     1      30.917  -0.693  -1.900  1.00  0.00     0.000 C 
ENDROOT
BRANCH   1   2
ATOM      2  C   UNL     1      31.818  -0.030  -0.836  1.00  0.00     0.000 C 
BRANCH   2   3
ATOM      3  C   UNL     1      31.089   0.292   0.483  1.00  0.00     0.000 C 
BRANCH   3   4
ATOM      4  C   UNL     1      29.651   0.814   0.322  1.00  0.00     0.000 C 
BRANCH   4   5
ATOM      5  C   UNL     1      29.254   1.815   1.421  1.00  0.00     0.000 C 
BRANCH   5   6
ATOM      6  C   UNL     1      30.296   1.905   2.551  1.00  0.00     0.000 C 
BRANCH   6   7
ATOM      7  C   UNL     1      31.014   3.262   2.671  1.00  0.00     0.000 C 
BRANCH   7   8
ATOM      8  C   UNL     1      30.244   4.275   3.530  1.00  0.00     0.000 C 
BRANCH   8   9
ATOM      9  C   UNL     1      31.205   5.258   4.215  1.00  0.00     0.000 C 
BRANCH   9  10
ATOM     10  C   UNL     1      31.563   6.454   3.316  1.00  0.00     0.000 C 
BRANCH  10  11
ATOM     11  C   UNL     1      31.541   7.789   4.077  1.00  0.00     0.000 C 
BRANCH  11  12
ATOM     12  C   UNL     1      30.358   7.899   5.055  1.00  0.00     0.000 C 
BRANCH  12  13
ATOM     13  C   UNL     1      30.456   6.926   6.250  1.00  0.00     0.006 C 
BRANCH  13  14
ATOM     14  C   UNL     1      29.604   7.383   7.442  1.00  0.00     0.053 C 
BRANCH  14  15
ATOM     15  C   UNL     1      29.975   8.774   7.846  1.00  0.00     0.041 C 
ATOM     16  O   UNL     1      29.186   9.729   7.622  1.00  0.00    -0.550 OA
ATOM     17  O   UNL     1      31.167   9.009   8.520  1.00  0.00    -0.550 OA
ENDBRANCH  14  15
ENDBRANCH  13  14
ENDBRANCH  12  13
ENDBRANCH  11  12
ENDBRANCH  10  11
ENDBRANCH   9  10
ENDBRANCH   8   9
ENDBRANCH   7   8
ENDBRANCH   6   7
ENDBRANCH   5   6
ENDBRANCH   4   5
ENDBRANCH   3   4
ENDBRANCH   2   3
ENDBRANCH   1   2
BRANCH   1  18
ATOM     18  C   UNL     1      31.731  -1.395  -2.997  1.00  0.00     0.000 C 
BRANCH  18  19
ATOM     19  C   UNL     1      32.108  -0.416  -4.114  1.00  0.00     0.000 C 
BRANCH  19  20
ATOM     20  C   UNL     1      33.381   0.368  -3.757  1.00  0.00     0.000 C 
BRANCH  20  21
ATOM     21  C   UNL     1      33.254   1.867  -4.100  1.00  0.00     0.000 C 
BRANCH  21  22
ATOM     22  C   UNL     1      31.900   2.482  -3.701  1.00  0.00     0.000 C 
BRANCH  22  23
ATOM     23  C   UNL     1      31.922   4.019  -3.692  1.00  0.00     0.000 C 
BRANCH  23  24
ATOM     24  C   UNL     1      33.346   4.604  -3.731  1.00  0.00    -0.000 C 
BRANCH  24  25
ATOM     25  C   UNL     1      33.421   6.143  -3.694  1.00  0.00    -0.000 C 
BRANCH  25  26
ATOM     26  C   UNL     1      32.106   6.817  -4.125  1.00  0.00    -0.000 C 
BRANCH  26  27
ATOM     27  C   UNL     1      31.641   7.901  -3.137  1.00  0.00    -0.000 C 
BRANCH  27  28
ATOM     28  C   UNL     1      30.135   8.231  -3.194  1.00  0.00    -0.000 C 
BRANCH  28  29
ATOM     29  C   UNL     1      29.797   9.711  -3.447  1.00  0.00    -0.000 C 
BRANCH  29  30
ATOM     30  C   UNL     1      28.316   9.939  -3.786  1.00  0.00    -0.000 C 
BRANCH  30  31
ATOM     31  C   UNL     1      27.410   9.328  -2.711  1.00  0.00    -0.003 C 
ATOM     32  C   UNL     1      28.038   9.447  -1.327  1.00  0.00     0.004 C 
ENDBRANCH  30  31
ENDBRANCH  29  30
ENDBRANCH  28  29
ENDBRANCH  27  28
ENDBRANCH  26  27
ENDBRANCH  25  26
ENDBRANCH  24  25
ENDBRANCH  23  24
ENDBRANCH  22  23
ENDBRANCH  21  22
ENDBRANCH  20  21
ENDBRANCH  19  20
ENDBRANCH  18  19
ENDBRANCH   1  18
TORSDOF 28
ENDMDL
MODEL 5
REMARK VINA RESULT:     4.131      2.472      4.020
REMARK INTER + INTRA:           9.334
REMARK INTER:                  10.239
REMARK INTRA:                  -0.905
REMARK UNBOUND:                -1.559
REMARK SMILES CCCCCCCCCCCCCCCCCCCCCCCCCCCCCC(=O)[O-]
REMARK SMILES IDX 16 1 17 2 18 3 19 4 20 5 21 6 22 7 23 8 24 9 25 10 26 11
REMARK SMILES IDX 27 12 28 13 29 14 30 15 31 16 32 17 15 18 14 19 13 20 12 21
REMARK SMILES IDX 11 22 10 23 9 24 8 25 7 26 6 27 5 28 4 29 3 30 2 31 1 32
REMARK H PARENT
REMARK Flexibility Score: inf
ROOT
ATOM      1  C   UNL     1      30.859   1.979  -1.477  1.00  0.00     0.000 C 
ENDROOT
BRANCH   1   2
ATOM      2  C   UNL     1      30.582   0.669  -2.244  1.00  0.00     0.000 C 
BRANCH   2   3
ATOM      3  C   UNL     1      31.840  -0.186  -2.490  1.00  0.00     0.000 C 
BRANCH   3   4
ATOM      4  C   UNL     1      32.390  -0.137  -3.926  1.00  0.00     0.000 C 
BRANCH   4   5
ATOM      5  C   UNL     1      33.927  -0.203  -3.977  1.00  0.00     0.000 C 
BRANCH   5   6
ATOM      6  C   UNL     1      34.461  -1.645  -4.049  1.00  0.00     0.000 C 
BRANCH   6   7
ATOM      7  C   UNL     1      35.154  -2.150  -2.770  1.00  0.00     0.000 C 
BRANCH   7   8
ATOM      8  C   UNL     1      36.602  -2.600  -3.009  1.00  0.00     0.000 C 
BRANCH   8   9
ATOM      9  C   UNL     1      36.675  -3.653  -4.125  1.00  0.00     0.000 C 
BRANCH   9  10
ATOM     10  C   UNL     1      37.125  -5.029  -3.606  1.00  0.00     0.000 C 
BRANCH  10  11
ATOM     11  C   UNL     1      35.953  -6.013  -3.456  1.00  0.00     0.000 C 
BRANCH  11  12
ATOM     12  C   UNL     1      36.399  -7.484  -3.504  1.00  0.00     0.000 C 
BRANCH  12  13
ATOM     13  C   UNL     1      35.487  -8.431  -2.695  1.00  0.00     0.006 C 
BRANCH  13  14
ATOM     14  C   UNL     1      36.280  -9.537  -1.986  1.00  0.00     0.053 C 
BRANCH  14  15
ATOM     15  C   UNL     1      36.576  -9.146  -0.574  1.00  0.00     0.041 C 
ATOM     16  O   UNL     1      36.503 -10.000   0.349  1.00  0.00    -0.550 OA
ATOM     17  O   UNL     1      36.986  -7.850  -0.282  1.00  0.00    -0.550 OA
ENDBRANCH  14  15
ENDBRANCH  13  14
ENDBRANCH  12  13
ENDBRANCH  11  12
ENDBRANCH  10  11
ENDBRANCH   9  10
ENDBRANCH   8   9
ENDBRANCH   7   8
ENDBRANCH   6   7
ENDBRANCH   5   6
ENDBRANCH   4   5
ENDBRANCH   3   4
ENDBRANCH   2   3
ENDBRANCH   1   2
BRANCH   1  18
ATOM     18  C   UNL     1      31.262   1.726  -0.016  1.00  0.00     0.000 C 
BRANCH  18  19
ATOM     19  C   UNL     1      30.654   0.419   0.503  1.00  0.00     0.000 C 
BRANCH  19  20
ATOM     20  C   UNL     1      29.266   0.658   1.117  1.00  0.00     0.000 C 
BRANCH  20  21
ATOM     21  C   UNL     1      29.278   1.804   2.150  1.00  0.00     0.000 C 
BRANCH  21  22
ATOM     22  C   UNL     1      30.637   1.996   2.847  1.00  0.00     0.000 C 
BRANCH  22  23
ATOM     23  C   UNL     1      30.772   3.370   3.524  1.00  0.00     0.000 C 
BRANCH  23  24
ATOM     24  C   UNL     1      30.031   4.491   2.772  1.00  0.00    -0.000 C 
BRANCH  24  25
ATOM     25  C   UNL     1      30.933   5.608   2.213  1.00  0.00    -0.000 C 
BRANCH  25  26
ATOM     26  C   UNL     1      31.648   6.409   3.315  1.00  0.00    -0.000 C 
BRANCH  26  27
ATOM     27  C   UNL     1      30.713   6.790   4.476  1.00  0.00    -0.000 C 
BRANCH  27  28
ATOM     28  C   UNL     1      31.043   6.118   5.825  1.00  0.00    -0.000 C 
BRANCH  28  29
ATOM     29  C   UNL     1      29.840   5.896   6.759  1.00  0.00    -0.000 C 
BRANCH  29  30
ATOM     30  C   UNL     1      29.274   7.206   7.329  1.00  0.00    -0.000 C 
BRANCH  30  31
ATOM     31  C   UNL     1      30.383   8.250   7.503  1.00  0.00    -0.003 C 
ATOM     32  C   UNL     1      30.101   9.498   6.671  1.00  0.00     0.004 C 
ENDBRANCH  30  31
ENDBRANCH  29  30
ENDBRANCH  28  29
ENDBRANCH  27  28
ENDBRANCH  26  27
ENDBRANCH  25  26
ENDBRANCH  24  25
ENDBRANCH  23  24
ENDBRANCH  22  23
ENDBRANCH  21  22
ENDBRANCH  20  21
ENDBRANCH  19  20
ENDBRANCH  18  19
ENDBRANCH   1  18
TORSDOF 28
ENDMDL
MODEL 6
REMARK VINA RESULT:     4.460      1.130      2.771
REMARK INTER + INTRA:          10.202
REMARK INTER:                  11.237
REMARK INTRA:                  -1.035
REMARK UNBOUND:                -1.559
REMARK SMILES CCCCCCCCCCCCCCCCCCCCCCCCCCCCCC(=O)[O-]
REMARK SMILES IDX 16 1 17 2 18 3 19 4 20 5 21 6 22 7 23 8 24 9 25 10 26 11
REMARK SMILES IDX 27 12 28 13 29 14 30 15 31 16 32 17 15 18 14 19 13 20 12 21
REMARK SMILES IDX 11 22 10 23 9 24 8 25 7 26 6 27 5 28 4 29 3 30 2 31 1 32
REMARK H PARENT
REMARK Flexibility Score: inf
ROOT
ATOM      1  C   UNL     1      29.615   1.005   1.953  1.00  0.00     0.000 C 
ENDROOT
BRANCH   1   2
ATOM      2  C   UNL     1      30.715   0.478   1.007  1.00  0.00     0.000 C 
BRANCH   2   3
ATOM      3  C   UNL     1      30.455   0.782  -0.481  1.00  0.00     0.000 C 
BRANCH   3   4
ATOM      4  C   UNL     1      30.935  -0.302  -1.461  1.00  0.00     0.000 C 
BRANCH   4   5
ATOM      5  C   UNL     1      31.893   0.248  -2.533  1.00  0.00     0.000 C 
BRANCH   5   6
ATOM      6  C   UNL     1      33.218  -0.532  -2.606  1.00  0.00     0.000 C 
BRANCH   6   7
ATOM      7  C   UNL     1      33.808  -0.685  -4.020  1.00  0.00     0.000 C 
BRANCH   7   8
ATOM      8  C   UNL     1      35.255  -0.181  -4.125  1.00  0.00     0.000 C 
BRANCH   8   9
ATOM      9  C   UNL     1      36.255  -1.311  -3.836  1.00  0.00     0.000 C 
BRANCH   9  10
ATOM     10  C   UNL     1      35.580  -2.692  -3.782  1.00  0.00     0.000 C 
BRANCH  10  11
ATOM     11  C   UNL     1      36.333  -3.678  -2.874  1.00  0.00     0.000 C 
BRANCH  11  12
ATOM     12  C   UNL     1      36.849  -4.913  -3.633  1.00  0.00     0.000 C 
BRANCH  12  13
ATOM     13  C   UNL     1      36.756  -6.220  -2.816  1.00  0.00     0.006 C 
BRANCH  13  14
ATOM     14  C   UNL     1      35.604  -7.118  -3.287  1.00  0.00     0.053 C 
BRANCH  14  15
ATOM     15  C   UNL     1      35.723  -8.480  -2.681  1.00  0.00     0.041 C 
ATOM     16  O   UNL     1      34.803  -8.930  -1.949  1.00  0.00    -0.550 OA
ATOM     17  O   UNL     1      36.826  -9.276  -2.968  1.00  0.00    -0.550 OA
ENDBRANCH  14  15
ENDBRANCH  13  14
ENDBRANCH  12  13
ENDBRANCH  11  12
ENDBRANCH  10  11
ENDBRANCH   9  10
ENDBRANCH   8   9
ENDBRANCH   7   8
ENDBRANCH   6   7
ENDBRANCH   5   6
ENDBRANCH   4   5
ENDBRANCH   3   4
ENDBRANCH   2   3
ENDBRANCH   1   2
BRANCH   1  18
ATOM     18  C   UNL     1      29.656   2.534   2.100  1.00  0.00     0.000 C 
BRANCH  18  19
ATOM     19  C   UNL     1      30.530   2.948   3.289  1.00  0.00     0.000 C 
BRANCH  19  20
ATOM     20  C   UNL     1      31.456   4.116   2.915  1.00  0.00     0.000 C 
BRANCH  20  21
ATOM     21  C   UNL     1      30.778   5.486   3.129  1.00  0.00     0.000 C 
BRANCH  21  22
ATOM     22  C   UNL     1      31.017   6.482   1.981  1.00  0.00     0.000 C 
BRANCH  22  23
ATOM     23  C   UNL     1      30.682   5.894   0.600  1.00  0.00     0.000 C 
BRANCH  23  24
ATOM     24  C   UNL     1      31.162   6.777  -0.566  1.00  0.00    -0.000 C 
BRANCH  24  25
ATOM     25  C   UNL     1      30.262   6.752  -1.817  1.00  0.00    -0.000 C 
BRANCH  25  26
ATOM     26  C   UNL     1      31.049   6.937  -3.126  1.00  0.00    -0.000 C 
BRANCH  26  27
ATOM     27  C   UNL     1      31.597   8.365  -3.295  1.00  0.00    -0.000 C 
BRANCH  27  28
ATOM     28  C   UNL     1      30.562   9.408  -3.765  1.00  0.00    -0.000 C 
BRANCH  28  29
ATOM     29  C   UNL     1      29.090   8.985  -3.615  1.00  0.00    -0.000 C 
BRANCH  29  30
ATOM     30  C   UNL     1      28.257   9.990  -2.806  1.00  0.00    -0.000 C 
BRANCH  30  31
ATOM     31  C   UNL     1      26.773   9.896  -3.180  1.00  0.00    -0.003 C 
ATOM     32  C   UNL     1      25.882  10.121  -1.963  1.00  0.00     0.004 C 
ENDBRANCH  30  31
ENDBRANCH  29  30
ENDBRANCH  28  29
ENDBRANCH  27  28
ENDBRANCH  26  27
ENDBRANCH  25  26
ENDBRANCH  24  25
ENDBRANCH  23  24
ENDBRANCH  22  23
ENDBRANCH  21  22
ENDBRANCH  20  21
ENDBRANCH  19  20
ENDBRANCH  18  19
ENDBRANCH   1  18
TORSDOF 28
ENDMDL
