MODEL 1
REMARK VINA RESULT:    -4.930      0.000      0.000
REMARK INTER + INTRA:          -5.123
REMARK INTER:                  -5.362
REMARK INTRA:                   0.239
REMARK UNBOUND:                 0.239
REMARK SMILES C[C@H]1[C@H](C)CC[C@]2(C(=O)[O-])CC[C@@]3(C)C(=CC[C@H]4[C@@]5(C)CC[C@H](O)C(C)(C)[C@H]5CC[C@@]43C)[C@H]12
REMARK SMILES IDX 7 1 6 2 11 3 33 4 5 5 12 6 15 7 2 8 3 9 13 10 16 11 1 12
REMARK SMILES IDX 4 13 14 14 31 15 17 16 18 17 30 18 32 19 19 20 29 21 28 22
REMARK SMILES IDX 21 23 20 24 25 25 22 26 23 27 26 28 27 29 8 30 9 31 10 32
REMARK SMILES IDX 24 33
REMARK H PARENT 24 34
REMARK Flexibility Score: inf
ROOT
ATOM      1  C   UNL     1     -46.424  12.409 -28.145  1.00  0.00     0.017 C 
ATOM      2  C   UNL     1     -44.901  12.052 -28.061  1.00  0.00     0.014 C 
ATOM      3  C   UNL     1     -46.712  13.634 -27.237  1.00  0.00     0.014 C 
ATOM      4  C   UNL     1     -47.304  11.151 -27.738  1.00  0.00     0.030 C 
ATOM      5  C   UNL     1     -44.524  10.849 -28.923  1.00  0.00     0.004 C 
ATOM      6  C   UNL     1     -46.583  13.328 -25.752  1.00  0.00     0.013 C 
ATOM      7  C   UNL     1     -47.443  10.968 -26.188  1.00  0.00    -0.063 C 
ATOM      8  C   UNL     1     -46.835   9.840 -28.523  1.00  0.00    -0.003 C 
ATOM      9  C   UNL     1     -45.302   9.590 -28.509  1.00  0.00    -0.011 C 
ATOM     10  C   UNL     1     -47.557  12.215 -25.260  1.00  0.00    -0.006 C 
ATOM     11  C   UNL     1     -47.883   9.781 -25.678  1.00  0.00    -0.027 C 
ATOM     12  C   UNL     1     -47.395   9.780 -29.959  1.00  0.00     0.008 C 
ATOM     13  C   UNL     1     -44.808   9.017 -27.173  1.00  0.00     0.008 C 
ATOM     14  C   UNL     1     -49.007  12.787 -25.437  1.00  0.00     0.017 C 
ATOM     15  C   UNL     1     -47.246  11.839 -23.716  1.00  0.00    -0.020 C 
ATOM     16  C   UNL     1     -47.797   9.417 -24.219  1.00  0.00     0.032 C 
ATOM     17  C   UNL     1     -48.127  10.601 -23.297  1.00  0.00     0.006 C 
ATOM     18  C   UNL     1     -47.603  13.004 -22.761  1.00  0.00     0.008 C 
ATOM     19  C   UNL     1     -45.716  11.536 -23.566  1.00  0.00     0.012 C 
ATOM     20  C   UNL     1     -48.267  10.215 -21.742  1.00  0.00    -0.025 C 
ATOM     21  C   UNL     1     -47.346  12.643 -21.301  1.00  0.00     0.005 C 
ATOM     22  C   UNL     1     -48.266  11.504 -20.783  1.00  0.00     0.003 C 
ATOM     23  C   UNL     1     -47.186   9.159 -21.325  1.00  0.00     0.010 C 
ATOM     24  C   UNL     1     -49.663   9.513 -21.611  1.00  0.00     0.012 C 
ATOM     25  C   UNL     1     -48.030  11.212 -19.220  1.00  0.00    -0.006 C 
ATOM     26  C   UNL     1     -47.118   8.875 -19.830  1.00  0.00     0.033 C 
ATOM     27  C   UNL     1     -46.886  10.164 -19.028  1.00  0.00     0.120 C 
ATOM     28  C   UNL     1     -47.610  12.501 -18.446  1.00  0.00     0.014 C 
ATOM     29  C   UNL     1     -49.351  10.742 -18.530  1.00  0.00     0.014 C 
ENDROOT
BRANCH   1  30
ATOM     30  C   UNL     1     -46.765  12.906 -29.549  1.00  0.00     0.048 C 
ATOM     31  O   UNL     1     -46.015  13.746 -30.123  1.00  0.00    -0.550 OA
ATOM     32  O   UNL     1     -48.001  12.625 -30.124  1.00  0.00    -0.550 OA
ENDBRANCH   1  30
BRANCH  27  33
ATOM     33  O   UNL     1     -46.657   9.876 -17.665  1.00  0.00    -0.393 OA
ATOM     34  H   UNL     1     -45.870   9.259 -17.614  1.00  0.00     0.210 HD
ENDBRANCH  27  33
TORSDOF 2
ENDMDL
MODEL 2
REMARK VINA RESULT:    -3.595      2.622      7.883
REMARK INTER + INTRA:          -3.671
REMARK INTER:                  -3.897
REMARK INTRA:                   0.225
REMARK UNBOUND:                 0.239
REMARK SMILES C[C@H]1[C@H](C)CC[C@]2(C(=O)[O-])CC[C@@]3(C)C(=CC[C@H]4[C@@]5(C)CC[C@H](O)C(C)(C)[C@H]5CC[C@@]43C)[C@H]12
REMARK SMILES IDX 7 1 6 2 11 3 33 4 5 5 12 6 15 7 2 8 3 9 13 10 16 11 1 12
REMARK SMILES IDX 4 13 14 14 31 15 17 16 18 17 30 18 32 19 19 20 29 21 28 22
REMARK SMILES IDX 21 23 20 24 25 25 22 26 23 27 26 28 27 29 8 30 9 31 10 32
REMARK SMILES IDX 24 33
REMARK H PARENT 24 34
REMARK Flexibility Score: inf
ROOT
ATOM      1  C   UNL     1     -50.624   9.974 -22.667  1.00  0.00     0.017 C 
ATOM      2  C   UNL     1     -49.935   8.875 -21.787  1.00  0.00     0.014 C 
ATOM      3  C   UNL     1     -50.917   9.390 -24.075  1.00  0.00     0.014 C 
ATOM      4  C   UNL     1     -49.706  11.267 -22.742  1.00  0.00     0.030 C 
ATOM      5  C   UNL     1     -49.603   9.363 -20.380  1.00  0.00     0.004 C 
ATOM      6  C   UNL     1     -49.662   9.130 -24.894  1.00  0.00     0.013 C 
ATOM      7  C   UNL     1     -48.558  11.152 -23.803  1.00  0.00    -0.063 C 
ATOM      8  C   UNL     1     -49.223  11.719 -21.287  1.00  0.00    -0.003 C 
ATOM      9  C   UNL     1     -48.654  10.572 -20.409  1.00  0.00    -0.011 C 
ATOM     10  C   UNL     1     -48.809  10.409 -25.150  1.00  0.00    -0.006 C 
ATOM     11  C   UNL     1     -47.508  12.023 -23.769  1.00  0.00    -0.027 C 
ATOM     12  C   UNL     1     -50.305  12.517 -20.528  1.00  0.00     0.008 C 
ATOM     13  C   UNL     1     -47.224  10.177 -20.805  1.00  0.00     0.008 C 
ATOM     14  C   UNL     1     -49.690  11.356 -26.038  1.00  0.00     0.017 C 
ATOM     15  C   UNL     1     -47.419  10.020 -25.884  1.00  0.00    -0.020 C 
ATOM     16  C   UNL     1     -46.241  11.834 -24.561  1.00  0.00     0.032 C 
ATOM     17  C   UNL     1     -46.508  11.303 -25.978  1.00  0.00     0.006 C 
ATOM     18  C   UNL     1     -47.656   9.516 -27.328  1.00  0.00     0.008 C 
ATOM     19  C   UNL     1     -46.721   8.875 -25.075  1.00  0.00     0.012 C 
ATOM     20  C   UNL     1     -45.217  11.292 -26.938  1.00  0.00    -0.025 C 
ATOM     21  C   UNL     1     -46.348   9.183 -28.038  1.00  0.00     0.005 C 
ATOM     22  C   UNL     1     -45.447  10.426 -28.272  1.00  0.00     0.003 C 
ATOM     23  C   UNL     1     -43.934  10.851 -26.152  1.00  0.00     0.010 C 
ATOM     24  C   UNL     1     -45.000  12.786 -27.362  1.00  0.00     0.012 C 
ATOM     25  C   UNL     1     -44.120  10.051 -29.099  1.00  0.00    -0.006 C 
ATOM     26  C   UNL     1     -42.703  10.628 -27.019  1.00  0.00     0.033 C 
ATOM     27  C   UNL     1     -42.981   9.601 -28.128  1.00  0.00     0.120 C 
ATOM     28  C   UNL     1     -44.369   8.876 -30.095  1.00  0.00     0.014 C 
ATOM     29  C   UNL     1     -43.662  11.247 -29.996  1.00  0.00     0.014 C 
ENDROOT
BRANCH   1  30
ATOM     30  C   UNL     1     -52.008  10.295 -22.108  1.00  0.00     0.048 C 
ATOM     31  O   UNL     1     -52.781   9.360 -21.755  1.00  0.00    -0.550 OA
ATOM     32  O   UNL     1     -52.527  11.585 -22.185  1.00  0.00    -0.550 OA
ENDBRANCH   1  30
BRANCH  27  33
ATOM     33  O   UNL     1     -41.795   9.274 -28.821  1.00  0.00    -0.393 OA
ATOM     34  H   UNL     1     -41.274  10.119 -28.947  1.00  0.00     0.210 HD
ENDBRANCH  27  33
TORSDOF 2
ENDMDL
MODEL 3
REMARK VINA RESULT:    -3.558      1.639      3.171
REMARK INTER + INTRA:          -3.632
REMARK INTER:                  -3.663
REMARK INTRA:                   0.031
REMARK UNBOUND:                 0.239
REMARK SMILES C[C@H]1[C@H](C)CC[C@]2(C(=O)[O-])CC[C@@]3(C)C(=CC[C@H]4[C@@]5(C)CC[C@H](O)C(C)(C)[C@H]5CC[C@@]43C)[C@H]12
REMARK SMILES IDX 7 1 6 2 11 3 33 4 5 5 12 6 15 7 2 8 3 9 13 10 16 11 1 12
REMARK SMILES IDX 4 13 14 14 31 15 17 16 18 17 30 18 32 19 19 20 29 21 28 22
REMARK SMILES IDX 21 23 20 24 25 25 22 26 23 27 26 28 27 29 8 30 9 31 10 32
REMARK SMILES IDX 24 33
REMARK H PARENT 24 34
REMARK Flexibility Score: inf
ROOT
ATOM      1  C   UNL     1     -45.522   9.968 -28.104  1.00  0.00     0.017 C 
ATOM      2  C   UNL     1     -46.574   8.879 -28.508  1.00  0.00     0.014 C 
ATOM      3  C   UNL     1     -44.556   9.375 -27.044  1.00  0.00     0.014 C 
ATOM      4  C   UNL     1     -46.261  11.268 -27.569  1.00  0.00     0.030 C 
ATOM      5  C   UNL     1     -47.575   9.376 -29.547  1.00  0.00     0.004 C 
ATOM      6  C   UNL     1     -45.218   9.120 -25.699  1.00  0.00     0.013 C 
ATOM      7  C   UNL     1     -46.706  11.156 -26.071  1.00  0.00    -0.063 C 
ATOM      8  C   UNL     1     -47.416  11.730 -28.573  1.00  0.00    -0.003 C 
ATOM      9  C   UNL     1     -48.365  10.592 -29.037  1.00  0.00    -0.011 C 
ATOM     10  C   UNL     1     -45.808  10.404 -25.042  1.00  0.00    -0.006 C 
ATOM     11  C   UNL     1     -47.618  12.034 -25.562  1.00  0.00    -0.027 C 
ATOM     12  C   UNL     1     -46.868  12.524 -29.777  1.00  0.00     0.008 C 
ATOM     13  C   UNL     1     -49.394  10.205 -27.965  1.00  0.00     0.008 C 
ATOM     14  C   UNL     1     -44.589  11.340 -24.729  1.00  0.00     0.017 C 
ATOM     15  C   UNL     1     -46.630  10.022 -23.700  1.00  0.00    -0.020 C 
ATOM     16  C   UNL     1     -48.304  11.851 -24.234  1.00  0.00     0.032 C 
ATOM     17  C   UNL     1     -47.354  11.311 -23.153  1.00  0.00     0.006 C 
ATOM     18  C   UNL     1     -45.692   9.509 -22.582  1.00  0.00     0.008 C 
ATOM     19  C   UNL     1     -47.654   8.886 -24.039  1.00  0.00     0.012 C 
ATOM     20  C   UNL     1     -47.972  11.305 -21.667  1.00  0.00    -0.025 C 
ATOM     21  C   UNL     1     -46.456   9.182 -21.302  1.00  0.00     0.005 C 
ATOM     22  C   UNL     1     -47.100  10.430 -20.639  1.00  0.00     0.003 C 
ATOM     23  C   UNL     1     -49.480  10.878 -21.687  1.00  0.00     0.010 C 
ATOM     24  C   UNL     1     -47.928  12.798 -21.192  1.00  0.00     0.012 C 
ATOM     25  C   UNL     1     -47.820  10.062 -19.250  1.00  0.00    -0.006 C 
ATOM     26  C   UNL     1     -50.096  10.659 -20.312  1.00  0.00     0.033 C 
ATOM     27  C   UNL     1     -49.300   9.625 -19.502  1.00  0.00     0.120 C 
ATOM     28  C   UNL     1     -47.107   8.879 -18.523  1.00  0.00     0.014 C 
ATOM     29  C   UNL     1     -47.744  11.257 -18.245  1.00  0.00     0.014 C 
ENDROOT
BRANCH   1  30
ATOM     30  C   UNL     1     -44.616  10.281 -29.292  1.00  0.00     0.048 C 
ATOM     31  O   UNL     1     -44.328   9.376 -30.125  1.00  0.00    -0.550 OA
ATOM     32  O   UNL     1     -43.919  11.484 -29.359  1.00  0.00    -0.550 OA
ENDBRANCH   1  30
BRANCH  27  33
ATOM     33  O   UNL     1     -49.967   9.303 -18.300  1.00  0.00    -0.393 OA
ATOM     34  H   UNL     1     -50.167  10.161 -17.825  1.00  0.00     0.210 HD
ENDBRANCH  27  33
TORSDOF 2
ENDMDL
MODEL 4
REMARK VINA RESULT:    -2.837      1.834      8.122
REMARK INTER + INTRA:          -2.847
REMARK INTER:                  -3.232
REMARK INTRA:                   0.385
REMARK UNBOUND:                 0.239
REMARK SMILES C[C@H]1[C@H](C)CC[C@]2(C(=O)[O-])CC[C@@]3(C)C(=CC[C@H]4[C@@]5(C)CC[C@H](O)C(C)(C)[C@H]5CC[C@@]43C)[C@H]12
REMARK SMILES IDX 7 1 6 2 11 3 33 4 5 5 12 6 15 7 2 8 3 9 13 10 16 11 1 12
REMARK SMILES IDX 4 13 14 14 31 15 17 16 18 17 30 18 32 19 19 20 29 21 28 22
REMARK SMILES IDX 21 23 20 24 25 25 22 26 23 27 26 28 27 29 8 30 9 31 10 32
REMARK SMILES IDX 24 33
REMARK H PARENT 24 34
REMARK Flexibility Score: inf
ROOT
ATOM      1  C   UNL     1     -49.649  10.832 -20.594  1.00  0.00     0.017 C 
ATOM      2  C   UNL     1     -49.301   9.340 -20.268  1.00  0.00     0.014 C 
ATOM      3  C   UNL     1     -50.654  10.876 -21.775  1.00  0.00     0.014 C 
ATOM      4  C   UNL     1     -48.322  11.644 -20.916  1.00  0.00     0.030 C 
ATOM      5  C   UNL     1     -48.309   9.198 -19.117  1.00  0.00     0.004 C 
ATOM      6  C   UNL     1     -50.048  10.439 -23.100  1.00  0.00     0.013 C 
ATOM      7  C   UNL     1     -47.819  11.450 -22.388  1.00  0.00    -0.063 C 
ATOM      8  C   UNL     1     -47.208  11.400 -19.796  1.00  0.00    -0.003 C 
ATOM      9  C   UNL     1     -46.981   9.910 -19.423  1.00  0.00    -0.011 C 
ATOM     10  C   UNL     1     -48.845  11.319 -23.554  1.00  0.00    -0.006 C 
ATOM     11  C   UNL     1     -46.547  11.808 -22.727  1.00  0.00    -0.027 C 
ATOM     12  C   UNL     1     -47.441  12.259 -18.536  1.00  0.00     0.008 C 
ATOM     13  C   UNL     1     -46.149   9.157 -20.472  1.00  0.00     0.008 C 
ATOM     14  C   UNL     1     -49.422  12.754 -23.819  1.00  0.00     0.017 C 
ATOM     15  C   UNL     1     -48.161  10.694 -24.882  1.00  0.00    -0.020 C 
ATOM     16  C   UNL     1     -45.888  11.422 -24.025  1.00  0.00     0.032 C 
ATOM     17  C   UNL     1     -46.851  11.505 -25.220  1.00  0.00     0.006 C 
ATOM     18  C   UNL     1     -49.097  10.798 -26.110  1.00  0.00     0.008 C 
ATOM     19  C   UNL     1     -47.852   9.180 -24.628  1.00  0.00     0.012 C 
ATOM     20  C   UNL     1     -46.148  11.317 -26.655  1.00  0.00    -0.025 C 
ATOM     21  C   UNL     1     -48.444  10.243 -27.373  1.00  0.00     0.005 C 
ATOM     22  C   UNL     1     -47.210  11.067 -27.834  1.00  0.00     0.003 C 
ATOM     23  C   UNL     1     -45.043  10.207 -26.599  1.00  0.00     0.010 C 
ATOM     24  C   UNL     1     -45.417  12.674 -26.940  1.00  0.00     0.012 C 
ATOM     25  C   UNL     1     -46.604  10.507 -29.213  1.00  0.00    -0.006 C 
ATOM     26  C   UNL     1     -44.456   9.827 -27.952  1.00  0.00     0.033 C 
ATOM     27  C   UNL     1     -45.553   9.384 -28.932  1.00  0.00     0.120 C 
ATOM     28  C   UNL     1     -47.708   9.887 -30.125  1.00  0.00     0.014 C 
ATOM     29  C   UNL     1     -45.983  11.663 -30.064  1.00  0.00     0.014 C 
ENDROOT
BRANCH   1  30
ATOM     30  C   UNL     1     -50.421  11.452 -19.432  1.00  0.00     0.048 C 
ATOM     31  O   UNL     1     -50.991  12.571 -19.574  1.00  0.00    -0.550 OA
ATOM     32  O   UNL     1     -50.328  10.919 -18.149  1.00  0.00    -0.550 OA
ENDBRANCH   1  30
BRANCH  27  33
ATOM     33  O   UNL     1     -44.991   8.875 -30.123  1.00  0.00    -0.393 OA
ATOM     34  H   UNL     1     -44.837   7.895 -29.990  1.00  0.00     0.210 HD
ENDBRANCH  27  33
TORSDOF 2
ENDMDL
MODEL 5
REMARK VINA RESULT:    -2.567      2.869      5.134
REMARK INTER + INTRA:          -2.554
REMARK INTER:                  -2.754
REMARK INTRA:                   0.200
REMARK UNBOUND:                 0.239
REMARK SMILES C[C@H]1[C@H](C)CC[C@]2(C(=O)[O-])CC[C@@]3(C)C(=CC[C@H]4[C@@]5(C)CC[C@H](O)C(C)(C)[C@H]5CC[C@@]43C)[C@H]12
REMARK SMILES IDX 7 1 6 2 11 3 33 4 5 5 12 6 15 7 2 8 3 9 13 10 16 11 1 12
REMARK SMILES IDX 4 13 14 14 31 15 17 16 18 17 30 18 32 19 19 20 29 21 28 22
REMARK SMILES IDX 21 23 20 24 25 25 22 26 23 27 26 28 27 29 8 30 9 31 10 32
REMARK SMILES IDX 24 33
REMARK H PARENT 24 34
REMARK Flexibility Score: inf
ROOT
ATOM      1  C   UNL     1     -50.667  11.363 -24.228  1.00  0.00     0.017 C 
ATOM      2  C   UNL     1     -50.537  12.925 -24.229  1.00  0.00     0.014 C 
ATOM      3  C   UNL     1     -51.707  10.939 -23.158  1.00  0.00     0.014 C 
ATOM      4  C   UNL     1     -49.248  10.699 -23.969  1.00  0.00     0.030 C 
ATOM      5  C   UNL     1     -49.526  13.437 -25.251  1.00  0.00     0.004 C 
ATOM      6  C   UNL     1     -51.239  11.177 -21.731  1.00  0.00     0.013 C 
ATOM      7  C   UNL     1     -48.850  10.658 -22.453  1.00  0.00    -0.063 C 
ATOM      8  C   UNL     1     -48.133  11.321 -24.931  1.00  0.00    -0.003 C 
ATOM      9  C   UNL     1     -48.121  12.872 -24.989  1.00  0.00    -0.011 C 
ATOM     10  C   UNL     1     -49.937  10.402 -21.366  1.00  0.00    -0.006 C 
ATOM     11  C   UNL     1     -47.555  10.421 -22.094  1.00  0.00    -0.027 C 
ATOM     12  C   UNL     1     -48.172  10.712 -26.349  1.00  0.00     0.008 C 
ATOM     13  C   UNL     1     -47.464  13.505 -23.753  1.00  0.00     0.008 C 
ATOM     14  C   UNL     1     -50.299   8.877 -21.430  1.00  0.00     0.017 C 
ATOM     15  C   UNL     1     -49.420  10.834 -19.893  1.00  0.00    -0.020 C 
ATOM     16  C   UNL     1     -47.025  10.624 -20.699  1.00  0.00     0.032 C 
ATOM     17  C   UNL     1     -48.019  10.165 -19.620  1.00  0.00     0.006 C 
ATOM     18  C   UNL     1     -50.385  10.351 -18.784  1.00  0.00     0.008 C 
ATOM     19  C   UNL     1     -49.337  12.396 -19.823  1.00  0.00     0.012 C 
ATOM     20  C   UNL     1     -47.421  10.153 -18.127  1.00  0.00    -0.025 C 
ATOM     21  C   UNL     1     -49.885  10.723 -17.392  1.00  0.00     0.005 C 
ATOM     22  C   UNL     1     -48.563  10.005 -17.006  1.00  0.00     0.003 C 
ATOM     23  C   UNL     1     -46.498  11.395 -17.880  1.00  0.00     0.010 C 
ATOM     24  C   UNL     1     -46.504   8.883 -18.055  1.00  0.00     0.012 C 
ATOM     25  C   UNL     1     -48.114  10.352 -15.502  1.00  0.00    -0.006 C 
ATOM     26  C   UNL     1     -46.040  11.571 -16.439  1.00  0.00     0.033 C 
ATOM     27  C   UNL     1     -47.237  11.646 -15.479  1.00  0.00     0.120 C 
ATOM     28  C   UNL     1     -49.343  10.611 -14.575  1.00  0.00     0.014 C 
ATOM     29  C   UNL     1     -47.364   9.147 -14.848  1.00  0.00     0.014 C 
ENDROOT
BRANCH   1  30
ATOM     30  C   UNL     1     -51.280  10.891 -25.544  1.00  0.00     0.048 C 
ATOM     31  O   UNL     1     -52.271  11.501 -26.036  1.00  0.00    -0.550 OA
ATOM     32  O   UNL     1     -50.914   9.670 -26.104  1.00  0.00    -0.550 OA
ENDBRANCH   1  30
BRANCH  27  33
ATOM     33  O   UNL     1     -46.816  11.976 -14.172  1.00  0.00    -0.393 OA
ATOM     34  H   UNL     1     -46.007  11.424 -13.966  1.00  0.00     0.210 HD
ENDBRANCH  27  33
TORSDOF 2
ENDMDL
