MODEL 1
REMARK VINA RESULT:    -2.730      0.000      0.000
REMARK INTER + INTRA:         -10.628
REMARK INTER:                  -7.200
REMARK INTRA:                  -3.429
REMARK UNBOUND:                -3.429
REMARK SMILES CCCCCCCCCCCCCCCCCCCCCCCCCCCCCC(=O)[O-]
REMARK SMILES IDX 16 1 17 2 18 3 19 4 20 5 21 6 22 7 23 8 24 9 25 10 26 11
REMARK SMILES IDX 27 12 28 13 29 14 30 15 31 16 32 17 15 18 14 19 13 20 12 21
REMARK SMILES IDX 11 22 10 23 9 24 8 25 7 26 6 27 5 28 4 29 3 30 2 31 1 32
REMARK H PARENT
REMARK Flexibility Score: inf
ROOT
ATOM      1  C   UNL     1      -0.558  25.158  48.883  1.00  0.00     0.000 C 
ENDROOT
BRANCH   1   2
ATOM      2  C   UNL     1       0.026  25.938  50.080  1.00  0.00     0.000 C 
BRANCH   2   3
ATOM      3  C   UNL     1       1.558  26.098  50.036  1.00  0.00     0.000 C 
BRANCH   3   4
ATOM      4  C   UNL     1       2.353  24.984  50.742  1.00  0.00     0.000 C 
BRANCH   4   5
ATOM      5  C   UNL     1       1.548  24.149  51.758  1.00  0.00     0.000 C 
BRANCH   5   6
ATOM      6  C   UNL     1       2.031  22.698  51.949  1.00  0.00     0.000 C 
BRANCH   6   7
ATOM      7  C   UNL     1       1.357  21.655  51.038  1.00  0.00     0.000 C 
BRANCH   7   8
ATOM      8  C   UNL     1      -0.057  22.071  50.598  1.00  0.00     0.000 C 
BRANCH   8   9
ATOM      9  C   UNL     1      -1.030  22.218  51.782  1.00  0.00     0.000 C 
BRANCH   9  10
ATOM     10  C   UNL     1      -1.080  21.016  52.744  1.00  0.00     0.000 C 
BRANCH  10  11
ATOM     11  C   UNL     1      -0.859  21.414  54.213  1.00  0.00     0.000 C 
BRANCH  11  12
ATOM     12  C   UNL     1      -1.550  20.439  55.192  1.00  0.00     0.000 C 
BRANCH  12  13
ATOM     13  C   UNL     1      -1.489  18.967  54.743  1.00  0.00     0.006 C 
BRANCH  13  14
ATOM     14  C   UNL     1      -0.512  18.101  55.553  1.00  0.00     0.053 C 
BRANCH  14  15
ATOM     15  C   UNL     1      -0.608  16.648  55.191  1.00  0.00     0.041 C 
ATOM     16  O   UNL     1       0.388  15.891  55.339  1.00  0.00    -0.550 OA
ATOM     17  O   UNL     1      -1.804  16.122  54.721  1.00  0.00    -0.550 OA
ENDBRANCH  14  15
ENDBRANCH  13  14
ENDBRANCH  12  13
ENDBRANCH  11  12
ENDBRANCH  10  11
ENDBRANCH   9  10
ENDBRANCH   8   9
ENDBRANCH   7   8
ENDBRANCH   6   7
ENDBRANCH   5   6
ENDBRANCH   4   5
ENDBRANCH   3   4
ENDBRANCH   2   3
ENDBRANCH   1   2
BRANCH   1  18
ATOM     18  C   UNL     1      -0.103  25.724  47.525  1.00  0.00     0.000 C 
BRANCH  18  19
ATOM     19  C   UNL     1      -1.235  25.750  46.484  1.00  0.00     0.000 C 
BRANCH  19  20
ATOM     20  C   UNL     1      -0.731  25.511  45.050  1.00  0.00     0.000 C 
BRANCH  20  21
ATOM     21  C   UNL     1      -1.680  24.616  44.236  1.00  0.00     0.000 C 
BRANCH  21  22
ATOM     22  C   UNL     1      -1.441  23.117  44.486  1.00  0.00     0.000 C 
BRANCH  22  23
ATOM     23  C   UNL     1      -2.339  22.552  45.597  1.00  0.00     0.000 C 
BRANCH  23  24
ATOM     24  C   UNL     1      -1.601  21.561  46.516  1.00  0.00    -0.000 C 
BRANCH  24  25
ATOM     25  C   UNL     1      -0.180  21.252  46.017  1.00  0.00    -0.000 C 
BRANCH  25  26
ATOM     26  C   UNL     1       0.385  19.951  46.613  1.00  0.00    -0.000 C 
BRANCH  26  27
ATOM     27  C   UNL     1      -0.099  19.699  48.048  1.00  0.00    -0.000 C 
BRANCH  27  28
ATOM     28  C   UNL     1       0.903  18.888  48.883  1.00  0.00    -0.000 C 
BRANCH  28  29
ATOM     29  C   UNL     1       2.337  19.113  48.385  1.00  0.00    -0.000 C 
BRANCH  29  30
ATOM     30  C   UNL     1       3.391  18.397  49.246  1.00  0.00    -0.000 C 
BRANCH  30  31
ATOM     31  C   UNL     1       3.954  19.270  50.388  1.00  0.00    -0.003 C 
ATOM     32  C   UNL     1       4.551  20.580  49.877  1.00  0.00     0.004 C 
ENDBRANCH  30  31
ENDBRANCH  29  30
ENDBRANCH  28  29
ENDBRANCH  27  28
ENDBRANCH  26  27
ENDBRANCH  25  26
ENDBRANCH  24  25
ENDBRANCH  23  24
ENDBRANCH  22  23
ENDBRANCH  21  22
ENDBRANCH  20  21
ENDBRANCH  19  20
ENDBRANCH  18  19
ENDBRANCH   1  18
TORSDOF 28
ENDMDL
MODEL 2
REMARK VINA RESULT:    -2.674      1.978      6.754
REMARK INTER + INTRA:         -10.479
REMARK INTER:                  -7.733
REMARK INTRA:                  -2.746
REMARK UNBOUND:                -3.429
REMARK SMILES CCCCCCCCCCCCCCCCCCCCCCCCCCCCCC(=O)[O-]
REMARK SMILES IDX 16 1 17 2 18 3 19 4 20 5 21 6 22 7 23 8 24 9 25 10 26 11
REMARK SMILES IDX 27 12 28 13 29 14 30 15 31 16 32 17 15 18 14 19 13 20 12 21
REMARK SMILES IDX 11 22 10 23 9 24 8 25 7 26 6 27 5 28 4 29 3 30 2 31 1 32
REMARK H PARENT
REMARK Flexibility Score: inf
ROOT
ATOM      1  C   UNL     1       0.112  25.132  48.643  1.00  0.00     0.000 C 
ENDROOT
BRANCH   1   2
ATOM      2  C   UNL     1      -1.282  25.773  48.475  1.00  0.00     0.000 C 
BRANCH   2   3
ATOM      3  C   UNL     1      -1.791  25.795  47.021  1.00  0.00     0.000 C 
BRANCH   3   4
ATOM      4  C   UNL     1      -0.696  25.691  45.943  1.00  0.00     0.000 C 
BRANCH   4   5
ATOM      5  C   UNL     1      -1.202  25.356  44.526  1.00  0.00     0.000 C 
BRANCH   5   6
ATOM      6  C   UNL     1      -1.427  23.857  44.242  1.00  0.00     0.000 C 
BRANCH   6   7
ATOM      7  C   UNL     1      -2.596  23.210  45.008  1.00  0.00     0.000 C 
BRANCH   7   8
ATOM      8  C   UNL     1      -2.182  21.936  45.764  1.00  0.00     0.000 C 
BRANCH   8   9
ATOM      9  C   UNL     1      -0.713  21.964  46.221  1.00  0.00     0.000 C 
BRANCH   9  10
ATOM     10  C   UNL     1       0.140  20.766  45.761  1.00  0.00     0.000 C 
BRANCH  10  11
ATOM     11  C   UNL     1      -0.034  19.527  46.654  1.00  0.00     0.000 C 
BRANCH  11  12
ATOM     12  C   UNL     1       0.307  19.818  48.132  1.00  0.00     0.000 C 
BRANCH  12  13
ATOM     13  C   UNL     1       1.441  18.937  48.687  1.00  0.00     0.006 C 
BRANCH  13  14
ATOM     14  C   UNL     1       2.852  19.490  48.433  1.00  0.00     0.053 C 
BRANCH  14  15
ATOM     15  C   UNL     1       3.767  19.271  49.603  1.00  0.00     0.041 C 
ATOM     16  O   UNL     1       4.672  20.106  49.864  1.00  0.00    -0.550 OA
ATOM     17  O   UNL     1       3.600  18.163  50.423  1.00  0.00    -0.550 OA
ENDBRANCH  14  15
ENDBRANCH  13  14
ENDBRANCH  12  13
ENDBRANCH  11  12
ENDBRANCH  10  11
ENDBRANCH   9  10
ENDBRANCH   8   9
ENDBRANCH   7   8
ENDBRANCH   6   7
ENDBRANCH   5   6
ENDBRANCH   4   5
ENDBRANCH   3   4
ENDBRANCH   2   3
ENDBRANCH   1   2
BRANCH   1  18
ATOM     18  C   UNL     1       1.148  26.107  49.231  1.00  0.00     0.000 C 
BRANCH  18  19
ATOM     19  C   UNL     1       1.881  25.528  50.453  1.00  0.00     0.000 C 
BRANCH  19  20
ATOM     20  C   UNL     1       1.100  24.386  51.128  1.00  0.00     0.000 C 
BRANCH  20  21
ATOM     21  C   UNL     1       2.003  23.487  51.989  1.00  0.00     0.000 C 
BRANCH  21  22
ATOM     22  C   UNL     1       1.702  21.991  51.800  1.00  0.00     0.000 C 
BRANCH  22  23
ATOM     23  C   UNL     1       0.493  21.740  50.884  1.00  0.00     0.000 C 
BRANCH  23  24
ATOM     24  C   UNL     1      -0.852  21.973  51.593  1.00  0.00    -0.000 C 
BRANCH  24  25
ATOM     25  C   UNL     1      -1.140  20.906  52.663  1.00  0.00    -0.000 C 
BRANCH  25  26
ATOM     26  C   UNL     1      -1.333  21.511  54.064  1.00  0.00    -0.000 C 
BRANCH  26  27
ATOM     27  C   UNL     1      -1.459  20.441  55.158  1.00  0.00    -0.000 C 
BRANCH  27  28
ATOM     28  C   UNL     1      -1.561  19.017  54.592  1.00  0.00    -0.000 C 
BRANCH  28  29
ATOM     29  C   UNL     1      -0.694  18.043  55.402  1.00  0.00    -0.000 C 
BRANCH  29  30
ATOM     30  C   UNL     1      -0.897  16.575  54.993  1.00  0.00    -0.000 C 
BRANCH  30  31
ATOM     31  C   UNL     1       0.295  15.663  55.352  1.00  0.00    -0.003 C 
ATOM     32  C   UNL     1       1.372  16.400  56.147  1.00  0.00     0.004 C 
ENDBRANCH  30  31
ENDBRANCH  29  30
ENDBRANCH  28  29
ENDBRANCH  27  28
ENDBRANCH  26  27
ENDBRANCH  25  26
ENDBRANCH  24  25
ENDBRANCH  23  24
ENDBRANCH  22  23
ENDBRANCH  21  22
ENDBRANCH  20  21
ENDBRANCH  19  20
ENDBRANCH  18  19
ENDBRANCH   1  18
TORSDOF 28
ENDMDL
MODEL 3
REMARK VINA RESULT:    -2.465      0.893      4.684
REMARK INTER + INTRA:          -9.928
REMARK INTER:                  -7.095
REMARK INTRA:                  -2.833
REMARK UNBOUND:                -3.429
REMARK SMILES CCCCCCCCCCCCCCCCCCCCCCCCCCCCCC(=O)[O-]
REMARK SMILES IDX 16 1 17 2 18 3 19 4 20 5 21 6 22 7 23 8 24 9 25 10 26 11
REMARK SMILES IDX 27 12 28 13 29 14 30 15 31 16 32 17 15 18 14 19 13 20 12 21
REMARK SMILES IDX 11 22 10 23 9 24 8 25 7 26 6 27 5 28 4 29 3 30 2 31 1 32
REMARK H PARENT
REMARK Flexibility Score: inf
ROOT
ATOM      1  C   UNL     1       1.505  18.746  48.586  1.00  0.00     0.000 C 
ENDROOT
BRANCH   1   2
ATOM      2  C   UNL     1       2.736  18.224  49.358  1.00  0.00     0.000 C 
BRANCH   2   3
ATOM      3  C   UNL     1       4.012  19.060  49.141  1.00  0.00     0.000 C 
BRANCH   3   4
ATOM      4  C   UNL     1       4.065  20.387  49.919  1.00  0.00     0.000 C 
BRANCH   4   5
ATOM      5  C   UNL     1       3.128  20.468  51.141  1.00  0.00     0.000 C 
BRANCH   5   6
ATOM      6  C   UNL     1       2.092  21.609  51.104  1.00  0.00     0.000 C 
BRANCH   6   7
ATOM      7  C   UNL     1       0.844  21.337  50.243  1.00  0.00     0.000 C 
BRANCH   7   8
ATOM      8  C   UNL     1      -0.211  22.451  50.352  1.00  0.00     0.000 C 
BRANCH   8   9
ATOM      9  C   UNL     1      -0.788  22.589  51.772  1.00  0.00     0.000 C 
BRANCH   9  10
ATOM     10  C   UNL     1      -1.433  21.313  52.345  1.00  0.00     0.000 C 
BRANCH  10  11
ATOM     11  C   UNL     1      -2.095  21.538  53.715  1.00  0.00     0.000 C 
BRANCH  11  12
ATOM     12  C   UNL     1      -1.351  20.804  54.852  1.00  0.00     0.000 C 
BRANCH  12  13
ATOM     13  C   UNL     1      -0.953  19.359  54.496  1.00  0.00     0.006 C 
BRANCH  13  14
ATOM     14  C   UNL     1      -1.269  18.330  55.592  1.00  0.00     0.053 C 
BRANCH  14  15
ATOM     15  C   UNL     1      -0.536  17.037  55.384  1.00  0.00     0.041 C 
ATOM     16  O   UNL     1      -1.081  16.094  54.753  1.00  0.00    -0.550 OA
ATOM     17  O   UNL     1       0.760  16.884  55.860  1.00  0.00    -0.550 OA
ENDBRANCH  14  15
ENDBRANCH  13  14
ENDBRANCH  12  13
ENDBRANCH  11  12
ENDBRANCH  10  11
ENDBRANCH   9  10
ENDBRANCH   8   9
ENDBRANCH   7   8
ENDBRANCH   6   7
ENDBRANCH   5   6
ENDBRANCH   4   5
ENDBRANCH   3   4
ENDBRANCH   2   3
ENDBRANCH   1   2
BRANCH   1  18
ATOM     18  C   UNL     1       1.884  19.694  47.433  1.00  0.00     0.000 C 
BRANCH  18  19
ATOM     19  C   UNL     1       1.129  19.377  46.132  1.00  0.00     0.000 C 
BRANCH  19  20
ATOM     20  C   UNL     1       0.147  20.491  45.727  1.00  0.00     0.000 C 
BRANCH  20  21
ATOM     21  C   UNL     1      -0.514  21.161  46.943  1.00  0.00     0.000 C 
BRANCH  21  22
ATOM     22  C   UNL     1      -1.527  22.247  46.543  1.00  0.00     0.000 C 
BRANCH  22  23
ATOM     23  C   UNL     1      -1.464  22.594  45.047  1.00  0.00     0.000 C 
BRANCH  23  24
ATOM     24  C   UNL     1      -2.089  23.963  44.724  1.00  0.00    -0.000 C 
BRANCH  24  25
ATOM     25  C   UNL     1      -1.031  25.074  44.615  1.00  0.00    -0.000 C 
BRANCH  25  26
ATOM     26  C   UNL     1      -0.716  25.725  45.973  1.00  0.00    -0.000 C 
BRANCH  26  27
ATOM     27  C   UNL     1      -1.885  25.622  46.964  1.00  0.00    -0.000 C 
BRANCH  27  28
ATOM     28  C   UNL     1      -1.433  25.687  48.430  1.00  0.00    -0.000 C 
BRANCH  28  29
ATOM     29  C   UNL     1       0.090  25.848  48.526  1.00  0.00    -0.000 C 
BRANCH  29  30
ATOM     30  C   UNL     1       0.603  25.855  49.976  1.00  0.00    -0.000 C 
BRANCH  30  31
ATOM     31  C   UNL     1       2.093  25.474  50.106  1.00  0.00    -0.003 C 
ATOM     32  C   UNL     1       2.398  24.768  51.427  1.00  0.00     0.004 C 
ENDBRANCH  30  31
ENDBRANCH  29  30
ENDBRANCH  28  29
ENDBRANCH  27  28
ENDBRANCH  26  27
ENDBRANCH  25  26
ENDBRANCH  24  25
ENDBRANCH  23  24
ENDBRANCH  22  23
ENDBRANCH  21  22
ENDBRANCH  20  21
ENDBRANCH  19  20
ENDBRANCH  18  19
ENDBRANCH   1  18
TORSDOF 28
ENDMDL
MODEL 4
REMARK VINA RESULT:    -2.371      1.983      6.483
REMARK INTER + INTRA:          -9.680
REMARK INTER:                  -6.400
REMARK INTRA:                  -3.280
REMARK UNBOUND:                -3.429
REMARK SMILES CCCCCCCCCCCCCCCCCCCCCCCCCCCCCC(=O)[O-]
REMARK SMILES IDX 16 1 17 2 18 3 19 4 20 5 21 6 22 7 23 8 24 9 25 10 26 11
REMARK SMILES IDX 27 12 28 13 29 14 30 15 31 16 32 17 15 18 14 19 13 20 12 21
REMARK SMILES IDX 11 22 10 23 9 24 8 25 7 26 6 27 5 28 4 29 3 30 2 31 1 32
REMARK H PARENT
REMARK Flexibility Score: inf
ROOT
ATOM      1  C   UNL     1      -1.706  25.757  47.174  1.00  0.00     0.000 C 
ENDROOT
BRANCH   1   2
ATOM      2  C   UNL     1      -0.401  25.812  46.352  1.00  0.00     0.000 C 
BRANCH   2   3
ATOM      3  C   UNL     1      -0.618  25.765  44.828  1.00  0.00     0.000 C 
BRANCH   3   4
ATOM      4  C   UNL     1      -1.755  24.840  44.356  1.00  0.00     0.000 C 
BRANCH   4   5
ATOM      5  C   UNL     1      -1.447  23.332  44.437  1.00  0.00     0.000 C 
BRANCH   5   6
ATOM      6  C   UNL     1      -2.503  22.481  45.169  1.00  0.00     0.000 C 
BRANCH   6   7
ATOM      7  C   UNL     1      -2.130  22.060  46.603  1.00  0.00     0.000 C 
BRANCH   7   8
ATOM      8  C   UNL     1      -0.613  21.912  46.806  1.00  0.00     0.000 C 
BRANCH   8   9
ATOM      9  C   UNL     1       0.012  20.854  45.879  1.00  0.00     0.000 C 
BRANCH   9  10
ATOM     10  C   UNL     1       0.135  19.443  46.484  1.00  0.00     0.000 C 
BRANCH  10  11
ATOM     11  C   UNL     1      -0.153  19.409  47.995  1.00  0.00     0.000 C 
BRANCH  11  12
ATOM     12  C   UNL     1       1.118  19.129  48.827  1.00  0.00     0.000 C 
BRANCH  12  13
ATOM     13  C   UNL     1       2.427  19.350  48.046  1.00  0.00     0.006 C 
BRANCH  13  14
ATOM     14  C   UNL     1       3.658  18.684  48.679  1.00  0.00     0.053 C 
BRANCH  14  15
ATOM     15  C   UNL     1       4.117  19.399  49.916  1.00  0.00     0.041 C 
ATOM     16  O   UNL     1       3.931  18.886  51.050  1.00  0.00    -0.550 OA
ATOM     17  O   UNL     1       4.778  20.617  49.815  1.00  0.00    -0.550 OA
ENDBRANCH  14  15
ENDBRANCH  13  14
ENDBRANCH  12  13
ENDBRANCH  11  12
ENDBRANCH  10  11
ENDBRANCH   9  10
ENDBRANCH   8   9
ENDBRANCH   7   8
ENDBRANCH   6   7
ENDBRANCH   5   6
ENDBRANCH   4   5
ENDBRANCH   3   4
ENDBRANCH   2   3
ENDBRANCH   1   2
BRANCH   1  18
ATOM     18  C   UNL     1      -1.455  25.780  48.693  1.00  0.00     0.000 C 
BRANCH  18  19
ATOM     19  C   UNL     1      -0.200  24.990  49.099  1.00  0.00     0.000 C 
BRANCH  19  20
ATOM     20  C   UNL     1       1.032  25.890  49.298  1.00  0.00     0.000 C 
BRANCH  20  21
ATOM     21  C   UNL     1       1.896  25.447  50.491  1.00  0.00     0.000 C 
BRANCH  21  22
ATOM     22  C   UNL     1       1.191  24.409  51.380  1.00  0.00     0.000 C 
BRANCH  22  23
ATOM     23  C   UNL     1       2.150  23.327  51.901  1.00  0.00     0.000 C 
BRANCH  23  24
ATOM     24  C   UNL     1       1.819  21.924  51.361  1.00  0.00    -0.000 C 
BRANCH  24  25
ATOM     25  C   UNL     1       0.534  21.913  50.517  1.00  0.00    -0.000 C 
BRANCH  25  26
ATOM     26  C   UNL     1      -0.688  21.418  51.310  1.00  0.00    -0.000 C 
BRANCH  26  27
ATOM     27  C   UNL     1      -0.462  21.454  52.829  1.00  0.00    -0.000 C 
BRANCH  27  28
ATOM     28  C   UNL     1      -1.767  21.612  53.624  1.00  0.00    -0.000 C 
BRANCH  28  29
ATOM     29  C   UNL     1      -1.825  20.609  54.784  1.00  0.00    -0.000 C 
BRANCH  29  30
ATOM     30  C   UNL     1      -0.920  19.385  54.565  1.00  0.00    -0.000 C 
BRANCH  30  31
ATOM     31  C   UNL     1      -1.248  18.199  55.496  1.00  0.00    -0.003 C 
ATOM     32  C   UNL     1      -0.492  16.929  55.107  1.00  0.00     0.004 C 
ENDBRANCH  30  31
ENDBRANCH  29  30
ENDBRANCH  28  29
ENDBRANCH  27  28
ENDBRANCH  26  27
ENDBRANCH  25  26
ENDBRANCH  24  25
ENDBRANCH  23  24
ENDBRANCH  22  23
ENDBRANCH  21  22
ENDBRANCH  20  21
ENDBRANCH  19  20
ENDBRANCH  18  19
ENDBRANCH   1  18
TORSDOF 28
ENDMDL
MODEL 5
REMARK VINA RESULT:    -2.200      2.808      7.742
REMARK INTER + INTRA:          -9.229
REMARK INTER:                  -6.808
REMARK INTRA:                  -2.421
REMARK UNBOUND:                -3.429
REMARK SMILES CCCCCCCCCCCCCCCCCCCCCCCCCCCCCC(=O)[O-]
REMARK SMILES IDX 16 1 17 2 18 3 19 4 20 5 21 6 22 7 23 8 24 9 25 10 26 11
REMARK SMILES IDX 27 12 28 13 29 14 30 15 31 16 32 17 15 18 14 19 13 20 12 21
REMARK SMILES IDX 11 22 10 23 9 24 8 25 7 26 6 27 5 28 4 29 3 30 2 31 1 32
REMARK H PARENT
REMARK Flexibility Score: inf
ROOT
ATOM      1  C   UNL     1       0.160  19.504  47.901  1.00  0.00     0.000 C 
ENDROOT
BRANCH   1   2
ATOM      2  C   UNL     1       0.578  19.648  46.422  1.00  0.00     0.000 C 
BRANCH   2   3
ATOM      3  C   UNL     1       0.064  20.935  45.749  1.00  0.00     0.000 C 
BRANCH   3   4
ATOM      4  C   UNL     1      -1.016  21.699  46.536  1.00  0.00     0.000 C 
BRANCH   4   5
ATOM      5  C   UNL     1      -2.105  22.367  45.673  1.00  0.00     0.000 C 
BRANCH   5   6
ATOM      6  C   UNL     1      -1.609  23.003  44.359  1.00  0.00     0.000 C 
BRANCH   6   7
ATOM      7  C   UNL     1      -1.904  24.507  44.204  1.00  0.00     0.000 C 
BRANCH   7   8
ATOM      8  C   UNL     1      -0.718  25.394  44.616  1.00  0.00     0.000 C 
BRANCH   8   9
ATOM      9  C   UNL     1      -0.765  25.800  46.100  1.00  0.00     0.000 C 
BRANCH   9  10
ATOM     10  C   UNL     1      -2.145  25.673  46.772  1.00  0.00     0.000 C 
BRANCH  10  11
ATOM     11  C   UNL     1      -2.086  25.831  48.301  1.00  0.00     0.000 C 
BRANCH  11  12
ATOM     12  C   UNL     1      -0.635  25.912  48.824  1.00  0.00     0.000 C 
BRANCH  12  13
ATOM     13  C   UNL     1      -0.075  24.558  49.300  1.00  0.00     0.006 C 
BRANCH  13  14
ATOM     14  C   UNL     1       0.500  24.579  50.724  1.00  0.00     0.053 C 
BRANCH  14  15
ATOM     15  C   UNL     1       1.925  25.049  50.754  1.00  0.00     0.041 C 
ATOM     16  O   UNL     1       2.719  24.609  51.626  1.00  0.00    -0.550 OA
ATOM     17  O   UNL     1       2.384  25.949  49.801  1.00  0.00    -0.550 OA
ENDBRANCH  14  15
ENDBRANCH  13  14
ENDBRANCH  12  13
ENDBRANCH  11  12
ENDBRANCH  10  11
ENDBRANCH   9  10
ENDBRANCH   8   9
ENDBRANCH   7   8
ENDBRANCH   6   7
ENDBRANCH   5   6
ENDBRANCH   4   5
ENDBRANCH   3   4
ENDBRANCH   2   3
ENDBRANCH   1   2
BRANCH   1  18
ATOM     18  C   UNL     1       1.279  18.918  48.782  1.00  0.00     0.000 C 
BRANCH  18  19
ATOM     19  C   UNL     1       2.659  18.982  48.107  1.00  0.00     0.000 C 
BRANCH  19  20
ATOM     20  C   UNL     1       3.817  18.788  49.101  1.00  0.00     0.000 C 
BRANCH  20  21
ATOM     21  C   UNL     1       4.215  20.097  49.802  1.00  0.00     0.000 C 
BRANCH  21  22
ATOM     22  C   UNL     1       3.417  20.344  51.094  1.00  0.00     0.000 C 
BRANCH  22  23
ATOM     23  C   UNL     1       2.408  21.495  50.956  1.00  0.00     0.000 C 
BRANCH  23  24
ATOM     24  C   UNL     1       0.947  21.027  51.074  1.00  0.00    -0.000 C 
BRANCH  24  25
ATOM     25  C   UNL     1       0.237  21.635  52.295  1.00  0.00    -0.000 C 
BRANCH  25  26
ATOM     26  C   UNL     1      -1.294  21.644  52.144  1.00  0.00    -0.000 C 
BRANCH  26  27
ATOM     27  C   UNL     1      -2.022  21.621  53.497  1.00  0.00    -0.000 C 
BRANCH  27  28
ATOM     28  C   UNL     1      -1.263  20.826  54.570  1.00  0.00    -0.000 C 
BRANCH  28  29
ATOM     29  C   UNL     1      -1.593  19.330  54.477  1.00  0.00    -0.000 C 
BRANCH  29  30
ATOM     30  C   UNL     1      -0.682  18.458  55.358  1.00  0.00    -0.000 C 
BRANCH  30  31
ATOM     31  C   UNL     1      -0.911  16.943  55.174  1.00  0.00    -0.003 C 
ATOM     32  C   UNL     1       0.368  16.133  55.381  1.00  0.00     0.004 C 
ENDBRANCH  30  31
ENDBRANCH  29  30
ENDBRANCH  28  29
ENDBRANCH  27  28
ENDBRANCH  26  27
ENDBRANCH  25  26
ENDBRANCH  24  25
ENDBRANCH  23  24
ENDBRANCH  22  23
ENDBRANCH  21  22
ENDBRANCH  20  21
ENDBRANCH  19  20
ENDBRANCH  18  19
ENDBRANCH   1  18
TORSDOF 28
ENDMDL
MODEL 6
REMARK VINA RESULT:    -1.858      3.542      7.452
REMARK INTER + INTRA:          -8.329
REMARK INTER:                  -5.652
REMARK INTRA:                  -2.677
REMARK UNBOUND:                -3.429
REMARK SMILES CCCCCCCCCCCCCCCCCCCCCCCCCCCCCC(=O)[O-]
REMARK SMILES IDX 16 1 17 2 18 3 19 4 20 5 21 6 22 7 23 8 24 9 25 10 26 11
REMARK SMILES IDX 27 12 28 13 29 14 30 15 31 16 32 17 15 18 14 19 13 20 12 21
REMARK SMILES IDX 11 22 10 23 9 24 8 25 7 26 6 27 5 28 4 29 3 30 2 31 1 32
REMARK H PARENT
REMARK Flexibility Score: inf
ROOT
ATOM      1  C   UNL     1       2.773  19.405  47.025  1.00  0.00     0.000 C 
ENDROOT
BRANCH   1   2
ATOM      2  C   UNL     1       2.022  19.206  48.359  1.00  0.00     0.000 C 
BRANCH   2   3
ATOM      3  C   UNL     1       2.886  18.595  49.479  1.00  0.00     0.000 C 
BRANCH   3   4
ATOM      4  C   UNL     1       3.587  19.615  50.395  1.00  0.00     0.000 C 
BRANCH   4   5
ATOM      5  C   UNL     1       3.218  21.089  50.136  1.00  0.00     0.000 C 
BRANCH   5   6
ATOM      6  C   UNL     1       2.243  21.714  51.153  1.00  0.00     0.000 C 
BRANCH   6   7
ATOM      7  C   UNL     1       2.586  23.149  51.597  1.00  0.00     0.000 C 
BRANCH   7   8
ATOM      8  C   UNL     1       1.475  24.158  51.263  1.00  0.00     0.000 C 
BRANCH   8   9
ATOM      9  C   UNL     1       1.984  25.352  50.435  1.00  0.00     0.000 C 
BRANCH   9  10
ATOM     10  C   UNL     1       0.995  25.890  49.383  1.00  0.00     0.000 C 
BRANCH  10  11
ATOM     11  C   UNL     1      -0.230  24.980  49.190  1.00  0.00     0.000 C 
BRANCH  11  12
ATOM     12  C   UNL     1      -1.473  25.766  48.715  1.00  0.00     0.000 C 
BRANCH  12  13
ATOM     13  C   UNL     1      -1.889  25.443  47.268  1.00  0.00     0.006 C 
BRANCH  13  14
ATOM     14  C   UNL     1      -0.718  25.365  46.277  1.00  0.00     0.053 C 
BRANCH  14  15
ATOM     15  C   UNL     1      -1.163  24.955  44.904  1.00  0.00     0.041 C 
ATOM     16  O   UNL     1      -1.940  23.975  44.756  1.00  0.00    -0.550 OA
ATOM     17  O   UNL     1      -0.746  25.672  43.790  1.00  0.00    -0.550 OA
ENDBRANCH  14  15
ENDBRANCH  13  14
ENDBRANCH  12  13
ENDBRANCH  11  12
ENDBRANCH  10  11
ENDBRANCH   9  10
ENDBRANCH   8   9
ENDBRANCH   7   8
ENDBRANCH   6   7
ENDBRANCH   5   6
ENDBRANCH   4   5
ENDBRANCH   3   4
ENDBRANCH   2   3
ENDBRANCH   1   2
BRANCH   1  18
ATOM     18  C   UNL     1       1.843  19.844  45.878  1.00  0.00     0.000 C 
BRANCH  18  19
ATOM     19  C   UNL     1       0.357  19.610  46.197  1.00  0.00     0.000 C 
BRANCH  19  20
ATOM     20  C   UNL     1      -0.516  20.841  45.898  1.00  0.00     0.000 C 
BRANCH  20  21
ATOM     21  C   UNL     1      -0.797  21.681  47.155  1.00  0.00     0.000 C 
BRANCH  21  22
ATOM     22  C   UNL     1      -0.833  20.833  48.439  1.00  0.00     0.000 C 
BRANCH  22  23
ATOM     23  C   UNL     1      -0.396  21.624  49.683  1.00  0.00     0.000 C 
BRANCH  23  24
ATOM     24  C   UNL     1      -0.647  20.860  50.995  1.00  0.00    -0.000 C 
BRANCH  24  25
ATOM     25  C   UNL     1      -1.163  21.779  52.114  1.00  0.00    -0.000 C 
BRANCH  25  26
ATOM     26  C   UNL     1      -0.408  21.576  53.440  1.00  0.00    -0.000 C 
BRANCH  26  27
ATOM     27  C   UNL     1      -1.264  20.878  54.507  1.00  0.00    -0.000 C 
BRANCH  27  28
ATOM     28  C   UNL     1      -1.479  19.385  54.217  1.00  0.00    -0.000 C 
BRANCH  28  29
ATOM     29  C   UNL     1      -0.992  18.524  55.390  1.00  0.00    -0.000 C 
BRANCH  29  30
ATOM     30  C   UNL     1      -1.173  17.017  55.146  1.00  0.00    -0.000 C 
BRANCH  30  31
ATOM     31  C   UNL     1       0.156  16.233  55.108  1.00  0.00    -0.003 C 
ATOM     32  C   UNL     1       1.090  16.619  56.255  1.00  0.00     0.004 C 
ENDBRANCH  30  31
ENDBRANCH  29  30
ENDBRANCH  28  29
ENDBRANCH  27  28
ENDBRANCH  26  27
ENDBRANCH  25  26
ENDBRANCH  24  25
ENDBRANCH  23  24
ENDBRANCH  22  23
ENDBRANCH  21  22
ENDBRANCH  20  21
ENDBRANCH  19  20
ENDBRANCH  18  19
ENDBRANCH   1  18
TORSDOF 28
ENDMDL
MODEL 7
REMARK VINA RESULT:    -1.740      1.042      4.833
REMARK INTER + INTRA:          -8.017
REMARK INTER:                  -6.044
REMARK INTRA:                  -1.973
REMARK UNBOUND:                -3.429
REMARK SMILES CCCCCCCCCCCCCCCCCCCCCCCCCCCCCC(=O)[O-]
REMARK SMILES IDX 16 1 17 2 18 3 19 4 20 5 21 6 22 7 23 8 24 9 25 10 26 11
REMARK SMILES IDX 27 12 28 13 29 14 30 15 31 16 32 17 15 18 14 19 13 20 12 21
REMARK SMILES IDX 11 22 10 23 9 24 8 25 7 26 6 27 5 28 4 29 3 30 2 31 1 32
REMARK H PARENT
REMARK Flexibility Score: inf
ROOT
ATOM      1  C   UNL     1       2.426  18.579  48.622  1.00  0.00     0.000 C 
ENDROOT
BRANCH   1   2
ATOM      2  C   UNL     1       3.608  19.057  49.491  1.00  0.00     0.000 C 
BRANCH   2   3
ATOM      3  C   UNL     1       3.184  19.791  50.778  1.00  0.00     0.000 C 
BRANCH   3   4
ATOM      4  C   UNL     1       2.216  20.970  50.569  1.00  0.00     0.000 C 
BRANCH   4   5
ATOM      5  C   UNL     1       2.465  22.190  51.478  1.00  0.00     0.000 C 
BRANCH   5   6
ATOM      6  C   UNL     1       1.197  22.872  52.030  1.00  0.00     0.000 C 
BRANCH   6   7
ATOM      7  C   UNL     1      -0.017  22.869  51.083  1.00  0.00     0.000 C 
BRANCH   7   8
ATOM      8  C   UNL     1      -1.115  21.886  51.522  1.00  0.00     0.000 C 
BRANCH   8   9
ATOM      9  C   UNL     1      -0.751  21.119  52.805  1.00  0.00     0.000 C 
BRANCH   9  10
ATOM     10  C   UNL     1      -1.533  21.538  54.064  1.00  0.00     0.000 C 
BRANCH  10  11
ATOM     11  C   UNL     1      -1.592  20.431  55.131  1.00  0.00     0.000 C 
BRANCH  11  12
ATOM     12  C   UNL     1      -1.258  19.040  54.549  1.00  0.00     0.000 C 
BRANCH  12  13
ATOM     13  C   UNL     1      -0.791  18.025  55.608  1.00  0.00     0.006 C 
BRANCH  13  14
ATOM     14  C   UNL     1      -0.543  16.611  55.061  1.00  0.00     0.053 C 
BRANCH  14  15
ATOM     15  C   UNL     1       0.627  15.943  55.723  1.00  0.00     0.041 C 
ATOM     16  O   UNL     1       1.572  16.634  56.185  1.00  0.00    -0.550 OA
ATOM     17  O   UNL     1       0.659  14.561  55.857  1.00  0.00    -0.550 OA
ENDBRANCH  14  15
ENDBRANCH  13  14
ENDBRANCH  12  13
ENDBRANCH  11  12
ENDBRANCH  10  11
ENDBRANCH   9  10
ENDBRANCH   8   9
ENDBRANCH   7   8
ENDBRANCH   6   7
ENDBRANCH   5   6
ENDBRANCH   4   5
ENDBRANCH   3   4
ENDBRANCH   2   3
ENDBRANCH   1   2
BRANCH   1  18
ATOM     18  C   UNL     1       2.250  19.417  47.343  1.00  0.00     0.000 C 
BRANCH  18  19
ATOM     19  C   UNL     1       0.773  19.622  46.967  1.00  0.00     0.000 C 
BRANCH  19  20
ATOM     20  C   UNL     1      -0.177  19.433  48.162  1.00  0.00     0.000 C 
BRANCH  20  21
ATOM     21  C   UNL     1      -0.997  20.698  48.466  1.00  0.00     0.000 C 
BRANCH  21  22
ATOM     22  C   UNL     1      -0.588  21.894  47.589  1.00  0.00     0.000 C 
BRANCH  22  23
ATOM     23  C   UNL     1      -1.039  21.739  46.128  1.00  0.00     0.000 C 
BRANCH  23  24
ATOM     24  C   UNL     1      -2.070  22.800  45.705  1.00  0.00    -0.000 C 
BRANCH  24  25
ATOM     25  C   UNL     1      -1.691  23.487  44.383  1.00  0.00    -0.000 C 
BRANCH  25  26
ATOM     26  C   UNL     1      -1.334  24.972  44.570  1.00  0.00    -0.000 C 
BRANCH  26  27
ATOM     27  C   UNL     1      -0.873  25.294  45.999  1.00  0.00    -0.000 C 
BRANCH  27  28
ATOM     28  C   UNL     1      -2.043  25.538  46.964  1.00  0.00    -0.000 C 
BRANCH  28  29
ATOM     29  C   UNL     1      -1.539  25.700  48.404  1.00  0.00    -0.000 C 
BRANCH  29  30
ATOM     30  C   UNL     1      -0.063  26.124  48.479  1.00  0.00    -0.000 C 
BRANCH  30  31
ATOM     31  C   UNL     1       0.774  25.280  49.463  1.00  0.00    -0.003 C 
ATOM     32  C   UNL     1       1.783  26.124  50.240  1.00  0.00     0.004 C 
ENDBRANCH  30  31
ENDBRANCH  29  30
ENDBRANCH  28  29
ENDBRANCH  27  28
ENDBRANCH  26  27
ENDBRANCH  25  26
ENDBRANCH  24  25
ENDBRANCH  23  24
ENDBRANCH  22  23
ENDBRANCH  21  22
ENDBRANCH  20  21
ENDBRANCH  19  20
ENDBRANCH  18  19
ENDBRANCH   1  18
TORSDOF 28
ENDMDL
MODEL 8
REMARK VINA RESULT:    -1.382      2.930      7.454
REMARK INTER + INTRA:          -7.073
REMARK INTER:                  -5.277
REMARK INTRA:                  -1.796
REMARK UNBOUND:                -3.429
REMARK SMILES CCCCCCCCCCCCCCCCCCCCCCCCCCCCCC(=O)[O-]
REMARK SMILES IDX 16 1 17 2 18 3 19 4 20 5 21 6 22 7 23 8 24 9 25 10 26 11
REMARK SMILES IDX 27 12 28 13 29 14 30 15 31 16 32 17 15 18 14 19 13 20 12 21
REMARK SMILES IDX 11 22 10 23 9 24 8 25 7 26 6 27 5 28 4 29 3 30 2 31 1 32
REMARK H PARENT
REMARK Flexibility Score: inf
ROOT
ATOM      1  C   UNL     1       4.203  18.993  49.299  1.00  0.00     0.000 C 
ENDROOT
BRANCH   1   2
ATOM      2  C   UNL     1       4.301  20.423  49.873  1.00  0.00     0.000 C 
BRANCH   2   3
ATOM      3  C   UNL     1       3.046  20.878  50.641  1.00  0.00     0.000 C 
BRANCH   3   4
ATOM      4  C   UNL     1       3.170  22.238  51.351  1.00  0.00     0.000 C 
BRANCH   4   5
ATOM      5  C   UNL     1       1.835  22.872  51.790  1.00  0.00     0.000 C 
BRANCH   5   6
ATOM      6  C   UNL     1       1.771  24.410  51.694  1.00  0.00     0.000 C 
BRANCH   6   7
ATOM      7  C   UNL     1       0.761  24.964  50.673  1.00  0.00     0.000 C 
BRANCH   7   8
ATOM      8  C   UNL     1       1.417  25.865  49.613  1.00  0.00     0.000 C 
BRANCH   8   9
ATOM      9  C   UNL     1       0.502  26.125  48.403  1.00  0.00     0.000 C 
BRANCH   9  10
ATOM     10  C   UNL     1      -0.872  25.430  48.458  1.00  0.00     0.000 C 
BRANCH  10  11
ATOM     11  C   UNL     1      -1.668  25.569  47.149  1.00  0.00     0.000 C 
BRANCH  11  12
ATOM     12  C   UNL     1      -0.820  25.211  45.909  1.00  0.00     0.000 C 
BRANCH  12  13
ATOM     13  C   UNL     1      -1.650  25.044  44.622  1.00  0.00     0.006 C 
BRANCH  13  14
ATOM     14  C   UNL     1      -1.793  23.590  44.149  1.00  0.00     0.053 C 
BRANCH  14  15
ATOM     15  C   UNL     1      -1.786  22.617  45.292  1.00  0.00     0.041 C 
ATOM     16  O   UNL     1      -0.717  22.046  45.631  1.00  0.00    -0.550 OA
ATOM     17  O   UNL     1      -2.953  22.366  46.003  1.00  0.00    -0.550 OA
ENDBRANCH  14  15
ENDBRANCH  13  14
ENDBRANCH  12  13
ENDBRANCH  11  12
ENDBRANCH  10  11
ENDBRANCH   9  10
ENDBRANCH   8   9
ENDBRANCH   7   8
ENDBRANCH   6   7
ENDBRANCH   5   6
ENDBRANCH   4   5
ENDBRANCH   3   4
ENDBRANCH   2   3
ENDBRANCH   1   2
BRANCH   1  18
ATOM     18  C   UNL     1       2.997  18.212  49.852  1.00  0.00     0.000 C 
BRANCH  18  19
ATOM     19  C   UNL     1       1.673  18.611  49.181  1.00  0.00     0.000 C 
BRANCH  19  20
ATOM     20  C   UNL     1       1.861  19.087  47.730  1.00  0.00     0.000 C 
BRANCH  20  21
ATOM     21  C   UNL     1       0.572  19.675  47.133  1.00  0.00     0.000 C 
BRANCH  21  22
ATOM     22  C   UNL     1      -0.423  20.139  48.210  1.00  0.00     0.000 C 
BRANCH  22  23
ATOM     23  C   UNL     1       0.032  21.423  48.922  1.00  0.00     0.000 C 
BRANCH  23  24
ATOM     24  C   UNL     1      -0.880  21.809  50.100  1.00  0.00    -0.000 C 
BRANCH  24  25
ATOM     25  C   UNL     1      -0.501  21.073  51.396  1.00  0.00    -0.000 C 
BRANCH  25  26
ATOM     26  C   UNL     1      -1.547  21.259  52.508  1.00  0.00    -0.000 C 
BRANCH  26  27
ATOM     27  C   UNL     1      -0.911  21.564  53.873  1.00  0.00    -0.000 C 
BRANCH  27  28
ATOM     28  C   UNL     1      -1.382  20.606  54.978  1.00  0.00    -0.000 C 
BRANCH  28  29
ATOM     29  C   UNL     1      -1.347  19.151  54.492  1.00  0.00    -0.000 C 
BRANCH  29  30
ATOM     30  C   UNL     1      -0.689  18.196  55.502  1.00  0.00    -0.000 C 
BRANCH  30  31
ATOM     31  C   UNL     1      -0.720  16.716  55.065  1.00  0.00    -0.003 C 
ATOM     32  C   UNL     1       0.504  15.942  55.552  1.00  0.00     0.004 C 
ENDBRANCH  30  31
ENDBRANCH  29  30
ENDBRANCH  28  29
ENDBRANCH  27  28
ENDBRANCH  26  27
ENDBRANCH  25  26
ENDBRANCH  24  25
ENDBRANCH  23  24
ENDBRANCH  22  23
ENDBRANCH  21  22
ENDBRANCH  20  21
ENDBRANCH  19  20
ENDBRANCH  18  19
ENDBRANCH   1  18
TORSDOF 28
ENDMDL
MODEL 9
REMARK VINA RESULT:    -1.350      1.082      5.339
REMARK INTER + INTRA:          -6.988
REMARK INTER:                  -4.809
REMARK INTRA:                  -2.179
REMARK UNBOUND:                -3.429
REMARK SMILES CCCCCCCCCCCCCCCCCCCCCCCCCCCCCC(=O)[O-]
REMARK SMILES IDX 16 1 17 2 18 3 19 4 20 5 21 6 22 7 23 8 24 9 25 10 26 11
REMARK SMILES IDX 27 12 28 13 29 14 30 15 31 16 32 17 15 18 14 19 13 20 12 21
REMARK SMILES IDX 11 22 10 23 9 24 8 25 7 26 6 27 5 28 4 29 3 30 2 31 1 32
REMARK H PARENT
REMARK Flexibility Score: inf
ROOT
ATOM      1  C   UNL     1       2.275  19.399  47.170  1.00  0.00     0.000 C 
ENDROOT
BRANCH   1   2
ATOM      2  C   UNL     1       2.312  18.885  48.624  1.00  0.00     0.000 C 
BRANCH   2   3
ATOM      3  C   UNL     1       3.734  18.681  49.181  1.00  0.00     0.000 C 
BRANCH   3   4
ATOM      4  C   UNL     1       4.224  19.778  50.144  1.00  0.00     0.000 C 
BRANCH   4   5
ATOM      5  C   UNL     1       3.335  21.036  50.209  1.00  0.00     0.000 C 
BRANCH   5   6
ATOM      6  C   UNL     1       2.264  21.031  51.318  1.00  0.00     0.000 C 
BRANCH   6   7
ATOM      7  C   UNL     1       1.999  22.395  51.983  1.00  0.00     0.000 C 
BRANCH   7   8
ATOM      8  C   UNL     1       0.598  22.492  52.609  1.00  0.00     0.000 C 
BRANCH   8   9
ATOM      9  C   UNL     1      -0.329  21.341  52.178  1.00  0.00     0.000 C 
BRANCH   9  10
ATOM     10  C   UNL     1      -1.639  21.219  52.978  1.00  0.00     0.000 C 
BRANCH  10  11
ATOM     11  C   UNL     1      -1.428  21.335  54.497  1.00  0.00     0.000 C 
BRANCH  11  12
ATOM     12  C   UNL     1      -1.718  20.008  55.232  1.00  0.00     0.000 C 
BRANCH  12  13
ATOM     13  C   UNL     1      -0.649  18.926  54.994  1.00  0.00     0.006 C 
BRANCH  13  14
ATOM     14  C   UNL     1      -1.145  17.489  55.221  1.00  0.00     0.053 C 
BRANCH  14  15
ATOM     15  C   UNL     1      -0.014  16.523  55.421  1.00  0.00     0.041 C 
ATOM     16  O   UNL     1       0.979  16.847  56.125  1.00  0.00    -0.550 OA
ATOM     17  O   UNL     1      -0.069  15.255  54.857  1.00  0.00    -0.550 OA
ENDBRANCH  14  15
ENDBRANCH  13  14
ENDBRANCH  12  13
ENDBRANCH  11  12
ENDBRANCH  10  11
ENDBRANCH   9  10
ENDBRANCH   8   9
ENDBRANCH   7   8
ENDBRANCH   6   7
ENDBRANCH   5   6
ENDBRANCH   4   5
ENDBRANCH   3   4
ENDBRANCH   2   3
ENDBRANCH   1   2
BRANCH   1  18
ATOM     18  C   UNL     1       0.853  19.762  46.703  1.00  0.00     0.000 C 
BRANCH  18  19
ATOM     19  C   UNL     1      -0.226  19.359  47.721  1.00  0.00     0.000 C 
BRANCH  19  20
ATOM     20  C   UNL     1      -1.034  20.562  48.239  1.00  0.00     0.000 C 
BRANCH  20  21
ATOM     21  C   UNL     1      -0.223  21.441  49.206  1.00  0.00     0.000 C 
BRANCH  21  22
ATOM     22  C   UNL     1      -0.264  22.932  48.828  1.00  0.00     0.000 C 
BRANCH  22  23
ATOM     23  C   UNL     1      -0.256  23.854  50.057  1.00  0.00     0.000 C 
BRANCH  23  24
ATOM     24  C   UNL     1       0.575  25.132  49.840  1.00  0.00    -0.000 C 
BRANCH  24  25
ATOM     25  C   UNL     1       0.146  25.899  48.579  1.00  0.00    -0.000 C 
BRANCH  25  26
ATOM     26  C   UNL     1      -1.378  25.882  48.368  1.00  0.00    -0.000 C 
BRANCH  26  27
ATOM     27  C   UNL     1      -1.769  25.822  46.884  1.00  0.00    -0.000 C 
BRANCH  27  28
ATOM     28  C   UNL     1      -0.553  25.784  45.947  1.00  0.00    -0.000 C 
BRANCH  28  29
ATOM     29  C   UNL     1      -0.950  25.267  44.557  1.00  0.00    -0.000 C 
BRANCH  29  30
ATOM     30  C   UNL     1      -2.025  24.169  44.610  1.00  0.00    -0.000 C 
BRANCH  30  31
ATOM     31  C   UNL     1      -1.514  22.829  45.179  1.00  0.00    -0.003 C 
ATOM     32  C   UNL     1      -2.643  21.972  45.749  1.00  0.00     0.004 C 
ENDBRANCH  30  31
ENDBRANCH  29  30
ENDBRANCH  28  29
ENDBRANCH  27  28
ENDBRANCH  26  27
ENDBRANCH  25  26
ENDBRANCH  24  25
ENDBRANCH  23  24
ENDBRANCH  22  23
ENDBRANCH  21  22
ENDBRANCH  20  21
ENDBRANCH  19  20
ENDBRANCH  18  19
ENDBRANCH   1  18
TORSDOF 28
ENDMDL
