MODEL 1
REMARK VINA RESULT:     3.879      0.000      0.000
REMARK INTER + INTRA:           4.578
REMARK INTER:                   4.559
REMARK INTRA:                   0.019
REMARK UNBOUND:                 0.019
REMARK SMILES O=c1c(O)c(-c2ccc(O)cc2)oc2cc(O)cc(O)c12
REMARK SMILES IDX 5 1 3 2 2 3 1 4 21 5 19 6 18 7 16 8 15 9 14 10 13 11 6 12
REMARK SMILES IDX 7 13 8 14 9 15 12 16 11 17 10 18 4 20 20 22 17 24
REMARK H PARENT 10 19 4 21 20 23 17 25
REMARK Flexibility Score: inf
ROOT
ATOM      1  C   UNL     1    -116.965 -99.417  36.859  1.00  0.00     0.180 A 
ATOM      2  C   UNL     1    -115.642 -99.770  36.532  1.00  0.00     0.208 A 
ATOM      3  C   UNL     1    -115.261 -99.799  35.181  1.00  0.00     0.238 A 
ATOM      4  O   UNL     1    -114.081-100.123  34.875  1.00  0.00    -0.285 OA
ATOM      5  C   UNL     1    -116.199 -99.457  34.185  1.00  0.00     0.111 A 
ATOM      6  C   UNL     1    -115.896 -99.458  32.802  1.00  0.00     0.134 A 
ATOM      7  C   UNL     1    -116.882 -99.097  31.874  1.00  0.00     0.093 A 
ATOM      8  C   UNL     1    -118.163 -98.736  32.298  1.00  0.00     0.123 A 
ATOM      9  C   UNL     1    -118.470 -98.734  33.663  1.00  0.00     0.094 A 
ATOM     10  C   UNL     1    -117.500 -99.092  34.604  1.00  0.00     0.146 A 
ATOM     11  O   UNL     1    -117.818 -99.087  35.894  1.00  0.00    -0.452 OA
ENDROOT
BRANCH   1  12
ATOM     12  C   UNL     1    -117.447 -99.382  38.259  1.00  0.00     0.021 A 
ATOM     13  C   UNL     1    -118.585-100.123  38.617  1.00  0.00     0.016 A 
ATOM     14  C   UNL     1    -119.045-100.122  39.937  1.00  0.00     0.047 A 
ATOM     15  C   UNL     1    -118.364 -99.392  40.919  1.00  0.00     0.115 A 
ATOM     16  C   UNL     1    -116.757 -98.667  39.254  1.00  0.00     0.016 A 
ATOM     17  C   UNL     1    -117.218 -98.669  40.574  1.00  0.00     0.047 A 
BRANCH  15  18
ATOM     18  O   UNL     1    -118.813 -99.382  42.237  1.00  0.00    -0.508 OA
ATOM     19  H   UNL     1    -118.889-100.237  42.777  1.00  0.00     0.293 HD
ENDBRANCH  15  18
ENDBRANCH   1  12
BRANCH   2  20
ATOM     20  O   UNL     1    -114.717-100.056  37.540  1.00  0.00    -0.502 OA
ATOM     21  H   UNL     1    -114.842-100.825  38.188  1.00  0.00     0.293 HD
ENDBRANCH   2  20
BRANCH   6  22
ATOM     22  O   UNL     1    -114.626 -99.813  32.346  1.00  0.00    -0.507 OA
ATOM     23  H   UNL     1    -114.464-100.674  31.838  1.00  0.00     0.293 HD
ENDBRANCH   6  22
BRANCH   8  24
ATOM     24  O   UNL     1    -119.125 -98.380  31.355  1.00  0.00    -0.508 OA
ATOM     25  H   UNL     1    -119.430 -99.026  30.638  1.00  0.00     0.293 HD
ENDBRANCH   8  24
TORSDOF 5
ENDMDL
