MODEL 1
REMARK VINA RESULT:    -8.682      0.000      0.000
REMARK INTER + INTRA:         -12.847
REMARK INTER:                 -11.982
REMARK INTRA:                  -0.866
REMARK UNBOUND:                -0.866
REMARK SMILES CC[C@@H](CC[C@@H](C)[C@@H]1CC[C@@H]2[C@@H]3CC=C4C[C@H](O)CC[C@@]4(C)[C@@H]3CC[C@]21C)C(C)C
REMARK SMILES IDX 5 1 4 2 3 3 2 4 1 5 28 6 29 7 30 8 6 9 7 10 8 11 9 12 26 13
REMARK SMILES IDX 10 14 11 15 25 16 27 17 12 18 24 19 23 20 13 21 21 22 14 23
REMARK SMILES IDX 15 24 20 25 22 26 16 27 19 28 17 29 18 30
REMARK H PARENT 18 31
REMARK Flexibility Score: inf
ROOT
ATOM      1  C   UNL     1      13.973 -13.539  32.236  1.00  0.00     0.004 C 
ENDROOT
BRANCH   1   2
ATOM      2  C   UNL     1      13.669 -14.257  33.575  1.00  0.00     0.004 C 
BRANCH   2   3
ATOM      3  C   UNL     1      14.301 -13.557  34.809  1.00  0.00    -0.009 C 
BRANCH   3   4
ATOM      4  C   UNL     1      14.422 -14.554  35.996  1.00  0.00     0.000 C 
ATOM      5  C   UNL     1      14.546 -16.016  35.559  1.00  0.00     0.004 C 
ENDBRANCH   3   4
BRANCH   3   6
ATOM      6  C   UNL     1      13.547 -12.237  35.200  1.00  0.00    -0.014 C 
ATOM      7  C   UNL     1      12.347 -12.508  36.124  1.00  0.00     0.007 C 
ATOM      8  C   UNL     1      14.458 -11.166  35.825  1.00  0.00     0.007 C 
ENDBRANCH   3   6
ENDBRANCH   2   3
ENDBRANCH   1   2
BRANCH   1   9
ATOM      9  C   UNL     1      13.631 -14.369  30.963  1.00  0.00    -0.011 C 
ATOM     10  C   UNL     1      12.826 -15.643  31.334  1.00  0.00     0.008 C 
BRANCH   9  11
ATOM     11  C   UNL     1      13.058 -13.454  29.812  1.00  0.00    -0.002 C 
ATOM     12  C   UNL     1      11.980 -14.064  28.874  1.00  0.00     0.005 C 
ATOM     13  C   UNL     1      14.054 -12.724  28.858  1.00  0.00    -0.026 C 
ATOM     14  C   UNL     1      12.083 -13.309  27.538  1.00  0.00     0.005 C 
ATOM     15  C   UNL     1      13.046 -12.169  27.833  1.00  0.00    -0.001 C 
ATOM     16  C   UNL     1      14.850 -11.550  29.510  1.00  0.00     0.007 C 
ATOM     17  C   UNL     1      15.059 -13.734  28.254  1.00  0.00     0.012 C 
ATOM     18  C   UNL     1      13.614 -11.331  26.666  1.00  0.00     0.000 C 
ATOM     19  C   UNL     1      14.807 -10.201  28.742  1.00  0.00     0.005 C 
ATOM     20  C   UNL     1      14.626 -10.240  27.180  1.00  0.00     0.003 C 
ATOM     21  C   UNL     1      14.095 -12.116  25.432  1.00  0.00     0.031 C 
ATOM     22  C   UNL     1      15.939 -10.034  26.310  1.00  0.00    -0.008 C 
ATOM     23  C   UNL     1      14.737 -11.191  24.440  1.00  0.00    -0.027 C 
ATOM     24  C   UNL     1      15.577 -10.204  24.821  1.00  0.00    -0.065 C 
ATOM     25  C   UNL     1      16.499  -8.591  26.587  1.00  0.00     0.014 C 
ATOM     26  C   UNL     1      17.052 -11.056  26.648  1.00  0.00     0.016 C 
ATOM     27  C   UNL     1      16.320  -9.453  23.734  1.00  0.00     0.063 C 
ATOM     28  C   UNL     1      17.421  -8.049  25.491  1.00  0.00     0.033 C 
ATOM     29  C   UNL     1      16.690  -8.031  24.147  1.00  0.00     0.118 C 
BRANCH  29  30
ATOM     30  O   UNL     1      17.515  -7.471  23.160  1.00  0.00    -0.393 OA
ATOM     31  H   UNL     1      17.663  -6.521  23.414  1.00  0.00     0.210 HD
ENDBRANCH  29  30
ENDBRANCH   9  11
ENDBRANCH   1   9
TORSDOF 7
ENDMDL
MODEL 2
REMARK VINA RESULT:    -8.601      1.480      1.869
REMARK INTER + INTRA:         -12.735
REMARK INTER:                 -11.559
REMARK INTRA:                  -1.176
REMARK UNBOUND:                -0.866
REMARK SMILES CC[C@@H](CC[C@@H](C)[C@@H]1CC[C@@H]2[C@@H]3CC=C4C[C@H](O)CC[C@@]4(C)[C@@H]3CC[C@]21C)C(C)C
REMARK SMILES IDX 5 1 4 2 3 3 2 4 1 5 28 6 29 7 30 8 6 9 7 10 8 11 9 12 26 13
REMARK SMILES IDX 10 14 11 15 25 16 27 17 12 18 24 19 23 20 13 21 21 22 14 23
REMARK SMILES IDX 15 24 20 25 22 26 16 27 19 28 17 29 18 30
REMARK H PARENT 18 31
REMARK Flexibility Score: inf
ROOT
ATOM      1  C   UNL     1      13.259 -14.997  32.601  1.00  0.00     0.004 C 
ENDROOT
BRANCH   1   2
ATOM      2  C   UNL     1      13.999 -13.792  33.234  1.00  0.00     0.004 C 
BRANCH   2   3
ATOM      3  C   UNL     1      13.975 -13.799  34.787  1.00  0.00    -0.009 C 
BRANCH   3   4
ATOM      4  C   UNL     1      12.725 -14.563  35.306  1.00  0.00     0.000 C 
ATOM      5  C   UNL     1      11.728 -13.674  36.054  1.00  0.00     0.004 C 
ENDBRANCH   3   4
BRANCH   3   6
ATOM      6  C   UNL     1      14.100 -12.357  35.394  1.00  0.00    -0.014 C 
ATOM      7  C   UNL     1      15.122 -12.299  36.543  1.00  0.00     0.007 C 
ATOM      8  C   UNL     1      14.422 -11.273  34.350  1.00  0.00     0.007 C 
ENDBRANCH   3   6
ENDBRANCH   2   3
ENDBRANCH   1   2
BRANCH   1   9
ATOM      9  C   UNL     1      13.460 -15.146  31.063  1.00  0.00    -0.011 C 
ATOM     10  C   UNL     1      13.149 -16.596  30.603  1.00  0.00     0.008 C 
BRANCH   9  11
ATOM     11  C   UNL     1      12.773 -13.967  30.272  1.00  0.00    -0.002 C 
ATOM     12  C   UNL     1      11.716 -14.338  29.195  1.00  0.00     0.005 C 
ATOM     13  C   UNL     1      13.671 -12.883  29.597  1.00  0.00    -0.026 C 
ATOM     14  C   UNL     1      11.709 -13.189  28.172  1.00  0.00     0.005 C 
ATOM     15  C   UNL     1      12.584 -12.122  28.812  1.00  0.00    -0.001 C 
ATOM     16  C   UNL     1      14.389 -11.914  30.587  1.00  0.00     0.007 C 
ATOM     17  C   UNL     1      14.733 -13.552  28.693  1.00  0.00     0.012 C 
ATOM     18  C   UNL     1      13.040 -10.908  27.973  1.00  0.00     0.000 C 
ATOM     19  C   UNL     1      14.207 -10.399  30.295  1.00  0.00     0.005 C 
ATOM     20  C   UNL     1      13.975  -9.952  28.804  1.00  0.00     0.003 C 
ATOM     21  C   UNL     1      13.540 -11.209  26.549  1.00  0.00     0.031 C 
ATOM     22  C   UNL     1      15.235  -9.361  28.038  1.00  0.00    -0.008 C 
ATOM     23  C   UNL     1      14.068  -9.962  25.904  1.00  0.00    -0.027 C 
ATOM     24  C   UNL     1      14.836  -9.078  26.576  1.00  0.00    -0.065 C 
ATOM     25  C   UNL     1      15.683  -8.039  28.761  1.00  0.00     0.014 C 
ATOM     26  C   UNL     1      16.440 -10.334  28.022  1.00  0.00     0.016 C 
ATOM     27  C   UNL     1      15.475  -7.955  25.784  1.00  0.00     0.063 C 
ATOM     28  C   UNL     1      16.518  -7.094  27.892  1.00  0.00     0.033 C 
ATOM     29  C   UNL     1      15.740  -6.712  26.631  1.00  0.00     0.118 C 
BRANCH  29  30
ATOM     30  O   UNL     1      16.481  -5.795  25.870  1.00  0.00    -0.393 OA
ATOM     31  H   UNL     1      17.066  -6.328  25.268  1.00  0.00     0.210 HD
ENDBRANCH  29  30
ENDBRANCH   9  11
ENDBRANCH   1   9
TORSDOF 7
ENDMDL
MODEL 3
REMARK VINA RESULT:    -8.335      3.511      5.405
REMARK INTER + INTRA:         -12.367
REMARK INTER:                 -11.125
REMARK INTRA:                  -1.242
REMARK UNBOUND:                -0.866
REMARK SMILES CC[C@@H](CC[C@@H](C)[C@@H]1CC[C@@H]2[C@@H]3CC=C4C[C@H](O)CC[C@@]4(C)[C@@H]3CC[C@]21C)C(C)C
REMARK SMILES IDX 5 1 4 2 3 3 2 4 1 5 28 6 29 7 30 8 6 9 7 10 8 11 9 12 26 13
REMARK SMILES IDX 10 14 11 15 25 16 27 17 12 18 24 19 23 20 13 21 21 22 14 23
REMARK SMILES IDX 15 24 20 25 22 26 16 27 19 28 17 29 18 30
REMARK H PARENT 18 31
REMARK Flexibility Score: inf
ROOT
ATOM      1  C   UNL     1      11.877 -12.457  28.863  1.00  0.00     0.004 C 
ENDROOT
BRANCH   1   2
ATOM      2  C   UNL     1      11.824 -13.928  29.348  1.00  0.00     0.004 C 
BRANCH   2   3
ATOM      3  C   UNL     1      10.828 -14.808  28.544  1.00  0.00    -0.009 C 
BRANCH   3   4
ATOM      4  C   UNL     1      10.580 -14.198  27.135  1.00  0.00     0.000 C 
ATOM      5  C   UNL     1       9.674 -15.053  26.246  1.00  0.00     0.004 C 
ENDBRANCH   3   4
BRANCH   3   6
ATOM      6  C   UNL     1       9.497 -15.078  29.331  1.00  0.00    -0.014 C 
ATOM      7  C   UNL     1       9.745 -15.849  30.639  1.00  0.00     0.007 C 
ATOM      8  C   UNL     1       8.680 -13.806  29.618  1.00  0.00     0.007 C 
ENDBRANCH   3   6
ENDBRANCH   2   3
ENDBRANCH   1   2
BRANCH   1   9
ATOM      9  C   UNL     1      13.295 -11.960  28.454  1.00  0.00    -0.011 C 
ATOM     10  C   UNL     1      14.397 -12.765  29.193  1.00  0.00     0.008 C 
BRANCH   9  11
ATOM     11  C   UNL     1      13.427 -11.812  26.888  1.00  0.00    -0.002 C 
ATOM     12  C   UNL     1      14.376 -12.794  26.147  1.00  0.00     0.005 C 
ATOM     13  C   UNL     1      13.750 -10.409  26.285  1.00  0.00    -0.026 C 
ATOM     14  C   UNL     1      14.839 -12.076  24.868  1.00  0.00     0.005 C 
ATOM     15  C   UNL     1      13.979 -10.823  24.818  1.00  0.00    -0.001 C 
ATOM     16  C   UNL     1      12.587  -9.372  26.370  1.00  0.00     0.007 C 
ATOM     17  C   UNL     1      15.006  -9.809  26.961  1.00  0.00     0.012 C 
ATOM     18  C   UNL     1      14.326  -9.701  23.814  1.00  0.00     0.000 C 
ATOM     19  C   UNL     1      12.217  -8.666  25.037  1.00  0.00     0.005 C 
ATOM     20  C   UNL     1      13.346  -8.477  23.958  1.00  0.00     0.003 C 
ATOM     21  C   UNL     1      15.813  -9.319  23.703  1.00  0.00     0.031 C 
ATOM     22  C   UNL     1      14.007  -7.034  23.871  1.00  0.00    -0.008 C 
ATOM     23  C   UNL     1      15.983  -8.137  22.794  1.00  0.00    -0.027 C 
ATOM     24  C   UNL     1      15.149  -7.076  22.836  1.00  0.00    -0.065 C 
ATOM     25  C   UNL     1      12.900  -6.005  23.441  1.00  0.00     0.014 C 
ATOM     26  C   UNL     1      14.606  -6.565  25.219  1.00  0.00     0.016 C 
ATOM     27  C   UNL     1      15.520  -5.856  22.016  1.00  0.00     0.063 C 
ATOM     28  C   UNL     1      13.444  -4.712  22.824  1.00  0.00     0.033 C 
ATOM     29  C   UNL     1      14.303  -5.033  21.600  1.00  0.00     0.118 C 
BRANCH  29  30
ATOM     30  O   UNL     1      14.744  -3.844  20.999  1.00  0.00    -0.393 OA
ATOM     31  H   UNL     1      14.331  -3.095  21.507  1.00  0.00     0.210 HD
ENDBRANCH  29  30
ENDBRANCH   9  11
ENDBRANCH   1   9
TORSDOF 7
ENDMDL
MODEL 4
REMARK VINA RESULT:    -8.132      3.759      8.851
REMARK INTER + INTRA:         -12.088
REMARK INTER:                  -9.919
REMARK INTRA:                  -2.168
REMARK UNBOUND:                -0.866
REMARK SMILES CC[C@@H](CC[C@@H](C)[C@@H]1CC[C@@H]2[C@@H]3CC=C4C[C@H](O)CC[C@@]4(C)[C@@H]3CC[C@]21C)C(C)C
REMARK SMILES IDX 5 1 4 2 3 3 2 4 1 5 28 6 29 7 30 8 6 9 7 10 8 11 9 12 26 13
REMARK SMILES IDX 10 14 11 15 25 16 27 17 12 18 24 19 23 20 13 21 21 22 14 23
REMARK SMILES IDX 15 24 20 25 22 26 16 27 19 28 17 29 18 30
REMARK H PARENT 18 31
REMARK Flexibility Score: inf
ROOT
ATOM      1  C   UNL     1      15.743  -6.468  26.170  1.00  0.00     0.004 C 
ENDROOT
BRANCH   1   2
ATOM      2  C   UNL     1      14.988  -6.688  24.835  1.00  0.00     0.004 C 
BRANCH   2   3
ATOM      3  C   UNL     1      15.460  -7.950  24.060  1.00  0.00    -0.009 C 
BRANCH   3   4
ATOM      4  C   UNL     1      16.435  -7.551  22.917  1.00  0.00     0.000 C 
ATOM      5  C   UNL     1      17.759  -8.318  22.943  1.00  0.00     0.004 C 
ENDBRANCH   3   4
BRANCH   3   6
ATOM      6  C   UNL     1      14.259  -8.826  23.556  1.00  0.00    -0.014 C 
ATOM      7  C   UNL     1      14.407 -10.302  23.966  1.00  0.00     0.007 C 
ATOM      8  C   UNL     1      12.882  -8.296  23.991  1.00  0.00     0.007 C 
ENDBRANCH   3   6
ENDBRANCH   2   3
ENDBRANCH   1   2
BRANCH   1   9
ATOM      9  C   UNL     1      16.507  -7.719  26.697  1.00  0.00    -0.011 C 
ATOM     10  C   UNL     1      18.039  -7.468  26.704  1.00  0.00     0.008 C 
BRANCH   9  11
ATOM     11  C   UNL     1      15.854  -8.283  28.018  1.00  0.00    -0.002 C 
ATOM     12  C   UNL     1      16.780  -8.494  29.248  1.00  0.00     0.005 C 
ATOM     13  C   UNL     1      14.986  -9.578  27.941  1.00  0.00    -0.026 C 
ATOM     14  C   UNL     1      16.134  -9.601  30.098  1.00  0.00     0.005 C 
ATOM     15  C   UNL     1      14.775  -9.819  29.449  1.00  0.00    -0.001 C 
ATOM     16  C   UNL     1      13.606  -9.404  27.232  1.00  0.00     0.007 C 
ATOM     17  C   UNL     1      15.771 -10.710  27.237  1.00  0.00     0.012 C 
ATOM     18  C   UNL     1      13.924 -11.042  29.856  1.00  0.00     0.000 C 
ATOM     19  C   UNL     1      12.374  -9.919  28.026  1.00  0.00     0.005 C 
ATOM     20  C   UNL     1      12.583 -11.109  29.033  1.00  0.00     0.003 C 
ATOM     21  C   UNL     1      14.668 -12.384  29.974  1.00  0.00     0.031 C 
ATOM     22  C   UNL     1      12.139 -12.549  28.531  1.00  0.00    -0.008 C 
ATOM     23  C   UNL     1      13.700 -13.498  30.246  1.00  0.00    -0.027 C 
ATOM     24  C   UNL     1      12.513 -13.585  29.608  1.00  0.00    -0.065 C 
ATOM     25  C   UNL     1      10.587 -12.534  28.284  1.00  0.00     0.014 C 
ATOM     26  C   UNL     1      12.833 -12.965  27.210  1.00  0.00     0.016 C 
ATOM     27  C   UNL     1      11.696 -14.847  29.812  1.00  0.00     0.063 C 
ATOM     28  C   UNL     1       9.930 -13.917  28.299  1.00  0.00     0.033 C 
ATOM     29  C   UNL     1      10.198 -14.614  29.635  1.00  0.00     0.118 C 
BRANCH  29  30
ATOM     30  O   UNL     1       9.539 -15.852  29.670  1.00  0.00    -0.393 OA
ATOM     31  H   UNL     1       9.777 -16.279  30.536  1.00  0.00     0.210 HD
ENDBRANCH  29  30
ENDBRANCH   9  11
ENDBRANCH   1   9
TORSDOF 7
ENDMDL
MODEL 5
REMARK VINA RESULT:    -7.993      4.369      7.347
REMARK INTER + INTRA:         -11.896
REMARK INTER:                  -9.447
REMARK INTRA:                  -2.450
REMARK UNBOUND:                -0.866
REMARK SMILES CC[C@@H](CC[C@@H](C)[C@@H]1CC[C@@H]2[C@@H]3CC=C4C[C@H](O)CC[C@@]4(C)[C@@H]3CC[C@]21C)C(C)C
REMARK SMILES IDX 5 1 4 2 3 3 2 4 1 5 28 6 29 7 30 8 6 9 7 10 8 11 9 12 26 13
REMARK SMILES IDX 10 14 11 15 25 16 27 17 12 18 24 19 23 20 13 21 21 22 14 23
REMARK SMILES IDX 15 24 20 25 22 26 16 27 19 28 17 29 18 30
REMARK H PARENT 18 31
REMARK Flexibility Score: inf
ROOT
ATOM      1  C   UNL     1      16.499 -11.124  27.966  1.00  0.00     0.004 C 
ENDROOT
BRANCH   1   2
ATOM      2  C   UNL     1      16.945 -12.522  27.470  1.00  0.00     0.004 C 
BRANCH   2   3
ATOM      3  C   UNL     1      15.764 -13.418  27.003  1.00  0.00    -0.009 C 
BRANCH   3   4
ATOM      4  C   UNL     1      15.733 -13.508  25.452  1.00  0.00     0.000 C 
ATOM      5  C   UNL     1      17.108 -13.346  24.799  1.00  0.00     0.004 C 
ENDBRANCH   3   4
BRANCH   3   6
ATOM      6  C   UNL     1      14.391 -12.964  27.614  1.00  0.00    -0.014 C 
ATOM      7  C   UNL     1      13.306 -12.796  26.536  1.00  0.00     0.007 C 
ATOM      8  C   UNL     1      13.879 -13.885  28.735  1.00  0.00     0.007 C 
ENDBRANCH   3   6
ENDBRANCH   2   3
ENDBRANCH   1   2
BRANCH   1   9
ATOM      9  C   UNL     1      16.675  -9.980  26.924  1.00  0.00    -0.011 C 
ATOM     10  C   UNL     1      18.117  -9.971  26.351  1.00  0.00     0.008 C 
BRANCH   9  11
ATOM     11  C   UNL     1      15.481  -9.948  25.893  1.00  0.00    -0.002 C 
ATOM     12  C   UNL     1      15.833  -9.879  24.381  1.00  0.00     0.005 C 
ATOM     13  C   UNL     1      14.340  -8.900  26.087  1.00  0.00    -0.026 C 
ATOM     14  C   UNL     1      14.639  -9.208  23.682  1.00  0.00     0.005 C 
ATOM     15  C   UNL     1      13.576  -9.125  24.767  1.00  0.00    -0.001 C 
ATOM     16  C   UNL     1      13.396  -9.172  27.300  1.00  0.00     0.007 C 
ATOM     17  C   UNL     1      14.934  -7.478  26.224  1.00  0.00     0.012 C 
ATOM     18  C   UNL     1      12.311  -8.271  24.530  1.00  0.00     0.000 C 
ATOM     19  C   UNL     1      11.876  -9.169  26.983  1.00  0.00     0.005 C 
ATOM     20  C   UNL     1      11.368  -8.278  25.790  1.00  0.00     0.003 C 
ATOM     21  C   UNL     1      12.531  -6.882  23.905  1.00  0.00     0.031 C 
ATOM     22  C   UNL     1      10.703  -6.888  26.178  1.00  0.00    -0.008 C 
ATOM     23  C   UNL     1      11.239  -6.120  23.854  1.00  0.00    -0.027 C 
ATOM     24  C   UNL     1      10.365  -6.124  24.883  1.00  0.00    -0.065 C 
ATOM     25  C   UNL     1       9.404  -7.173  27.016  1.00  0.00     0.014 C 
ATOM     26  C   UNL     1      11.637  -5.992  27.028  1.00  0.00     0.016 C 
ATOM     27  C   UNL     1       9.187  -5.172  24.810  1.00  0.00     0.063 C 
ATOM     28  C   UNL     1       8.394  -6.021  27.029  1.00  0.00     0.033 C 
ATOM     29  C   UNL     1       7.978  -5.669  25.599  1.00  0.00     0.118 C 
BRANCH  29  30
ATOM     30  O   UNL     1       7.004  -4.659  25.619  1.00  0.00    -0.393 OA
ATOM     31  H   UNL     1       6.171  -5.071  25.975  1.00  0.00     0.210 HD
ENDBRANCH  29  30
ENDBRANCH   9  11
ENDBRANCH   1   9
TORSDOF 7
ENDMDL
MODEL 6
REMARK VINA RESULT:    -7.953      3.196      5.608
REMARK INTER + INTRA:         -11.840
REMARK INTER:                  -9.742
REMARK INTRA:                  -2.098
REMARK UNBOUND:                -0.866
REMARK SMILES CC[C@@H](CC[C@@H](C)[C@@H]1CC[C@@H]2[C@@H]3CC=C4C[C@H](O)CC[C@@]4(C)[C@@H]3CC[C@]21C)C(C)C
REMARK SMILES IDX 5 1 4 2 3 3 2 4 1 5 28 6 29 7 30 8 6 9 7 10 8 11 9 12 26 13
REMARK SMILES IDX 10 14 11 15 25 16 27 17 12 18 24 19 23 20 13 21 21 22 14 23
REMARK SMILES IDX 15 24 20 25 22 26 16 27 19 28 17 29 18 30
REMARK H PARENT 18 31
REMARK Flexibility Score: inf
ROOT
ATOM      1  C   UNL     1      15.848 -13.878  27.841  1.00  0.00     0.004 C 
ENDROOT
BRANCH   1   2
ATOM      2  C   UNL     1      14.674 -13.800  28.849  1.00  0.00     0.004 C 
BRANCH   2   3
ATOM      3  C   UNL     1      14.065 -12.376  28.979  1.00  0.00    -0.009 C 
BRANCH   3   4
ATOM      4  C   UNL     1      14.346 -11.793  30.393  1.00  0.00     0.000 C 
ATOM      5  C   UNL     1      15.194 -10.518  30.374  1.00  0.00     0.004 C 
ENDBRANCH   3   4
BRANCH   3   6
ATOM      6  C   UNL     1      12.543 -12.340  28.599  1.00  0.00    -0.014 C 
ATOM      7  C   UNL     1      12.016 -10.901  28.454  1.00  0.00     0.007 C 
ATOM      8  C   UNL     1      12.201 -13.153  27.338  1.00  0.00     0.007 C 
ENDBRANCH   3   6
ENDBRANCH   2   3
ENDBRANCH   1   2
BRANCH   1   9
ATOM      9  C   UNL     1      16.576 -12.524  27.587  1.00  0.00    -0.011 C 
ATOM     10  C   UNL     1      17.976 -12.515  28.258  1.00  0.00     0.008 C 
BRANCH   9  11
ATOM     11  C   UNL     1      16.491 -12.096  26.071  1.00  0.00    -0.002 C 
ATOM     12  C   UNL     1      17.756 -12.296  25.191  1.00  0.00     0.005 C 
ATOM     13  C   UNL     1      15.977 -10.666  25.715  1.00  0.00    -0.026 C 
ATOM     14  C   UNL     1      17.672 -11.260  24.059  1.00  0.00     0.005 C 
ATOM     15  C   UNL     1      16.278 -10.669  24.204  1.00  0.00    -0.001 C 
ATOM     16  C   UNL     1      14.452 -10.436  25.954  1.00  0.00     0.007 C 
ATOM     17  C   UNL     1      16.773  -9.597  26.503  1.00  0.00     0.012 C 
ATOM     18  C   UNL     1      15.903  -9.400  23.407  1.00  0.00     0.000 C 
ATOM     19  C   UNL     1      13.665  -9.846  24.751  1.00  0.00     0.005 C 
ATOM     20  C   UNL     1      14.439  -8.925  23.737  1.00  0.00     0.003 C 
ATOM     21  C   UNL     1      16.950  -8.272  23.385  1.00  0.00     0.031 C 
ATOM     22  C   UNL     1      14.228  -7.358  23.902  1.00  0.00    -0.008 C 
ATOM     23  C   UNL     1      16.401  -7.061  22.689  1.00  0.00    -0.027 C 
ATOM     24  C   UNL     1      15.138  -6.629  22.894  1.00  0.00    -0.065 C 
ATOM     25  C   UNL     1      12.716  -7.028  23.633  1.00  0.00     0.014 C 
ATOM     26  C   UNL     1      14.588  -6.850  25.320  1.00  0.00     0.016 C 
ATOM     27  C   UNL     1      14.745  -5.293  22.295  1.00  0.00     0.063 C 
ATOM     28  C   UNL     1      12.446  -5.570  23.249  1.00  0.00     0.033 C 
ATOM     29  C   UNL     1      13.250  -5.195  22.002  1.00  0.00     0.118 C 
BRANCH  29  30
ATOM     30  O   UNL     1      12.949  -3.880  21.615  1.00  0.00    -0.393 OA
ATOM     31  H   UNL     1      13.473  -3.696  20.791  1.00  0.00     0.210 HD
ENDBRANCH  29  30
ENDBRANCH   9  11
ENDBRANCH   1   9
TORSDOF 7
ENDMDL
MODEL 7
REMARK VINA RESULT:    -7.798      4.131      8.473
REMARK INTER + INTRA:         -11.626
REMARK INTER:                  -9.184
REMARK INTRA:                  -2.443
REMARK UNBOUND:                -0.866
REMARK SMILES CC[C@@H](CC[C@@H](C)[C@@H]1CC[C@@H]2[C@@H]3CC=C4C[C@H](O)CC[C@@]4(C)[C@@H]3CC[C@]21C)C(C)C
REMARK SMILES IDX 5 1 4 2 3 3 2 4 1 5 28 6 29 7 30 8 6 9 7 10 8 11 9 12 26 13
REMARK SMILES IDX 10 14 11 15 25 16 27 17 12 18 24 19 23 20 13 21 21 22 14 23
REMARK SMILES IDX 15 24 20 25 22 26 16 27 19 28 17 29 18 30
REMARK H PARENT 18 31
REMARK Flexibility Score: inf
ROOT
ATOM      1  C   UNL     1      15.754  -8.881  24.481  1.00  0.00     0.004 C 
ENDROOT
BRANCH   1   2
ATOM      2  C   UNL     1      15.592  -7.940  25.701  1.00  0.00     0.004 C 
BRANCH   2   3
ATOM      3  C   UNL     1      14.223  -7.206  25.737  1.00  0.00    -0.009 C 
BRANCH   3   4
ATOM      4  C   UNL     1      13.489  -7.494  27.077  1.00  0.00     0.000 C 
ATOM      5  C   UNL     1      14.428  -7.897  28.217  1.00  0.00     0.004 C 
ENDBRANCH   3   4
BRANCH   3   6
ATOM      6  C   UNL     1      13.339  -7.526  24.480  1.00  0.00    -0.014 C 
ATOM      7  C   UNL     1      11.912  -7.951  24.869  1.00  0.00     0.007 C 
ATOM      8  C   UNL     1      13.284  -6.380  23.455  1.00  0.00     0.007 C 
ENDBRANCH   3   6
ENDBRANCH   2   3
ENDBRANCH   1   2
BRANCH   1   9
ATOM      9  C   UNL     1      16.183 -10.336  24.838  1.00  0.00    -0.011 C 
ATOM     10  C   UNL     1      17.611 -10.636  24.310  1.00  0.00     0.008 C 
BRANCH   9  11
ATOM     11  C   UNL     1      15.876 -10.676  26.347  1.00  0.00    -0.002 C 
ATOM     12  C   UNL     1      17.040 -11.232  27.214  1.00  0.00     0.005 C 
ATOM     13  C   UNL     1      14.654 -11.587  26.686  1.00  0.00    -0.026 C 
ATOM     14  C   UNL     1      16.396 -12.070  28.330  1.00  0.00     0.005 C 
ATOM     15  C   UNL     1      14.908 -11.783  28.193  1.00  0.00    -0.001 C 
ATOM     16  C   UNL     1      13.258 -10.924  26.464  1.00  0.00     0.007 C 
ATOM     17  C   UNL     1      14.719 -12.900  25.871  1.00  0.00     0.012 C 
ATOM     18  C   UNL     1      13.891 -12.646  28.974  1.00  0.00     0.000 C 
ATOM     19  C   UNL     1      12.279 -11.001  27.667  1.00  0.00     0.005 C 
ATOM     20  C   UNL     1      12.410 -12.219  28.655  1.00  0.00     0.003 C 
ATOM     21  C   UNL     1      14.134 -14.165  28.963  1.00  0.00     0.031 C 
ATOM     22  C   UNL     1      11.364 -13.399  28.466  1.00  0.00    -0.008 C 
ATOM     23  C   UNL     1      13.005 -14.881  29.646  1.00  0.00    -0.027 C 
ATOM     24  C   UNL     1      11.715 -14.532  29.451  1.00  0.00    -0.065 C 
ATOM     25  C   UNL     1       9.923 -12.838  28.750  1.00  0.00     0.014 C 
ATOM     26  C   UNL     1      11.377 -13.992  27.036  1.00  0.00     0.016 C 
ATOM     27  C   UNL     1      10.646 -15.436  30.032  1.00  0.00     0.063 C 
ATOM     28  C   UNL     1       8.888 -13.908  29.113  1.00  0.00     0.033 C 
ATOM     29  C   UNL     1       9.350 -14.692  30.343  1.00  0.00     0.118 C 
BRANCH  29  30
ATOM     30  O   UNL     1       8.368 -15.625  30.712  1.00  0.00    -0.393 OA
ATOM     31  H   UNL     1       8.808 -16.518  30.714  1.00  0.00     0.210 HD
ENDBRANCH  29  30
ENDBRANCH   9  11
ENDBRANCH   1   9
TORSDOF 7
ENDMDL
MODEL 8
REMARK VINA RESULT:    -7.715      4.667      8.420
REMARK INTER + INTRA:         -11.512
REMARK INTER:                  -9.583
REMARK INTRA:                  -1.929
REMARK UNBOUND:                -0.866
REMARK SMILES CC[C@@H](CC[C@@H](C)[C@@H]1CC[C@@H]2[C@@H]3CC=C4C[C@H](O)CC[C@@]4(C)[C@@H]3CC[C@]21C)C(C)C
REMARK SMILES IDX 5 1 4 2 3 3 2 4 1 5 28 6 29 7 30 8 6 9 7 10 8 11 9 12 26 13
REMARK SMILES IDX 10 14 11 15 25 16 27 17 12 18 24 19 23 20 13 21 21 22 14 23
REMARK SMILES IDX 15 24 20 25 22 26 16 27 19 28 17 29 18 30
REMARK H PARENT 18 31
REMARK Flexibility Score: inf
ROOT
ATOM      1  C   UNL     1      13.183  -5.807  25.037  1.00  0.00     0.004 C 
ENDROOT
BRANCH   1   2
ATOM      2  C   UNL     1      11.716  -6.119  25.427  1.00  0.00     0.004 C 
BRANCH   2   3
ATOM      3  C   UNL     1      11.344  -7.621  25.284  1.00  0.00    -0.009 C 
BRANCH   3   4
ATOM      4  C   UNL     1      10.248  -7.807  24.198  1.00  0.00     0.000 C 
ATOM      5  C   UNL     1       9.619  -6.492  23.729  1.00  0.00     0.004 C 
ENDBRANCH   3   4
BRANCH   3   6
ATOM      6  C   UNL     1      10.957  -8.275  26.657  1.00  0.00    -0.014 C 
ATOM      7  C   UNL     1      11.718  -7.642  27.835  1.00  0.00     0.007 C 
ATOM      8  C   UNL     1       9.445  -8.262  26.943  1.00  0.00     0.007 C 
ENDBRANCH   3   6
ENDBRANCH   2   3
ENDBRANCH   1   2
BRANCH   1   9
ATOM      9  C   UNL     1      13.744  -6.680  23.875  1.00  0.00    -0.011 C 
ATOM     10  C   UNL     1      13.657  -5.922  22.523  1.00  0.00     0.008 C 
BRANCH   9  11
ATOM     11  C   UNL     1      15.128  -7.332  24.257  1.00  0.00    -0.002 C 
ATOM     12  C   UNL     1      16.303  -7.176  23.252  1.00  0.00     0.005 C 
ATOM     13  C   UNL     1      15.166  -8.832  24.688  1.00  0.00    -0.026 C 
ATOM     14  C   UNL     1      17.242  -8.372  23.484  1.00  0.00     0.005 C 
ATOM     15  C   UNL     1      16.693  -9.032  24.740  1.00  0.00    -0.001 C 
ATOM     16  C   UNL     1      14.543  -9.130  26.088  1.00  0.00     0.007 C 
ATOM     17  C   UNL     1      14.462  -9.714  23.630  1.00  0.00     0.012 C 
ATOM     18  C   UNL     1      17.209 -10.428  25.154  1.00  0.00     0.000 C 
ATOM     19  C   UNL     1      15.438  -9.945  27.062  1.00  0.00     0.005 C 
ATOM     20  C   UNL     1      16.480 -10.950  26.448  1.00  0.00     0.003 C 
ATOM     21  C   UNL     1      17.336 -11.471  24.029  1.00  0.00     0.031 C 
ATOM     22  C   UNL     1      16.072 -12.485  26.454  1.00  0.00    -0.008 C 
ATOM     23  C   UNL     1      17.720 -12.807  24.594  1.00  0.00    -0.027 C 
ATOM     24  C   UNL     1      17.167 -13.290  25.727  1.00  0.00    -0.065 C 
ATOM     25  C   UNL     1      15.927 -12.957  27.946  1.00  0.00     0.014 C 
ATOM     26  C   UNL     1      14.728 -12.752  25.732  1.00  0.00     0.016 C 
ATOM     27  C   UNL     1      17.479 -14.725  26.106  1.00  0.00     0.063 C 
ATOM     28  C   UNL     1      16.047 -14.471  28.145  1.00  0.00     0.033 C 
ATOM     29  C   UNL     1      17.391 -14.970  27.611  1.00  0.00     0.118 C 
BRANCH  29  30
ATOM     30  O   UNL     1      17.524 -16.345  27.855  1.00  0.00    -0.393 OA
ATOM     31  H   UNL     1      16.612 -16.691  28.051  1.00  0.00     0.210 HD
ENDBRANCH  29  30
ENDBRANCH   9  11
ENDBRANCH   1   9
TORSDOF 7
ENDMDL
MODEL 9
REMARK VINA RESULT:    -7.628      5.082      7.644
REMARK INTER + INTRA:         -11.392
REMARK INTER:                  -9.199
REMARK INTRA:                  -2.193
REMARK UNBOUND:                -0.866
REMARK SMILES CC[C@@H](CC[C@@H](C)[C@@H]1CC[C@@H]2[C@@H]3CC=C4C[C@H](O)CC[C@@]4(C)[C@@H]3CC[C@]21C)C(C)C
REMARK SMILES IDX 5 1 4 2 3 3 2 4 1 5 28 6 29 7 30 8 6 9 7 10 8 11 9 12 26 13
REMARK SMILES IDX 10 14 11 15 25 16 27 17 12 18 24 19 23 20 13 21 21 22 14 23
REMARK SMILES IDX 15 24 20 25 22 26 16 27 19 28 17 29 18 30
REMARK H PARENT 18 31
REMARK Flexibility Score: inf
ROOT
ATOM      1  C   UNL     1      16.893 -10.876  28.009  1.00  0.00     0.004 C 
ENDROOT
BRANCH   1   2
ATOM      2  C   UNL     1      15.793 -11.764  27.374  1.00  0.00     0.004 C 
BRANCH   2   3
ATOM      3  C   UNL     1      16.353 -13.033  26.673  1.00  0.00    -0.009 C 
BRANCH   3   4
ATOM      4  C   UNL     1      17.738 -13.413  27.266  1.00  0.00     0.000 C 
ATOM      5  C   UNL     1      17.816 -14.857  27.768  1.00  0.00     0.004 C 
ENDBRANCH   3   4
BRANCH   3   6
ATOM      6  C   UNL     1      16.379 -12.891  25.110  1.00  0.00    -0.014 C 
ATOM      7  C   UNL     1      15.215 -12.031  24.587  1.00  0.00     0.007 C 
ATOM      8  C   UNL     1      17.713 -12.358  24.560  1.00  0.00     0.007 C 
ENDBRANCH   3   6
ENDBRANCH   2   3
ENDBRANCH   1   2
BRANCH   1   9
ATOM      9  C   UNL     1      16.822  -9.372  27.609  1.00  0.00    -0.011 C 
ATOM     10  C   UNL     1      18.125  -8.631  28.014  1.00  0.00     0.008 C 
BRANCH   9  11
ATOM     11  C   UNL     1      16.309  -9.189  26.129  1.00  0.00    -0.002 C 
ATOM     12  C   UNL     1      17.339  -8.733  25.058  1.00  0.00     0.005 C 
ATOM     13  C   UNL     1      15.044  -8.313  25.867  1.00  0.00    -0.026 C 
ATOM     14  C   UNL     1      16.540  -8.013  23.959  1.00  0.00     0.005 C 
ATOM     15  C   UNL     1      15.088  -8.276  24.327  1.00  0.00    -0.001 C 
ATOM     16  C   UNL     1      13.698  -8.941  26.346  1.00  0.00     0.007 C 
ATOM     17  C   UNL     1      15.208  -6.922  26.525  1.00  0.00     0.012 C 
ATOM     18  C   UNL     1      13.966  -7.495  23.608  1.00  0.00     0.000 C 
ATOM     19  C   UNL     1      12.562  -8.984  25.287  1.00  0.00     0.005 C 
ATOM     20  C   UNL     1      12.547  -7.878  24.169  1.00  0.00     0.003 C 
ATOM     21  C   UNL     1      14.195  -5.983  23.426  1.00  0.00     0.031 C 
ATOM     22  C   UNL     1      11.525  -6.678  24.375  1.00  0.00    -0.008 C 
ATOM     23  C   UNL     1      12.976  -5.337  22.834  1.00  0.00    -0.027 C 
ATOM     24  C   UNL     1      11.729  -5.656  23.239  1.00  0.00    -0.065 C 
ATOM     25  C   UNL     1      10.065  -7.258  24.351  1.00  0.00     0.014 C 
ATOM     26  C   UNL     1      11.729  -5.940  25.721  1.00  0.00     0.016 C 
ATOM     27  C   UNL     1      10.582  -4.812  22.718  1.00  0.00     0.063 C 
ATOM     28  C   UNL     1       8.980  -6.227  24.024  1.00  0.00     0.033 C 
ATOM     29  C   UNL     1       9.262  -5.577  22.668  1.00  0.00     0.118 C 
BRANCH  29  30
ATOM     30  O   UNL     1       8.231  -4.683  22.341  1.00  0.00    -0.393 OA
ATOM     31  H   UNL     1       7.395  -5.218  22.280  1.00  0.00     0.210 HD
ENDBRANCH  29  30
ENDBRANCH   9  11
ENDBRANCH   1   9
TORSDOF 7
ENDMDL
