MODEL 1
REMARK VINA RESULT:    -4.564      0.000      0.000
REMARK INTER + INTRA:         -11.285
REMARK INTER:                  -8.832
REMARK INTRA:                  -2.453
REMARK UNBOUND:                -2.453
REMARK SMILES CCCCCCCCCCCCCCCCCC(=O)[O-]
REMARK SMILES IDX 10 1 11 2 12 3 13 4 14 5 15 6 16 7 17 8 18 9 19 10 20 11
REMARK SMILES IDX 9 12 8 13 7 14 6 15 5 16 4 17 3 18 2 19 1 20
REMARK H PARENT
REMARK Flexibility Score: inf
ROOT
ATOM      1  C   UNL     1      10.038  13.975  21.884  1.00  0.00     0.000 C 
ENDROOT
BRANCH   1   2
ATOM      2  C   UNL     1      10.520  12.740  22.662  1.00  0.00     0.000 C 
BRANCH   2   3
ATOM      3  C   UNL     1      12.018  12.460  22.461  1.00  0.00     0.000 C 
BRANCH   3   4
ATOM      4  C   UNL     1      12.883  13.719  22.640  1.00  0.00     0.000 C 
BRANCH   4   5
ATOM      5  C   UNL     1      13.204  14.019  24.116  1.00  0.00     0.000 C 
BRANCH   5   6
ATOM      6  C   UNL     1      13.049  15.495  24.535  1.00  0.00     0.000 C 
BRANCH   6   7
ATOM      7  C   UNL     1      11.595  15.997  24.638  1.00  0.00     0.006 C 
BRANCH   7   8
ATOM      8  C   UNL     1      11.448  17.527  24.603  1.00  0.00     0.053 C 
BRANCH   8   9
ATOM      9  C   UNL     1      12.502  18.210  25.418  1.00  0.00     0.041 C 
ATOM     10  O   UNL     1      12.401  18.259  26.672  1.00  0.00    -0.550 OA
ATOM     11  O   UNL     1      13.580  18.823  24.791  1.00  0.00    -0.550 OA
ENDBRANCH   8   9
ENDBRANCH   7   8
ENDBRANCH   6   7
ENDBRANCH   5   6
ENDBRANCH   4   5
ENDBRANCH   3   4
ENDBRANCH   2   3
ENDBRANCH   1   2
BRANCH   1  12
ATOM     12  C   UNL     1       8.832  14.623  22.575  1.00  0.00     0.000 C 
BRANCH  12  13
ATOM     13  C   UNL     1       7.519  13.969  22.117  1.00  0.00    -0.000 C 
BRANCH  13  14
ATOM     14  C   UNL     1       6.770  13.272  23.264  1.00  0.00    -0.000 C 
BRANCH  14  15
ATOM     15  C   UNL     1       6.276  11.866  22.878  1.00  0.00    -0.000 C 
BRANCH  15  16
ATOM     16  C   UNL     1       6.809  11.412  21.510  1.00  0.00    -0.000 C 
BRANCH  16  17
ATOM     17  C   UNL     1       7.847  10.281  21.622  1.00  0.00    -0.000 C 
BRANCH  17  18
ATOM     18  C   UNL     1       8.827  10.251  20.436  1.00  0.00    -0.000 C 
BRANCH  18  19
ATOM     19  C   UNL     1       8.776  11.491  19.525  1.00  0.00    -0.003 C 
ATOM     20  C   UNL     1      10.118  11.804  18.865  1.00  0.00     0.004 C 
ENDBRANCH  18  19
ENDBRANCH  17  18
ENDBRANCH  16  17
ENDBRANCH  15  16
ENDBRANCH  14  15
ENDBRANCH  13  14
ENDBRANCH  12  13
ENDBRANCH   1  12
TORSDOF 16
ENDMDL
MODEL 2
REMARK VINA RESULT:    -4.338      2.103      4.204
REMARK INTER + INTRA:         -10.848
REMARK INTER:                  -9.262
REMARK INTRA:                  -1.586
REMARK UNBOUND:                -2.453
REMARK SMILES CCCCCCCCCCCCCCCCCC(=O)[O-]
REMARK SMILES IDX 10 1 11 2 12 3 13 4 14 5 15 6 16 7 17 8 18 9 19 10 20 11
REMARK SMILES IDX 9 12 8 13 7 14 6 15 5 16 4 17 3 18 2 19 1 20
REMARK H PARENT
REMARK Flexibility Score: inf
ROOT
ATOM      1  C   UNL     1      12.845  15.985  23.440  1.00  0.00     0.000 C 
ENDROOT
BRANCH   1   2
ATOM      2  C   UNL     1      12.035  16.224  24.725  1.00  0.00     0.000 C 
BRANCH   2   3
ATOM      3  C   UNL     1      12.820  17.019  25.781  1.00  0.00     0.000 C 
BRANCH   3   4
ATOM      4  C   UNL     1      12.231  18.419  26.023  1.00  0.00     0.000 C 
BRANCH   4   5
ATOM      5  C   UNL     1      11.165  18.807  24.981  1.00  0.00     0.000 C 
BRANCH   5   6
ATOM      6  C   UNL     1      11.507  20.038  24.117  1.00  0.00     0.000 C 
BRANCH   6   7
ATOM      7  C   UNL     1      12.150  19.721  22.752  1.00  0.00     0.006 C 
BRANCH   7   8
ATOM      8  C   UNL     1      13.460  20.476  22.477  1.00  0.00     0.053 C 
BRANCH   8   9
ATOM      9  C   UNL     1      14.658  19.588  22.609  1.00  0.00     0.041 C 
ATOM     10  O   UNL     1      14.931  19.053  23.716  1.00  0.00    -0.550 OA
ATOM     11  O   UNL     1      15.493  19.377  21.518  1.00  0.00    -0.550 OA
ENDBRANCH   8   9
ENDBRANCH   7   8
ENDBRANCH   6   7
ENDBRANCH   5   6
ENDBRANCH   4   5
ENDBRANCH   3   4
ENDBRANCH   2   3
ENDBRANCH   1   2
BRANCH   1  12
ATOM     12  C   UNL     1      11.917  15.787  22.236  1.00  0.00     0.000 C 
BRANCH  12  13
ATOM     13  C   UNL     1      10.441  15.839  22.664  1.00  0.00    -0.000 C 
BRANCH  13  14
ATOM     14  C   UNL     1       9.704  14.512  22.422  1.00  0.00    -0.000 C 
BRANCH  14  15
ATOM     15  C   UNL     1       8.198  14.710  22.177  1.00  0.00    -0.000 C 
BRANCH  15  16
ATOM     16  C   UNL     1       7.358  13.537  22.709  1.00  0.00    -0.000 C 
BRANCH  16  17
ATOM     17  C   UNL     1       7.711  12.200  22.036  1.00  0.00    -0.000 C 
BRANCH  17  18
ATOM     18  C   UNL     1       7.450  10.986  22.947  1.00  0.00    -0.000 C 
BRANCH  18  19
ATOM     19  C   UNL     1       6.272  10.097  22.513  1.00  0.00    -0.003 C 
ATOM     20  C   UNL     1       4.941  10.847  22.470  1.00  0.00     0.004 C 
ENDBRANCH  18  19
ENDBRANCH  17  18
ENDBRANCH  16  17
ENDBRANCH  15  16
ENDBRANCH  14  15
ENDBRANCH  13  14
ENDBRANCH  12  13
ENDBRANCH   1  12
TORSDOF 16
ENDMDL
MODEL 3
REMARK VINA RESULT:    -4.241      3.711      7.321
REMARK INTER + INTRA:         -10.662
REMARK INTER:                  -8.442
REMARK INTRA:                  -2.220
REMARK UNBOUND:                -2.453
REMARK SMILES CCCCCCCCCCCCCCCCCC(=O)[O-]
REMARK SMILES IDX 10 1 11 2 12 3 13 4 14 5 15 6 16 7 17 8 18 9 19 10 20 11
REMARK SMILES IDX 9 12 8 13 7 14 6 15 5 16 4 17 3 18 2 19 1 20
REMARK H PARENT
REMARK Flexibility Score: inf
ROOT
ATOM      1  C   UNL     1      11.592  15.166  24.740  1.00  0.00     0.000 C 
ENDROOT
BRANCH   1   2
ATOM      2  C   UNL     1      12.871  14.693  24.032  1.00  0.00     0.000 C 
BRANCH   2   3
ATOM      3  C   UNL     1      12.580  13.852  22.779  1.00  0.00     0.000 C 
BRANCH   3   4
ATOM      4  C   UNL     1      11.249  13.086  22.879  1.00  0.00     0.000 C 
BRANCH   4   5
ATOM      5  C   UNL     1      10.202  13.573  21.860  1.00  0.00     0.000 C 
BRANCH   5   6
ATOM      6  C   UNL     1       8.905  14.140  22.471  1.00  0.00     0.000 C 
BRANCH   6   7
ATOM      7  C   UNL     1       7.599  13.556  21.894  1.00  0.00     0.006 C 
BRANCH   7   8
ATOM      8  C   UNL     1       7.706  12.093  21.437  1.00  0.00     0.053 C 
BRANCH   8   9
ATOM      9  C   UNL     1       7.449  11.135  22.559  1.00  0.00     0.041 C 
ATOM     10  O   UNL     1       6.270  10.814  22.860  1.00  0.00    -0.550 OA
ATOM     11  O   UNL     1       8.511  10.624  23.295  1.00  0.00    -0.550 OA
ENDBRANCH   8   9
ENDBRANCH   7   8
ENDBRANCH   6   7
ENDBRANCH   5   6
ENDBRANCH   4   5
ENDBRANCH   3   4
ENDBRANCH   2   3
ENDBRANCH   1   2
BRANCH   1  12
ATOM     12  C   UNL     1      11.529  16.698  24.794  1.00  0.00     0.000 C 
BRANCH  12  13
ATOM     13  C   UNL     1      12.747  17.273  25.534  1.00  0.00    -0.000 C 
BRANCH  13  14
ATOM     14  C   UNL     1      13.236  18.600  24.934  1.00  0.00    -0.000 C 
BRANCH  14  15
ATOM     15  C   UNL     1      14.498  18.428  24.070  1.00  0.00    -0.000 C 
BRANCH  15  16
ATOM     16  C   UNL     1      14.239  18.733  22.586  1.00  0.00    -0.000 C 
BRANCH  16  17
ATOM     17  C   UNL     1      13.948  17.467  21.761  1.00  0.00    -0.000 C 
BRANCH  17  18
ATOM     18  C   UNL     1      12.457  17.311  21.413  1.00  0.00    -0.000 C 
BRANCH  18  19
ATOM     19  C   UNL     1      11.640  18.613  21.480  1.00  0.00    -0.003 C 
ATOM     20  C   UNL     1      11.454  19.272  20.113  1.00  0.00     0.004 C 
ENDBRANCH  18  19
ENDBRANCH  17  18
ENDBRANCH  16  17
ENDBRANCH  15  16
ENDBRANCH  14  15
ENDBRANCH  13  14
ENDBRANCH  12  13
ENDBRANCH   1  12
TORSDOF 16
ENDMDL
MODEL 4
REMARK VINA RESULT:    -4.233      2.493      4.493
REMARK INTER + INTRA:         -10.645
REMARK INTER:                  -8.882
REMARK INTRA:                  -1.763
REMARK UNBOUND:                -2.453
REMARK SMILES CCCCCCCCCCCCCCCCCC(=O)[O-]
REMARK SMILES IDX 10 1 11 2 12 3 13 4 14 5 15 6 16 7 17 8 18 9 19 10 20 11
REMARK SMILES IDX 9 12 8 13 7 14 6 15 5 16 4 17 3 18 2 19 1 20
REMARK H PARENT
REMARK Flexibility Score: inf
ROOT
ATOM      1  C   UNL     1      11.605  15.384  24.857  1.00  0.00     0.000 C 
ENDROOT
BRANCH   1   2
ATOM      2  C   UNL     1      12.539  16.434  25.479  1.00  0.00     0.000 C 
BRANCH   2   3
ATOM      3  C   UNL     1      12.119  17.874  25.143  1.00  0.00     0.000 C 
BRANCH   3   4
ATOM      4  C   UNL     1      13.323  18.785  24.845  1.00  0.00     0.000 C 
BRANCH   4   5
ATOM      5  C   UNL     1      14.412  18.082  24.014  1.00  0.00     0.000 C 
BRANCH   5   6
ATOM      6  C   UNL     1      14.427  18.440  22.514  1.00  0.00     0.000 C 
BRANCH   6   7
ATOM      7  C   UNL     1      13.311  17.786  21.674  1.00  0.00     0.006 C 
BRANCH   7   8
ATOM      8  C   UNL     1      12.675  18.716  20.629  1.00  0.00     0.053 C 
BRANCH   8   9
ATOM      9  C   UNL     1      12.607  20.133  21.107  1.00  0.00     0.041 C 
ATOM     10  O   UNL     1      11.785  20.460  22.003  1.00  0.00    -0.550 OA
ATOM     11  O   UNL     1      13.427  21.100  20.539  1.00  0.00    -0.550 OA
ENDBRANCH   8   9
ENDBRANCH   7   8
ENDBRANCH   6   7
ENDBRANCH   5   6
ENDBRANCH   4   5
ENDBRANCH   3   4
ENDBRANCH   2   3
ENDBRANCH   1   2
BRANCH   1  12
ATOM     12  C   UNL     1      12.335  14.564  23.787  1.00  0.00     0.000 C 
BRANCH  12  13
ATOM     13  C   UNL     1      11.539  14.540  22.473  1.00  0.00    -0.000 C 
BRANCH  13  14
ATOM     14  C   UNL     1      10.438  15.612  22.425  1.00  0.00    -0.000 C 
BRANCH  14  15
ATOM     15  C   UNL     1       9.033  15.007  22.255  1.00  0.00    -0.000 C 
BRANCH  15  16
ATOM     16  C   UNL     1       9.049  13.470  22.271  1.00  0.00    -0.000 C 
BRANCH  16  17
ATOM     17  C   UNL     1       7.736  12.856  21.755  1.00  0.00    -0.000 C 
BRANCH  17  18
ATOM     18  C   UNL     1       6.764  12.485  22.889  1.00  0.00    -0.000 C 
BRANCH  18  19
ATOM     19  C   UNL     1       6.335  11.007  22.912  1.00  0.00    -0.003 C 
ATOM     20  C   UNL     1       4.885  10.799  22.474  1.00  0.00     0.004 C 
ENDBRANCH  18  19
ENDBRANCH  17  18
ENDBRANCH  16  17
ENDBRANCH  15  16
ENDBRANCH  14  15
ENDBRANCH  13  14
ENDBRANCH  12  13
ENDBRANCH   1  12
TORSDOF 16
ENDMDL
MODEL 5
REMARK VINA RESULT:    -4.151      2.675      4.984
REMARK INTER + INTRA:         -10.488
REMARK INTER:                  -9.013
REMARK INTRA:                  -1.475
REMARK UNBOUND:                -2.453
REMARK SMILES CCCCCCCCCCCCCCCCCC(=O)[O-]
REMARK SMILES IDX 10 1 11 2 12 3 13 4 14 5 15 6 16 7 17 8 18 9 19 10 20 11
REMARK SMILES IDX 9 12 8 13 7 14 6 15 5 16 4 17 3 18 2 19 1 20
REMARK H PARENT
REMARK Flexibility Score: inf
ROOT
ATOM      1  C   UNL     1      12.711  16.299  24.941  1.00  0.00     0.000 C 
ENDROOT
BRANCH   1   2
ATOM      2  C   UNL     1      12.585  17.460  25.940  1.00  0.00     0.000 C 
BRANCH   2   3
ATOM      3  C   UNL     1      12.781  18.834  25.279  1.00  0.00     0.000 C 
BRANCH   3   4
ATOM      4  C   UNL     1      11.573  19.255  24.424  1.00  0.00     0.000 C 
BRANCH   4   5
ATOM      5  C   UNL     1      11.947  19.533  22.956  1.00  0.00     0.000 C 
BRANCH   5   6
ATOM      6  C   UNL     1      13.150  20.477  22.753  1.00  0.00     0.000 C 
BRANCH   6   7
ATOM      7  C   UNL     1      14.359  19.850  22.029  1.00  0.00     0.006 C 
BRANCH   7   8
ATOM      8  C   UNL     1      14.340  18.314  21.975  1.00  0.00     0.053 C 
BRANCH   8   9
ATOM      9  C   UNL     1      14.309  17.803  20.568  1.00  0.00     0.041 C 
ATOM     10  O   UNL     1      13.231  17.801  19.919  1.00  0.00    -0.550 OA
ATOM     11  O   UNL     1      15.465  17.297  19.985  1.00  0.00    -0.550 OA
ENDBRANCH   8   9
ENDBRANCH   7   8
ENDBRANCH   6   7
ENDBRANCH   5   6
ENDBRANCH   4   5
ENDBRANCH   3   4
ENDBRANCH   2   3
ENDBRANCH   1   2
BRANCH   1  12
ATOM     12  C   UNL     1      11.378  15.554  24.794  1.00  0.00     0.000 C 
BRANCH  12  13
ATOM     13  C   UNL     1      10.993  15.404  23.313  1.00  0.00    -0.000 C 
BRANCH  13  14
ATOM     14  C   UNL     1      10.976  13.939  22.849  1.00  0.00    -0.000 C 
BRANCH  14  15
ATOM     15  C   UNL     1       9.805  13.635  21.898  1.00  0.00    -0.000 C 
BRANCH  15  16
ATOM     16  C   UNL     1       8.524  14.390  22.284  1.00  0.00    -0.000 C 
BRANCH  16  17
ATOM     17  C   UNL     1       7.341  13.449  22.568  1.00  0.00    -0.000 C 
BRANCH  17  18
ATOM     18  C   UNL     1       7.324  12.216  21.646  1.00  0.00    -0.000 C 
BRANCH  18  19
ATOM     19  C   UNL     1       6.794  10.929  22.302  1.00  0.00    -0.003 C 
ATOM     20  C   UNL     1       5.309  11.006  22.656  1.00  0.00     0.004 C 
ENDBRANCH  18  19
ENDBRANCH  17  18
ENDBRANCH  16  17
ENDBRANCH  15  16
ENDBRANCH  14  15
ENDBRANCH  13  14
ENDBRANCH  12  13
ENDBRANCH   1  12
TORSDOF 16
ENDMDL
MODEL 6
REMARK VINA RESULT:    -4.127      3.269      7.791
REMARK INTER + INTRA:         -10.441
REMARK INTER:                  -8.889
REMARK INTRA:                  -1.552
REMARK UNBOUND:                -2.453
REMARK SMILES CCCCCCCCCCCCCCCCCC(=O)[O-]
REMARK SMILES IDX 10 1 11 2 12 3 13 4 14 5 15 6 16 7 17 8 18 9 19 10 20 11
REMARK SMILES IDX 9 12 8 13 7 14 6 15 5 16 4 17 3 18 2 19 1 20
REMARK H PARENT
REMARK Flexibility Score: inf
ROOT
ATOM      1  C   UNL     1      10.287  15.181  22.176  1.00  0.00     0.000 C 
ENDROOT
BRANCH   1   2
ATOM      2  C   UNL     1       9.354  14.163  22.850  1.00  0.00     0.000 C 
BRANCH   2   3
ATOM      3  C   UNL     1       7.947  14.148  22.232  1.00  0.00     0.000 C 
BRANCH   3   4
ATOM      4  C   UNL     1       6.880  13.620  23.207  1.00  0.00     0.000 C 
BRANCH   4   5
ATOM      5  C   UNL     1       6.587  12.120  23.017  1.00  0.00     0.000 C 
BRANCH   5   6
ATOM      6  C   UNL     1       6.878  11.568  21.606  1.00  0.00     0.000 C 
BRANCH   6   7
ATOM      7  C   UNL     1       7.875  10.392  21.555  1.00  0.00     0.006 C 
BRANCH   7   8
ATOM      8  C   UNL     1       8.971  10.443  22.631  1.00  0.00     0.053 C 
BRANCH   8   9
ATOM      9  C   UNL     1      10.335  10.601  22.035  1.00  0.00     0.041 C 
ATOM     10  O   UNL     1      10.511  11.368  21.052  1.00  0.00    -0.550 OA
ATOM     11  O   UNL     1      11.406   9.876  22.543  1.00  0.00    -0.550 OA
ENDBRANCH   8   9
ENDBRANCH   7   8
ENDBRANCH   6   7
ENDBRANCH   5   6
ENDBRANCH   4   5
ENDBRANCH   3   4
ENDBRANCH   2   3
ENDBRANCH   1   2
BRANCH   1  12
ATOM     12  C   UNL     1      10.928  16.110  23.214  1.00  0.00     0.000 C 
BRANCH  12  13
ATOM     13  C   UNL     1      11.319  15.332  24.481  1.00  0.00    -0.000 C 
BRANCH  13  14
ATOM     14  C   UNL     1      12.801  15.504  24.850  1.00  0.00    -0.000 C 
BRANCH  14  15
ATOM     15  C   UNL     1      13.230  16.981  24.899  1.00  0.00    -0.000 C 
BRANCH  15  16
ATOM     16  C   UNL     1      12.462  17.780  25.964  1.00  0.00    -0.000 C 
BRANCH  16  17
ATOM     17  C   UNL     1      12.359  19.277  25.625  1.00  0.00    -0.000 C 
BRANCH  17  18
ATOM     18  C   UNL     1      11.394  19.561  24.461  1.00  0.00    -0.000 C 
BRANCH  18  19
ATOM     19  C   UNL     1      12.076  19.968  23.143  1.00  0.00    -0.003 C 
ATOM     20  C   UNL     1      12.166  21.483  22.959  1.00  0.00     0.004 C 
ENDBRANCH  18  19
ENDBRANCH  17  18
ENDBRANCH  16  17
ENDBRANCH  15  16
ENDBRANCH  14  15
ENDBRANCH  13  14
ENDBRANCH  12  13
ENDBRANCH   1  12
TORSDOF 16
ENDMDL
MODEL 7
REMARK VINA RESULT:    -4.123      4.222      7.694
REMARK INTER + INTRA:         -10.433
REMARK INTER:                  -8.416
REMARK INTRA:                  -2.017
REMARK UNBOUND:                -2.453
REMARK SMILES CCCCCCCCCCCCCCCCCC(=O)[O-]
REMARK SMILES IDX 10 1 11 2 12 3 13 4 14 5 15 6 16 7 17 8 18 9 19 10 20 11
REMARK SMILES IDX 9 12 8 13 7 14 6 15 5 16 4 17 3 18 2 19 1 20
REMARK H PARENT
REMARK Flexibility Score: inf
ROOT
ATOM      1  C   UNL     1      13.596  16.643  24.218  1.00  0.00     0.000 C 
ENDROOT
BRANCH   1   2
ATOM      2  C   UNL     1      12.575  16.211  25.282  1.00  0.00     0.000 C 
BRANCH   2   3
ATOM      3  C   UNL     1      11.381  15.450  24.682  1.00  0.00     0.000 C 
BRANCH   3   4
ATOM      4  C   UNL     1      11.157  15.780  23.196  1.00  0.00     0.000 C 
BRANCH   4   5
ATOM      5  C   UNL     1      11.222  14.535  22.292  1.00  0.00     0.000 C 
BRANCH   5   6
ATOM      6  C   UNL     1       9.965  13.642  22.313  1.00  0.00     0.000 C 
BRANCH   6   7
ATOM      7  C   UNL     1       8.622  14.399  22.262  1.00  0.00     0.006 C 
BRANCH   7   8
ATOM      8  C   UNL     1       7.428  13.611  22.824  1.00  0.00     0.053 C 
BRANCH   8   9
ATOM      9  C   UNL     1       7.378  12.213  22.292  1.00  0.00     0.041 C 
ATOM     10  O   UNL     1       7.484  11.233  23.075  1.00  0.00    -0.550 OA
ATOM     11  O   UNL     1       7.248  11.991  20.926  1.00  0.00    -0.550 OA
ENDBRANCH   8   9
ENDBRANCH   7   8
ENDBRANCH   6   7
ENDBRANCH   5   6
ENDBRANCH   4   5
ENDBRANCH   3   4
ENDBRANCH   2   3
ENDBRANCH   1   2
BRANCH   1  12
ATOM     12  C   UNL     1      13.987  18.115  24.399  1.00  0.00     0.000 C 
BRANCH  12  13
ATOM     13  C   UNL     1      12.860  18.903  25.088  1.00  0.00    -0.000 C 
BRANCH  13  14
ATOM     14  C   UNL     1      11.958  19.645  24.090  1.00  0.00    -0.000 C 
BRANCH  14  15
ATOM     15  C   UNL     1      12.659  19.914  22.746  1.00  0.00    -0.000 C 
BRANCH  15  16
ATOM     16  C   UNL     1      12.020  19.138  21.584  1.00  0.00    -0.000 C 
BRANCH  16  17
ATOM     17  C   UNL     1      13.050  18.349  20.758  1.00  0.00    -0.000 C 
BRANCH  17  18
ATOM     18  C   UNL     1      14.474  18.920  20.876  1.00  0.00    -0.000 C 
BRANCH  18  19
ATOM     19  C   UNL     1      14.959  19.703  19.643  1.00  0.00    -0.003 C 
ATOM     20  C   UNL     1      14.427  21.135  19.597  1.00  0.00     0.004 C 
ENDBRANCH  18  19
ENDBRANCH  17  18
ENDBRANCH  16  17
ENDBRANCH  15  16
ENDBRANCH  14  15
ENDBRANCH  13  14
ENDBRANCH  12  13
ENDBRANCH   1  12
TORSDOF 16
ENDMDL
MODEL 8
REMARK VINA RESULT:    -4.070      3.676      7.533
REMARK INTER + INTRA:         -10.330
REMARK INTER:                  -8.493
REMARK INTRA:                  -1.838
REMARK UNBOUND:                -2.453
REMARK SMILES CCCCCCCCCCCCCCCCCC(=O)[O-]
REMARK SMILES IDX 10 1 11 2 12 3 13 4 14 5 15 6 16 7 17 8 18 9 19 10 20 11
REMARK SMILES IDX 9 12 8 13 7 14 6 15 5 16 4 17 3 18 2 19 1 20
REMARK H PARENT
REMARK Flexibility Score: inf
ROOT
ATOM      1  C   UNL     1      10.204  15.267  22.614  1.00  0.00     0.000 C 
ENDROOT
BRANCH   1   2
ATOM      2  C   UNL     1       9.291  14.139  22.108  1.00  0.00     0.000 C 
BRANCH   2   3
ATOM      3  C   UNL     1      10.078  12.960  21.516  1.00  0.00     0.000 C 
BRANCH   3   4
ATOM      4  C   UNL     1       9.242  12.130  20.526  1.00  0.00     0.000 C 
BRANCH   4   5
ATOM      5  C   UNL     1       9.162  10.642  20.912  1.00  0.00     0.000 C 
BRANCH   5   6
ATOM      6  C   UNL     1       9.406  10.337  22.404  1.00  0.00     0.000 C 
BRANCH   6   7
ATOM      7  C   UNL     1       8.132  10.229  23.268  1.00  0.00     0.006 C 
BRANCH   7   8
ATOM      8  C   UNL     1       6.831  10.080  22.464  1.00  0.00     0.053 C 
BRANCH   8   9
ATOM      9  C   UNL     1       5.866  11.188  22.747  1.00  0.00     0.041 C 
ATOM     10  O   UNL     1       4.630  11.009  22.586  1.00  0.00    -0.550 OA
ATOM     11  O   UNL     1       6.333  12.431  23.158  1.00  0.00    -0.550 OA
ENDBRANCH   8   9
ENDBRANCH   7   8
ENDBRANCH   6   7
ENDBRANCH   5   6
ENDBRANCH   4   5
ENDBRANCH   3   4
ENDBRANCH   2   3
ENDBRANCH   1   2
BRANCH   1  12
ATOM     12  C   UNL     1      11.329  14.708  23.494  1.00  0.00     0.000 C 
BRANCH  12  13
ATOM     13  C   UNL     1      11.373  15.427  24.853  1.00  0.00    -0.000 C 
BRANCH  13  14
ATOM     14  C   UNL     1      12.658  16.248  25.049  1.00  0.00    -0.000 C 
BRANCH  14  15
ATOM     15  C   UNL     1      12.372  17.737  25.313  1.00  0.00    -0.000 C 
BRANCH  15  16
ATOM     16  C   UNL     1      13.557  18.638  24.931  1.00  0.00    -0.000 C 
BRANCH  16  17
ATOM     17  C   UNL     1      14.032  18.416  23.484  1.00  0.00    -0.000 C 
BRANCH  17  18
ATOM     18  C   UNL     1      12.981  18.835  22.440  1.00  0.00    -0.000 C 
BRANCH  18  19
ATOM     19  C   UNL     1      12.557  17.719  21.469  1.00  0.00    -0.003 C 
ATOM     20  C   UNL     1      13.631  16.646  21.286  1.00  0.00     0.004 C 
ENDBRANCH  18  19
ENDBRANCH  17  18
ENDBRANCH  16  17
ENDBRANCH  15  16
ENDBRANCH  14  15
ENDBRANCH  13  14
ENDBRANCH  12  13
ENDBRANCH   1  12
TORSDOF 16
ENDMDL
MODEL 9
REMARK VINA RESULT:    -4.042      3.388      7.636
REMARK INTER + INTRA:         -10.276
REMARK INTER:                  -8.562
REMARK INTRA:                  -1.715
REMARK UNBOUND:                -2.453
REMARK SMILES CCCCCCCCCCCCCCCCCC(=O)[O-]
REMARK SMILES IDX 10 1 11 2 12 3 13 4 14 5 15 6 16 7 17 8 18 9 19 10 20 11
REMARK SMILES IDX 9 12 8 13 7 14 6 15 5 16 4 17 3 18 2 19 1 20
REMARK H PARENT
REMARK Flexibility Score: inf
ROOT
ATOM      1  C   UNL     1       9.861  15.113  22.290  1.00  0.00     0.000 C 
ENDROOT
BRANCH   1   2
ATOM      2  C   UNL     1       9.097  13.833  22.663  1.00  0.00     0.000 C 
BRANCH   2   3
ATOM      3  C   UNL     1       7.594  13.930  22.360  1.00  0.00     0.000 C 
BRANCH   3   4
ATOM      4  C   UNL     1       6.783  12.807  23.029  1.00  0.00     0.000 C 
BRANCH   4   5
ATOM      5  C   UNL     1       6.458  11.650  22.067  1.00  0.00     0.000 C 
BRANCH   5   6
ATOM      6  C   UNL     1       7.358  10.405  22.207  1.00  0.00     0.000 C 
BRANCH   6   7
ATOM      7  C   UNL     1       8.577  10.369  21.263  1.00  0.00     0.006 C 
BRANCH   7   8
ATOM      8  C   UNL     1       8.440  11.256  20.016  1.00  0.00     0.053 C 
BRANCH   8   9
ATOM      9  C   UNL     1       9.764  11.783  19.555  1.00  0.00     0.041 C 
ATOM     10  O   UNL     1       9.915  12.160  18.363  1.00  0.00    -0.550 OA
ATOM     11  O   UNL     1      10.841  11.826  20.433  1.00  0.00    -0.550 OA
ENDBRANCH   8   9
ENDBRANCH   7   8
ENDBRANCH   6   7
ENDBRANCH   5   6
ENDBRANCH   4   5
ENDBRANCH   3   4
ENDBRANCH   2   3
ENDBRANCH   1   2
BRANCH   1  12
ATOM     12  C   UNL     1      11.326  15.028  22.735  1.00  0.00     0.000 C 
BRANCH  12  13
ATOM     13  C   UNL     1      11.441  15.107  24.266  1.00  0.00    -0.000 C 
BRANCH  13  14
ATOM     14  C   UNL     1      11.599  16.548  24.777  1.00  0.00    -0.000 C 
BRANCH  14  15
ATOM     15  C   UNL     1      13.062  16.903  25.097  1.00  0.00    -0.000 C 
BRANCH  15  16
ATOM     16  C   UNL     1      13.343  18.409  24.964  1.00  0.00    -0.000 C 
BRANCH  16  17
ATOM     17  C   UNL     1      14.455  18.718  23.946  1.00  0.00    -0.000 C 
BRANCH  17  18
ATOM     18  C   UNL     1      14.130  18.204  22.532  1.00  0.00    -0.000 C 
BRANCH  18  19
ATOM     19  C   UNL     1      13.072  19.027  21.775  1.00  0.00    -0.003 C 
ATOM     20  C   UNL     1      11.912  18.177  21.256  1.00  0.00     0.004 C 
ENDBRANCH  18  19
ENDBRANCH  17  18
ENDBRANCH  16  17
ENDBRANCH  15  16
ENDBRANCH  14  15
ENDBRANCH  13  14
ENDBRANCH  12  13
ENDBRANCH   1  12
TORSDOF 16
ENDMDL
