MODEL 1
REMARK VINA RESULT:    -5.861      0.000      0.000
REMARK INTER + INTRA:          -7.007
REMARK INTER:                  -6.889
REMARK INTRA:                  -0.118
REMARK UNBOUND:                -0.118
REMARK SMILES O=C([O-])C=Cc1ccc(O)c(O)c1
REMARK SMILES IDX 6 1 13 2 7 3 11 4 8 5 9 6 5 7 4 8 2 9 1 10 3 11 12 12 10 14
REMARK H PARENT 12 13 10 15
REMARK Flexibility Score: inf
ROOT
ATOM      1  C   UNL     1      28.270  24.712  48.468  1.00  0.00    -0.022 A 
ATOM      2  C   UNL     1      29.436  24.910  47.717  1.00  0.00     0.058 A 
ATOM      3  C   UNL     1      27.038  24.602  47.806  1.00  0.00     0.012 A 
ATOM      4  C   UNL     1      29.393  24.946  46.317  1.00  0.00     0.157 A 
ATOM      5  C   UNL     1      26.983  24.635  46.412  1.00  0.00     0.051 A 
ATOM      6  C   UNL     1      28.149  24.800  45.656  1.00  0.00     0.157 A 
ENDROOT
BRANCH   1   7
ATOM      7  C   UNL     1      28.347  24.734  49.944  1.00  0.00     0.010 C 
ATOM      8  C   UNL     1      27.919  23.757  50.758  1.00  0.00     0.025 C 
BRANCH   8   9
ATOM      9  C   UNL     1      27.473  22.419  50.328  1.00  0.00     0.064 C 
ATOM     10  O   UNL     1      28.332  21.535  50.072  1.00  0.00    -0.545 OA
ATOM     11  O   UNL     1      26.127  22.130  50.128  1.00  0.00    -0.545 OA
ENDBRANCH   8   9
ENDBRANCH   1   7
BRANCH   4  12
ATOM     12  O   UNL     1      30.595  25.130  45.631  1.00  0.00    -0.504 OA
ATOM     13  H   UNL     1      31.456  24.658  45.865  1.00  0.00     0.293 HD
ENDBRANCH   4  12
BRANCH   6  14
ATOM     14  O   UNL     1      28.027  24.819  44.265  1.00  0.00    -0.504 OA
ATOM     15  H   UNL     1      28.683  25.276  43.647  1.00  0.00     0.293 HD
ENDBRANCH   6  14
TORSDOF 4
ENDMDL
MODEL 2
REMARK VINA RESULT:    -5.488      2.761      4.423
REMARK INTER + INTRA:          -6.568
REMARK INTER:                  -6.272
REMARK INTRA:                  -0.296
REMARK UNBOUND:                -0.118
REMARK SMILES O=C([O-])C=Cc1ccc(O)c(O)c1
REMARK SMILES IDX 6 1 13 2 7 3 11 4 8 5 9 6 5 7 4 8 2 9 1 10 3 11 12 12 10 14
REMARK H PARENT 12 13 10 15
REMARK Flexibility Score: inf
ROOT
ATOM      1  C   UNL     1      28.731  22.572  51.011  1.00  0.00    -0.022 A 
ATOM      2  C   UNL     1      27.437  22.174  50.648  1.00  0.00     0.058 A 
ATOM      3  C   UNL     1      29.297  23.702  50.403  1.00  0.00     0.012 A 
ATOM      4  C   UNL     1      26.688  22.918  49.728  1.00  0.00     0.157 A 
ATOM      5  C   UNL     1      28.559  24.451  49.486  1.00  0.00     0.051 A 
ATOM      6  C   UNL     1      27.255  24.076  49.144  1.00  0.00     0.157 A 
ENDROOT
BRANCH   1   7
ATOM      7  C   UNL     1      29.511  21.732  51.944  1.00  0.00     0.010 C 
ATOM      8  C   UNL     1      29.647  21.953  53.261  1.00  0.00     0.025 C 
BRANCH   8   9
ATOM      9  C   UNL     1      28.895  22.954  54.042  1.00  0.00     0.064 C 
ATOM     10  O   UNL     1      27.805  22.624  54.579  1.00  0.00    -0.545 OA
ATOM     11  O   UNL     1      29.324  24.273  54.139  1.00  0.00    -0.545 OA
ENDBRANCH   8   9
ENDBRANCH   1   7
BRANCH   4  12
ATOM     12  O   UNL     1      25.400  22.473  49.424  1.00  0.00    -0.504 OA
ATOM     13  H   UNL     1      24.559  22.866  49.820  1.00  0.00     0.293 HD
ENDBRANCH   4  12
BRANCH   6  14
ATOM     14  O   UNL     1      26.567  24.872  48.224  1.00  0.00    -0.504 OA
ATOM     15  H   UNL     1      26.533  25.881  48.266  1.00  0.00     0.293 HD
ENDBRANCH   6  14
TORSDOF 4
ENDMDL
MODEL 3
REMARK VINA RESULT:    -5.381      1.698      4.938
REMARK INTER + INTRA:          -6.442
REMARK INTER:                  -6.663
REMARK INTRA:                   0.220
REMARK UNBOUND:                -0.118
REMARK SMILES O=C([O-])C=Cc1ccc(O)c(O)c1
REMARK SMILES IDX 6 1 13 2 7 3 11 4 8 5 9 6 5 7 4 8 2 9 1 10 3 11 12 12 10 14
REMARK H PARENT 12 13 10 15
REMARK Flexibility Score: inf
ROOT
ATOM      1  C   UNL     1      29.128  23.930  48.395  1.00  0.00    -0.022 A 
ATOM      2  C   UNL     1      28.267  24.406  49.393  1.00  0.00     0.058 A 
ATOM      3  C   UNL     1      29.736  22.675  48.554  1.00  0.00     0.012 A 
ATOM      4  C   UNL     1      27.967  23.625  50.517  1.00  0.00     0.157 A 
ATOM      5  C   UNL     1      29.443  21.889  49.669  1.00  0.00     0.051 A 
ATOM      6  C   UNL     1      28.559  22.346  50.653  1.00  0.00     0.157 A 
ENDROOT
BRANCH   1   7
ATOM      7  C   UNL     1      29.463  24.804  47.251  1.00  0.00     0.010 C 
ATOM      8  C   UNL     1      28.732  24.936  46.134  1.00  0.00     0.025 C 
BRANCH   8   9
ATOM      9  C   UNL     1      27.379  24.385  45.928  1.00  0.00     0.064 C 
ATOM     10  O   UNL     1      26.549  25.031  45.236  1.00  0.00    -0.545 OA
ATOM     11  O   UNL     1      26.974  23.203  46.538  1.00  0.00    -0.545 OA
ENDBRANCH   8   9
ENDBRANCH   1   7
BRANCH   4  12
ATOM     12  O   UNL     1      27.089  24.155  51.464  1.00  0.00    -0.504 OA
ATOM     13  H   UNL     1      26.612  23.604  52.162  1.00  0.00     0.293 HD
ENDBRANCH   4  12
BRANCH   6  14
ATOM     14  O   UNL     1      28.303  21.508  51.741  1.00  0.00    -0.504 OA
ATOM     15  H   UNL     1      28.993  21.258  52.435  1.00  0.00     0.293 HD
ENDBRANCH   6  14
TORSDOF 4
ENDMDL
MODEL 4
REMARK VINA RESULT:    -5.343     11.374     12.574
REMARK INTER + INTRA:          -6.398
REMARK INTER:                  -6.132
REMARK INTRA:                  -0.266
REMARK UNBOUND:                -0.118
REMARK SMILES O=C([O-])C=Cc1ccc(O)c(O)c1
REMARK SMILES IDX 6 1 13 2 7 3 11 4 8 5 9 6 5 7 4 8 2 9 1 10 3 11 12 12 10 14
REMARK H PARENT 12 13 10 15
REMARK Flexibility Score: inf
ROOT
ATOM      1  C   UNL     1      18.972  24.218  39.570  1.00  0.00    -0.022 A 
ATOM      2  C   UNL     1      19.943  23.375  40.125  1.00  0.00     0.058 A 
ATOM      3  C   UNL     1      18.643  24.086  38.213  1.00  0.00     0.012 A 
ATOM      4  C   UNL     1      20.548  22.371  39.357  1.00  0.00     0.157 A 
ATOM      5  C   UNL     1      19.238  23.089  37.439  1.00  0.00     0.051 A 
ATOM      6  C   UNL     1      20.185  22.223  37.996  1.00  0.00     0.157 A 
ENDROOT
BRANCH   1   7
ATOM      7  C   UNL     1      18.396  25.300  40.396  1.00  0.00     0.010 C 
ATOM      8  C   UNL     1      18.971  26.490  40.628  1.00  0.00     0.025 C 
BRANCH   8   9
ATOM      9  C   UNL     1      20.180  27.002  39.955  1.00  0.00     0.064 C 
ATOM     10  O   UNL     1      21.309  26.781  40.465  1.00  0.00    -0.545 OA
ATOM     11  O   UNL     1      20.097  27.784  38.809  1.00  0.00    -0.545 OA
ENDBRANCH   8   9
ENDBRANCH   1   7
BRANCH   4  12
ATOM     12  O   UNL     1      21.496  21.556  39.978  1.00  0.00    -0.504 OA
ATOM     13  H   UNL     1      22.393  21.327  39.577  1.00  0.00     0.293 HD
ENDBRANCH   4  12
BRANCH   6  14
ATOM     14  O   UNL     1      20.739  21.242  37.170  1.00  0.00    -0.504 OA
ATOM     15  H   UNL     1      21.639  21.327  36.720  1.00  0.00     0.293 HD
ENDBRANCH   6  14
TORSDOF 4
ENDMDL
MODEL 5
REMARK VINA RESULT:    -5.206      2.621      4.486
REMARK INTER + INTRA:          -6.237
REMARK INTER:                  -5.990
REMARK INTRA:                  -0.247
REMARK UNBOUND:                -0.118
REMARK SMILES O=C([O-])C=Cc1ccc(O)c(O)c1
REMARK SMILES IDX 6 1 13 2 7 3 11 4 8 5 9 6 5 7 4 8 2 9 1 10 3 11 12 12 10 14
REMARK H PARENT 12 13 10 15
REMARK Flexibility Score: inf
ROOT
ATOM      1  C   UNL     1      29.354  22.955  50.249  1.00  0.00    -0.022 A 
ATOM      2  C   UNL     1      28.657  23.956  49.560  1.00  0.00     0.058 A 
ATOM      3  C   UNL     1      28.660  21.823  50.702  1.00  0.00     0.012 A 
ATOM      4  C   UNL     1      27.293  23.817  49.275  1.00  0.00     0.157 A 
ATOM      5  C   UNL     1      27.301  21.673  50.422  1.00  0.00     0.051 A 
ATOM      6  C   UNL     1      26.607  22.656  49.706  1.00  0.00     0.157 A 
ENDROOT
BRANCH   1   7
ATOM      7  C   UNL     1      30.780  23.162  50.580  1.00  0.00     0.010 C 
ATOM      8  C   UNL     1      31.813  22.887  49.769  1.00  0.00     0.025 C 
BRANCH   8   9
ATOM      9  C   UNL     1      31.707  22.513  48.346  1.00  0.00     0.064 C 
ATOM     10  O   UNL     1      31.866  23.396  47.463  1.00  0.00    -0.545 OA
ATOM     11  O   UNL     1      31.365  21.223  47.957  1.00  0.00    -0.545 OA
ENDBRANCH   8   9
ENDBRANCH   1   7
BRANCH   4  12
ATOM     12  O   UNL     1      26.665  24.846  48.571  1.00  0.00    -0.504 OA
ATOM     13  H   UNL     1      26.591  24.879  47.565  1.00  0.00     0.293 HD
ENDBRANCH   4  12
BRANCH   6  14
ATOM     14  O   UNL     1      25.250  22.443  49.453  1.00  0.00    -0.504 OA
ATOM     15  H   UNL     1      24.835  22.482  48.533  1.00  0.00     0.293 HD
ENDBRANCH   6  14
TORSDOF 4
ENDMDL
MODEL 6
REMARK VINA RESULT:    -5.201      2.934      3.949
REMARK INTER + INTRA:          -6.231
REMARK INTER:                  -5.965
REMARK INTRA:                  -0.266
REMARK UNBOUND:                -0.118
REMARK SMILES O=C([O-])C=Cc1ccc(O)c(O)c1
REMARK SMILES IDX 6 1 13 2 7 3 11 4 8 5 9 6 5 7 4 8 2 9 1 10 3 11 12 12 10 14
REMARK H PARENT 12 13 10 15
REMARK Flexibility Score: inf
ROOT
ATOM      1  C   UNL     1      28.848  22.441  51.001  1.00  0.00    -0.022 A 
ATOM      2  C   UNL     1      29.315  23.652  50.473  1.00  0.00     0.058 A 
ATOM      3  C   UNL     1      27.556  22.002  50.672  1.00  0.00     0.012 A 
ATOM      4  C   UNL     1      28.532  24.399  49.584  1.00  0.00     0.157 A 
ATOM      5  C   UNL     1      26.768  22.738  49.786  1.00  0.00     0.051 A 
ATOM      6  C   UNL     1      27.243  23.932  49.231  1.00  0.00     0.157 A 
ENDROOT
BRANCH   1   7
ATOM      7  C   UNL     1      29.680  21.708  51.978  1.00  0.00     0.010 C 
ATOM      8  C   UNL     1      29.780  21.997  53.284  1.00  0.00     0.025 C 
BRANCH   8   9
ATOM      9  C   UNL     1      28.941  22.967  54.012  1.00  0.00     0.064 C 
ATOM     10  O   UNL     1      29.344  24.153  54.144  1.00  0.00    -0.545 OA
ATOM     11  O   UNL     1      27.749  22.588  54.619  1.00  0.00    -0.545 OA
ENDBRANCH   8   9
ENDBRANCH   1   7
BRANCH   4  12
ATOM     12  O   UNL     1      29.067  25.588  49.084  1.00  0.00    -0.504 OA
ATOM     13  H   UNL     1      30.053  25.747  48.939  1.00  0.00     0.293 HD
ENDBRANCH   4  12
BRANCH   6  14
ATOM     14  O   UNL     1      26.407  24.619  48.347  1.00  0.00    -0.504 OA
ATOM     15  H   UNL     1      25.419  24.435  48.248  1.00  0.00     0.293 HD
ENDBRANCH   6  14
TORSDOF 4
ENDMDL
MODEL 7
REMARK VINA RESULT:    -5.035     10.407     12.059
REMARK INTER + INTRA:          -6.036
REMARK INTER:                  -5.999
REMARK INTRA:                  -0.038
REMARK UNBOUND:                -0.118
REMARK SMILES O=C([O-])C=Cc1ccc(O)c(O)c1
REMARK SMILES IDX 6 1 13 2 7 3 11 4 8 5 9 6 5 7 4 8 2 9 1 10 3 11 12 12 10 14
REMARK H PARENT 12 13 10 15
REMARK Flexibility Score: inf
ROOT
ATOM      1  C   UNL     1      17.355  26.501  44.791  1.00  0.00    -0.022 A 
ATOM      2  C   UNL     1      18.587  26.694  44.153  1.00  0.00     0.058 A 
ATOM      3  C   UNL     1      16.874  27.484  45.669  1.00  0.00     0.012 A 
ATOM      4  C   UNL     1      19.316  27.875  44.341  1.00  0.00     0.157 A 
ATOM      5  C   UNL     1      17.591  28.665  45.861  1.00  0.00     0.051 A 
ATOM      6  C   UNL     1      18.808  28.877  45.202  1.00  0.00     0.157 A 
ENDROOT
BRANCH   1   7
ATOM      7  C   UNL     1      16.640  25.219  44.611  1.00  0.00     0.010 C 
ATOM      8  C   UNL     1      16.139  24.765  43.452  1.00  0.00     0.025 C 
BRANCH   8   9
ATOM      9  C   UNL     1      16.375  25.365  42.125  1.00  0.00     0.064 C 
ATOM     10  O   UNL     1      17.306  24.920  41.404  1.00  0.00    -0.545 OA
ATOM     11  O   UNL     1      15.639  26.457  41.681  1.00  0.00    -0.545 OA
ENDBRANCH   8   9
ENDBRANCH   1   7
BRANCH   4  12
ATOM     12  O   UNL     1      20.529  28.009  43.662  1.00  0.00    -0.504 OA
ATOM     13  H   UNL     1      20.685  27.691  42.717  1.00  0.00     0.293 HD
ENDBRANCH   4  12
BRANCH   6  14
ATOM     14  O   UNL     1      19.474  30.083  45.433  1.00  0.00    -0.504 OA
ATOM     15  H   UNL     1      19.140  30.982  45.116  1.00  0.00     0.293 HD
ENDBRANCH   6  14
TORSDOF 4
ENDMDL
MODEL 8
REMARK VINA RESULT:    -4.942      2.793      6.078
REMARK INTER + INTRA:          -5.927
REMARK INTER:                  -5.647
REMARK INTRA:                  -0.280
REMARK UNBOUND:                -0.118
REMARK SMILES O=C([O-])C=Cc1ccc(O)c(O)c1
REMARK SMILES IDX 6 1 13 2 7 3 11 4 8 5 9 6 5 7 4 8 2 9 1 10 3 11 12 12 10 14
REMARK H PARENT 12 13 10 15
REMARK Flexibility Score: inf
ROOT
ATOM      1  C   UNL     1      29.411  22.634  50.929  1.00  0.00    -0.022 A 
ATOM      2  C   UNL     1      28.376  21.884  51.502  1.00  0.00     0.058 A 
ATOM      3  C   UNL     1      30.036  23.635  51.688  1.00  0.00     0.012 A 
ATOM      4  C   UNL     1      27.995  22.085  52.835  1.00  0.00     0.157 A 
ATOM      5  C   UNL     1      29.665  23.842  53.017  1.00  0.00     0.051 A 
ATOM      6  C   UNL     1      28.653  23.074  53.605  1.00  0.00     0.157 A 
ENDROOT
BRANCH   1   7
ATOM      7  C   UNL     1      29.748  22.432  49.504  1.00  0.00     0.010 C 
ATOM      8  C   UNL     1      29.173  23.068  48.472  1.00  0.00     0.025 C 
BRANCH   8   9
ATOM      9  C   UNL     1      28.244  24.208  48.580  1.00  0.00     0.064 C 
ATOM     10  O   UNL     1      28.697  25.381  48.512  1.00  0.00    -0.545 OA
ATOM     11  O   UNL     1      26.889  24.021  48.829  1.00  0.00    -0.545 OA
ENDBRANCH   8   9
ENDBRANCH   1   7
BRANCH   4  12
ATOM     12  O   UNL     1      26.967  21.291  53.347  1.00  0.00    -0.504 OA
ATOM     13  H   UNL     1      25.987  21.447  53.162  1.00  0.00     0.293 HD
ENDBRANCH   4  12
BRANCH   6  14
ATOM     14  O   UNL     1      28.334  23.327  54.941  1.00  0.00    -0.504 OA
ATOM     15  H   UNL     1      28.814  22.908  55.724  1.00  0.00     0.293 HD
ENDBRANCH   6  14
TORSDOF 4
ENDMDL
MODEL 9
REMARK VINA RESULT:    -4.936      2.863      4.029
REMARK INTER + INTRA:          -5.920
REMARK INTER:                  -5.648
REMARK INTRA:                  -0.271
REMARK UNBOUND:                -0.118
REMARK SMILES O=C([O-])C=Cc1ccc(O)c(O)c1
REMARK SMILES IDX 6 1 13 2 7 3 11 4 8 5 9 6 5 7 4 8 2 9 1 10 3 11 12 12 10 14
REMARK H PARENT 12 13 10 15
REMARK Flexibility Score: inf
ROOT
ATOM      1  C   UNL     1      29.882  22.754  48.372  1.00  0.00    -0.022 A 
ATOM      2  C   UNL     1      28.633  22.243  48.750  1.00  0.00     0.058 A 
ATOM      3  C   UNL     1      29.970  24.073  47.901  1.00  0.00     0.012 A 
ATOM      4  C   UNL     1      27.486  23.046  48.712  1.00  0.00     0.157 A 
ATOM      5  C   UNL     1      28.834  24.882  47.862  1.00  0.00     0.051 A 
ATOM      6  C   UNL     1      27.589  24.386  48.268  1.00  0.00     0.157 A 
ENDROOT
BRANCH   1   7
ATOM      7  C   UNL     1      31.060  21.862  48.373  1.00  0.00     0.010 C 
ATOM      8  C   UNL     1      31.904  21.691  49.402  1.00  0.00     0.025 C 
BRANCH   8   9
ATOM      9  C   UNL     1      31.704  22.211  50.768  1.00  0.00     0.064 C 
ATOM     10  O   UNL     1      32.125  23.362  51.057  1.00  0.00    -0.545 OA
ATOM     11  O   UNL     1      31.125  21.433  51.764  1.00  0.00    -0.545 OA
ENDBRANCH   8   9
ENDBRANCH   1   7
BRANCH   4  12
ATOM     12  O   UNL     1      26.277  22.476  49.118  1.00  0.00    -0.504 OA
ATOM     13  H   UNL     1      26.109  21.482  49.163  1.00  0.00     0.293 HD
ENDBRANCH   4  12
BRANCH   6  14
ATOM     14  O   UNL     1      26.492  25.248  48.209  1.00  0.00    -0.504 OA
ATOM     15  H   UNL     1      25.542  24.966  48.402  1.00  0.00     0.293 HD
ENDBRANCH   6  14
TORSDOF 4
ENDMDL
