MODEL 1
REMARK VINA RESULT:    -3.444      0.000      0.000
REMARK INTER + INTRA:         -11.372
REMARK INTER:                  -7.873
REMARK INTRA:                  -3.499
REMARK UNBOUND:                -3.499
REMARK SMILES CCCCCCCCCCCCCCCCCCCCCCCC(=O)[O-]
REMARK SMILES IDX 13 1 14 2 15 3 16 4 17 5 18 6 19 7 20 8 21 9 22 10 23 11
REMARK SMILES IDX 24 12 25 13 26 14 12 15 11 16 10 17 9 18 8 19 7 20 6 21 5 22
REMARK SMILES IDX 4 23 3 24 2 25 1 26
REMARK H PARENT
REMARK Flexibility Score: inf
ROOT
ATOM      1  C   UNL     1      -7.490  -2.324 -24.084  1.00  0.00     0.000 C 
ENDROOT
BRANCH   1   2
ATOM      2  C   UNL     1      -7.994  -3.571 -24.827  1.00  0.00     0.000 C 
BRANCH   2   3
ATOM      3  C   UNL     1      -7.669  -3.483 -26.325  1.00  0.00     0.000 C 
BRANCH   3   4
ATOM      4  C   UNL     1      -6.266  -4.015 -26.672  1.00  0.00     0.000 C 
BRANCH   4   5
ATOM      5  C   UNL     1      -5.828  -5.265 -25.883  1.00  0.00     0.000 C 
BRANCH   5   6
ATOM      6  C   UNL     1      -6.301  -6.608 -26.470  1.00  0.00     0.000 C 
BRANCH   6   7
ATOM      7  C   UNL     1      -7.334  -7.346 -25.593  1.00  0.00     0.000 C 
BRANCH   7   8
ATOM      8  C   UNL     1      -8.782  -7.101 -26.057  1.00  0.00     0.000 C 
BRANCH   8   9
ATOM      9  C   UNL     1      -8.983  -7.404 -27.550  1.00  0.00     0.000 C 
BRANCH   9  10
ATOM     10  C   UNL     1      -9.434  -8.854 -27.804  1.00  0.00     0.006 C 
BRANCH  10  11
ATOM     11  C   UNL     1     -10.752  -9.182 -27.089  1.00  0.00     0.053 C 
BRANCH  11  12
ATOM     12  C   UNL     1     -10.632 -10.412 -26.242  1.00  0.00     0.041 C 
ATOM     13  O   UNL     1     -11.539 -11.286 -26.263  1.00  0.00    -0.550 OA
ATOM     14  O   UNL     1      -9.531 -10.583 -25.411  1.00  0.00    -0.550 OA
ENDBRANCH  11  12
ENDBRANCH  10  11
ENDBRANCH   9  10
ENDBRANCH   8   9
ENDBRANCH   7   8
ENDBRANCH   6   7
ENDBRANCH   5   6
ENDBRANCH   4   5
ENDBRANCH   3   4
ENDBRANCH   2   3
ENDBRANCH   1   2
BRANCH   1  15
ATOM     15  C   UNL     1      -6.222  -2.593 -23.252  1.00  0.00     0.000 C 
BRANCH  15  16
ATOM     16  C   UNL     1      -5.002  -1.736 -23.634  1.00  0.00     0.000 C 
BRANCH  16  17
ATOM     17  C   UNL     1      -5.231  -0.912 -24.913  1.00  0.00     0.000 C 
BRANCH  17  18
ATOM     18  C   UNL     1      -4.945   0.584 -24.706  1.00  0.00    -0.000 C 
BRANCH  18  19
ATOM     19  C   UNL     1      -5.667   1.156 -23.473  1.00  0.00    -0.000 C 
BRANCH  19  20
ATOM     20  C   UNL     1      -6.323   2.523 -23.746  1.00  0.00    -0.000 C 
BRANCH  20  21
ATOM     21  C   UNL     1      -7.683   2.461 -24.465  1.00  0.00    -0.000 C 
BRANCH  21  22
ATOM     22  C   UNL     1      -7.584   2.792 -25.962  1.00  0.00    -0.000 C 
BRANCH  22  23
ATOM     23  C   UNL     1      -8.582   1.954 -26.776  1.00  0.00    -0.000 C 
BRANCH  23  24
ATOM     24  C   UNL     1      -8.325   0.440 -26.662  1.00  0.00    -0.000 C 
BRANCH  24  25
ATOM     25  C   UNL     1      -9.581  -0.410 -26.400  1.00  0.00    -0.003 C 
ATOM     26  C   UNL     1     -10.300  -0.030 -25.106  1.00  0.00     0.004 C 
ENDBRANCH  24  25
ENDBRANCH  23  24
ENDBRANCH  22  23
ENDBRANCH  21  22
ENDBRANCH  20  21
ENDBRANCH  19  20
ENDBRANCH  18  19
ENDBRANCH  17  18
ENDBRANCH  16  17
ENDBRANCH  15  16
ENDBRANCH   1  15
TORSDOF 22
ENDMDL
MODEL 2
REMARK VINA RESULT:    -2.984      1.288      3.173
REMARK INTER + INTRA:         -10.320
REMARK INTER:                  -8.005
REMARK INTRA:                  -2.315
REMARK UNBOUND:                -3.499
REMARK SMILES CCCCCCCCCCCCCCCCCCCCCCCC(=O)[O-]
REMARK SMILES IDX 13 1 14 2 15 3 16 4 17 5 18 6 19 7 20 8 21 9 22 10 23 11
REMARK SMILES IDX 24 12 25 13 26 14 12 15 11 16 10 17 9 18 8 19 7 20 6 21 5 22
REMARK SMILES IDX 4 23 3 24 2 25 1 26
REMARK H PARENT
REMARK Flexibility Score: inf
ROOT
ATOM      1  C   UNL     1      -6.478  -1.090 -23.411  1.00  0.00     0.000 C 
ENDROOT
BRANCH   1   2
ATOM      2  C   UNL     1      -6.340  -2.613 -23.262  1.00  0.00     0.000 C 
BRANCH   2   3
ATOM      3  C   UNL     1      -5.058  -3.115 -23.942  1.00  0.00     0.000 C 
BRANCH   3   4
ATOM      4  C   UNL     1      -5.281  -3.561 -25.399  1.00  0.00     0.000 C 
BRANCH   4   5
ATOM      5  C   UNL     1      -6.065  -4.878 -25.566  1.00  0.00     0.000 C 
BRANCH   5   6
ATOM      6  C   UNL     1      -7.567  -4.712 -25.863  1.00  0.00     0.000 C 
BRANCH   6   7
ATOM      7  C   UNL     1      -8.361  -6.035 -25.843  1.00  0.00     0.000 C 
BRANCH   7   8
ATOM      8  C   UNL     1      -8.114  -6.888 -27.101  1.00  0.00     0.000 C 
BRANCH   8   9
ATOM      9  C   UNL     1      -9.412  -7.216 -27.856  1.00  0.00     0.000 C 
BRANCH   9  10
ATOM     10  C   UNL     1      -9.897  -8.655 -27.601  1.00  0.00     0.006 C 
BRANCH  10  11
ATOM     11  C   UNL     1      -9.943  -8.992 -26.105  1.00  0.00     0.053 C 
BRANCH  11  12
ATOM     12  C   UNL     1     -10.137 -10.460 -25.873  1.00  0.00     0.041 C 
ATOM     13  O   UNL     1     -11.271 -10.983 -26.042  1.00  0.00    -0.550 OA
ATOM     14  O   UNL     1      -9.074 -11.246 -25.448  1.00  0.00    -0.550 OA
ENDBRANCH  11  12
ENDBRANCH  10  11
ENDBRANCH   9  10
ENDBRANCH   8   9
ENDBRANCH   7   8
ENDBRANCH   6   7
ENDBRANCH   5   6
ENDBRANCH   4   5
ENDBRANCH   3   4
ENDBRANCH   2   3
ENDBRANCH   1   2
BRANCH   1  15
ATOM     15  C   UNL     1      -7.147  -0.675 -24.735  1.00  0.00     0.000 C 
BRANCH  15  16
ATOM     16  C   UNL     1      -8.565  -1.235 -24.947  1.00  0.00     0.000 C 
BRANCH  16  17
ATOM     17  C   UNL     1      -9.647  -0.141 -24.918  1.00  0.00     0.000 C 
BRANCH  17  18
ATOM     18  C   UNL     1     -10.308   0.067 -26.290  1.00  0.00    -0.000 C 
BRANCH  18  19
ATOM     19  C   UNL     1      -9.832   1.356 -26.984  1.00  0.00    -0.000 C 
BRANCH  19  20
ATOM     20  C   UNL     1      -8.674   1.111 -27.970  1.00  0.00    -0.000 C 
BRANCH  20  21
ATOM     21  C   UNL     1      -7.318   1.701 -27.544  1.00  0.00    -0.000 C 
BRANCH  21  22
ATOM     22  C   UNL     1      -7.429   2.647 -26.339  1.00  0.00    -0.000 C 
BRANCH  22  23
ATOM     23  C   UNL     1      -6.076   3.310 -26.036  1.00  0.00    -0.000 C 
BRANCH  23  24
ATOM     24  C   UNL     1      -5.585   3.042 -24.603  1.00  0.00    -0.000 C 
BRANCH  24  25
ATOM     25  C   UNL     1      -6.702   2.791 -23.574  1.00  0.00    -0.003 C 
ATOM     26  C   UNL     1      -6.169   2.382 -22.201  1.00  0.00     0.004 C 
ENDBRANCH  24  25
ENDBRANCH  23  24
ENDBRANCH  22  23
ENDBRANCH  21  22
ENDBRANCH  20  21
ENDBRANCH  19  20
ENDBRANCH  18  19
ENDBRANCH  17  18
ENDBRANCH  16  17
ENDBRANCH  15  16
ENDBRANCH   1  15
TORSDOF 22
ENDMDL
MODEL 3
REMARK VINA RESULT:    -2.892      1.387      1.926
REMARK INTER + INTRA:         -10.112
REMARK INTER:                  -7.386
REMARK INTRA:                  -2.725
REMARK UNBOUND:                -3.499
REMARK SMILES CCCCCCCCCCCCCCCCCCCCCCCC(=O)[O-]
REMARK SMILES IDX 13 1 14 2 15 3 16 4 17 5 18 6 19 7 20 8 21 9 22 10 23 11
REMARK SMILES IDX 24 12 25 13 26 14 12 15 11 16 10 17 9 18 8 19 7 20 6 21 5 22
REMARK SMILES IDX 4 23 3 24 2 25 1 26
REMARK H PARENT
REMARK Flexibility Score: inf
ROOT
ATOM      1  C   UNL     1      -6.532  -2.117 -23.211  1.00  0.00     0.000 C 
ENDROOT
BRANCH   1   2
ATOM      2  C   UNL     1      -7.618  -2.775 -24.075  1.00  0.00     0.000 C 
BRANCH   2   3
ATOM      3  C   UNL     1      -7.026  -3.304 -25.389  1.00  0.00     0.000 C 
BRANCH   3   4
ATOM      4  C   UNL     1      -8.093  -3.581 -26.465  1.00  0.00     0.000 C 
BRANCH   4   5
ATOM      5  C   UNL     1      -8.251  -5.062 -26.861  1.00  0.00     0.000 C 
BRANCH   5   6
ATOM      6  C   UNL     1      -7.618  -6.072 -25.885  1.00  0.00     0.000 C 
BRANCH   6   7
ATOM      7  C   UNL     1      -7.436  -7.486 -26.476  1.00  0.00     0.000 C 
BRANCH   7   8
ATOM      8  C   UNL     1      -8.759  -8.086 -26.983  1.00  0.00     0.000 C 
BRANCH   8   9
ATOM      9  C   UNL     1      -9.798  -8.259 -25.863  1.00  0.00     0.000 C 
BRANCH   9  10
ATOM     10  C   UNL     1     -10.072  -9.737 -25.533  1.00  0.00     0.006 C 
BRANCH  10  11
ATOM     11  C   UNL     1      -9.791 -10.657 -26.729  1.00  0.00     0.053 C 
BRANCH  11  12
ATOM     12  C   UNL     1     -10.664 -11.875 -26.709  1.00  0.00     0.041 C 
ATOM     13  O   UNL     1     -10.208 -12.987 -27.088  1.00  0.00    -0.550 OA
ATOM     14  O   UNL     1     -11.987 -11.779 -26.294  1.00  0.00    -0.550 OA
ENDBRANCH  11  12
ENDBRANCH  10  11
ENDBRANCH   9  10
ENDBRANCH   8   9
ENDBRANCH   7   8
ENDBRANCH   6   7
ENDBRANCH   5   6
ENDBRANCH   4   5
ENDBRANCH   3   4
ENDBRANCH   2   3
ENDBRANCH   1   2
BRANCH   1  15
ATOM     15  C   UNL     1      -6.638  -0.581 -23.183  1.00  0.00     0.000 C 
BRANCH  15  16
ATOM     16  C   UNL     1      -5.586   0.157 -24.030  1.00  0.00     0.000 C 
BRANCH  16  17
ATOM     17  C   UNL     1      -5.918   0.144 -25.533  1.00  0.00     0.000 C 
BRANCH  17  18
ATOM     18  C   UNL     1      -5.120   1.199 -26.318  1.00  0.00    -0.000 C 
BRANCH  18  19
ATOM     19  C   UNL     1      -6.030   2.164 -27.099  1.00  0.00    -0.000 C 
BRANCH  19  20
ATOM     20  C   UNL     1      -6.775   3.154 -26.184  1.00  0.00    -0.000 C 
BRANCH  20  21
ATOM     21  C   UNL     1      -8.311   3.075 -26.251  1.00  0.00    -0.000 C 
BRANCH  21  22
ATOM     22  C   UNL     1      -8.838   2.843 -27.675  1.00  0.00    -0.000 C 
BRANCH  22  23
ATOM     23  C   UNL     1      -9.854   1.691 -27.703  1.00  0.00    -0.000 C 
BRANCH  23  24
ATOM     24  C   UNL     1      -9.225   0.330 -27.356  1.00  0.00    -0.000 C 
BRANCH  24  25
ATOM     25  C   UNL     1     -10.011  -0.501 -26.327  1.00  0.00    -0.003 C 
ATOM     26  C   UNL     1      -9.857   0.017 -24.897  1.00  0.00     0.004 C 
ENDBRANCH  24  25
ENDBRANCH  23  24
ENDBRANCH  22  23
ENDBRANCH  21  22
ENDBRANCH  20  21
ENDBRANCH  19  20
ENDBRANCH  18  19
ENDBRANCH  17  18
ENDBRANCH  16  17
ENDBRANCH  15  16
ENDBRANCH   1  15
TORSDOF 22
ENDMDL
MODEL 4
REMARK VINA RESULT:    -2.395     10.697     14.743
REMARK INTER + INTRA:          -8.976
REMARK INTER:                  -7.708
REMARK INTRA:                  -1.268
REMARK UNBOUND:                -3.499
REMARK SMILES CCCCCCCCCCCCCCCCCCCCCCCC(=O)[O-]
REMARK SMILES IDX 13 1 14 2 15 3 16 4 17 5 18 6 19 7 20 8 21 9 22 10 23 11
REMARK SMILES IDX 24 12 25 13 26 14 12 15 11 16 10 17 9 18 8 19 7 20 6 21 5 22
REMARK SMILES IDX 4 23 3 24 2 25 1 26
REMARK H PARENT
REMARK Flexibility Score: inf
ROOT
ATOM      1  C   UNL     1      -8.303 -14.096 -19.561  1.00  0.00     0.000 C 
ENDROOT
BRANCH   1   2
ATOM      2  C   UNL     1      -6.914 -14.384 -18.973  1.00  0.00     0.000 C 
BRANCH   2   3
ATOM      3  C   UNL     1      -6.767 -13.753 -17.581  1.00  0.00     0.000 C 
BRANCH   3   4
ATOM      4  C   UNL     1      -5.449 -14.132 -16.880  1.00  0.00     0.000 C 
BRANCH   4   5
ATOM      5  C   UNL     1      -5.583 -14.487 -15.386  1.00  0.00     0.000 C 
BRANCH   5   6
ATOM      6  C   UNL     1      -5.124 -13.387 -14.410  1.00  0.00     0.000 C 
BRANCH   6   7
ATOM      7  C   UNL     1      -6.033 -13.228 -13.173  1.00  0.00     0.000 C 
BRANCH   7   8
ATOM      8  C   UNL     1      -7.054 -12.087 -13.336  1.00  0.00     0.000 C 
BRANCH   8   9
ATOM      9  C   UNL     1      -7.858 -11.825 -12.052  1.00  0.00     0.000 C 
BRANCH   9  10
ATOM     10  C   UNL     1      -6.966 -11.756 -10.799  1.00  0.00     0.006 C 
BRANCH  10  11
ATOM     11  C   UNL     1      -7.779 -11.492  -9.525  1.00  0.00     0.053 C 
BRANCH  11  12
ATOM     12  C   UNL     1      -8.289 -10.084  -9.474  1.00  0.00     0.041 C 
ATOM     13  O   UNL     1      -7.557  -9.161  -9.028  1.00  0.00    -0.550 OA
ATOM     14  O   UNL     1      -9.581  -9.794  -9.896  1.00  0.00    -0.550 OA
ENDBRANCH  11  12
ENDBRANCH  10  11
ENDBRANCH   9  10
ENDBRANCH   8   9
ENDBRANCH   7   8
ENDBRANCH   6   7
ENDBRANCH   5   6
ENDBRANCH   4   5
ENDBRANCH   3   4
ENDBRANCH   2   3
ENDBRANCH   1   2
BRANCH   1  15
ATOM     15  C   UNL     1      -8.248 -13.611 -21.021  1.00  0.00     0.000 C 
BRANCH  15  16
ATOM     16  C   UNL     1      -7.141 -14.254 -21.876  1.00  0.00     0.000 C 
BRANCH  16  17
ATOM     17  C   UNL     1      -7.699 -15.061 -23.062  1.00  0.00     0.000 C 
BRANCH  17  18
ATOM     18  C   UNL     1      -7.469 -14.359 -24.410  1.00  0.00    -0.000 C 
BRANCH  18  19
ATOM     19  C   UNL     1      -8.501 -14.774 -25.474  1.00  0.00    -0.000 C 
BRANCH  19  20
ATOM     20  C   UNL     1      -8.369 -13.969 -26.780  1.00  0.00    -0.000 C 
BRANCH  20  21
ATOM     21  C   UNL     1      -8.457 -12.441 -26.616  1.00  0.00    -0.000 C 
BRANCH  21  22
ATOM     22  C   UNL     1      -9.529 -11.803 -27.512  1.00  0.00    -0.000 C 
BRANCH  22  23
ATOM     23  C   UNL     1     -10.729 -11.329 -26.678  1.00  0.00    -0.000 C 
BRANCH  23  24
ATOM     24  C   UNL     1     -12.077 -11.816 -27.238  1.00  0.00    -0.000 C 
BRANCH  24  25
ATOM     25  C   UNL     1     -12.718 -12.980 -26.461  1.00  0.00    -0.003 C 
ATOM     26  C   UNL     1     -12.115 -14.339 -26.816  1.00  0.00     0.004 C 
ENDBRANCH  24  25
ENDBRANCH  23  24
ENDBRANCH  22  23
ENDBRANCH  21  22
ENDBRANCH  20  21
ENDBRANCH  19  20
ENDBRANCH  18  19
ENDBRANCH  17  18
ENDBRANCH  16  17
ENDBRANCH  15  16
ENDBRANCH   1  15
TORSDOF 22
ENDMDL
MODEL 5
REMARK VINA RESULT:    -2.104     12.002     15.868
REMARK INTER + INTRA:          -8.309
REMARK INTER:                  -6.388
REMARK INTRA:                  -1.921
REMARK UNBOUND:                -3.499
REMARK SMILES CCCCCCCCCCCCCCCCCCCCCCCC(=O)[O-]
REMARK SMILES IDX 13 1 14 2 15 3 16 4 17 5 18 6 19 7 20 8 21 9 22 10 23 11
REMARK SMILES IDX 24 12 25 13 26 14 12 15 11 16 10 17 9 18 8 19 7 20 6 21 5 22
REMARK SMILES IDX 4 23 3 24 2 25 1 26
REMARK H PARENT
REMARK Flexibility Score: inf
ROOT
ATOM      1  C   UNL     1     -22.559   3.841 -23.332  1.00  0.00     0.000 C 
ENDROOT
BRANCH   1   2
ATOM      2  C   UNL     1     -23.671   4.032 -22.290  1.00  0.00     0.000 C 
BRANCH   2   3
ATOM      3  C   UNL     1     -23.255   5.059 -21.227  1.00  0.00     0.000 C 
BRANCH   3   4
ATOM      4  C   UNL     1     -21.731   5.123 -21.012  1.00  0.00     0.000 C 
BRANCH   4   5
ATOM      5  C   UNL     1     -21.222   4.430 -19.733  1.00  0.00     0.000 C 
BRANCH   5   6
ATOM      6  C   UNL     1     -20.251   3.258 -19.966  1.00  0.00     0.000 C 
BRANCH   6   7
ATOM      7  C   UNL     1     -19.628   3.231 -21.378  1.00  0.00     0.000 C 
BRANCH   7   8
ATOM      8  C   UNL     1     -20.242   2.139 -22.272  1.00  0.00     0.000 C 
BRANCH   8   9
ATOM      9  C   UNL     1     -19.906   2.333 -23.759  1.00  0.00     0.000 C 
BRANCH   9  10
ATOM     10  C   UNL     1     -20.220   1.086 -24.604  1.00  0.00     0.006 C 
BRANCH  10  11
ATOM     11  C   UNL     1     -19.450   1.079 -25.931  1.00  0.00     0.053 C 
BRANCH  11  12
ATOM     12  C   UNL     1     -19.511  -0.260 -26.602  1.00  0.00     0.041 C 
ATOM     13  O   UNL     1     -18.567  -1.082 -26.461  1.00  0.00    -0.550 OA
ATOM     14  O   UNL     1     -20.598  -0.591 -27.401  1.00  0.00    -0.550 OA
ENDBRANCH  11  12
ENDBRANCH  10  11
ENDBRANCH   9  10
ENDBRANCH   8   9
ENDBRANCH   7   8
ENDBRANCH   6   7
ENDBRANCH   5   6
ENDBRANCH   4   5
ENDBRANCH   3   4
ENDBRANCH   2   3
ENDBRANCH   1   2
BRANCH   1  15
ATOM     15  C   UNL     1     -22.693   4.794 -24.534  1.00  0.00     0.000 C 
BRANCH  15  16
ATOM     16  C   UNL     1     -24.139   5.066 -24.987  1.00  0.00     0.000 C 
BRANCH  16  17
ATOM     17  C   UNL     1     -24.353   4.801 -26.487  1.00  0.00     0.000 C 
BRANCH  17  18
ATOM     18  C   UNL     1     -24.410   3.299 -26.815  1.00  0.00    -0.000 C 
BRANCH  18  19
ATOM     19  C   UNL     1     -23.080   2.582 -26.520  1.00  0.00    -0.000 C 
BRANCH  19  20
ATOM     20  C   UNL     1     -22.245   2.327 -27.789  1.00  0.00    -0.000 C 
BRANCH  20  21
ATOM     21  C   UNL     1     -21.213   3.420 -28.121  1.00  0.00    -0.000 C 
BRANCH  21  22
ATOM     22  C   UNL     1     -20.724   4.180 -26.879  1.00  0.00    -0.000 C 
BRANCH  22  23
ATOM     23  C   UNL     1     -19.351   4.820 -27.134  1.00  0.00    -0.000 C 
BRANCH  23  24
ATOM     24  C   UNL     1     -18.415   4.735 -25.916  1.00  0.00    -0.000 C 
BRANCH  24  25
ATOM     25  C   UNL     1     -17.354   3.624 -25.993  1.00  0.00    -0.003 C 
ATOM     26  C   UNL     1     -15.988   4.063 -25.464  1.00  0.00     0.004 C 
ENDBRANCH  24  25
ENDBRANCH  23  24
ENDBRANCH  22  23
ENDBRANCH  21  22
ENDBRANCH  20  21
ENDBRANCH  19  20
ENDBRANCH  18  19
ENDBRANCH  17  18
ENDBRANCH  16  17
ENDBRANCH  15  16
ENDBRANCH   1  15
TORSDOF 22
ENDMDL
MODEL 6
REMARK VINA RESULT:    -1.935     12.687     15.420
REMARK INTER + INTRA:          -7.923
REMARK INTER:                  -6.210
REMARK INTRA:                  -1.713
REMARK UNBOUND:                -3.499
REMARK SMILES CCCCCCCCCCCCCCCCCCCCCCCC(=O)[O-]
REMARK SMILES IDX 13 1 14 2 15 3 16 4 17 5 18 6 19 7 20 8 21 9 22 10 23 11
REMARK SMILES IDX 24 12 25 13 26 14 12 15 11 16 10 17 9 18 8 19 7 20 6 21 5 22
REMARK SMILES IDX 4 23 3 24 2 25 1 26
REMARK H PARENT
REMARK Flexibility Score: inf
ROOT
ATOM      1  C   UNL     1      -6.008 -13.357 -14.395  1.00  0.00     0.000 C 
ENDROOT
BRANCH   1   2
ATOM      2  C   UNL     1      -5.194 -13.741 -15.640  1.00  0.00     0.000 C 
BRANCH   2   3
ATOM      3  C   UNL     1      -5.626 -15.115 -16.173  1.00  0.00     0.000 C 
BRANCH   3   4
ATOM      4  C   UNL     1      -6.445 -15.028 -17.474  1.00  0.00     0.000 C 
BRANCH   4   5
ATOM      5  C   UNL     1      -7.104 -13.661 -17.742  1.00  0.00     0.000 C 
BRANCH   5   6
ATOM      6  C   UNL     1      -7.814 -13.532 -19.103  1.00  0.00     0.000 C 
BRANCH   6   7
ATOM      7  C   UNL     1      -6.942 -13.947 -20.307  1.00  0.00     0.000 C 
BRANCH   7   8
ATOM      8  C   UNL     1      -7.779 -14.247 -21.563  1.00  0.00     0.000 C 
BRANCH   8   9
ATOM      9  C   UNL     1      -6.912 -14.633 -22.773  1.00  0.00     0.000 C 
BRANCH   9  10
ATOM     10  C   UNL     1      -7.678 -14.535 -24.104  1.00  0.00     0.006 C 
BRANCH  10  11
ATOM     11  C   UNL     1      -6.733 -14.391 -25.305  1.00  0.00     0.053 C 
BRANCH  11  12
ATOM     12  C   UNL     1      -7.295 -13.474 -26.347  1.00  0.00     0.041 C 
ATOM     13  O   UNL     1      -7.012 -13.648 -27.563  1.00  0.00    -0.550 OA
ATOM     14  O   UNL     1      -8.111 -12.412 -25.976  1.00  0.00    -0.550 OA
ENDBRANCH  11  12
ENDBRANCH  10  11
ENDBRANCH   9  10
ENDBRANCH   8   9
ENDBRANCH   7   8
ENDBRANCH   6   7
ENDBRANCH   5   6
ENDBRANCH   4   5
ENDBRANCH   3   4
ENDBRANCH   2   3
ENDBRANCH   1   2
BRANCH   1  15
ATOM     15  C   UNL     1      -5.427 -13.941 -13.095  1.00  0.00     0.000 C 
BRANCH  15  16
ATOM     16  C   UNL     1      -6.442 -14.683 -12.207  1.00  0.00     0.000 C 
BRANCH  16  17
ATOM     17  C   UNL     1      -7.314 -13.728 -11.373  1.00  0.00     0.000 C 
BRANCH  17  18
ATOM     18  C   UNL     1      -7.304 -14.080  -9.877  1.00  0.00    -0.000 C 
BRANCH  18  19
ATOM     19  C   UNL     1      -6.378 -13.160  -9.061  1.00  0.00    -0.000 C 
BRANCH  19  20
ATOM     20  C   UNL     1      -6.314 -11.728  -9.623  1.00  0.00    -0.000 C 
BRANCH  20  21
ATOM     21  C   UNL     1      -6.485 -10.609  -8.579  1.00  0.00    -0.000 C 
BRANCH  21  22
ATOM     22  C   UNL     1      -7.956 -10.254  -8.318  1.00  0.00    -0.000 C 
BRANCH  22  23
ATOM     23  C   UNL     1      -8.604  -9.646  -9.571  1.00  0.00    -0.000 C 
BRANCH  23  24
ATOM     24  C   UNL     1      -9.755 -10.504 -10.127  1.00  0.00    -0.000 C 
BRANCH  24  25
ATOM     25  C   UNL     1     -10.555 -11.278  -9.064  1.00  0.00    -0.003 C 
ATOM     26  C   UNL     1     -10.581 -12.786  -9.316  1.00  0.00     0.004 C 
ENDBRANCH  24  25
ENDBRANCH  23  24
ENDBRANCH  22  23
ENDBRANCH  21  22
ENDBRANCH  20  21
ENDBRANCH  19  20
ENDBRANCH  18  19
ENDBRANCH  17  18
ENDBRANCH  16  17
ENDBRANCH  15  16
ENDBRANCH   1  15
TORSDOF 22
ENDMDL
MODEL 7
REMARK VINA RESULT:    -1.902     10.449     14.257
REMARK INTER + INTRA:          -7.847
REMARK INTER:                  -6.791
REMARK INTRA:                  -1.056
REMARK UNBOUND:                -3.499
REMARK SMILES CCCCCCCCCCCCCCCCCCCCCCCC(=O)[O-]
REMARK SMILES IDX 13 1 14 2 15 3 16 4 17 5 18 6 19 7 20 8 21 9 22 10 23 11
REMARK SMILES IDX 24 12 25 13 26 14 12 15 11 16 10 17 9 18 8 19 7 20 6 21 5 22
REMARK SMILES IDX 4 23 3 24 2 25 1 26
REMARK H PARENT
REMARK Flexibility Score: inf
ROOT
ATOM      1  C   UNL     1      -8.011 -13.420 -19.899  1.00  0.00     0.000 C 
ENDROOT
BRANCH   1   2
ATOM      2  C   UNL     1      -7.701 -13.585 -18.404  1.00  0.00     0.000 C 
BRANCH   2   3
ATOM      3  C   UNL     1      -6.235 -13.988 -18.190  1.00  0.00     0.000 C 
BRANCH   3   4
ATOM      4  C   UNL     1      -5.991 -14.690 -16.841  1.00  0.00     0.000 C 
BRANCH   4   5
ATOM      5  C   UNL     1      -5.186 -13.870 -15.814  1.00  0.00     0.000 C 
BRANCH   5   6
ATOM      6  C   UNL     1      -5.579 -14.098 -14.342  1.00  0.00     0.000 C 
BRANCH   6   7
ATOM      7  C   UNL     1      -5.554 -12.818 -13.480  1.00  0.00     0.000 C 
BRANCH   7   8
ATOM      8  C   UNL     1      -6.885 -12.045 -13.536  1.00  0.00     0.000 C 
BRANCH   8   9
ATOM      9  C   UNL     1      -7.559 -11.930 -12.159  1.00  0.00     0.000 C 
BRANCH   9  10
ATOM     10  C   UNL     1      -7.931 -13.301 -11.566  1.00  0.00     0.006 C 
BRANCH  10  11
ATOM     11  C   UNL     1      -8.859 -13.172 -10.351  1.00  0.00     0.053 C 
BRANCH  11  12
ATOM     12  C   UNL     1      -8.113 -12.738  -9.126  1.00  0.00     0.041 C 
ATOM     13  O   UNL     1      -8.652 -11.951  -8.303  1.00  0.00    -0.550 OA
ATOM     14  O   UNL     1      -6.815 -13.182  -8.905  1.00  0.00    -0.550 OA
ENDBRANCH  11  12
ENDBRANCH  10  11
ENDBRANCH   9  10
ENDBRANCH   8   9
ENDBRANCH   7   8
ENDBRANCH   6   7
ENDBRANCH   5   6
ENDBRANCH   4   5
ENDBRANCH   3   4
ENDBRANCH   2   3
ENDBRANCH   1   2
BRANCH   1  15
ATOM     15  C   UNL     1      -7.179 -14.360 -20.791  1.00  0.00     0.000 C 
BRANCH  15  16
ATOM     16  C   UNL     1      -7.507 -14.287 -22.293  1.00  0.00     0.000 C 
BRANCH  16  17
ATOM     17  C   UNL     1      -6.324 -14.709 -23.182  1.00  0.00     0.000 C 
BRANCH  17  18
ATOM     18  C   UNL     1      -6.640 -14.575 -24.681  1.00  0.00    -0.000 C 
BRANCH  18  19
ATOM     19  C   UNL     1      -8.004 -13.909 -24.938  1.00  0.00    -0.000 C 
BRANCH  19  20
ATOM     20  C   UNL     1      -8.061 -13.167 -26.286  1.00  0.00    -0.000 C 
BRANCH  20  21
ATOM     21  C   UNL     1      -9.431 -13.196 -26.988  1.00  0.00    -0.000 C 
BRANCH  21  22
ATOM     22  C   UNL     1     -10.294 -11.966 -26.669  1.00  0.00    -0.000 C 
BRANCH  22  23
ATOM     23  C   UNL     1      -9.463 -10.677 -26.757  1.00  0.00    -0.000 C 
BRANCH  23  24
ATOM     24  C   UNL     1     -10.331  -9.411 -26.870  1.00  0.00    -0.000 C 
BRANCH  24  25
ATOM     25  C   UNL     1      -9.894  -8.245 -25.965  1.00  0.00    -0.003 C 
ATOM     26  C   UNL     1      -8.376  -8.118 -25.844  1.00  0.00     0.004 C 
ENDBRANCH  24  25
ENDBRANCH  23  24
ENDBRANCH  22  23
ENDBRANCH  21  22
ENDBRANCH  20  21
ENDBRANCH  19  20
ENDBRANCH  18  19
ENDBRANCH  17  18
ENDBRANCH  16  17
ENDBRANCH  15  16
ENDBRANCH   1  15
TORSDOF 22
ENDMDL
