MODEL 1
REMARK VINA RESULT:    -1.221      0.000      0.000
REMARK INTER + INTRA:          -1.704
REMARK INTER:                  -1.435
REMARK INTRA:                  -0.268
REMARK UNBOUND:                -0.268
REMARK SMILES O=c1cc(-c2ccc(O)c(O)c2)oc2cc(O)cc(O)c12
REMARK SMILES IDX 4 1 3 2 2 3 1 4 21 5 19 6 18 7 16 8 15 9 14 10 13 11 5 12
REMARK SMILES IDX 6 13 7 14 8 15 12 16 10 17 9 18 11 20 20 22 17 24
REMARK H PARENT 9 19 11 21 20 23 17 25
REMARK Flexibility Score: inf
ROOT
ATOM      1  C   UNL     1     -18.830   9.365  26.296  1.00  0.00     0.138 A 
ATOM      2  C   UNL     1     -17.445   9.338  26.506  1.00  0.00     0.100 A 
ATOM      3  C   UNL     1     -16.579   9.508  25.425  1.00  0.00     0.197 A 
ATOM      4  O   UNL     1     -15.342   9.416  25.635  1.00  0.00    -0.289 OA
ATOM      5  C   UNL     1     -17.105   9.738  24.131  1.00  0.00     0.107 A 
ATOM      6  C   UNL     1     -16.318   9.965  22.963  1.00  0.00     0.134 A 
ATOM      7  C   UNL     1     -16.948  10.066  21.716  1.00  0.00     0.093 A 
ATOM      8  C   UNL     1     -18.339  10.007  21.604  1.00  0.00     0.123 A 
ATOM      9  C   UNL     1     -19.119   9.839  22.746  1.00  0.00     0.094 A 
ATOM     10  C   UNL     1     -18.520   9.702  24.000  1.00  0.00     0.146 A 
ATOM     11  O   UNL     1     -19.298   9.529  25.062  1.00  0.00    -0.456 OA
ENDROOT
BRANCH   1  12
ATOM     12  C   UNL     1     -19.796   9.191  27.410  1.00  0.00     0.021 A 
ATOM     13  C   UNL     1     -20.823  10.123  27.651  1.00  0.00     0.016 A 
ATOM     14  C   UNL     1     -21.724   9.929  28.700  1.00  0.00     0.051 A 
ATOM     15  C   UNL     1     -21.621   8.799  29.522  1.00  0.00     0.157 A 
ATOM     16  C   UNL     1     -19.708   8.052  28.231  1.00  0.00     0.062 A 
ATOM     17  C   UNL     1     -20.608   7.856  29.284  1.00  0.00     0.158 A 
BRANCH  15  18
ATOM     18  O   UNL     1     -22.522   8.609  30.570  1.00  0.00    -0.504 OA
ATOM     19  H   UNL     1     -22.235   8.185  31.445  1.00  0.00     0.293 HD
ENDBRANCH  15  18
BRANCH  17  20
ATOM     20  O   UNL     1     -20.481   6.719  30.082  1.00  0.00    -0.504 OA
ATOM     21  H   UNL     1     -20.442   6.772  31.092  1.00  0.00     0.293 HD
ENDBRANCH  17  20
ENDBRANCH   1  12
BRANCH   6  22
ATOM     22  O   UNL     1     -14.929  10.124  22.975  1.00  0.00    -0.507 OA
ATOM     23  H   UNL     1     -14.369  10.231  23.806  1.00  0.00     0.293 HD
ENDBRANCH   6  22
BRANCH   8  24
ATOM     24  O   UNL     1     -18.959  10.123  20.361  1.00  0.00    -0.508 OA
ATOM     25  H   UNL     1     -18.945  10.993  19.841  1.00  0.00     0.293 HD
ENDBRANCH   8  24
TORSDOF 5
ENDMDL
MODEL 2
REMARK VINA RESULT:     1.465      1.549      1.862
REMARK INTER + INTRA:           1.453
REMARK INTER:                   1.761
REMARK INTRA:                  -0.308
REMARK UNBOUND:                -0.268
REMARK SMILES O=c1cc(-c2ccc(O)c(O)c2)oc2cc(O)cc(O)c12
REMARK SMILES IDX 4 1 3 2 2 3 1 4 21 5 19 6 18 7 16 8 15 9 14 10 13 11 5 12
REMARK SMILES IDX 6 13 7 14 8 15 12 16 10 17 9 18 11 20 20 22 17 24
REMARK H PARENT 9 19 11 21 20 23 17 25
REMARK Flexibility Score: inf
ROOT
ATOM      1  C   UNL     1     -19.199   9.420  27.276  1.00  0.00     0.138 A 
ATOM      2  C   UNL     1     -17.919   8.921  27.556  1.00  0.00     0.100 A 
ATOM      3  C   UNL     1     -16.994   8.774  26.523  1.00  0.00     0.197 A 
ATOM      4  O   UNL     1     -15.876   8.266  26.795  1.00  0.00    -0.289 OA
ATOM      5  C   UNL     1     -17.343   9.160  25.206  1.00  0.00     0.107 A 
ATOM      6  C   UNL     1     -16.467   9.093  24.082  1.00  0.00     0.134 A 
ATOM      7  C   UNL     1     -16.960   9.393  22.805  1.00  0.00     0.093 A 
ATOM      8  C   UNL     1     -18.279   9.814  22.622  1.00  0.00     0.123 A 
ATOM      9  C   UNL     1     -19.126   9.933  23.722  1.00  0.00     0.094 A 
ATOM     10  C   UNL     1     -18.675   9.610  25.002  1.00  0.00     0.146 A 
ATOM     11  O   UNL     1     -19.519   9.723  26.022  1.00  0.00    -0.456 OA
ENDROOT
BRANCH   1  12
ATOM     12  C   UNL     1     -20.222   9.597  28.338  1.00  0.00     0.021 A 
ATOM     13  C   UNL     1     -19.863   9.870  29.672  1.00  0.00     0.016 A 
ATOM     14  C   UNL     1     -20.847  10.042  30.648  1.00  0.00     0.051 A 
ATOM     15  C   UNL     1     -22.204   9.953  30.311  1.00  0.00     0.157 A 
ATOM     16  C   UNL     1     -21.586   9.524  28.004  1.00  0.00     0.062 A 
ATOM     17  C   UNL     1     -22.573   9.694  28.981  1.00  0.00     0.158 A 
BRANCH  15  18
ATOM     18  O   UNL     1     -23.183  10.125  31.289  1.00  0.00    -0.504 OA
ATOM     19  H   UNL     1     -24.161   9.938  31.098  1.00  0.00     0.293 HD
ENDBRANCH  15  18
BRANCH  17  20
ATOM     20  O   UNL     1     -23.915   9.604  28.612  1.00  0.00    -0.504 OA
ATOM     21  H   UNL     1     -24.225   9.770  27.663  1.00  0.00     0.293 HD
ENDBRANCH  17  20
ENDBRANCH   1  12
BRANCH   6  22
ATOM     22  O   UNL     1     -15.110   8.767  24.166  1.00  0.00    -0.507 OA
ATOM     23  H   UNL     1     -14.372   9.242  23.671  1.00  0.00     0.293 HD
ENDBRANCH   6  22
BRANCH   8  24
ATOM     24  O   UNL     1     -18.756  10.125  21.350  1.00  0.00    -0.508 OA
ATOM     25  H   UNL     1     -19.627  10.625  21.219  1.00  0.00     0.293 HD
ENDBRANCH   8  24
TORSDOF 5
ENDMDL
MODEL 3
REMARK VINA RESULT:     1.735      1.425      7.011
REMARK INTER + INTRA:           1.770
REMARK INTER:                   2.080
REMARK INTRA:                  -0.309
REMARK UNBOUND:                -0.268
REMARK SMILES O=c1cc(-c2ccc(O)c(O)c2)oc2cc(O)cc(O)c12
REMARK SMILES IDX 4 1 3 2 2 3 1 4 21 5 19 6 18 7 16 8 15 9 14 10 13 11 5 12
REMARK SMILES IDX 6 13 7 14 8 15 12 16 10 17 9 18 11 20 20 22 17 24
REMARK H PARENT 9 19 11 21 20 23 17 25
REMARK Flexibility Score: inf
ROOT
ATOM      1  C   UNL     1     -18.498   8.897  26.790  1.00  0.00     0.138 A 
ATOM      2  C   UNL     1     -18.042   8.112  27.858  1.00  0.00     0.100 A 
ATOM      3  C   UNL     1     -18.897   7.833  28.925  1.00  0.00     0.197 A 
ATOM      4  O   UNL     1     -18.440   7.180  29.897  1.00  0.00    -0.289 OA
ATOM      5  C   UNL     1     -20.228   8.317  28.905  1.00  0.00     0.107 A 
ATOM      6  C   UNL     1     -21.200   8.062  29.917  1.00  0.00     0.134 A 
ATOM      7  C   UNL     1     -22.450   8.690  29.847  1.00  0.00     0.093 A 
ATOM      8  C   UNL     1     -22.783   9.516  28.771  1.00  0.00     0.123 A 
ATOM      9  C   UNL     1     -21.858   9.729  27.750  1.00  0.00     0.094 A 
ATOM     10  C   UNL     1     -20.592   9.144  27.808  1.00  0.00     0.146 A 
ATOM     11  O   UNL     1     -19.734   9.384  26.822  1.00  0.00    -0.456 OA
ENDROOT
BRANCH   1  12
ATOM     12  C   UNL     1     -17.631   9.223  25.630  1.00  0.00     0.021 A 
ATOM     13  C   UNL     1     -16.227   9.215  25.731  1.00  0.00     0.016 A 
ATOM     14  C   UNL     1     -15.435   9.515  24.620  1.00  0.00     0.051 A 
ATOM     15  C   UNL     1     -16.029   9.822  23.389  1.00  0.00     0.157 A 
ATOM     16  C   UNL     1     -18.220   9.518  24.387  1.00  0.00     0.062 A 
ATOM     17  C   UNL     1     -17.428   9.821  23.273  1.00  0.00     0.158 A 
BRANCH  15  18
ATOM     18  O   UNL     1     -15.235  10.123  22.283  1.00  0.00    -0.504 OA
ATOM     19  H   UNL     1     -14.287  10.465  22.388  1.00  0.00     0.293 HD
ENDBRANCH  15  18
BRANCH  17  20
ATOM     20  O   UNL     1     -18.050  10.119  22.060  1.00  0.00    -0.504 OA
ATOM     21  H   UNL     1     -18.377   9.396  21.431  1.00  0.00     0.293 HD
ENDBRANCH  17  20
ENDBRANCH   1  12
BRANCH   6  22
ATOM     22  O   UNL     1     -21.001   7.186  30.989  1.00  0.00    -0.507 OA
ATOM     23  H   UNL     1     -21.668   7.015  31.724  1.00  0.00     0.293 HD
ENDBRANCH   6  22
BRANCH   8  24
ATOM     24  O   UNL     1     -24.034  10.125  28.702  1.00  0.00    -0.508 OA
ATOM     25  H   UNL     1     -24.430  10.613  29.496  1.00  0.00     0.293 HD
ENDBRANCH   8  24
TORSDOF 5
ENDMDL
