MODEL 1
REMARK VINA RESULT:    -3.638      0.000      0.000
REMARK INTER + INTRA:          -4.427
REMARK INTER:                  -4.276
REMARK INTRA:                  -0.152
REMARK UNBOUND:                -0.152
REMARK SMILES O=C([O-])C=Cc1ccc(O)c(O)c1
REMARK SMILES IDX 6 1 13 2 7 3 11 4 8 5 9 6 5 7 4 8 2 9 1 10 3 11 12 12 10 14
REMARK H PARENT 12 13 10 15
REMARK Flexibility Score: inf
ROOT
ATOM      1  C   UNL     1     -26.215  53.360  43.967  1.00  0.00    -0.022 A 
ATOM      2  C   UNL     1     -26.853  53.799  45.145  1.00  0.00     0.058 A 
ATOM      3  C   UNL     1     -25.277  54.203  43.349  1.00  0.00     0.012 A 
ATOM      4  C   UNL     1     -26.575  55.064  45.677  1.00  0.00     0.157 A 
ATOM      5  C   UNL     1     -25.000  55.466  43.878  1.00  0.00     0.051 A 
ATOM      6  C   UNL     1     -25.647  55.904  45.040  1.00  0.00     0.157 A 
ENDROOT
BRANCH   1   7
ATOM      7  C   UNL     1     -26.467  52.024  43.372  1.00  0.00     0.010 C 
ATOM      8  C   UNL     1     -26.003  51.643  42.174  1.00  0.00     0.025 C 
BRANCH   8   9
ATOM      9  C   UNL     1     -26.268  50.302  41.627  1.00  0.00     0.064 C 
ATOM     10  O   UNL     1     -26.320  50.139  40.381  1.00  0.00    -0.545 OA
ATOM     11  O   UNL     1     -26.463  49.211  42.467  1.00  0.00    -0.545 OA
ENDBRANCH   8   9
ENDBRANCH   1   7
BRANCH   4  12
ATOM     12  O   UNL     1     -27.228  55.465  46.843  1.00  0.00    -0.504 OA
ATOM     13  H   UNL     1     -27.117  56.395  47.228  1.00  0.00     0.293 HD
ENDBRANCH   4  12
BRANCH   6  14
ATOM     14  O   UNL     1     -25.371  57.166  45.564  1.00  0.00    -0.504 OA
ATOM     15  H   UNL     1     -25.337  57.989  44.974  1.00  0.00     0.293 HD
ENDBRANCH   6  14
TORSDOF 4
ENDMDL
MODEL 2
REMARK VINA RESULT:    -3.617      2.029      5.479
REMARK INTER + INTRA:          -4.403
REMARK INTER:                  -4.252
REMARK INTRA:                  -0.150
REMARK UNBOUND:                -0.152
REMARK SMILES O=C([O-])C=Cc1ccc(O)c(O)c1
REMARK SMILES IDX 6 1 13 2 7 3 11 4 8 5 9 6 5 7 4 8 2 9 1 10 3 11 12 12 10 14
REMARK H PARENT 12 13 10 15
REMARK Flexibility Score: inf
ROOT
ATOM      1  C   UNL     1     -25.879  54.332  44.179  1.00  0.00    -0.022 A 
ATOM      2  C   UNL     1     -26.248  53.354  43.233  1.00  0.00     0.058 A 
ATOM      3  C   UNL     1     -25.034  55.379  43.778  1.00  0.00     0.012 A 
ATOM      4  C   UNL     1     -25.760  53.412  41.921  1.00  0.00     0.157 A 
ATOM      5  C   UNL     1     -24.546  55.437  42.470  1.00  0.00     0.051 A 
ATOM      6  C   UNL     1     -24.902  54.455  41.538  1.00  0.00     0.157 A 
ENDROOT
BRANCH   1   7
ATOM      7  C   UNL     1     -26.380  54.320  45.576  1.00  0.00     0.010 C 
ATOM      8  C   UNL     1     -26.090  55.267  46.478  1.00  0.00     0.025 C 
BRANCH   8   9
ATOM      9  C   UNL     1     -26.619  55.222  47.851  1.00  0.00     0.064 C 
ATOM     10  O   UNL     1     -27.526  56.023  48.194  1.00  0.00    -0.545 OA
ATOM     11  O   UNL     1     -26.130  54.308  48.778  1.00  0.00    -0.545 OA
ENDBRANCH   8   9
ENDBRANCH   1   7
BRANCH   4  12
ATOM     12  O   UNL     1     -26.144  52.425  41.013  1.00  0.00    -0.504 OA
ATOM     13  H   UNL     1     -25.579  52.187  40.207  1.00  0.00     0.293 HD
ENDBRANCH   4  12
BRANCH   6  14
ATOM     14  O   UNL     1     -24.411  54.514  40.234  1.00  0.00    -0.504 OA
ATOM     15  H   UNL     1     -25.025  54.434  39.432  1.00  0.00     0.293 HD
ENDBRANCH   6  14
TORSDOF 4
ENDMDL
MODEL 3
REMARK VINA RESULT:    -3.338      2.119      5.908
REMARK INTER + INTRA:          -4.075
REMARK INTER:                  -3.923
REMARK INTRA:                  -0.152
REMARK UNBOUND:                -0.152
REMARK SMILES O=C([O-])C=Cc1ccc(O)c(O)c1
REMARK SMILES IDX 6 1 13 2 7 3 11 4 8 5 9 6 5 7 4 8 2 9 1 10 3 11 12 12 10 14
REMARK H PARENT 12 13 10 15
REMARK Flexibility Score: inf
ROOT
ATOM      1  C   UNL     1     -26.010  54.607  44.595  1.00  0.00    -0.022 A 
ATOM      2  C   UNL     1     -25.222  55.012  43.498  1.00  0.00     0.058 A 
ATOM      3  C   UNL     1     -26.740  53.412  44.502  1.00  0.00     0.012 A 
ATOM      4  C   UNL     1     -25.189  54.248  42.324  1.00  0.00     0.157 A 
ATOM      5  C   UNL     1     -26.709  52.650  43.331  1.00  0.00     0.051 A 
ATOM      6  C   UNL     1     -25.939  53.063  42.238  1.00  0.00     0.157 A 
ENDROOT
BRANCH   1   7
ATOM      7  C   UNL     1     -26.067  55.377  45.863  1.00  0.00     0.010 C 
ATOM      8  C   UNL     1     -26.410  54.842  47.043  1.00  0.00     0.025 C 
BRANCH   8   9
ATOM      9  C   UNL     1     -26.442  55.640  48.279  1.00  0.00     0.064 C 
ATOM     10  O   UNL     1     -25.790  56.715  48.341  1.00  0.00    -0.545 OA
ATOM     11  O   UNL     1     -27.181  55.226  49.381  1.00  0.00    -0.545 OA
ENDBRANCH   8   9
ENDBRANCH   1   7
BRANCH   4  12
ATOM     12  O   UNL     1     -24.402  54.681  41.258  1.00  0.00    -0.504 OA
ATOM     13  H   UNL     1     -24.802  54.947  40.366  1.00  0.00     0.293 HD
ENDBRANCH   4  12
BRANCH   6  14
ATOM     14  O   UNL     1     -25.912  52.302  41.070  1.00  0.00    -0.504 OA
ATOM     15  H   UNL     1     -26.235  52.676  40.186  1.00  0.00     0.293 HD
ENDBRANCH   6  14
TORSDOF 4
ENDMDL
MODEL 4
REMARK VINA RESULT:    -3.303      1.626      5.858
REMARK INTER + INTRA:          -4.034
REMARK INTER:                  -3.911
REMARK INTRA:                  -0.123
REMARK UNBOUND:                -0.152
REMARK SMILES O=C([O-])C=Cc1ccc(O)c(O)c1
REMARK SMILES IDX 6 1 13 2 7 3 11 4 8 5 9 6 5 7 4 8 2 9 1 10 3 11 12 12 10 14
REMARK H PARENT 12 13 10 15
REMARK Flexibility Score: inf
ROOT
ATOM      1  C   UNL     1     -26.040  53.327  44.283  1.00  0.00    -0.022 A 
ATOM      2  C   UNL     1     -25.650  54.048  43.136  1.00  0.00     0.058 A 
ATOM      3  C   UNL     1     -26.400  51.977  44.145  1.00  0.00     0.012 A 
ATOM      4  C   UNL     1     -25.645  53.436  41.877  1.00  0.00     0.157 A 
ATOM      5  C   UNL     1     -26.397  51.365  42.889  1.00  0.00     0.051 A 
ATOM      6  C   UNL     1     -26.024  52.089  41.750  1.00  0.00     0.157 A 
ENDROOT
BRANCH   1   7
ATOM      7  C   UNL     1     -26.050  53.928  45.640  1.00  0.00     0.010 C 
ATOM      8  C   UNL     1     -26.289  55.226  45.877  1.00  0.00     0.025 C 
BRANCH   8   9
ATOM      9  C   UNL     1     -26.300  55.778  47.241  1.00  0.00     0.064 C 
ATOM     10  O   UNL     1     -27.011  55.233  48.125  1.00  0.00    -0.545 OA
ATOM     11  O   UNL     1     -25.540  56.894  47.570  1.00  0.00    -0.545 OA
ENDBRANCH   8   9
ENDBRANCH   1   7
BRANCH   4  12
ATOM     12  O   UNL     1     -25.256  54.182  40.764  1.00  0.00    -0.504 OA
ATOM     13  H   UNL     1     -25.652  54.024  39.845  1.00  0.00     0.293 HD
ENDBRANCH   4  12
BRANCH   6  14
ATOM     14  O   UNL     1     -26.024  51.477  40.498  1.00  0.00    -0.504 OA
ATOM     15  H   UNL     1     -25.289  51.651  39.822  1.00  0.00     0.293 HD
ENDBRANCH   6  14
TORSDOF 4
ENDMDL
MODEL 5
REMARK VINA RESULT:    -3.281      1.270      2.424
REMARK INTER + INTRA:          -4.009
REMARK INTER:                  -3.856
REMARK INTRA:                  -0.153
REMARK UNBOUND:                -0.152
REMARK SMILES O=C([O-])C=Cc1ccc(O)c(O)c1
REMARK SMILES IDX 6 1 13 2 7 3 11 4 8 5 9 6 5 7 4 8 2 9 1 10 3 11 12 12 10 14
REMARK H PARENT 12 13 10 15
REMARK Flexibility Score: inf
ROOT
ATOM      1  C   UNL     1     -25.595  53.330  42.902  1.00  0.00    -0.022 A 
ATOM      2  C   UNL     1     -25.086  54.580  43.308  1.00  0.00     0.058 A 
ATOM      3  C   UNL     1     -26.626  52.741  43.652  1.00  0.00     0.012 A 
ATOM      4  C   UNL     1     -25.582  55.214  44.454  1.00  0.00     0.157 A 
ATOM      5  C   UNL     1     -27.121  53.372  44.797  1.00  0.00     0.051 A 
ATOM      6  C   UNL     1     -26.601  54.606  45.205  1.00  0.00     0.157 A 
ENDROOT
BRANCH   1   7
ATOM      7  C   UNL     1     -25.111  52.626  41.689  1.00  0.00     0.010 C 
ATOM      8  C   UNL     1     -25.554  51.422  41.299  1.00  0.00     0.025 C 
BRANCH   8   9
ATOM      9  C   UNL     1     -25.054  50.766  40.081  1.00  0.00     0.064 C 
ATOM     10  O   UNL     1     -25.537  49.659  39.729  1.00  0.00    -0.545 OA
ATOM     11  O   UNL     1     -24.053  51.348  39.311  1.00  0.00    -0.545 OA
ENDBRANCH   8   9
ENDBRANCH   1   7
BRANCH   4  12
ATOM     12  O   UNL     1     -25.051  56.448  44.827  1.00  0.00    -0.504 OA
ATOM     13  H   UNL     1     -24.913  56.704  45.797  1.00  0.00     0.293 HD
ENDBRANCH   4  12
BRANCH   6  14
ATOM     14  O   UNL     1     -27.095  55.231  46.349  1.00  0.00    -0.504 OA
ATOM     15  H   UNL     1     -28.022  55.031  46.704  1.00  0.00     0.293 HD
ENDBRANCH   6  14
TORSDOF 4
ENDMDL
MODEL 6
REMARK VINA RESULT:    -3.265      1.244      2.284
REMARK INTER + INTRA:          -3.990
REMARK INTER:                  -3.854
REMARK INTRA:                  -0.136
REMARK UNBOUND:                -0.152
REMARK SMILES O=C([O-])C=Cc1ccc(O)c(O)c1
REMARK SMILES IDX 6 1 13 2 7 3 11 4 8 5 9 6 5 7 4 8 2 9 1 10 3 11 12 12 10 14
REMARK H PARENT 12 13 10 15
REMARK Flexibility Score: inf
ROOT
ATOM      1  C   UNL     1     -26.173  52.849  43.442  1.00  0.00    -0.022 A 
ATOM      2  C   UNL     1     -25.367  53.903  42.967  1.00  0.00     0.058 A 
ATOM      3  C   UNL     1     -26.902  53.032  44.627  1.00  0.00     0.012 A 
ATOM      4  C   UNL     1     -25.275  55.106  43.678  1.00  0.00     0.157 A 
ATOM      5  C   UNL     1     -26.810  54.231  45.339  1.00  0.00     0.051 A 
ATOM      6  C   UNL     1     -25.996  55.270  44.873  1.00  0.00     0.157 A 
ENDROOT
BRANCH   1   7
ATOM      7  C   UNL     1     -26.313  51.561  42.716  1.00  0.00     0.010 C 
ATOM      8  C   UNL     1     -26.035  50.367  43.259  1.00  0.00     0.025 C 
BRANCH   8   9
ATOM      9  C   UNL     1     -26.199  49.114  42.506  1.00  0.00     0.064 C 
ATOM     10  O   UNL     1     -26.744  48.124  43.059  1.00  0.00    -0.545 OA
ATOM     11  O   UNL     1     -25.759  49.003  41.192  1.00  0.00    -0.545 OA
ENDBRANCH   8   9
ENDBRANCH   1   7
BRANCH   4  12
ATOM     12  O   UNL     1     -24.465  56.126  43.180  1.00  0.00    -0.504 OA
ATOM     13  H   UNL     1     -23.544  56.314  43.556  1.00  0.00     0.293 HD
ENDBRANCH   4  12
BRANCH   6  14
ATOM     14  O   UNL     1     -25.904  56.464  45.587  1.00  0.00    -0.504 OA
ATOM     15  H   UNL     1     -25.151  56.632  46.243  1.00  0.00     0.293 HD
ENDBRANCH   6  14
TORSDOF 4
ENDMDL
MODEL 7
REMARK VINA RESULT:    -3.229      8.725     11.075
REMARK INTER + INTRA:          -3.947
REMARK INTER:                  -3.822
REMARK INTRA:                  -0.125
REMARK UNBOUND:                -0.152
REMARK SMILES O=C([O-])C=Cc1ccc(O)c(O)c1
REMARK SMILES IDX 6 1 13 2 7 3 11 4 8 5 9 6 5 7 4 8 2 9 1 10 3 11 12 12 10 14
REMARK H PARENT 12 13 10 15
REMARK Flexibility Score: inf
ROOT
ATOM      1  C   UNL     1     -27.498  56.202  34.434  1.00  0.00    -0.022 A 
ATOM      2  C   UNL     1     -27.008  54.948  34.851  1.00  0.00     0.058 A 
ATOM      3  C   UNL     1     -28.129  56.303  33.183  1.00  0.00     0.012 A 
ATOM      4  C   UNL     1     -27.125  53.826  34.022  1.00  0.00     0.157 A 
ATOM      5  C   UNL     1     -28.246  55.184  32.355  1.00  0.00     0.051 A 
ATOM      6  C   UNL     1     -27.743  53.944  32.766  1.00  0.00     0.157 A 
ENDROOT
BRANCH   1   7
ATOM      7  C   UNL     1     -27.408  57.417  35.282  1.00  0.00     0.010 C 
ATOM      8  C   UNL     1     -27.278  57.386  36.615  1.00  0.00     0.025 C 
BRANCH   8   9
ATOM      9  C   UNL     1     -27.180  58.617  37.416  1.00  0.00     0.064 C 
ATOM     10  O   UNL     1     -26.213  59.401  37.235  1.00  0.00    -0.545 OA
ATOM     11  O   UNL     1     -28.139  58.928  38.374  1.00  0.00    -0.545 OA
ENDBRANCH   8   9
ENDBRANCH   1   7
BRANCH   4  12
ATOM     12  O   UNL     1     -26.626  52.602  34.466  1.00  0.00    -0.504 OA
ATOM     13  H   UNL     1     -26.009  52.034  33.898  1.00  0.00     0.293 HD
ENDBRANCH   4  12
BRANCH   6  14
ATOM     14  O   UNL     1     -27.858  52.829  31.936  1.00  0.00    -0.504 OA
ATOM     15  H   UNL     1     -27.171  52.085  31.949  1.00  0.00     0.293 HD
ENDBRANCH   6  14
TORSDOF 4
ENDMDL
MODEL 8
REMARK VINA RESULT:    -3.174      1.398      5.883
REMARK INTER + INTRA:          -3.883
REMARK INTER:                  -3.739
REMARK INTRA:                  -0.143
REMARK UNBOUND:                -0.152
REMARK SMILES O=C([O-])C=Cc1ccc(O)c(O)c1
REMARK SMILES IDX 6 1 13 2 7 3 11 4 8 5 9 6 5 7 4 8 2 9 1 10 3 11 12 12 10 14
REMARK H PARENT 12 13 10 15
REMARK Flexibility Score: inf
ROOT
ATOM      1  C   UNL     1     -25.974  53.252  44.866  1.00  0.00    -0.022 A 
ATOM      2  C   UNL     1     -26.123  51.852  44.808  1.00  0.00     0.058 A 
ATOM      3  C   UNL     1     -25.912  53.978  43.666  1.00  0.00     0.012 A 
ATOM      4  C   UNL     1     -26.184  51.192  43.574  1.00  0.00     0.157 A 
ATOM      5  C   UNL     1     -25.971  53.321  42.434  1.00  0.00     0.051 A 
ATOM      6  C   UNL     1     -26.103  51.929  42.381  1.00  0.00     0.157 A 
ENDROOT
BRANCH   1   7
ATOM      7  C   UNL     1     -25.917  53.996  46.148  1.00  0.00     0.010 C 
ATOM      8  C   UNL     1     -26.513  55.180  46.349  1.00  0.00     0.025 C 
BRANCH   8   9
ATOM      9  C   UNL     1     -26.440  55.878  47.643  1.00  0.00     0.064 C 
ATOM     10  O   UNL     1     -27.289  55.621  48.536  1.00  0.00    -0.545 OA
ATOM     11  O   UNL     1     -25.449  56.820  47.895  1.00  0.00    -0.545 OA
ENDBRANCH   8   9
ENDBRANCH   1   7
BRANCH   4  12
ATOM     12  O   UNL     1     -26.329  49.805  43.555  1.00  0.00    -0.504 OA
ATOM     13  H   UNL     1     -26.900  49.314  44.232  1.00  0.00     0.293 HD
ENDBRANCH   4  12
BRANCH   6  14
ATOM     14  O   UNL     1     -26.159  51.276  41.150  1.00  0.00    -0.504 OA
ATOM     15  H   UNL     1     -25.847  50.318  41.043  1.00  0.00     0.293 HD
ENDBRANCH   6  14
TORSDOF 4
ENDMDL
MODEL 9
REMARK VINA RESULT:    -3.062      1.709      6.187
REMARK INTER + INTRA:          -3.751
REMARK INTER:                  -3.598
REMARK INTRA:                  -0.153
REMARK UNBOUND:                -0.152
REMARK SMILES O=C([O-])C=Cc1ccc(O)c(O)c1
REMARK SMILES IDX 6 1 13 2 7 3 11 4 8 5 9 6 5 7 4 8 2 9 1 10 3 11 12 12 10 14
REMARK H PARENT 12 13 10 15
REMARK Flexibility Score: inf
ROOT
ATOM      1  C   UNL     1     -25.623  54.682  44.214  1.00  0.00    -0.022 A 
ATOM      2  C   UNL     1     -25.170  54.444  42.900  1.00  0.00     0.058 A 
ATOM      3  C   UNL     1     -26.451  53.730  44.830  1.00  0.00     0.012 A 
ATOM      4  C   UNL     1     -25.560  53.288  42.211  1.00  0.00     0.157 A 
ATOM      5  C   UNL     1     -26.842  52.578  44.143  1.00  0.00     0.051 A 
ATOM      6  C   UNL     1     -26.403  52.352  42.833  1.00  0.00     0.157 A 
ENDROOT
BRANCH   1   7
ATOM      7  C   UNL     1     -25.228  55.885  44.988  1.00  0.00     0.010 C 
ATOM      8  C   UNL     1     -25.591  56.104  46.260  1.00  0.00     0.025 C 
BRANCH   8   9
ATOM      9  C   UNL     1     -25.165  57.306  46.994  1.00  0.00     0.064 C 
ATOM     10  O   UNL     1     -25.207  58.428  46.426  1.00  0.00    -0.545 OA
ATOM     11  O   UNL     1     -24.715  57.223  48.307  1.00  0.00    -0.545 OA
ENDBRANCH   8   9
ENDBRANCH   1   7
BRANCH   4  12
ATOM     12  O   UNL     1     -25.095  53.087  40.912  1.00  0.00    -0.504 OA
ATOM     13  H   UNL     1     -24.182  52.692  40.722  1.00  0.00     0.293 HD
ENDBRANCH   4  12
BRANCH   6  14
ATOM     14  O   UNL     1     -26.797  51.203  42.149  1.00  0.00    -0.504 OA
ATOM     15  H   UNL     1     -27.608  50.667  42.435  1.00  0.00     0.293 HD
ENDBRANCH   6  14
TORSDOF 4
ENDMDL
