MODEL 1
REMARK VINA RESULT:    -2.622      0.000      0.000
REMARK INTER + INTRA:          -6.392
REMARK INTER:                  -5.074
REMARK INTRA:                  -1.318
REMARK UNBOUND:                -1.318
REMARK SMILES CCCCCCCCCCCCCCCCCC(=O)[O-]
REMARK SMILES IDX 10 1 11 2 12 3 13 4 14 5 15 6 16 7 17 8 18 9 19 10 20 11
REMARK SMILES IDX 9 12 8 13 7 14 6 15 5 16 4 17 3 18 2 19 1 20
REMARK H PARENT
REMARK Flexibility Score: inf
ROOT
ATOM      1  C   UNL     1     -20.154   1.468   7.734  1.00  0.00     0.000 C 
ENDROOT
BRANCH   1   2
ATOM      2  C   UNL     1     -21.168   2.586   8.036  1.00  0.00     0.000 C 
BRANCH   2   3
ATOM      3  C   UNL     1     -21.825   2.425   9.417  1.00  0.00     0.000 C 
BRANCH   3   4
ATOM      4  C   UNL     1     -21.095   1.402  10.305  1.00  0.00     0.000 C 
BRANCH   4   5
ATOM      5  C   UNL     1     -21.833   1.150  11.637  1.00  0.00     0.000 C 
BRANCH   5   6
ATOM      6  C   UNL     1     -21.082   1.681  12.873  1.00  0.00     0.000 C 
BRANCH   6   7
ATOM      7  C   UNL     1     -20.667   0.605  13.894  1.00  0.00     0.006 C 
BRANCH   7   8
ATOM      8  C   UNL     1     -21.592  -0.624  13.928  1.00  0.00     0.053 C 
BRANCH   8   9
ATOM      9  C   UNL     1     -20.980  -1.804  13.239  1.00  0.00     0.041 C 
ATOM     10  O   UNL     1     -20.039  -1.640  12.418  1.00  0.00    -0.550 OA
ATOM     11  O   UNL     1     -21.472  -3.081  13.477  1.00  0.00    -0.550 OA
ENDBRANCH   8   9
ENDBRANCH   7   8
ENDBRANCH   6   7
ENDBRANCH   5   6
ENDBRANCH   4   5
ENDBRANCH   3   4
ENDBRANCH   2   3
ENDBRANCH   1   2
BRANCH   1  12
ATOM     12  C   UNL     1     -20.588   0.580   6.557  1.00  0.00     0.000 C 
BRANCH  12  13
ATOM     13  C   UNL     1     -21.151  -0.775   7.013  1.00  0.00    -0.000 C 
BRANCH  13  14
ATOM     14  C   UNL     1     -20.027  -1.702   7.491  1.00  0.00    -0.000 C 
BRANCH  14  15
ATOM     15  C   UNL     1     -20.050  -1.854   9.019  1.00  0.00    -0.000 C 
BRANCH  15  16
ATOM     16  C   UNL     1     -19.300  -3.106   9.507  1.00  0.00    -0.000 C 
BRANCH  16  17
ATOM     17  C   UNL     1     -18.974  -4.139   8.408  1.00  0.00    -0.000 C 
BRANCH  17  18
ATOM     18  C   UNL     1     -19.264  -5.606   8.780  1.00  0.00    -0.000 C 
BRANCH  18  19
ATOM     19  C   UNL     1     -20.668  -6.104   8.394  1.00  0.00    -0.003 C 
ATOM     20  C   UNL     1     -21.624  -6.170   9.585  1.00  0.00     0.004 C 
ENDBRANCH  18  19
ENDBRANCH  17  18
ENDBRANCH  16  17
ENDBRANCH  15  16
ENDBRANCH  14  15
ENDBRANCH  13  14
ENDBRANCH  12  13
ENDBRANCH   1  12
TORSDOF 16
ENDMDL
MODEL 2
REMARK VINA RESULT:    -2.486      0.879      1.188
REMARK INTER + INTRA:          -6.130
REMARK INTER:                  -4.794
REMARK INTRA:                  -1.336
REMARK UNBOUND:                -1.318
REMARK SMILES CCCCCCCCCCCCCCCCCC(=O)[O-]
REMARK SMILES IDX 10 1 11 2 12 3 13 4 14 5 15 6 16 7 17 8 18 9 19 10 20 11
REMARK SMILES IDX 9 12 8 13 7 14 6 15 5 16 4 17 3 18 2 19 1 20
REMARK H PARENT
REMARK Flexibility Score: inf
ROOT
ATOM      1  C   UNL     1     -20.148   1.296   7.637  1.00  0.00     0.000 C 
ENDROOT
BRANCH   1   2
ATOM      2  C   UNL     1     -21.075   2.520   7.536  1.00  0.00     0.000 C 
BRANCH   2   3
ATOM      3  C   UNL     1     -21.457   3.081   8.915  1.00  0.00     0.000 C 
BRANCH   3   4
ATOM      4  C   UNL     1     -22.007   2.001   9.863  1.00  0.00     0.000 C 
BRANCH   4   5
ATOM      5  C   UNL     1     -21.074   1.747  11.066  1.00  0.00     0.000 C 
BRANCH   5   6
ATOM      6  C   UNL     1     -21.821   1.389  12.366  1.00  0.00     0.000 C 
BRANCH   6   7
ATOM      7  C   UNL     1     -20.980   1.502  13.651  1.00  0.00     0.006 C 
BRANCH   7   8
ATOM      8  C   UNL     1     -20.327   0.184  14.098  1.00  0.00     0.053 C 
BRANCH   8   9
ATOM      9  C   UNL     1     -21.324  -0.929  14.197  1.00  0.00     0.041 C 
ATOM     10  O   UNL     1     -22.304  -0.833  14.982  1.00  0.00    -0.550 OA
ATOM     11  O   UNL     1     -21.153  -2.087  13.448  1.00  0.00    -0.550 OA
ENDBRANCH   8   9
ENDBRANCH   7   8
ENDBRANCH   6   7
ENDBRANCH   5   6
ENDBRANCH   4   5
ENDBRANCH   3   4
ENDBRANCH   2   3
ENDBRANCH   1   2
BRANCH   1  12
ATOM     12  C   UNL     1     -20.652   0.103   6.809  1.00  0.00     0.000 C 
BRANCH  12  13
ATOM     13  C   UNL     1     -20.404  -1.246   7.500  1.00  0.00    -0.000 C 
BRANCH  13  14
ATOM     14  C   UNL     1     -20.178  -1.057   9.005  1.00  0.00    -0.000 C 
BRANCH  14  15
ATOM     15  C   UNL     1     -20.277  -2.397   9.749  1.00  0.00    -0.000 C 
BRANCH  15  16
ATOM     16  C   UNL     1     -18.996  -3.242   9.633  1.00  0.00    -0.000 C 
BRANCH  16  17
ATOM     17  C   UNL     1     -18.947  -4.186   8.415  1.00  0.00    -0.000 C 
BRANCH  17  18
ATOM     18  C   UNL     1     -19.251  -5.666   8.719  1.00  0.00    -0.000 C 
BRANCH  18  19
ATOM     19  C   UNL     1     -20.680  -6.118   8.370  1.00  0.00    -0.003 C 
ATOM     20  C   UNL     1     -21.601  -6.172   9.588  1.00  0.00     0.004 C 
ENDBRANCH  18  19
ENDBRANCH  17  18
ENDBRANCH  16  17
ENDBRANCH  15  16
ENDBRANCH  14  15
ENDBRANCH  13  14
ENDBRANCH  12  13
ENDBRANCH   1  12
TORSDOF 16
ENDMDL
MODEL 3
REMARK VINA RESULT:    -2.430      1.781      5.686
REMARK INTER + INTRA:          -6.022
REMARK INTER:                  -4.627
REMARK INTRA:                  -1.395
REMARK UNBOUND:                -1.318
REMARK SMILES CCCCCCCCCCCCCCCCCC(=O)[O-]
REMARK SMILES IDX 10 1 11 2 12 3 13 4 14 5 15 6 16 7 17 8 18 9 19 10 20 11
REMARK SMILES IDX 9 12 8 13 7 14 6 15 5 16 4 17 3 18 2 19 1 20
REMARK H PARENT
REMARK Flexibility Score: inf
ROOT
ATOM      1  C   UNL     1     -20.745   0.437   6.416  1.00  0.00     0.000 C 
ENDROOT
BRANCH   1   2
ATOM      2  C   UNL     1     -19.730  -0.553   7.015  1.00  0.00     0.000 C 
BRANCH   2   3
ATOM      3  C   UNL     1     -20.411  -1.709   7.766  1.00  0.00     0.000 C 
BRANCH   3   4
ATOM      4  C   UNL     1     -20.070  -1.723   9.266  1.00  0.00     0.000 C 
BRANCH   4   5
ATOM      5  C   UNL     1     -19.277  -2.983   9.676  1.00  0.00     0.000 C 
BRANCH   5   6
ATOM      6  C   UNL     1     -19.005  -3.951   8.508  1.00  0.00     0.000 C 
BRANCH   6   7
ATOM      7  C   UNL     1     -19.222  -5.441   8.835  1.00  0.00     0.006 C 
BRANCH   7   8
ATOM      8  C   UNL     1     -20.476  -6.053   8.189  1.00  0.00     0.053 C 
BRANCH   8   9
ATOM      9  C   UNL     1     -21.563  -6.290   9.192  1.00  0.00     0.041 C 
ATOM     10  O   UNL     1     -21.483  -5.787  10.343  1.00  0.00    -0.550 OA
ATOM     11  O   UNL     1     -22.648  -7.095   8.866  1.00  0.00    -0.550 OA
ENDBRANCH   8   9
ENDBRANCH   7   8
ENDBRANCH   6   7
ENDBRANCH   5   6
ENDBRANCH   4   5
ENDBRANCH   3   4
ENDBRANCH   2   3
ENDBRANCH   1   2
BRANCH   1  12
ATOM     12  C   UNL     1     -20.738   1.796   7.134  1.00  0.00     0.000 C 
BRANCH  12  13
ATOM     13  C   UNL     1     -20.734   1.659   8.664  1.00  0.00    -0.000 C 
BRANCH  13  14
ATOM     14  C   UNL     1     -21.786   2.576   9.299  1.00  0.00    -0.000 C 
BRANCH  14  15
ATOM     15  C   UNL     1     -22.372   1.942  10.571  1.00  0.00    -0.000 C 
BRANCH  15  16
ATOM     16  C   UNL     1     -21.314   1.207  11.413  1.00  0.00    -0.000 C 
BRANCH  16  17
ATOM     17  C   UNL     1     -21.513   1.306  12.939  1.00  0.00    -0.000 C 
BRANCH  17  18
ATOM     18  C   UNL     1     -20.701   0.296  13.774  1.00  0.00    -0.000 C 
BRANCH  18  19
ATOM     19  C   UNL     1     -21.363  -1.084  13.941  1.00  0.00    -0.003 C 
ATOM     20  C   UNL     1     -20.835  -2.121  12.952  1.00  0.00     0.004 C 
ENDBRANCH  18  19
ENDBRANCH  17  18
ENDBRANCH  16  17
ENDBRANCH  15  16
ENDBRANCH  14  15
ENDBRANCH  13  14
ENDBRANCH  12  13
ENDBRANCH   1  12
TORSDOF 16
ENDMDL
MODEL 4
REMARK VINA RESULT:    -2.378      2.175      4.610
REMARK INTER + INTRA:          -5.920
REMARK INTER:                  -4.342
REMARK INTRA:                  -1.578
REMARK UNBOUND:                -1.318
REMARK SMILES CCCCCCCCCCCCCCCCCC(=O)[O-]
REMARK SMILES IDX 10 1 11 2 12 3 13 4 14 5 15 6 16 7 17 8 18 9 19 10 20 11
REMARK SMILES IDX 9 12 8 13 7 14 6 15 5 16 4 17 3 18 2 19 1 20
REMARK H PARENT
REMARK Flexibility Score: inf
ROOT
ATOM      1  C   UNL     1     -21.640  -1.070  13.873  1.00  0.00     0.000 C 
ENDROOT
BRANCH   1   2
ATOM      2  C   UNL     1     -20.647  -0.057  14.470  1.00  0.00     0.000 C 
BRANCH   2   3
ATOM      3  C   UNL     1     -20.784   1.339  13.841  1.00  0.00     0.000 C 
BRANCH   3   4
ATOM      4  C   UNL     1     -21.710   1.347  12.612  1.00  0.00     0.000 C 
BRANCH   4   5
ATOM      5  C   UNL     1     -21.080   2.080  11.408  1.00  0.00     0.000 C 
BRANCH   5   6
ATOM      6  C   UNL     1     -21.611   1.601  10.043  1.00  0.00     0.000 C 
BRANCH   6   7
ATOM      7  C   UNL     1     -20.638   0.714   9.242  1.00  0.00     0.006 C 
BRANCH   7   8
ATOM      8  C   UNL     1     -20.478   1.124   7.769  1.00  0.00     0.053 C 
BRANCH   8   9
ATOM      9  C   UNL     1     -20.285  -0.063   6.876  1.00  0.00     0.041 C 
ATOM     10  O   UNL     1     -19.293  -0.116   6.101  1.00  0.00    -0.550 OA
ATOM     11  O   UNL     1     -21.218  -1.092   6.873  1.00  0.00    -0.550 OA
ENDBRANCH   8   9
ENDBRANCH   7   8
ENDBRANCH   6   7
ENDBRANCH   5   6
ENDBRANCH   4   5
ENDBRANCH   3   4
ENDBRANCH   2   3
ENDBRANCH   1   2
BRANCH   1  12
ATOM     12  C   UNL     1     -20.937  -2.256  13.194  1.00  0.00     0.000 C 
BRANCH  12  13
ATOM     13  C   UNL     1     -19.962  -1.815  12.092  1.00  0.00    -0.000 C 
BRANCH  13  14
ATOM     14  C   UNL     1     -20.433  -2.301  10.716  1.00  0.00    -0.000 C 
BRANCH  14  15
ATOM     15  C   UNL     1     -19.248  -2.445   9.748  1.00  0.00    -0.000 C 
BRANCH  15  16
ATOM     16  C   UNL     1     -19.550  -3.389   8.571  1.00  0.00    -0.000 C 
BRANCH  16  17
ATOM     17  C   UNL     1     -18.592  -4.591   8.438  1.00  0.00    -0.000 C 
BRANCH  17  18
ATOM     18  C   UNL     1     -19.233  -5.970   8.685  1.00  0.00    -0.000 C 
BRANCH  18  19
ATOM     19  C   UNL     1     -20.736  -6.052   8.365  1.00  0.00    -0.003 C 
ATOM     20  C   UNL     1     -21.606  -6.165   9.616  1.00  0.00     0.004 C 
ENDBRANCH  18  19
ENDBRANCH  17  18
ENDBRANCH  16  17
ENDBRANCH  15  16
ENDBRANCH  14  15
ENDBRANCH  13  14
ENDBRANCH  12  13
ENDBRANCH   1  12
TORSDOF 16
ENDMDL
MODEL 5
REMARK VINA RESULT:    -2.323      2.115      6.044
REMARK INTER + INTRA:          -5.813
REMARK INTER:                  -4.660
REMARK INTRA:                  -1.153
REMARK UNBOUND:                -1.318
REMARK SMILES CCCCCCCCCCCCCCCCCC(=O)[O-]
REMARK SMILES IDX 10 1 11 2 12 3 13 4 14 5 15 6 16 7 17 8 18 9 19 10 20 11
REMARK SMILES IDX 9 12 8 13 7 14 6 15 5 16 4 17 3 18 2 19 1 20
REMARK H PARENT
REMARK Flexibility Score: inf
ROOT
ATOM      1  C   UNL     1     -20.395  -1.737   7.358  1.00  0.00     0.000 C 
ENDROOT
BRANCH   1   2
ATOM      2  C   UNL     1     -19.667  -2.315   8.585  1.00  0.00     0.000 C 
BRANCH   2   3
ATOM      3  C   UNL     1     -19.972  -1.530   9.871  1.00  0.00     0.000 C 
BRANCH   3   4
ATOM      4  C   UNL     1     -20.430  -2.438  11.025  1.00  0.00     0.000 C 
BRANCH   4   5
ATOM      5  C   UNL     1     -20.048  -1.866  12.407  1.00  0.00     0.000 C 
BRANCH   5   6
ATOM      6  C   UNL     1     -21.061  -2.202  13.520  1.00  0.00     0.000 C 
BRANCH   6   7
ATOM      7  C   UNL     1     -21.705  -0.981  14.202  1.00  0.00     0.006 C 
BRANCH   7   8
ATOM      8  C   UNL     1     -20.762   0.221  14.368  1.00  0.00     0.053 C 
BRANCH   8   9
ATOM      9  C   UNL     1     -21.035   1.291  13.357  1.00  0.00     0.041 C 
ATOM     10  O   UNL     1     -20.605   2.461  13.541  1.00  0.00    -0.550 OA
ATOM     11  O   UNL     1     -21.794   1.007  12.229  1.00  0.00    -0.550 OA
ENDBRANCH   8   9
ENDBRANCH   7   8
ENDBRANCH   6   7
ENDBRANCH   5   6
ENDBRANCH   4   5
ENDBRANCH   3   4
ENDBRANCH   2   3
ENDBRANCH   1   2
BRANCH   1  12
ATOM     12  C   UNL     1     -19.742  -0.446   6.838  1.00  0.00     0.000 C 
BRANCH  12  13
ATOM     13  C   UNL     1     -20.770   0.645   6.503  1.00  0.00    -0.000 C 
BRANCH  13  14
ATOM     14  C   UNL     1     -20.580   1.871   7.406  1.00  0.00    -0.000 C 
BRANCH  14  15
ATOM     15  C   UNL     1     -21.166   1.620   8.804  1.00  0.00    -0.000 C 
BRANCH  15  16
ATOM     16  C   UNL     1     -21.457   2.922   9.572  1.00  0.00    -0.000 C 
BRANCH  16  17
ATOM     17  C   UNL     1     -22.199   4.004   8.760  1.00  0.00    -0.000 C 
BRANCH  17  18
ATOM     18  C   UNL     1     -21.877   5.458   9.157  1.00  0.00    -0.000 C 
BRANCH  18  19
ATOM     19  C   UNL     1     -20.397   5.854   9.014  1.00  0.00    -0.003 C 
ATOM     20  C   UNL     1     -19.744   6.205  10.350  1.00  0.00     0.004 C 
ENDBRANCH  18  19
ENDBRANCH  17  18
ENDBRANCH  16  17
ENDBRANCH  15  16
ENDBRANCH  14  15
ENDBRANCH  13  14
ENDBRANCH  12  13
ENDBRANCH   1  12
TORSDOF 16
ENDMDL
MODEL 6
REMARK VINA RESULT:    -2.277      1.398      2.867
REMARK INTER + INTRA:          -5.725
REMARK INTER:                  -4.645
REMARK INTRA:                  -1.079
REMARK UNBOUND:                -1.318
REMARK SMILES CCCCCCCCCCCCCCCCCC(=O)[O-]
REMARK SMILES IDX 10 1 11 2 12 3 13 4 14 5 15 6 16 7 17 8 18 9 19 10 20 11
REMARK SMILES IDX 9 12 8 13 7 14 6 15 5 16 4 17 3 18 2 19 1 20
REMARK H PARENT
REMARK Flexibility Score: inf
ROOT
ATOM      1  C   UNL     1     -20.415  -1.365   7.472  1.00  0.00     0.000 C 
ENDROOT
BRANCH   1   2
ATOM      2  C   UNL     1     -20.384   0.057   6.884  1.00  0.00     0.000 C 
BRANCH   2   3
ATOM      3  C   UNL     1     -20.060   1.123   7.945  1.00  0.00     0.000 C 
BRANCH   3   4
ATOM      4  C   UNL     1     -21.130   2.225   8.024  1.00  0.00     0.000 C 
BRANCH   4   5
ATOM      5  C   UNL     1     -21.514   2.566   9.480  1.00  0.00     0.000 C 
BRANCH   5   6
ATOM      6  C   UNL     1     -21.502   1.349  10.426  1.00  0.00     0.000 C 
BRANCH   6   7
ATOM      7  C   UNL     1     -21.031   1.647  11.862  1.00  0.00     0.006 C 
BRANCH   7   8
ATOM      8  C   UNL     1     -21.809   0.891  12.951  1.00  0.00     0.053 C 
BRANCH   8   9
ATOM      9  C   UNL     1     -20.983  -0.186  13.584  1.00  0.00     0.041 C 
ATOM     10  O   UNL     1     -20.570  -0.054  14.767  1.00  0.00    -0.550 OA
ATOM     11  O   UNL     1     -20.640  -1.319  12.858  1.00  0.00    -0.550 OA
ENDBRANCH   8   9
ENDBRANCH   7   8
ENDBRANCH   6   7
ENDBRANCH   5   6
ENDBRANCH   4   5
ENDBRANCH   3   4
ENDBRANCH   2   3
ENDBRANCH   1   2
BRANCH   1  12
ATOM     12  C   UNL     1     -20.289  -1.374   9.004  1.00  0.00     0.000 C 
BRANCH  12  13
ATOM     13  C   UNL     1     -19.578  -2.629   9.532  1.00  0.00    -0.000 C 
BRANCH  13  14
ATOM     14  C   UNL     1     -19.269  -3.605   8.391  1.00  0.00    -0.000 C 
BRANCH  14  15
ATOM     15  C   UNL     1     -19.101  -5.037   8.922  1.00  0.00    -0.000 C 
BRANCH  15  16
ATOM     16  C   UNL     1     -20.141  -6.013   8.346  1.00  0.00    -0.000 C 
BRANCH  16  17
ATOM     17  C   UNL     1     -21.420  -6.177   9.192  1.00  0.00    -0.000 C 
BRANCH  17  18
ATOM     18  C   UNL     1     -22.329  -7.353   8.786  1.00  0.00    -0.000 C 
BRANCH  18  19
ATOM     19  C   UNL     1     -23.828  -7.014   8.708  1.00  0.00    -0.003 C 
ATOM     20  C   UNL     1     -24.656  -8.122   8.060  1.00  0.00     0.004 C 
ENDBRANCH  18  19
ENDBRANCH  17  18
ENDBRANCH  16  17
ENDBRANCH  15  16
ENDBRANCH  14  15
ENDBRANCH  13  14
ENDBRANCH  12  13
ENDBRANCH   1  12
TORSDOF 16
ENDMDL
MODEL 7
REMARK VINA RESULT:    -2.240      2.790      7.476
REMARK INTER + INTRA:          -5.654
REMARK INTER:                  -4.016
REMARK INTRA:                  -1.638
REMARK UNBOUND:                -1.318
REMARK SMILES CCCCCCCCCCCCCCCCCC(=O)[O-]
REMARK SMILES IDX 10 1 11 2 12 3 13 4 14 5 15 6 16 7 17 8 18 9 19 10 20 11
REMARK SMILES IDX 9 12 8 13 7 14 6 15 5 16 4 17 3 18 2 19 1 20
REMARK H PARENT
REMARK Flexibility Score: inf
ROOT
ATOM      1  C   UNL     1     -20.469   0.408  13.846  1.00  0.00     0.000 C 
ENDROOT
BRANCH   1   2
ATOM      2  C   UNL     1     -21.477  -0.749  13.957  1.00  0.00     0.000 C 
BRANCH   2   3
ATOM      3  C   UNL     1     -21.010  -2.008  13.207  1.00  0.00     0.000 C 
BRANCH   3   4
ATOM      4  C   UNL     1     -20.087  -1.683  12.020  1.00  0.00     0.000 C 
BRANCH   4   5
ATOM      5  C   UNL     1     -20.213  -2.715  10.880  1.00  0.00     0.000 C 
BRANCH   5   6
ATOM      6  C   UNL     1     -19.650  -2.223   9.532  1.00  0.00     0.000 C 
BRANCH   6   7
ATOM      7  C   UNL     1     -20.443  -1.078   8.875  1.00  0.00     0.006 C 
BRANCH   7   8
ATOM      8  C   UNL     1     -20.371  -1.059   7.340  1.00  0.00     0.053 C 
BRANCH   8   9
ATOM      9  C   UNL     1     -20.315   0.336   6.798  1.00  0.00     0.041 C 
ATOM     10  O   UNL     1     -21.151   0.714   5.936  1.00  0.00    -0.550 OA
ATOM     11  O   UNL     1     -19.319   1.207   7.220  1.00  0.00    -0.550 OA
ENDBRANCH   8   9
ENDBRANCH   7   8
ENDBRANCH   6   7
ENDBRANCH   5   6
ENDBRANCH   4   5
ENDBRANCH   3   4
ENDBRANCH   2   3
ENDBRANCH   1   2
BRANCH   1  12
ATOM     12  C   UNL     1     -21.097   1.685  13.264  1.00  0.00     0.000 C 
BRANCH  12  13
ATOM     13  C   UNL     1     -21.913   1.416  11.991  1.00  0.00    -0.000 C 
BRANCH  13  14
ATOM     14  C   UNL     1     -21.100   1.759  10.736  1.00  0.00    -0.000 C 
BRANCH  14  15
ATOM     15  C   UNL     1     -22.021   2.197   9.587  1.00  0.00    -0.000 C 
BRANCH  15  16
ATOM     16  C   UNL     1     -21.421   3.334   8.741  1.00  0.00    -0.000 C 
BRANCH  16  17
ATOM     17  C   UNL     1     -22.202   4.663   8.790  1.00  0.00    -0.000 C 
BRANCH  17  18
ATOM     18  C   UNL     1     -21.354   5.912   9.098  1.00  0.00    -0.000 C 
BRANCH  18  19
ATOM     19  C   UNL     1     -20.350   5.743  10.252  1.00  0.00    -0.003 C 
ATOM     20  C   UNL     1     -19.133   6.658  10.121  1.00  0.00     0.004 C 
ENDBRANCH  18  19
ENDBRANCH  17  18
ENDBRANCH  16  17
ENDBRANCH  15  16
ENDBRANCH  14  15
ENDBRANCH  13  14
ENDBRANCH  12  13
ENDBRANCH   1  12
TORSDOF 16
ENDMDL
MODEL 8
REMARK VINA RESULT:    -2.184      1.791      6.349
REMARK INTER + INTRA:          -5.546
REMARK INTER:                  -4.230
REMARK INTRA:                  -1.316
REMARK UNBOUND:                -1.318
REMARK SMILES CCCCCCCCCCCCCCCCCC(=O)[O-]
REMARK SMILES IDX 10 1 11 2 12 3 13 4 14 5 15 6 16 7 17 8 18 9 19 10 20 11
REMARK SMILES IDX 9 12 8 13 7 14 6 15 5 16 4 17 3 18 2 19 1 20
REMARK H PARENT
REMARK Flexibility Score: inf
ROOT
ATOM      1  C   UNL     1     -21.515  -1.182  13.707  1.00  0.00     0.000 C 
ENDROOT
BRANCH   1   2
ATOM      2  C   UNL     1     -20.776  -2.201  12.821  1.00  0.00     0.000 C 
BRANCH   2   3
ATOM      3  C   UNL     1     -20.017  -1.530  11.664  1.00  0.00     0.000 C 
BRANCH   3   4
ATOM      4  C   UNL     1     -20.298  -2.196  10.306  1.00  0.00     0.000 C 
BRANCH   4   5
ATOM      5  C   UNL     1     -19.051  -2.900   9.730  1.00  0.00     0.000 C 
BRANCH   5   6
ATOM      6  C   UNL     1     -19.349  -3.790   8.507  1.00  0.00     0.000 C 
BRANCH   6   7
ATOM      7  C   UNL     1     -19.221  -5.304   8.757  1.00  0.00     0.006 C 
BRANCH   7   8
ATOM      8  C   UNL     1     -20.388  -6.137   8.204  1.00  0.00     0.053 C 
BRANCH   8   9
ATOM      9  C   UNL     1     -21.501  -6.271   9.197  1.00  0.00     0.041 C 
ATOM     10  O   UNL     1     -22.548  -6.902   8.892  1.00  0.00    -0.550 OA
ATOM     11  O   UNL     1     -21.398  -5.670  10.445  1.00  0.00    -0.550 OA
ENDBRANCH   8   9
ENDBRANCH   7   8
ENDBRANCH   6   7
ENDBRANCH   5   6
ENDBRANCH   4   5
ENDBRANCH   3   4
ENDBRANCH   2   3
ENDBRANCH   1   2
BRANCH   1  12
ATOM     12  C   UNL     1     -20.608  -0.025  14.158  1.00  0.00     0.000 C 
BRANCH  12  13
ATOM     13  C   UNL     1     -21.223   1.354  13.876  1.00  0.00    -0.000 C 
BRANCH  13  14
ATOM     14  C   UNL     1     -20.880   1.828  12.459  1.00  0.00    -0.000 C 
BRANCH  14  15
ATOM     15  C   UNL     1     -21.937   1.355  11.449  1.00  0.00    -0.000 C 
BRANCH  15  16
ATOM     16  C   UNL     1     -21.730   1.949  10.045  1.00  0.00    -0.000 C 
BRANCH  16  17
ATOM     17  C   UNL     1     -20.869   1.090   9.096  1.00  0.00    -0.000 C 
BRANCH  17  18
ATOM     18  C   UNL     1     -20.677   1.668   7.680  1.00  0.00    -0.000 C 
BRANCH  18  19
ATOM     19  C   UNL     1     -20.599   0.618   6.558  1.00  0.00    -0.003 C 
ATOM     20  C   UNL     1     -20.524  -0.813   7.087  1.00  0.00     0.004 C 
ENDBRANCH  18  19
ENDBRANCH  17  18
ENDBRANCH  16  17
ENDBRANCH  15  16
ENDBRANCH  14  15
ENDBRANCH  13  14
ENDBRANCH  12  13
ENDBRANCH   1  12
TORSDOF 16
ENDMDL
MODEL 9
REMARK VINA RESULT:    -2.007      1.876      5.436
REMARK INTER + INTRA:          -5.202
REMARK INTER:                  -3.733
REMARK INTRA:                  -1.469
REMARK UNBOUND:                -1.318
REMARK SMILES CCCCCCCCCCCCCCCCCC(=O)[O-]
REMARK SMILES IDX 10 1 11 2 12 3 13 4 14 5 15 6 16 7 17 8 18 9 19 10 20 11
REMARK SMILES IDX 9 12 8 13 7 14 6 15 5 16 4 17 3 18 2 19 1 20
REMARK H PARENT
REMARK Flexibility Score: inf
ROOT
ATOM      1  C   UNL     1     -21.122   2.351   7.864  1.00  0.00     0.000 C 
ENDROOT
BRANCH   1   2
ATOM      2  C   UNL     1     -20.057   1.267   7.622  1.00  0.00     0.000 C 
BRANCH   2   3
ATOM      3  C   UNL     1     -20.538   0.182   6.643  1.00  0.00     0.000 C 
BRANCH   3   4
ATOM      4  C   UNL     1     -20.475  -1.231   7.248  1.00  0.00     0.000 C 
BRANCH   4   5
ATOM      5  C   UNL     1     -20.271  -1.206   8.778  1.00  0.00     0.000 C 
BRANCH   5   6
ATOM      6  C   UNL     1     -19.536  -2.444   9.326  1.00  0.00     0.000 C 
BRANCH   6   7
ATOM      7  C   UNL     1     -19.382  -3.605   8.327  1.00  0.00     0.006 C 
BRANCH   7   8
ATOM      8  C   UNL     1     -19.279  -4.993   8.981  1.00  0.00     0.053 C 
BRANCH   8   9
ATOM      9  C   UNL     1     -20.567  -5.752   8.890  1.00  0.00     0.041 C 
ATOM     10  O   UNL     1     -21.006  -6.121   7.769  1.00  0.00    -0.550 OA
ATOM     11  O   UNL     1     -21.299  -6.022  10.039  1.00  0.00    -0.550 OA
ENDBRANCH   8   9
ENDBRANCH   7   8
ENDBRANCH   6   7
ENDBRANCH   5   6
ENDBRANCH   4   5
ENDBRANCH   3   4
ENDBRANCH   2   3
ENDBRANCH   1   2
BRANCH   1  12
ATOM     12  C   UNL     1     -21.257   2.725   9.349  1.00  0.00     0.000 C 
BRANCH  12  13
ATOM     13  C   UNL     1     -22.255   1.829  10.098  1.00  0.00    -0.000 C 
BRANCH  13  14
ATOM     14  C   UNL     1     -21.549   1.012  11.186  1.00  0.00    -0.000 C 
BRANCH  14  15
ATOM     15  C   UNL     1     -20.823   1.931  12.181  1.00  0.00    -0.000 C 
BRANCH  15  16
ATOM     16  C   UNL     1     -21.199   1.642  13.645  1.00  0.00    -0.000 C 
BRANCH  16  17
ATOM     17  C   UNL     1     -20.643   0.318  14.210  1.00  0.00    -0.000 C 
BRANCH  17  18
ATOM     18  C   UNL     1     -21.674  -0.818  14.353  1.00  0.00    -0.000 C 
BRANCH  18  19
ATOM     19  C   UNL     1     -21.244  -2.161  13.737  1.00  0.00    -0.003 C 
ATOM     20  C   UNL     1     -20.388  -1.993  12.481  1.00  0.00     0.004 C 
ENDBRANCH  18  19
ENDBRANCH  17  18
ENDBRANCH  16  17
ENDBRANCH  15  16
ENDBRANCH  14  15
ENDBRANCH  13  14
ENDBRANCH  12  13
ENDBRANCH   1  12
TORSDOF 16
ENDMDL
