MODEL 1
REMARK VINA RESULT:    -4.424      0.000      0.000
REMARK INTER + INTRA:          -9.331
REMARK INTER:                  -8.044
REMARK INTRA:                  -1.286
REMARK UNBOUND:                -1.286
REMARK SMILES CCCCCCCCCCCCCCCC(=O)[O-]
REMARK SMILES IDX 9 1 10 2 11 3 12 4 13 5 14 6 15 7 16 8 17 9 18 10 8 11 7 12
REMARK SMILES IDX 6 13 5 14 4 15 3 16 2 17 1 18
REMARK H PARENT
REMARK Flexibility Score: inf
ROOT
ATOM      1  C   UNL     1       8.282  11.535   7.719  1.00  0.00     0.000 C 
ENDROOT
BRANCH   1   2
ATOM      2  C   UNL     1       9.374  11.546   6.633  1.00  0.00     0.000 C 
BRANCH   2   3
ATOM      3  C   UNL     1       9.297  12.721   5.638  1.00  0.00     0.000 C 
BRANCH   3   4
ATOM      4  C   UNL     1       8.373  12.494   4.425  1.00  0.00     0.000 C 
BRANCH   4   5
ATOM      5  C   UNL     1       6.891  12.838   4.663  1.00  0.00     0.000 C 
BRANCH   5   6
ATOM      6  C   UNL     1       5.961  11.627   4.479  1.00  0.00     0.006 C 
BRANCH   6   7
ATOM      7  C   UNL     1       6.117  10.600   5.608  1.00  0.00     0.053 C 
BRANCH   7   8
ATOM      8  C   UNL     1       4.804  10.276   6.253  1.00  0.00     0.041 C 
ATOM      9  O   UNL     1       3.746  10.827   5.848  1.00  0.00    -0.550 OA
ATOM     10  O   UNL     1       4.752   9.386   7.319  1.00  0.00    -0.550 OA
ENDBRANCH   7   8
ENDBRANCH   6   7
ENDBRANCH   5   6
ENDBRANCH   4   5
ENDBRANCH   3   4
ENDBRANCH   2   3
ENDBRANCH   1   2
BRANCH   1  11
ATOM     11  C   UNL     1       8.142  12.889   8.436  1.00  0.00     0.000 C 
BRANCH  11  12
ATOM     12  C   UNL     1       6.864  12.976   9.287  1.00  0.00    -0.000 C 
BRANCH  12  13
ATOM     13  C   UNL     1       5.583  12.940   8.440  1.00  0.00    -0.000 C 
BRANCH  13  14
ATOM     14  C   UNL     1       4.334  12.940   9.336  1.00  0.00    -0.000 C 
BRANCH  14  15
ATOM     15  C   UNL     1       3.880  11.523   9.722  1.00  0.00    -0.000 C 
BRANCH  15  16
ATOM     16  C   UNL     1       2.443  11.217   9.263  1.00  0.00    -0.000 C 
BRANCH  16  17
ATOM     17  C   UNL     1       1.387  11.923  10.127  1.00  0.00    -0.003 C 
ATOM     18  C   UNL     1       0.628  13.010   9.367  1.00  0.00     0.004 C 
ENDBRANCH  16  17
ENDBRANCH  15  16
ENDBRANCH  14  15
ENDBRANCH  13  14
ENDBRANCH  12  13
ENDBRANCH  11  12
ENDBRANCH   1  11
TORSDOF 14
ENDMDL
MODEL 2
REMARK VINA RESULT:    -4.419      1.578      2.496
REMARK INTER + INTRA:          -9.321
REMARK INTER:                  -7.745
REMARK INTRA:                  -1.576
REMARK UNBOUND:                -1.286
REMARK SMILES CCCCCCCCCCCCCCCC(=O)[O-]
REMARK SMILES IDX 9 1 10 2 11 3 12 4 13 5 14 6 15 7 16 8 17 9 18 10 8 11 7 12
REMARK SMILES IDX 6 13 5 14 4 15 3 16 2 17 1 18
REMARK H PARENT
REMARK Flexibility Score: inf
ROOT
ATOM      1  C   UNL     1       7.653  11.988   8.318  1.00  0.00     0.000 C 
ENDROOT
BRANCH   1   2
ATOM      2  C   UNL     1       8.727  13.089   8.368  1.00  0.00     0.000 C 
BRANCH   2   3
ATOM      3  C   UNL     1      10.038  12.760   7.627  1.00  0.00     0.000 C 
BRANCH   3   4
ATOM      4  C   UNL     1       9.863  12.069   6.259  1.00  0.00     0.000 C 
BRANCH   4   5
ATOM      5  C   UNL     1      10.018  12.995   5.038  1.00  0.00     0.000 C 
BRANCH   5   6
ATOM      6  C   UNL     1       8.911  12.790   3.990  1.00  0.00     0.006 C 
BRANCH   6   7
ATOM      7  C   UNL     1       7.521  12.684   4.629  1.00  0.00     0.053 C 
BRANCH   7   8
ATOM      8  C   UNL     1       6.875  11.363   4.345  1.00  0.00     0.041 C 
ATOM      9  O   UNL     1       5.695  11.316   3.904  1.00  0.00    -0.550 OA
ATOM     10  O   UNL     1       7.563  10.181   4.595  1.00  0.00    -0.550 OA
ENDBRANCH   7   8
ENDBRANCH   6   7
ENDBRANCH   5   6
ENDBRANCH   4   5
ENDBRANCH   3   4
ENDBRANCH   2   3
ENDBRANCH   1   2
BRANCH   1  11
ATOM     11  C   UNL     1       6.272  12.480   8.786  1.00  0.00     0.000 C 
BRANCH  11  12
ATOM     12  C   UNL     1       5.176  12.254   7.731  1.00  0.00    -0.000 C 
BRANCH  12  13
ATOM     13  C   UNL     1       5.040  10.778   7.324  1.00  0.00    -0.000 C 
BRANCH  13  14
ATOM     14  C   UNL     1       3.601  10.283   7.540  1.00  0.00    -0.000 C 
BRANCH  14  15
ATOM     15  C   UNL     1       3.406   9.601   8.905  1.00  0.00    -0.000 C 
BRANCH  15  16
ATOM     16  C   UNL     1       2.930  10.580   9.992  1.00  0.00    -0.000 C 
BRANCH  16  17
ATOM     17  C   UNL     1       1.687  11.375   9.565  1.00  0.00    -0.003 C 
ATOM     18  C   UNL     1       1.842  12.881   9.778  1.00  0.00     0.004 C 
ENDBRANCH  16  17
ENDBRANCH  15  16
ENDBRANCH  14  15
ENDBRANCH  13  14
ENDBRANCH  12  13
ENDBRANCH  11  12
ENDBRANCH   1  11
TORSDOF 14
ENDMDL
MODEL 3
REMARK VINA RESULT:    -4.340      1.767      4.265
REMARK INTER + INTRA:          -9.178
REMARK INTER:                  -7.500
REMARK INTRA:                  -1.678
REMARK UNBOUND:                -1.286
REMARK SMILES CCCCCCCCCCCCCCCC(=O)[O-]
REMARK SMILES IDX 9 1 10 2 11 3 12 4 13 5 14 6 15 7 16 8 17 9 18 10 8 11 7 12
REMARK SMILES IDX 6 13 5 14 4 15 3 16 2 17 1 18
REMARK H PARENT
REMARK Flexibility Score: inf
ROOT
ATOM      1  C   UNL     1       8.778  11.222   6.351  1.00  0.00     0.000 C 
ENDROOT
BRANCH   1   2
ATOM      2  C   UNL     1       9.432  12.256   7.285  1.00  0.00     0.000 C 
BRANCH   2   3
ATOM      3  C   UNL     1       8.502  12.839   8.369  1.00  0.00     0.000 C 
BRANCH   3   4
ATOM      4  C   UNL     1       7.135  12.140   8.506  1.00  0.00     0.000 C 
BRANCH   4   5
ATOM      5  C   UNL     1       5.949  13.081   8.789  1.00  0.00     0.000 C 
BRANCH   5   6
ATOM      6  C   UNL     1       4.837  12.409   9.612  1.00  0.00     0.006 C 
BRANCH   6   7
ATOM      7  C   UNL     1       3.489  13.124   9.457  1.00  0.00     0.053 C 
BRANCH   7   8
ATOM      8  C   UNL     1       2.336  12.191   9.665  1.00  0.00     0.041 C 
ATOM      9  O   UNL     1       1.155  12.595   9.490  1.00  0.00    -0.550 OA
ATOM     10  O   UNL     1       2.561  10.884  10.081  1.00  0.00    -0.550 OA
ENDBRANCH   7   8
ENDBRANCH   6   7
ENDBRANCH   5   6
ENDBRANCH   4   5
ENDBRANCH   3   4
ENDBRANCH   2   3
ENDBRANCH   1   2
BRANCH   1  11
ATOM     11  C   UNL     1       8.452  11.796   4.961  1.00  0.00     0.000 C 
BRANCH  11  12
ATOM     12  C   UNL     1       7.667  13.116   5.038  1.00  0.00    -0.000 C 
BRANCH  12  13
ATOM     13  C   UNL     1       6.145  12.901   5.070  1.00  0.00    -0.000 C 
BRANCH  13  14
ATOM     14  C   UNL     1       5.752  11.657   4.257  1.00  0.00    -0.000 C 
BRANCH  14  15
ATOM     15  C   UNL     1       4.695  10.794   4.966  1.00  0.00    -0.000 C 
BRANCH  15  16
ATOM     16  C   UNL     1       4.932  10.695   6.483  1.00  0.00    -0.000 C 
BRANCH  16  17
ATOM     17  C   UNL     1       4.015   9.662   7.156  1.00  0.00    -0.003 C 
ATOM     18  C   UNL     1       4.619   9.072   8.429  1.00  0.00     0.004 C 
ENDBRANCH  16  17
ENDBRANCH  15  16
ENDBRANCH  14  15
ENDBRANCH  13  14
ENDBRANCH  12  13
ENDBRANCH  11  12
ENDBRANCH   1  11
TORSDOF 14
ENDMDL
MODEL 4
REMARK VINA RESULT:    -4.315      1.925      5.134
REMARK INTER + INTRA:          -9.133
REMARK INTER:                  -7.610
REMARK INTRA:                  -1.523
REMARK UNBOUND:                -1.286
REMARK SMILES CCCCCCCCCCCCCCCC(=O)[O-]
REMARK SMILES IDX 9 1 10 2 11 3 12 4 13 5 14 6 15 7 16 8 17 9 18 10 8 11 7 12
REMARK SMILES IDX 6 13 5 14 4 15 3 16 2 17 1 18
REMARK H PARENT
REMARK Flexibility Score: inf
ROOT
ATOM      1  C   UNL     1       8.194  11.647   7.433  1.00  0.00     0.000 C 
ENDROOT
BRANCH   1   2
ATOM      2  C   UNL     1       7.457  12.438   8.529  1.00  0.00     0.000 C 
BRANCH   2   3
ATOM      3  C   UNL     1       6.149  13.118   8.078  1.00  0.00     0.000 C 
BRANCH   3   4
ATOM      4  C   UNL     1       4.889  12.707   8.867  1.00  0.00     0.000 C 
BRANCH   4   5
ATOM      5  C   UNL     1       5.014  11.386   9.648  1.00  0.00     0.000 C 
BRANCH   5   6
ATOM      6  C   UNL     1       3.813  10.449   9.432  1.00  0.00     0.006 C 
BRANCH   6   7
ATOM      7  C   UNL     1       2.609  11.182   8.827  1.00  0.00     0.053 C 
BRANCH   7   8
ATOM      8  C   UNL     1       1.694  11.719   9.884  1.00  0.00     0.041 C 
ATOM      9  O   UNL     1       1.477  12.958   9.965  1.00  0.00    -0.550 OA
ATOM     10  O   UNL     1       1.102  10.857  10.800  1.00  0.00    -0.550 OA
ENDBRANCH   7   8
ENDBRANCH   6   7
ENDBRANCH   5   6
ENDBRANCH   4   5
ENDBRANCH   3   4
ENDBRANCH   2   3
ENDBRANCH   1   2
BRANCH   1  11
ATOM     11  C   UNL     1       9.621  12.167   7.181  1.00  0.00     0.000 C 
BRANCH  11  12
ATOM     12  C   UNL     1       9.696  13.125   5.980  1.00  0.00    -0.000 C 
BRANCH  12  13
ATOM     13  C   UNL     1       9.652  12.390   4.631  1.00  0.00    -0.000 C 
BRANCH  13  14
ATOM     14  C   UNL     1       8.294  12.596   3.941  1.00  0.00    -0.000 C 
BRANCH  14  15
ATOM     15  C   UNL     1       7.252  11.542   4.351  1.00  0.00    -0.000 C 
BRANCH  15  16
ATOM     16  C   UNL     1       5.835  12.127   4.472  1.00  0.00    -0.000 C 
BRANCH  16  17
ATOM     17  C   UNL     1       4.863  11.173   5.184  1.00  0.00    -0.003 C 
ATOM     18  C   UNL     1       5.572  10.188   6.114  1.00  0.00     0.004 C 
ENDBRANCH  16  17
ENDBRANCH  15  16
ENDBRANCH  14  15
ENDBRANCH  13  14
ENDBRANCH  12  13
ENDBRANCH  11  12
ENDBRANCH   1  11
TORSDOF 14
ENDMDL
MODEL 5
REMARK VINA RESULT:    -4.288      1.250      5.122
REMARK INTER + INTRA:          -9.083
REMARK INTER:                  -7.336
REMARK INTRA:                  -1.747
REMARK UNBOUND:                -1.286
REMARK SMILES CCCCCCCCCCCCCCCC(=O)[O-]
REMARK SMILES IDX 9 1 10 2 11 3 12 4 13 5 14 6 15 7 16 8 17 9 18 10 8 11 7 12
REMARK SMILES IDX 6 13 5 14 4 15 3 16 2 17 1 18
REMARK H PARENT
REMARK Flexibility Score: inf
ROOT
ATOM      1  C   UNL     1       7.468  11.916   8.261  1.00  0.00     0.000 C 
ENDROOT
BRANCH   1   2
ATOM      2  C   UNL     1       6.547  12.832   9.088  1.00  0.00     0.000 C 
BRANCH   2   3
ATOM      3  C   UNL     1       5.113  12.982   8.543  1.00  0.00     0.000 C 
BRANCH   3   4
ATOM      4  C   UNL     1       3.996  12.906   9.604  1.00  0.00     0.000 C 
BRANCH   4   5
ATOM      5  C   UNL     1       2.707  12.203   9.141  1.00  0.00     0.000 C 
BRANCH   5   6
ATOM      6  C   UNL     1       2.461  10.869   9.867  1.00  0.00     0.006 C 
BRANCH   6   7
ATOM      7  C   UNL     1       3.768  10.130  10.179  1.00  0.00     0.053 C 
BRANCH   7   8
ATOM      8  C   UNL     1       4.275   9.368   8.994  1.00  0.00     0.041 C 
ATOM      9  O   UNL     1       5.513   9.287   8.775  1.00  0.00    -0.550 OA
ATOM     10  O   UNL     1       3.381   8.770   8.114  1.00  0.00    -0.550 OA
ENDBRANCH   7   8
ENDBRANCH   6   7
ENDBRANCH   5   6
ENDBRANCH   4   5
ENDBRANCH   3   4
ENDBRANCH   2   3
ENDBRANCH   1   2
BRANCH   1  11
ATOM     11  C   UNL     1       8.731  12.637   7.758  1.00  0.00     0.000 C 
BRANCH  11  12
ATOM     12  C   UNL     1       9.591  11.750   6.842  1.00  0.00    -0.000 C 
BRANCH  12  13
ATOM     13  C   UNL     1       9.949  12.439   5.516  1.00  0.00    -0.000 C 
BRANCH  13  14
ATOM     14  C   UNL     1       8.699  13.048   4.861  1.00  0.00    -0.000 C 
BRANCH  14  15
ATOM     15  C   UNL     1       7.902  12.024   4.035  1.00  0.00    -0.000 C 
BRANCH  15  16
ATOM     16  C   UNL     1       6.402  12.028   4.376  1.00  0.00    -0.000 C 
BRANCH  16  17
ATOM     17  C   UNL     1       6.002  10.855   5.284  1.00  0.00    -0.003 C 
ATOM     18  C   UNL     1       4.517  10.862   5.644  1.00  0.00     0.004 C 
ENDBRANCH  16  17
ENDBRANCH  15  16
ENDBRANCH  14  15
ENDBRANCH  13  14
ENDBRANCH  12  13
ENDBRANCH  11  12
ENDBRANCH   1  11
TORSDOF 14
ENDMDL
MODEL 6
REMARK VINA RESULT:    -4.077      1.550      2.685
REMARK INTER + INTRA:          -8.700
REMARK INTER:                  -7.333
REMARK INTRA:                  -1.367
REMARK UNBOUND:                -1.286
REMARK SMILES CCCCCCCCCCCCCCCC(=O)[O-]
REMARK SMILES IDX 9 1 10 2 11 3 12 4 13 5 14 6 15 7 16 8 17 9 18 10 8 11 7 12
REMARK SMILES IDX 6 13 5 14 4 15 3 16 2 17 1 18
REMARK H PARENT
REMARK Flexibility Score: inf
ROOT
ATOM      1  C   UNL     1       6.924  11.133   7.897  1.00  0.00     0.000 C 
ENDROOT
BRANCH   1   2
ATOM      2  C   UNL     1       7.806  12.394   7.953  1.00  0.00     0.000 C 
BRANCH   2   3
ATOM      3  C   UNL     1       9.314  12.148   7.747  1.00  0.00     0.000 C 
BRANCH   3   4
ATOM      4  C   UNL     1       9.741  11.866   6.292  1.00  0.00     0.000 C 
BRANCH   4   5
ATOM      5  C   UNL     1       9.521  13.034   5.312  1.00  0.00     0.000 C 
BRANCH   5   6
ATOM      6  C   UNL     1       8.725  12.622   4.062  1.00  0.00     0.006 C 
BRANCH   6   7
ATOM      7  C   UNL     1       7.807  11.423   4.329  1.00  0.00     0.053 C 
BRANCH   7   8
ATOM      8  C   UNL     1       6.364  11.823   4.367  1.00  0.00     0.041 C 
ATOM      9  O   UNL     1       6.035  12.973   4.762  1.00  0.00    -0.550 OA
ATOM     10  O   UNL     1       5.378  10.917   3.993  1.00  0.00    -0.550 OA
ENDBRANCH   7   8
ENDBRANCH   6   7
ENDBRANCH   5   6
ENDBRANCH   4   5
ENDBRANCH   3   4
ENDBRANCH   2   3
ENDBRANCH   1   2
BRANCH   1  11
ATOM     11  C   UNL     1       5.422  11.459   7.821  1.00  0.00     0.000 C 
BRANCH  11  12
ATOM     12  C   UNL     1       4.583  10.262   7.343  1.00  0.00    -0.000 C 
BRANCH  12  13
ATOM     13  C   UNL     1       4.079   9.390   8.504  1.00  0.00    -0.000 C 
BRANCH  13  14
ATOM     14  C   UNL     1       3.552  10.262   9.655  1.00  0.00    -0.000 C 
BRANCH  14  15
ATOM     15  C   UNL     1       2.016  10.319   9.701  1.00  0.00    -0.000 C 
BRANCH  15  16
ATOM     16  C   UNL     1       1.492  11.431  10.626  1.00  0.00    -0.000 C 
BRANCH  16  17
ATOM     17  C   UNL     1       1.509  12.812   9.954  1.00  0.00    -0.003 C 
ATOM     18  C   UNL     1       0.218  13.121   9.197  1.00  0.00     0.004 C 
ENDBRANCH  16  17
ENDBRANCH  15  16
ENDBRANCH  14  15
ENDBRANCH  13  14
ENDBRANCH  12  13
ENDBRANCH  11  12
ENDBRANCH   1  11
TORSDOF 14
ENDMDL
MODEL 7
REMARK VINA RESULT:    -3.985      1.830      3.294
REMARK INTER + INTRA:          -8.532
REMARK INTER:                  -7.612
REMARK INTRA:                  -0.920
REMARK UNBOUND:                -1.286
REMARK SMILES CCCCCCCCCCCCCCCC(=O)[O-]
REMARK SMILES IDX 9 1 10 2 11 3 12 4 13 5 14 6 15 7 16 8 17 9 18 10 8 11 7 12
REMARK SMILES IDX 6 13 5 14 4 15 3 16 2 17 1 18
REMARK H PARENT
REMARK Flexibility Score: inf
ROOT
ATOM      1  C   UNL     1       5.611  10.541   5.557  1.00  0.00     0.000 C 
ENDROOT
BRANCH   1   2
ATOM      2  C   UNL     1       5.921  11.381   4.305  1.00  0.00     0.000 C 
BRANCH   2   3
ATOM      3  C   UNL     1       6.933  12.526   4.518  1.00  0.00     0.000 C 
BRANCH   3   4
ATOM      4  C   UNL     1       8.169  12.489   3.597  1.00  0.00     0.000 C 
BRANCH   4   5
ATOM      5  C   UNL     1       9.519  12.678   4.312  1.00  0.00     0.000 C 
BRANCH   5   6
ATOM      6  C   UNL     1       9.362  12.978   5.813  1.00  0.00     0.006 C 
BRANCH   6   7
ATOM      7  C   UNL     1       9.495  11.716   6.674  1.00  0.00     0.053 C 
BRANCH   7   8
ATOM      8  C   UNL     1       8.365  11.582   7.647  1.00  0.00     0.041 C 
ATOM      9  O   UNL     1       8.014  10.444   8.058  1.00  0.00    -0.550 OA
ATOM     10  O   UNL     1       7.677  12.711   8.078  1.00  0.00    -0.550 OA
ENDBRANCH   7   8
ENDBRANCH   6   7
ENDBRANCH   5   6
ENDBRANCH   4   5
ENDBRANCH   3   4
ENDBRANCH   2   3
ENDBRANCH   1   2
BRANCH   1  11
ATOM     11  C   UNL     1       4.244  10.879   6.178  1.00  0.00     0.000 C 
BRANCH  11  12
ATOM     12  C   UNL     1       3.973  10.093   7.472  1.00  0.00    -0.000 C 
BRANCH  12  13
ATOM     13  C   UNL     1       4.871  10.540   8.636  1.00  0.00    -0.000 C 
BRANCH  13  14
ATOM     14  C   UNL     1       4.035  10.810   9.898  1.00  0.00    -0.000 C 
BRANCH  14  15
ATOM     15  C   UNL     1       2.559  10.414   9.728  1.00  0.00    -0.000 C 
BRANCH  15  16
ATOM     16  C   UNL     1       1.602  11.363  10.470  1.00  0.00    -0.000 C 
BRANCH  16  17
ATOM     17  C   UNL     1       1.529  12.753   9.817  1.00  0.00    -0.003 C 
ATOM     18  C   UNL     1       0.118  13.124   9.364  1.00  0.00     0.004 C 
ENDBRANCH  16  17
ENDBRANCH  15  16
ENDBRANCH  14  15
ENDBRANCH  13  14
ENDBRANCH  12  13
ENDBRANCH  11  12
ENDBRANCH   1  11
TORSDOF 14
ENDMDL
