MODEL 1
REMARK VINA RESULT:     7.138      0.000      0.000
REMARK INTER + INTRA:           8.303
REMARK INTER:                   8.390
REMARK INTRA:                  -0.088
REMARK UNBOUND:                -0.088
REMARK SMILES O=c1c(O)c(-c2ccc(O)cc2)oc2cc(O)cc(O)c12
REMARK SMILES IDX 5 1 3 2 2 3 1 4 21 5 19 6 18 7 16 8 15 9 14 10 13 11 6 12
REMARK SMILES IDX 7 13 8 14 9 15 12 16 11 17 10 18 4 20 20 22 17 24
REMARK H PARENT 10 19 4 21 20 23 17 25
REMARK Flexibility Score: inf
ROOT
ATOM      1  C   UNL     1     -30.948  -0.540 -24.207  1.00  0.00     0.180 A 
ATOM      2  C   UNL     1     -31.118   0.759 -24.724  1.00  0.00     0.208 A 
ATOM      3  C   UNL     1     -31.445   0.911 -26.080  1.00  0.00     0.238 A 
ATOM      4  O   UNL     1     -31.589   2.070 -26.558  1.00  0.00    -0.285 OA
ATOM      5  C   UNL     1     -31.617  -0.231 -26.889  1.00  0.00     0.111 A 
ATOM      6  C   UNL     1     -31.951  -0.165 -28.263  1.00  0.00     0.134 A 
ATOM      7  C   UNL     1     -32.114  -1.348 -28.998  1.00  0.00     0.093 A 
ATOM      8  C   UNL     1     -31.951  -2.596 -28.386  1.00  0.00     0.123 A 
ATOM      9  C   UNL     1     -31.621  -2.667 -27.031  1.00  0.00     0.094 A 
ATOM     10  C   UNL     1     -31.453  -1.498 -26.282  1.00  0.00     0.146 A 
ATOM     11  O   UNL     1     -31.134  -1.595 -24.995  1.00  0.00    -0.452 OA
ENDROOT
BRANCH   1  12
ATOM     12  C   UNL     1     -30.585  -0.783 -22.792  1.00  0.00     0.021 A 
ATOM     13  C   UNL     1     -29.364  -1.410 -22.491  1.00  0.00     0.016 A 
ATOM     14  C   UNL     1     -28.990  -1.629 -21.162  1.00  0.00     0.047 A 
ATOM     15  C   UNL     1     -29.825  -1.211 -20.117  1.00  0.00     0.115 A 
ATOM     16  C   UNL     1     -31.409  -0.348 -21.738  1.00  0.00     0.016 A 
ATOM     17  C   UNL     1     -31.032  -0.568 -20.410  1.00  0.00     0.047 A 
BRANCH  15  18
ATOM     18  O   UNL     1     -29.464  -1.424 -18.789  1.00  0.00    -0.508 OA
ATOM     19  H   UNL     1     -30.076  -1.912 -18.145  1.00  0.00     0.293 HD
ENDBRANCH  15  18
ENDBRANCH   1  12
BRANCH   2  20
ATOM     20  O   UNL     1     -30.990   1.872 -23.890  1.00  0.00    -0.502 OA
ATOM     21  H   UNL     1     -31.215   1.838 -22.902  1.00  0.00     0.293 HD
ENDBRANCH   2  20
BRANCH   6  22
ATOM     22  O   UNL     1     -32.122   1.065 -28.902  1.00  0.00    -0.507 OA
ATOM     23  H   UNL     1     -32.868   1.219 -29.571  1.00  0.00     0.293 HD
ENDBRANCH   6  22
BRANCH   8  24
ATOM     24  O   UNL     1     -32.114  -3.771 -29.114  1.00  0.00    -0.508 OA
ATOM     25  H   UNL     1     -32.899  -3.901 -29.742  1.00  0.00     0.293 HD
ENDBRANCH   8  24
TORSDOF 5
ENDMDL
MODEL 2
REMARK VINA RESULT:     7.889      1.503      3.404
REMARK INTER + INTRA:           9.185
REMARK INTER:                   9.341
REMARK INTRA:                  -0.155
REMARK UNBOUND:                -0.088
REMARK SMILES O=c1c(O)c(-c2ccc(O)cc2)oc2cc(O)cc(O)c12
REMARK SMILES IDX 5 1 3 2 2 3 1 4 21 5 19 6 18 7 16 8 15 9 14 10 13 11 6 12
REMARK SMILES IDX 7 13 8 14 9 15 12 16 11 17 10 18 4 20 20 22 17 24
REMARK H PARENT 10 19 4 21 20 23 17 25
REMARK Flexibility Score: inf
ROOT
ATOM      1  C   UNL     1     -30.779  -0.123 -24.269  1.00  0.00     0.180 A 
ATOM      2  C   UNL     1     -30.998  -1.001 -25.349  1.00  0.00     0.208 A 
ATOM      3  C   UNL     1     -31.367  -0.467 -26.593  1.00  0.00     0.238 A 
ATOM      4  O   UNL     1     -31.576  -1.244 -27.564  1.00  0.00    -0.285 OA
ATOM      5  C   UNL     1     -31.492   0.929 -26.743  1.00  0.00     0.111 A 
ATOM      6  C   UNL     1     -31.857   1.548 -27.964  1.00  0.00     0.134 A 
ATOM      7  C   UNL     1     -31.951   2.945 -28.035  1.00  0.00     0.093 A 
ATOM      8  C   UNL     1     -31.686   3.736 -26.911  1.00  0.00     0.123 A 
ATOM      9  C   UNL     1     -31.327   3.131 -25.705  1.00  0.00     0.094 A 
ATOM     10  C   UNL     1     -31.230   1.739 -25.613  1.00  0.00     0.146 A 
ATOM     11  O   UNL     1     -30.891   1.189 -24.452  1.00  0.00    -0.452 OA
ENDROOT
BRANCH   1  12
ATOM     12  C   UNL     1     -30.405  -0.610 -22.922  1.00  0.00     0.021 A 
ATOM     13  C   UNL     1     -29.138  -1.183 -22.722  1.00  0.00     0.016 A 
ATOM     14  C   UNL     1     -28.756  -1.629 -21.453  1.00  0.00     0.047 A 
ATOM     15  C   UNL     1     -29.630  -1.495 -20.366  1.00  0.00     0.115 A 
ATOM     16  C   UNL     1     -31.269  -0.460 -21.822  1.00  0.00     0.016 A 
ATOM     17  C   UNL     1     -30.884  -0.907 -20.555  1.00  0.00     0.047 A 
BRANCH  15  18
ATOM     18  O   UNL     1     -29.261  -1.936 -19.098  1.00  0.00    -0.508 OA
ATOM     19  H   UNL     1     -28.306  -2.201 -18.886  1.00  0.00     0.293 HD
ENDBRANCH  15  18
ENDBRANCH   1  12
BRANCH   2  20
ATOM     20  O   UNL     1     -30.819  -2.377 -25.186  1.00  0.00    -0.502 OA
ATOM     21  H   UNL     1     -29.902  -2.808 -25.186  1.00  0.00     0.293 HD
ENDBRANCH   2  20
BRANCH   6  22
ATOM     22  O   UNL     1     -32.125   0.786 -29.102  1.00  0.00    -0.507 OA
ATOM     23  H   UNL     1     -31.922  -0.207 -29.139  1.00  0.00     0.293 HD
ENDBRANCH   6  22
BRANCH   8  24
ATOM     24  O   UNL     1     -31.778   5.124 -26.981  1.00  0.00    -0.508 OA
ATOM     25  H   UNL     1     -32.421   5.643 -26.394  1.00  0.00     0.293 HD
ENDBRANCH   8  24
TORSDOF 5
ENDMDL
MODEL 3
REMARK VINA RESULT:     9.861      1.974      6.022
REMARK INTER + INTRA:          11.503
REMARK INTER:                  11.720
REMARK INTRA:                  -0.216
REMARK UNBOUND:                -0.088
REMARK SMILES O=c1c(O)c(-c2ccc(O)cc2)oc2cc(O)cc(O)c12
REMARK SMILES IDX 5 1 3 2 2 3 1 4 21 5 19 6 18 7 16 8 15 9 14 10 13 11 6 12
REMARK SMILES IDX 7 13 8 14 9 15 12 16 11 17 10 18 4 20 20 22 17 24
REMARK H PARENT 10 19 4 21 20 23 17 25
REMARK Flexibility Score: inf
ROOT
ATOM      1  C   UNL     1     -31.318  -0.440 -25.831  1.00  0.00     0.180 A 
ATOM      2  C   UNL     1     -31.399   0.869 -26.344  1.00  0.00     0.208 A 
ATOM      3  C   UNL     1     -31.634   1.931 -25.457  1.00  0.00     0.238 A 
ATOM      4  O   UNL     1     -31.719   3.107 -25.905  1.00  0.00    -0.285 OA
ATOM      5  C   UNL     1     -31.764   1.671 -24.077  1.00  0.00     0.111 A 
ATOM      6  C   UNL     1     -31.998   2.685 -23.117  1.00  0.00     0.134 A 
ATOM      7  C   UNL     1     -32.107   2.347 -21.760  1.00  0.00     0.093 A 
ATOM      8  C   UNL     1     -31.983   1.016 -21.345  1.00  0.00     0.123 A 
ATOM      9  C   UNL     1     -31.754   0.013 -22.288  1.00  0.00     0.094 A 
ATOM     10  C   UNL     1     -31.644   0.330 -23.645  1.00  0.00     0.146 A 
ATOM     11  O   UNL     1     -31.430  -0.646 -24.522  1.00  0.00    -0.452 OA
ENDROOT
BRANCH   1  12
ATOM     12  C   UNL     1     -31.091  -1.615 -26.704  1.00  0.00     0.021 A 
ATOM     13  C   UNL     1     -29.809  -1.847 -27.230  1.00  0.00     0.016 A 
ATOM     14  C   UNL     1     -29.568  -2.962 -28.038  1.00  0.00     0.047 A 
ATOM     15  C   UNL     1     -30.600  -3.866 -28.318  1.00  0.00     0.115 A 
ATOM     16  C   UNL     1     -32.119  -2.538 -26.974  1.00  0.00     0.016 A 
ATOM     17  C   UNL     1     -31.874  -3.652 -27.782  1.00  0.00     0.047 A 
BRANCH  15  18
ATOM     18  O   UNL     1     -30.372  -4.980 -29.123  1.00  0.00    -0.508 OA
ATOM     19  H   UNL     1     -30.455  -4.931 -30.131  1.00  0.00     0.293 HD
ENDBRANCH  15  18
ENDBRANCH   1  12
BRANCH   2  20
ATOM     20  O   UNL     1     -31.218   1.105 -27.708  1.00  0.00    -0.502 OA
ATOM     21  H   UNL     1     -31.745   1.809 -28.212  1.00  0.00     0.293 HD
ENDBRANCH   2  20
BRANCH   6  22
ATOM     22  O   UNL     1     -32.124   4.022 -23.500  1.00  0.00    -0.507 OA
ATOM     23  H   UNL     1     -32.847   4.620 -23.117  1.00  0.00     0.293 HD
ENDBRANCH   6  22
BRANCH   8  24
ATOM     24  O   UNL     1     -32.089   0.680 -19.997  1.00  0.00    -0.508 OA
ATOM     25  H   UNL     1     -31.905   1.357 -19.266  1.00  0.00     0.293 HD
ENDBRANCH   8  24
TORSDOF 5
ENDMDL
