MODEL 1
REMARK VINA RESULT:    -2.244      0.000      0.000
REMARK INTER + INTRA:          -2.375
REMARK INTER:                  -2.375
REMARK INTRA:                   0.000
REMARK UNBOUND:                 0.000
REMARK SMILES O=c1ccc2cc(O)c(O)cc2o1
REMARK SMILES IDX 4 1 3 2 2 3 1 4 13 5 12 6 11 7 9 8 7 9 6 10 5 11 8 12 10 14
REMARK H PARENT 8 13 10 15
REMARK Flexibility Score: inf
ROOT
ATOM      1  C   UNL     1      20.300  13.893   2.618  1.00  0.00     0.019 A 
ATOM      2  C   UNL     1      19.201  14.264   1.843  1.00  0.00     0.094 A 
ATOM      3  C   UNL     1      19.418  14.960   0.649  1.00  0.00     0.336 A 
ATOM      4  O   UNL     1      18.439  15.304  -0.064  1.00  0.00    -0.246 OA
ATOM      5  O   UNL     1      20.654  15.263   0.261  1.00  0.00    -0.423 OA
ATOM      6  C   UNL     1      21.729  14.929   0.971  1.00  0.00     0.142 A 
ATOM      7  C   UNL     1      23.004  15.274   0.513  1.00  0.00     0.098 A 
ATOM      8  C   UNL     1      24.141  14.925   1.253  1.00  0.00     0.161 A 
ATOM      9  C   UNL     1      24.001  14.224   2.465  1.00  0.00     0.158 A 
ATOM     10  C   UNL     1      22.724  13.875   2.929  1.00  0.00     0.062 A 
ATOM     11  C   UNL     1      21.587  14.225   2.186  1.00  0.00     0.022 A 
ENDROOT
BRANCH   9  12
ATOM     12  O   UNL     1      25.132  13.876   3.203  1.00  0.00    -0.504 OA
ATOM     13  H   UNL     1      25.722  13.098   2.934  1.00  0.00     0.293 HD
ENDBRANCH   9  12
BRANCH   8  14
ATOM     14  O   UNL     1      25.398  15.284   0.770  1.00  0.00    -0.504 OA
ATOM     15  H   UNL     1      25.740  14.967  -0.130  1.00  0.00     0.293 HD
ENDBRANCH   8  14
TORSDOF 2
ENDMDL
