MODEL 1
REMARK VINA RESULT:    -4.257      0.000      0.000
REMARK INTER + INTRA:          -5.318
REMARK INTER:                  -5.128
REMARK INTRA:                  -0.190
REMARK UNBOUND:                -0.190
REMARK SMILES O=c1c(O)c(-c2ccc(O)c(O)c2)oc2cc(O)cc(O)c12
REMARK SMILES IDX 5 1 3 2 2 3 1 4 22 5 20 6 19 7 17 8 16 9 15 10 14 11 6 12
REMARK SMILES IDX 7 13 8 14 9 15 13 16 11 17 10 18 12 20 4 22 21 24 18 26
REMARK H PARENT 10 19 12 21 4 23 21 25 18 27
REMARK Flexibility Score: inf
ROOT
ATOM      1  C   UNL     1       7.405   0.005   8.706  1.00  0.00     0.180 A 
ATOM      2  C   UNL     1       7.383  -1.401   8.700  1.00  0.00     0.208 A 
ATOM      3  C   UNL     1       8.145  -2.098   9.650  1.00  0.00     0.238 A 
ATOM      4  O   UNL     1       8.165  -3.356   9.606  1.00  0.00    -0.285 OA
ATOM      5  C   UNL     1       8.907  -1.382  10.605  1.00  0.00     0.111 A 
ATOM      6  C   UNL     1       9.684  -1.986  11.639  1.00  0.00     0.134 A 
ATOM      7  C   UNL     1      10.502  -1.185  12.445  1.00  0.00     0.093 A 
ATOM      8  C   UNL     1      10.520   0.204  12.298  1.00  0.00     0.123 A 
ATOM      9  C   UNL     1       9.719   0.808  11.331  1.00  0.00     0.094 A 
ATOM     10  C   UNL     1       8.920   0.032  10.488  1.00  0.00     0.146 A 
ATOM     11  O   UNL     1       8.181   0.646   9.572  1.00  0.00    -0.452 OA
ENDROOT
BRANCH   1  12
ATOM     12  C   UNL     1       6.609   0.810   7.753  1.00  0.00     0.025 A 
ATOM     13  C   UNL     1       5.203   0.783   7.768  1.00  0.00     0.016 A 
ATOM     14  C   UNL     1       4.472   1.570   6.873  1.00  0.00     0.051 A 
ATOM     15  C   UNL     1       5.132   2.404   5.962  1.00  0.00     0.157 A 
ATOM     16  C   UNL     1       7.265   1.664   6.852  1.00  0.00     0.062 A 
ATOM     17  C   UNL     1       6.536   2.453   5.954  1.00  0.00     0.158 A 
BRANCH  15  18
ATOM     18  O   UNL     1       4.399   3.186   5.070  1.00  0.00    -0.504 OA
ATOM     19  H   UNL     1       3.798   2.769   4.369  1.00  0.00     0.293 HD
ENDBRANCH  15  18
BRANCH  17  20
ATOM     20  O   UNL     1       7.224   3.278   5.064  1.00  0.00    -0.504 OA
ATOM     21  H   UNL     1       7.533   2.951   4.157  1.00  0.00     0.293 HD
ENDBRANCH  17  20
ENDBRANCH   1  12
BRANCH   2  22
ATOM     22  O   UNL     1       6.641  -2.087   7.735  1.00  0.00    -0.502 OA
ATOM     23  H   UNL     1       6.953  -2.183   6.776  1.00  0.00     0.293 HD
ENDBRANCH   2  22
BRANCH   6  24
ATOM     24  O   UNL     1       9.669  -3.353  11.931  1.00  0.00    -0.507 OA
ATOM     25  H   UNL     1       9.200  -3.766  12.723  1.00  0.00     0.293 HD
ENDBRANCH   6  24
BRANCH   8  26
ATOM     26  O   UNL     1      11.323   0.996  13.115  1.00  0.00    -0.508 OA
ATOM     27  H   UNL     1      11.424   1.992  12.955  1.00  0.00     0.293 HD
ENDBRANCH   8  26
TORSDOF 6
ENDMDL
MODEL 2
REMARK VINA RESULT:    -4.153      0.632      1.450
REMARK INTER + INTRA:          -5.192
REMARK INTER:                  -4.980
REMARK INTRA:                  -0.212
REMARK UNBOUND:                -0.190
REMARK SMILES O=c1c(O)c(-c2ccc(O)c(O)c2)oc2cc(O)cc(O)c12
REMARK SMILES IDX 5 1 3 2 2 3 1 4 22 5 20 6 19 7 17 8 16 9 15 10 14 11 6 12
REMARK SMILES IDX 7 13 8 14 9 15 13 16 11 17 10 18 12 20 4 22 21 24 18 26
REMARK H PARENT 10 19 12 21 4 23 21 25 18 27
REMARK Flexibility Score: inf
ROOT
ATOM      1  C   UNL     1       7.432   0.188   8.542  1.00  0.00     0.180 A 
ATOM      2  C   UNL     1       7.376  -1.215   8.481  1.00  0.00     0.208 A 
ATOM      3  C   UNL     1       8.083  -1.967   9.431  1.00  0.00     0.238 A 
ATOM      4  O   UNL     1       8.073  -3.222   9.338  1.00  0.00    -0.285 OA
ATOM      5  C   UNL     1       8.825  -1.308  10.442  1.00  0.00     0.111 A 
ATOM      6  C   UNL     1       9.545  -1.971  11.480  1.00  0.00     0.134 A 
ATOM      7  C   UNL     1      10.351  -1.223  12.347  1.00  0.00     0.093 A 
ATOM      8  C   UNL     1      10.409   0.170  12.255  1.00  0.00     0.123 A 
ATOM      9  C   UNL     1       9.661   0.830  11.282  1.00  0.00     0.094 A 
ATOM     10  C   UNL     1       8.877   0.108  10.380  1.00  0.00     0.146 A 
ATOM     11  O   UNL     1       8.189   0.776   9.461  1.00  0.00    -0.452 OA
ENDROOT
BRANCH   1  12
ATOM     12  C   UNL     1       6.694   1.049   7.591  1.00  0.00     0.025 A 
ATOM     13  C   UNL     1       7.364   1.782   6.596  1.00  0.00     0.016 A 
ATOM     14  C   UNL     1       6.644   2.570   5.693  1.00  0.00     0.051 A 
ATOM     15  C   UNL     1       5.247   2.627   5.762  1.00  0.00     0.157 A 
ATOM     16  C   UNL     1       5.291   1.093   7.642  1.00  0.00     0.062 A 
ATOM     17  C   UNL     1       4.566   1.882   6.741  1.00  0.00     0.158 A 
BRANCH  15  18
ATOM     18  O   UNL     1       4.532   3.416   4.862  1.00  0.00    -0.504 OA
ATOM     19  H   UNL     1       3.710   3.065   4.385  1.00  0.00     0.293 HD
ENDBRANCH  15  18
BRANCH  17  20
ATOM     20  O   UNL     1       3.175   1.911   6.832  1.00  0.00    -0.504 OA
ATOM     21  H   UNL     1       2.580   1.704   6.039  1.00  0.00     0.293 HD
ENDBRANCH  17  20
ENDBRANCH   1  12
BRANCH   2  22
ATOM     22  O   UNL     1       6.655  -1.844   7.462  1.00  0.00    -0.502 OA
ATOM     23  H   UNL     1       6.296  -2.788   7.553  1.00  0.00     0.293 HD
ENDBRANCH   2  22
BRANCH   6  24
ATOM     24  O   UNL     1       9.485  -3.347  11.717  1.00  0.00    -0.507 OA
ATOM     25  H   UNL     1       8.956  -4.003  11.162  1.00  0.00     0.293 HD
ENDBRANCH   6  24
BRANCH   8  26
ATOM     26  O   UNL     1      11.199   0.909  13.132  1.00  0.00    -0.508 OA
ATOM     27  H   UNL     1      10.943   1.849  13.413  1.00  0.00     0.293 HD
ENDBRANCH   8  26
TORSDOF 6
ENDMDL
MODEL 3
REMARK VINA RESULT:    -4.097      8.206      9.970
REMARK INTER + INTRA:          -5.125
REMARK INTER:                  -4.967
REMARK INTRA:                  -0.158
REMARK UNBOUND:                -0.190
REMARK SMILES O=c1c(O)c(-c2ccc(O)c(O)c2)oc2cc(O)cc(O)c12
REMARK SMILES IDX 5 1 3 2 2 3 1 4 22 5 20 6 19 7 17 8 16 9 15 10 14 11 6 12
REMARK SMILES IDX 7 13 8 14 9 15 13 16 11 17 10 18 12 20 4 22 21 24 18 26
REMARK H PARENT 10 19 12 21 4 23 21 25 18 27
REMARK Flexibility Score: inf
ROOT
ATOM      1  C   UNL     1      12.963   6.577  11.682  1.00  0.00     0.180 A 
ATOM      2  C   UNL     1      13.877   6.674  12.746  1.00  0.00     0.208 A 
ATOM      3  C   UNL     1      13.468   7.281  13.943  1.00  0.00     0.238 A 
ATOM      4  O   UNL     1      14.308   7.413  14.872  1.00  0.00    -0.285 OA
ATOM      5  C   UNL     1      12.145   7.770  14.069  1.00  0.00     0.111 A 
ATOM      6  C   UNL     1      11.612   8.366  15.251  1.00  0.00     0.134 A 
ATOM      7  C   UNL     1      10.332   8.933  15.221  1.00  0.00     0.093 A 
ATOM      8  C   UNL     1       9.541   8.865  14.071  1.00  0.00     0.123 A 
ATOM      9  C   UNL     1      10.031   8.231  12.931  1.00  0.00     0.094 A 
ATOM     10  C   UNL     1      11.318   7.690  12.920  1.00  0.00     0.146 A 
ATOM     11  O   UNL     1      11.750   7.104  11.809  1.00  0.00    -0.452 OA
ENDROOT
BRANCH   1  12
ATOM     12  C   UNL     1      13.312   5.929  10.398  1.00  0.00     0.025 A 
ATOM     13  C   UNL     1      13.672   4.572  10.338  1.00  0.00     0.016 A 
ATOM     14  C   UNL     1      13.975   3.975   9.111  1.00  0.00     0.051 A 
ATOM     15  C   UNL     1      13.908   4.719   7.927  1.00  0.00     0.157 A 
ATOM     16  C   UNL     1      13.225   6.666   9.205  1.00  0.00     0.062 A 
ATOM     17  C   UNL     1      13.529   6.072   7.975  1.00  0.00     0.158 A 
BRANCH  15  18
ATOM     18  O   UNL     1      14.213   4.121   6.705  1.00  0.00    -0.504 OA
ATOM     19  H   UNL     1      14.824   3.315   6.646  1.00  0.00     0.293 HD
ENDBRANCH  15  18
BRANCH  17  20
ATOM     20  O   UNL     1      13.446   6.839   6.813  1.00  0.00    -0.504 OA
ATOM     21  H   UNL     1      13.586   6.439   5.894  1.00  0.00     0.293 HD
ENDBRANCH  17  20
ENDBRANCH   1  12
BRANCH   2  22
ATOM     22  O   UNL     1      15.184   6.204  12.592  1.00  0.00    -0.502 OA
ATOM     23  H   UNL     1      15.739   5.874  13.372  1.00  0.00     0.293 HD
ENDBRANCH   2  22
BRANCH   6  24
ATOM     24  O   UNL     1      12.281   8.405  16.478  1.00  0.00    -0.507 OA
ATOM     25  H   UNL     1      12.670   9.237  16.894  1.00  0.00     0.293 HD
ENDBRANCH   6  24
BRANCH   8  26
ATOM     26  O   UNL     1       8.262   9.417  14.054  1.00  0.00    -0.508 OA
ATOM     27  H   UNL     1       7.514   9.038  14.624  1.00  0.00     0.293 HD
ENDBRANCH   8  26
TORSDOF 6
ENDMDL
MODEL 4
REMARK VINA RESULT:    -4.072      9.875     12.207
REMARK INTER + INTRA:          -5.096
REMARK INTER:                  -4.806
REMARK INTRA:                  -0.290
REMARK UNBOUND:                -0.190
REMARK SMILES O=c1c(O)c(-c2ccc(O)c(O)c2)oc2cc(O)cc(O)c12
REMARK SMILES IDX 5 1 3 2 2 3 1 4 22 5 20 6 19 7 17 8 16 9 15 10 14 11 6 12
REMARK SMILES IDX 7 13 8 14 9 15 13 16 11 17 10 18 12 20 4 22 21 24 18 26
REMARK H PARENT 10 19 12 21 4 23 21 25 18 27
REMARK Flexibility Score: inf
ROOT
ATOM      1  C   UNL     1      10.997   9.381  12.966  1.00  0.00     0.180 A 
ATOM      2  C   UNL     1      11.507   8.258  12.291  1.00  0.00     0.208 A 
ATOM      3  C   UNL     1      12.360   8.452  11.194  1.00  0.00     0.238 A 
ATOM      4  O   UNL     1      12.770   7.445  10.561  1.00  0.00    -0.285 OA
ATOM      5  C   UNL     1      12.707   9.766  10.795  1.00  0.00     0.111 A 
ATOM      6  C   UNL     1      13.596  10.079   9.723  1.00  0.00     0.134 A 
ATOM      7  C   UNL     1      13.764  11.412   9.333  1.00  0.00     0.093 A 
ATOM      8  C   UNL     1      13.127  12.450  10.018  1.00  0.00     0.123 A 
ATOM      9  C   UNL     1      12.304  12.158  11.104  1.00  0.00     0.094 A 
ATOM     10  C   UNL     1      12.088  10.834  11.493  1.00  0.00     0.146 A 
ATOM     11  O   UNL     1      11.287  10.600  12.527  1.00  0.00    -0.452 OA
ENDROOT
BRANCH   1  12
ATOM     12  C   UNL     1      10.111   9.257  14.145  1.00  0.00     0.025 A 
ATOM     13  C   UNL     1       8.717   9.395  14.031  1.00  0.00     0.016 A 
ATOM     14  C   UNL     1       7.898   9.250  15.155  1.00  0.00     0.051 A 
ATOM     15  C   UNL     1       8.457   8.952  16.404  1.00  0.00     0.157 A 
ATOM     16  C   UNL     1      10.665   8.936  15.396  1.00  0.00     0.062 A 
ATOM     17  C   UNL     1       9.848   8.792  16.524  1.00  0.00     0.158 A 
BRANCH  15  18
ATOM     18  O   UNL     1       7.638   8.811  17.523  1.00  0.00    -0.504 OA
ATOM     19  H   UNL     1       7.486   7.909  17.959  1.00  0.00     0.293 HD
ENDBRANCH  15  18
BRANCH  17  20
ATOM     20  O   UNL     1      10.435   8.487  17.751  1.00  0.00    -0.504 OA
ATOM     21  H   UNL     1      11.428   8.308  17.842  1.00  0.00     0.293 HD
ENDBRANCH  17  20
ENDBRANCH   1  12
BRANCH   2  22
ATOM     22  O   UNL     1      11.134   6.971  12.688  1.00  0.00    -0.502 OA
ATOM     23  H   UNL     1      10.194   6.614  12.564  1.00  0.00     0.293 HD
ENDBRANCH   2  22
BRANCH   6  24
ATOM     24  O   UNL     1      14.352   9.127   9.033  1.00  0.00    -0.507 OA
ATOM     25  H   UNL     1      15.123   8.608   9.427  1.00  0.00     0.293 HD
ENDBRANCH   6  24
BRANCH   8  26
ATOM     26  O   UNL     1      13.312  13.775   9.634  1.00  0.00    -0.508 OA
ATOM     27  H   UNL     1      13.193  14.539  10.290  1.00  0.00     0.293 HD
ENDBRANCH   8  26
TORSDOF 6
ENDMDL
MODEL 5
REMARK VINA RESULT:    -4.071      2.087      2.916
REMARK INTER + INTRA:          -5.095
REMARK INTER:                  -4.765
REMARK INTRA:                  -0.330
REMARK UNBOUND:                -0.190
REMARK SMILES O=c1c(O)c(-c2ccc(O)c(O)c2)oc2cc(O)cc(O)c12
REMARK SMILES IDX 5 1 3 2 2 3 1 4 22 5 20 6 19 7 17 8 16 9 15 10 14 11 6 12
REMARK SMILES IDX 7 13 8 14 9 15 13 16 11 17 10 18 12 20 4 22 21 24 18 26
REMARK H PARENT 10 19 12 21 4 23 21 25 18 27
REMARK Flexibility Score: inf
ROOT
ATOM      1  C   UNL     1       7.280   0.997   7.405  1.00  0.00     0.180 A 
ATOM      2  C   UNL     1       7.950   0.400   6.323  1.00  0.00     0.208 A 
ATOM      3  C   UNL     1       8.834  -0.661   6.571  1.00  0.00     0.238 A 
ATOM      4  O   UNL     1       9.473  -1.155   5.605  1.00  0.00    -0.285 OA
ATOM      5  C   UNL     1       9.026  -1.124   7.895  1.00  0.00     0.111 A 
ATOM      6  C   UNL     1       9.867  -2.219   8.256  1.00  0.00     0.134 A 
ATOM      7  C   UNL     1      10.083  -2.506   9.609  1.00  0.00     0.093 A 
ATOM      8  C   UNL     1       9.437  -1.780  10.613  1.00  0.00     0.123 A 
ATOM      9  C   UNL     1       8.567  -0.748  10.267  1.00  0.00     0.094 A 
ATOM     10  C   UNL     1       8.360  -0.414   8.927  1.00  0.00     0.146 A 
ATOM     11  O   UNL     1       7.531   0.584   8.642  1.00  0.00    -0.452 OA
ENDROOT
BRANCH   1  12
ATOM     12  C   UNL     1       6.314   2.103   7.222  1.00  0.00     0.025 A 
ATOM     13  C   UNL     1       4.964   1.853   6.922  1.00  0.00     0.016 A 
ATOM     14  C   UNL     1       4.064   2.914   6.776  1.00  0.00     0.051 A 
ATOM     15  C   UNL     1       4.496   4.235   6.941  1.00  0.00     0.157 A 
ATOM     16  C   UNL     1       6.737   3.430   7.408  1.00  0.00     0.062 A 
ATOM     17  C   UNL     1       5.840   4.494   7.261  1.00  0.00     0.158 A 
BRANCH  15  18
ATOM     18  O   UNL     1       3.597   5.290   6.793  1.00  0.00    -0.504 OA
ATOM     19  H   UNL     1       3.758   6.190   7.230  1.00  0.00     0.293 HD
ENDBRANCH  15  18
BRANCH  17  20
ATOM     20  O   UNL     1       6.300   5.798   7.440  1.00  0.00    -0.504 OA
ATOM     21  H   UNL     1       5.978   6.383   8.201  1.00  0.00     0.293 HD
ENDBRANCH  17  20
ENDBRANCH   1  12
BRANCH   2  22
ATOM     22  O   UNL     1       7.763   0.888   5.027  1.00  0.00    -0.502 OA
ATOM     23  H   UNL     1       7.308   0.345   4.302  1.00  0.00     0.293 HD
ENDBRANCH   2  22
BRANCH   6  24
ATOM     24  O   UNL     1      10.488  -3.065   7.333  1.00  0.00    -0.507 OA
ATOM     25  H   UNL     1      11.484  -3.211   7.266  1.00  0.00     0.293 HD
ENDBRANCH   6  24
BRANCH   8  26
ATOM     26  O   UNL     1       9.644  -2.082  11.956  1.00  0.00    -0.508 OA
ATOM     27  H   UNL     1       9.975  -2.995  12.249  1.00  0.00     0.293 HD
ENDBRANCH   8  26
TORSDOF 6
ENDMDL
MODEL 6
REMARK VINA RESULT:    -4.065      9.259     10.899
REMARK INTER + INTRA:          -5.087
REMARK INTER:                  -4.836
REMARK INTRA:                  -0.252
REMARK UNBOUND:                -0.190
REMARK SMILES O=c1c(O)c(-c2ccc(O)c(O)c2)oc2cc(O)cc(O)c12
REMARK SMILES IDX 5 1 3 2 2 3 1 4 22 5 20 6 19 7 17 8 16 9 15 10 14 11 6 12
REMARK SMILES IDX 7 13 8 14 9 15 13 16 11 17 10 18 12 20 4 22 21 24 18 26
REMARK H PARENT 10 19 12 21 4 23 21 25 18 27
REMARK Flexibility Score: inf
ROOT
ATOM      1  C   UNL     1      11.908   8.001  13.154  1.00  0.00     0.180 A 
ATOM      2  C   UNL     1      12.721   7.832  14.287  1.00  0.00     0.208 A 
ATOM      3  C   UNL     1      12.165   8.030  15.561  1.00  0.00     0.238 A 
ATOM      4  O   UNL     1      12.912   7.931  16.569  1.00  0.00    -0.285 OA
ATOM      5  C   UNL     1      10.798   8.380  15.686  1.00  0.00     0.111 A 
ATOM      6  C   UNL     1      10.121   8.565  16.928  1.00  0.00     0.134 A 
ATOM      7  C   UNL     1       8.803   9.038  16.932  1.00  0.00     0.093 A 
ATOM      8  C   UNL     1       8.117   9.268  15.737  1.00  0.00     0.123 A 
ATOM      9  C   UNL     1       8.751   9.032  14.519  1.00  0.00     0.094 A 
ATOM     10  C   UNL     1      10.078   8.595  14.484  1.00  0.00     0.146 A 
ATOM     11  O   UNL     1      10.648   8.394  13.301  1.00  0.00    -0.452 OA
ENDROOT
BRANCH   1  12
ATOM     12  C   UNL     1      12.415   7.786  11.780  1.00  0.00     0.025 A 
ATOM     13  C   UNL     1      12.705   6.496  11.301  1.00  0.00     0.016 A 
ATOM     14  C   UNL     1      13.160   6.315   9.991  1.00  0.00     0.051 A 
ATOM     15  C   UNL     1      13.319   7.414   9.139  1.00  0.00     0.157 A 
ATOM     16  C   UNL     1      12.556   8.883  10.914  1.00  0.00     0.062 A 
ATOM     17  C   UNL     1      13.013   8.705   9.603  1.00  0.00     0.158 A 
BRANCH  15  18
ATOM     18  O   UNL     1      13.776   7.230   7.835  1.00  0.00    -0.504 OA
ATOM     19  H   UNL     1      13.160   6.909   7.097  1.00  0.00     0.293 HD
ENDBRANCH  15  18
BRANCH  17  20
ATOM     20  O   UNL     1      13.153   9.820   8.777  1.00  0.00    -0.504 OA
ATOM     21  H   UNL     1      13.856  10.529   8.946  1.00  0.00     0.293 HD
ENDBRANCH  17  20
ENDBRANCH   1  12
BRANCH   2  22
ATOM     22  O   UNL     1      14.072   7.508  14.139  1.00  0.00    -0.502 OA
ATOM     23  H   UNL     1      14.811   8.193  14.250  1.00  0.00     0.293 HD
ENDBRANCH   2  22
BRANCH   6  24
ATOM     24  O   UNL     1      10.683   8.277  18.176  1.00  0.00    -0.507 OA
ATOM     25  H   UNL     1      10.641   8.886  18.979  1.00  0.00     0.293 HD
ENDBRANCH   6  24
BRANCH   8  26
ATOM     26  O   UNL     1       6.800   9.722  15.748  1.00  0.00    -0.508 OA
ATOM     27  H   UNL     1       6.397  10.157  16.570  1.00  0.00     0.293 HD
ENDBRANCH   8  26
TORSDOF 6
ENDMDL
MODEL 7
REMARK VINA RESULT:    -4.046      8.425     11.147
REMARK INTER + INTRA:          -5.064
REMARK INTER:                  -4.731
REMARK INTRA:                  -0.332
REMARK UNBOUND:                -0.190
REMARK SMILES O=c1c(O)c(-c2ccc(O)c(O)c2)oc2cc(O)cc(O)c12
REMARK SMILES IDX 5 1 3 2 2 3 1 4 22 5 20 6 19 7 17 8 16 9 15 10 14 11 6 12
REMARK SMILES IDX 7 13 8 14 9 15 13 16 11 17 10 18 12 20 4 22 21 24 18 26
REMARK H PARENT 10 19 12 21 4 23 21 25 18 27
REMARK Flexibility Score: inf
ROOT
ATOM      1  C   UNL     1      11.588   8.514  12.260  1.00  0.00     0.180 A 
ATOM      2  C   UNL     1      12.155   9.624  11.609  1.00  0.00     0.208 A 
ATOM      3  C   UNL     1      12.987   9.411  10.499  1.00  0.00     0.238 A 
ATOM      4  O   UNL     1      13.534  10.405   9.954  1.00  0.00    -0.285 OA
ATOM      5  C   UNL     1      13.230   8.093  10.043  1.00  0.00     0.111 A 
ATOM      6  C   UNL     1      14.024   7.764   8.903  1.00  0.00     0.134 A 
ATOM      7  C   UNL     1      14.304   6.421   8.622  1.00  0.00     0.093 A 
ATOM      8  C   UNL     1      13.764   5.394   9.400  1.00  0.00     0.123 A 
ATOM      9  C   UNL     1      12.938   5.705  10.478  1.00  0.00     0.094 A 
ATOM     10  C   UNL     1      12.671   7.036  10.806  1.00  0.00     0.146 A 
ATOM     11  O   UNL     1      11.888   7.288  11.849  1.00  0.00    -0.452 OA
ENDROOT
BRANCH   1  12
ATOM     12  C   UNL     1      10.682   8.659  13.421  1.00  0.00     0.025 A 
ATOM     13  C   UNL     1       9.299   8.850  13.250  1.00  0.00     0.016 A 
ATOM     14  C   UNL     1       8.459   8.960  14.361  1.00  0.00     0.051 A 
ATOM     15  C   UNL     1       8.983   8.868  15.656  1.00  0.00     0.157 A 
ATOM     16  C   UNL     1      11.199   8.546  14.721  1.00  0.00     0.062 A 
ATOM     17  C   UNL     1      10.361   8.657  15.837  1.00  0.00     0.158 A 
BRANCH  15  18
ATOM     18  O   UNL     1       8.142   8.981  16.763  1.00  0.00    -0.504 OA
ATOM     19  H   UNL     1       7.283   8.448  16.833  1.00  0.00     0.293 HD
ENDBRANCH  15  18
BRANCH  17  20
ATOM     20  O   UNL     1      10.913   8.554  17.113  1.00  0.00    -0.504 OA
ATOM     21  H   UNL     1      10.748   9.250  17.829  1.00  0.00     0.293 HD
ENDBRANCH  17  20
ENDBRANCH   1  12
BRANCH   2  22
ATOM     22  O   UNL     1      11.919  10.915  12.089  1.00  0.00    -0.502 OA
ATOM     23  H   UNL     1      11.131  11.138  12.686  1.00  0.00     0.293 HD
ENDBRANCH   2  22
BRANCH   6  24
ATOM     24  O   UNL     1      14.535   8.708   8.008  1.00  0.00    -0.507 OA
ATOM     25  H   UNL     1      14.550   8.599   7.005  1.00  0.00     0.293 HD
ENDBRANCH   6  24
BRANCH   8  26
ATOM     26  O   UNL     1      14.033   4.060   9.104  1.00  0.00    -0.508 OA
ATOM     27  H   UNL     1      14.957   3.663   9.236  1.00  0.00     0.293 HD
ENDBRANCH   8  26
TORSDOF 6
ENDMDL
MODEL 8
REMARK VINA RESULT:    -4.027      1.619      6.866
REMARK INTER + INTRA:          -5.041
REMARK INTER:                  -4.724
REMARK INTRA:                  -0.317
REMARK UNBOUND:                -0.190
REMARK SMILES O=c1c(O)c(-c2ccc(O)c(O)c2)oc2cc(O)cc(O)c12
REMARK SMILES IDX 5 1 3 2 2 3 1 4 22 5 20 6 19 7 17 8 16 9 15 10 14 11 6 12
REMARK SMILES IDX 7 13 8 14 9 15 13 16 11 17 10 18 12 20 4 22 21 24 18 26
REMARK H PARENT 10 19 12 21 4 23 21 25 18 27
REMARK Flexibility Score: inf
ROOT
ATOM      1  C   UNL     1       7.453   0.070   8.758  1.00  0.00     0.180 A 
ATOM      2  C   UNL     1       6.051   0.108   8.857  1.00  0.00     0.208 A 
ATOM      3  C   UNL     1       5.305   0.598   7.774  1.00  0.00     0.238 A 
ATOM      4  O   UNL     1       4.054   0.681   7.889  1.00  0.00    -0.285 OA
ATOM      5  C   UNL     1       5.967   1.029   6.598  1.00  0.00     0.111 A 
ATOM      6  C   UNL     1       5.308   1.505   5.426  1.00  0.00     0.134 A 
ATOM      7  C   UNL     1       6.068   2.028   4.372  1.00  0.00     0.093 A 
ATOM      8  C   UNL     1       7.464   2.030   4.421  1.00  0.00     0.123 A 
ATOM      9  C   UNL     1       8.117   1.511   5.537  1.00  0.00     0.094 A 
ATOM     10  C   UNL     1       7.386   1.017   6.620  1.00  0.00     0.146 A 
ATOM     11  O   UNL     1       8.048   0.542   7.668  1.00  0.00    -0.452 OA
ENDROOT
BRANCH   1  12
ATOM     12  C   UNL     1       8.306  -0.456   9.847  1.00  0.00     0.025 A 
ATOM     13  C   UNL     1       8.516  -1.836  10.010  1.00  0.00     0.016 A 
ATOM     14  C   UNL     1       9.345  -2.309  11.032  1.00  0.00     0.051 A 
ATOM     15  C   UNL     1       9.987  -1.411  11.894  1.00  0.00     0.157 A 
ATOM     16  C   UNL     1       8.969   0.441  10.701  1.00  0.00     0.062 A 
ATOM     17  C   UNL     1       9.799  -0.028  11.726  1.00  0.00     0.158 A 
BRANCH  15  18
ATOM     18  O   UNL     1      10.811  -1.886  12.913  1.00  0.00    -0.504 OA
ATOM     19  H   UNL     1      10.746  -1.527  13.859  1.00  0.00     0.293 HD
ENDBRANCH  15  18
BRANCH  17  20
ATOM     20  O   UNL     1      10.429   0.892  12.563  1.00  0.00    -0.504 OA
ATOM     21  H   UNL     1      11.377   1.206  12.399  1.00  0.00     0.293 HD
ENDBRANCH  17  20
ENDBRANCH   1  12
BRANCH   2  22
ATOM     22  O   UNL     1       5.419  -0.301  10.034  1.00  0.00    -0.502 OA
ATOM     23  H   UNL     1       4.620   0.187  10.420  1.00  0.00     0.293 HD
ENDBRANCH   2  22
BRANCH   6  24
ATOM     24  O   UNL     1       3.924   1.464   5.236  1.00  0.00    -0.507 OA
ATOM     25  H   UNL     1       3.460   0.952   4.500  1.00  0.00     0.293 HD
ENDBRANCH   6  24
BRANCH   8  26
ATOM     26  O   UNL     1       8.212   2.536   3.361  1.00  0.00    -0.508 OA
ATOM     27  H   UNL     1       8.269   3.532   3.181  1.00  0.00     0.293 HD
ENDBRANCH   8  26
TORSDOF 6
ENDMDL
MODEL 9
REMARK VINA RESULT:    -4.002      8.544     10.107
REMARK INTER + INTRA:          -5.011
REMARK INTER:                  -4.687
REMARK INTRA:                  -0.324
REMARK UNBOUND:                -0.190
REMARK SMILES O=c1c(O)c(-c2ccc(O)c(O)c2)oc2cc(O)cc(O)c12
REMARK SMILES IDX 5 1 3 2 2 3 1 4 22 5 20 6 19 7 17 8 16 9 15 10 14 11 6 12
REMARK SMILES IDX 7 13 8 14 9 15 13 16 11 17 10 18 12 20 4 22 21 24 18 26
REMARK H PARENT 10 19 12 21 4 23 21 25 18 27
REMARK Flexibility Score: inf
ROOT
ATOM      1  C   UNL     1      12.076   7.513  12.244  1.00  0.00     0.180 A 
ATOM      2  C   UNL     1      12.839   6.749  13.144  1.00  0.00     0.208 A 
ATOM      3  C   UNL     1      13.743   5.802  12.638  1.00  0.00     0.238 A 
ATOM      4  O   UNL     1      14.384   5.083  13.449  1.00  0.00    -0.285 OA
ATOM      5  C   UNL     1      13.886   5.642  11.238  1.00  0.00     0.111 A 
ATOM      6  C   UNL     1      14.801   4.741  10.615  1.00  0.00     0.134 A 
ATOM      7  C   UNL     1      14.764   4.571   9.226  1.00  0.00     0.093 A 
ATOM      8  C   UNL     1      13.890   5.318   8.431  1.00  0.00     0.123 A 
ATOM      9  C   UNL     1      13.035   6.243   9.026  1.00  0.00     0.094 A 
ATOM     10  C   UNL     1      13.024   6.408  10.413  1.00  0.00     0.146 A 
ATOM     11  O   UNL     1      12.185   7.293  10.939  1.00  0.00    -0.452 OA
ENDROOT
BRANCH   1  12
ATOM     12  C   UNL     1      11.121   8.548  12.700  1.00  0.00     0.025 A 
ATOM     13  C   UNL     1       9.779   8.233  12.977  1.00  0.00     0.016 A 
ATOM     14  C   UNL     1       8.900   9.221  13.430  1.00  0.00     0.051 A 
ATOM     15  C   UNL     1       9.351  10.532  13.626  1.00  0.00     0.157 A 
ATOM     16  C   UNL     1      11.573   9.859  12.919  1.00  0.00     0.062 A 
ATOM     17  C   UNL     1      10.696  10.852  13.371  1.00  0.00     0.158 A 
BRANCH  15  18
ATOM     18  O   UNL     1       8.472  11.516  14.075  1.00  0.00    -0.504 OA
ATOM     19  H   UNL     1       7.547  11.624  13.676  1.00  0.00     0.293 HD
ENDBRANCH  15  18
BRANCH  17  20
ATOM     20  O   UNL     1      11.178  12.146  13.563  1.00  0.00    -0.504 OA
ATOM     21  H   UNL     1      10.582  12.960  13.479  1.00  0.00     0.293 HD
ENDBRANCH  17  20
ENDBRANCH   1  12
BRANCH   2  22
ATOM     22  O   UNL     1      12.667   6.908  14.521  1.00  0.00    -0.502 OA
ATOM     23  H   UNL     1      12.014   7.577  14.914  1.00  0.00     0.293 HD
ENDBRANCH   2  22
BRANCH   6  24
ATOM     24  O   UNL     1      15.776   4.016  11.306  1.00  0.00    -0.507 OA
ATOM     25  H   UNL     1      15.740   3.022  11.475  1.00  0.00     0.293 HD
ENDBRANCH   6  24
BRANCH   8  26
ATOM     26  O   UNL     1      13.871   5.155   7.048  1.00  0.00    -0.508 OA
ATOM     27  H   UNL     1      14.257   4.328   6.607  1.00  0.00     0.293 HD
ENDBRANCH   8  26
TORSDOF 6
ENDMDL
