MODEL 1
REMARK VINA RESULT:    -6.468      0.000      0.000
REMARK INTER + INTRA:          -9.665
REMARK INTER:                  -8.547
REMARK INTRA:                  -1.118
REMARK UNBOUND:                -1.118
REMARK SMILES CC[C@@H](C=C[C@@H](C)[C@@H]1CC[C@H]2[C@H]3CC=C4C[C@H](O)CC[C@]4(C)[C@H]3CC[C@@]21C)C(C)C
REMARK SMILES IDX 6 1 7 2 5 3 4 4 3 5 2 6 1 7 28 8 29 9 30 10 8 11 9 12 26 13
REMARK SMILES IDX 10 14 11 15 25 16 27 17 12 18 24 19 23 20 13 21 21 22 14 23
REMARK SMILES IDX 15 24 20 25 22 26 16 27 19 28 17 29 18 30
REMARK H PARENT 18 31
REMARK Flexibility Score: inf
ROOT
ATOM      1  C   UNL     1     130.127 139.795 106.701  1.00  0.00     0.012 C 
ATOM      2  C   UNL     1     130.325 139.885 108.228  1.00  0.00     0.012 C 
ENDROOT
BRANCH   1   3
ATOM      3  C   UNL     1     130.237 141.195 106.128  1.00  0.00    -0.028 C 
ATOM      4  C   UNL     1     129.225 142.080 106.175  1.00  0.00    -0.027 C 
BRANCH   4   5
ATOM      5  C   UNL     1     129.342 143.449 105.532  1.00  0.00     0.014 C 
BRANCH   5   6
ATOM      6  C   UNL     1     130.769 144.013 105.754  1.00  0.00     0.004 C 
ATOM      7  C   UNL     1     130.795 145.421 106.361  1.00  0.00     0.004 C 
ENDBRANCH   5   6
BRANCH   5   8
ATOM      8  C   UNL     1     128.196 144.394 106.021  1.00  0.00    -0.011 C 
ATOM      9  C   UNL     1     127.356 144.952 104.857  1.00  0.00     0.008 C 
ATOM     10  C   UNL     1     127.257 143.666 107.000  1.00  0.00     0.008 C 
ENDBRANCH   5   8
ENDBRANCH   4   5
ENDBRANCH   1   3
BRANCH   1  11
ATOM     11  C   UNL     1     128.772 139.107 106.307  1.00  0.00     0.002 C 
ATOM     12  C   UNL     1     127.696 139.206 107.435  1.00  0.00     0.005 C 
ATOM     13  C   UNL     1     128.830 137.569 105.954  1.00  0.00    -0.026 C 
ATOM     14  C   UNL     1     127.237 137.784 107.771  1.00  0.00     0.005 C 
ATOM     15  C   UNL     1     128.379 136.929 107.269  1.00  0.00    -0.001 C 
ATOM     16  C   UNL     1     130.207 136.941 105.607  1.00  0.00     0.007 C 
ATOM     17  C   UNL     1     127.842 137.342 104.769  1.00  0.00     0.012 C 
ATOM     18  C   UNL     1     128.239 135.389 107.301  1.00  0.00     0.000 C 
ATOM     19  C   UNL     1     130.130 135.405 105.480  1.00  0.00     0.005 C 
ATOM     20  C   UNL     1     129.500 134.671 106.713  1.00  0.00     0.003 C 
ATOM     21  C   UNL     1     126.933 134.767 106.779  1.00  0.00     0.031 C 
ATOM     22  C   UNL     1     129.283 133.096 106.495  1.00  0.00    -0.008 C 
ATOM     23  C   UNL     1     126.904 133.340 107.250  1.00  0.00    -0.027 C 
ATOM     24  C   UNL     1     128.025 132.588 107.217  1.00  0.00    -0.065 C 
ATOM     25  C   UNL     1     130.516 132.344 107.074  1.00  0.00     0.014 C 
ATOM     26  C   UNL     1     129.120 132.722 104.996  1.00  0.00     0.016 C 
ATOM     27  C   UNL     1     128.064 131.288 107.993  1.00  0.00     0.063 C 
ATOM     28  C   UNL     1     130.405 130.807 107.027  1.00  0.00     0.033 C 
ATOM     29  C   UNL     1     128.986 130.258 107.326  1.00  0.00     0.118 C 
BRANCH  29  30
ATOM     30  O   UNL     1     129.079 129.128 108.156  1.00  0.00    -0.393 OA
ATOM     31  H   UNL     1     128.360 129.210 108.835  1.00  0.00     0.210 HD
ENDBRANCH  29  30
ENDBRANCH   1  11
TORSDOF 6
ENDMDL
MODEL 2
REMARK VINA RESULT:    -6.442      6.112      9.144
REMARK INTER + INTRA:          -9.631
REMARK INTER:                  -8.310
REMARK INTRA:                  -1.322
REMARK UNBOUND:                -1.118
REMARK SMILES CC[C@@H](C=C[C@@H](C)[C@@H]1CC[C@H]2[C@H]3CC=C4C[C@H](O)CC[C@]4(C)[C@H]3CC[C@@]21C)C(C)C
REMARK SMILES IDX 6 1 7 2 5 3 4 4 3 5 2 6 1 7 28 8 29 9 30 10 8 11 9 12 26 13
REMARK SMILES IDX 10 14 11 15 25 16 27 17 12 18 24 19 23 20 13 21 21 22 14 23
REMARK SMILES IDX 15 24 20 25 22 26 16 27 19 28 17 29 18 30
REMARK H PARENT 18 31
REMARK Flexibility Score: inf
ROOT
ATOM      1  C   UNL     1     127.661 141.120 107.512  1.00  0.00     0.012 C 
ATOM      2  C   UNL     1     127.008 141.022 106.118  1.00  0.00     0.012 C 
ENDROOT
BRANCH   1   3
ATOM      3  C   UNL     1     127.769 142.587 107.880  1.00  0.00    -0.028 C 
ATOM      4  C   UNL     1     127.386 143.574 107.050  1.00  0.00    -0.027 C 
BRANCH   4   5
ATOM      5  C   UNL     1     127.570 145.033 107.420  1.00  0.00     0.014 C 
BRANCH   5   6
ATOM      6  C   UNL     1     127.292 145.928 106.184  1.00  0.00     0.004 C 
ATOM      7  C   UNL     1     127.297 145.168 104.852  1.00  0.00     0.004 C 
ENDBRANCH   5   6
BRANCH   5   8
ATOM      8  C   UNL     1     128.967 145.271 108.081  1.00  0.00    -0.011 C 
ATOM      9  C   UNL     1     129.964 145.952 107.125  1.00  0.00     0.008 C 
ATOM     10  C   UNL     1     128.839 146.130 109.353  1.00  0.00     0.008 C 
ENDBRANCH   5   8
ENDBRANCH   4   5
ENDBRANCH   1   3
BRANCH   1  11
ATOM     11  C   UNL     1     129.053 140.397 107.579  1.00  0.00     0.002 C 
ATOM     12  C   UNL     1     129.584 140.248 109.040  1.00  0.00     0.005 C 
ATOM     13  C   UNL     1     130.246 141.072 106.794  1.00  0.00    -0.026 C 
ATOM     14  C   UNL     1     130.972 140.894 109.102  1.00  0.00     0.005 C 
ATOM     15  C   UNL     1     130.968 141.828 107.912  1.00  0.00    -0.001 C 
ATOM     16  C   UNL     1     129.911 142.120 105.698  1.00  0.00     0.007 C 
ATOM     17  C   UNL     1     131.084 139.915 106.169  1.00  0.00     0.012 C 
ATOM     18  C   UNL     1     132.266 142.582 107.540  1.00  0.00     0.000 C 
ATOM     19  C   UNL     1     131.175 142.827 105.164  1.00  0.00     0.005 C 
ATOM     20  C   UNL     1     132.085 143.473 106.265  1.00  0.00     0.003 C 
ATOM     21  C   UNL     1     133.581 141.786 107.497  1.00  0.00     0.031 C 
ATOM     22  C   UNL     1     133.469 144.061 105.706  1.00  0.00    -0.008 C 
ATOM     23  C   UNL     1     134.703 142.787 107.478  1.00  0.00    -0.027 C 
ATOM     24  C   UNL     1     134.609 143.902 106.725  1.00  0.00    -0.065 C 
ATOM     25  C   UNL     1     133.278 145.577 105.417  1.00  0.00     0.014 C 
ATOM     26  C   UNL     1     133.931 143.351 104.403  1.00  0.00     0.016 C 
ATOM     27  C   UNL     1     135.575 145.042 106.971  1.00  0.00     0.063 C 
ATOM     28  C   UNL     1     134.560 146.306 104.967  1.00  0.00     0.033 C 
ATOM     29  C   UNL     1     135.851 145.838 105.688  1.00  0.00     0.118 C 
BRANCH  29  30
ATOM     30  O   UNL     1     136.647 146.951 106.007  1.00  0.00    -0.393 OA
ATOM     31  H   UNL     1     136.703 146.991 106.997  1.00  0.00     0.210 HD
ENDBRANCH  29  30
ENDBRANCH   1  11
TORSDOF 6
ENDMDL
MODEL 3
REMARK VINA RESULT:    -6.425      7.088     11.842
REMARK INTER + INTRA:          -9.608
REMARK INTER:                  -8.622
REMARK INTRA:                  -0.986
REMARK UNBOUND:                -1.118
REMARK SMILES CC[C@@H](C=C[C@@H](C)[C@@H]1CC[C@H]2[C@H]3CC=C4C[C@H](O)CC[C@]4(C)[C@H]3CC[C@@]21C)C(C)C
REMARK SMILES IDX 6 1 7 2 5 3 4 4 3 5 2 6 1 7 28 8 29 9 30 10 8 11 9 12 26 13
REMARK SMILES IDX 10 14 11 15 25 16 27 17 12 18 24 19 23 20 13 21 21 22 14 23
REMARK SMILES IDX 15 24 20 25 22 26 16 27 19 28 17 29 18 30
REMARK H PARENT 18 31
REMARK Flexibility Score: inf
ROOT
ATOM      1  C   UNL     1     132.781 130.184 106.233  1.00  0.00     0.012 C 
ATOM      2  C   UNL     1     133.254 131.281 107.209  1.00  0.00     0.012 C 
ENDROOT
BRANCH   1   3
ATOM      3  C   UNL     1     131.267 130.228 106.172  1.00  0.00    -0.028 C 
ATOM      4  C   UNL     1     130.556 131.308 106.544  1.00  0.00    -0.027 C 
BRANCH   4   5
ATOM      5  C   UNL     1     129.040 131.298 106.535  1.00  0.00     0.014 C 
BRANCH   5   6
ATOM      6  C   UNL     1     128.526 129.950 105.965  1.00  0.00     0.004 C 
ATOM      7  C   UNL     1     127.301 130.087 105.053  1.00  0.00     0.004 C 
ENDBRANCH   5   6
BRANCH   5   8
ATOM      8  C   UNL     1     128.477 132.559 105.803  1.00  0.00    -0.011 C 
ATOM      9  C   UNL     1     127.537 133.390 106.697  1.00  0.00     0.008 C 
ATOM     10  C   UNL     1     129.618 133.469 105.310  1.00  0.00     0.008 C 
ENDBRANCH   5   8
ENDBRANCH   4   5
ENDBRANCH   1   3
BRANCH   1  11
ATOM     11  C   UNL     1     133.309 128.758 106.626  1.00  0.00     0.002 C 
ATOM     12  C   UNL     1     133.191 128.474 108.157  1.00  0.00     0.005 C 
ATOM     13  C   UNL     1     134.815 128.436 106.281  1.00  0.00    -0.026 C 
ATOM     14  C   UNL     1     134.584 128.102 108.673  1.00  0.00     0.005 C 
ATOM     15  C   UNL     1     135.504 128.687 107.625  1.00  0.00    -0.001 C 
ATOM     16  C   UNL     1     135.543 129.328 105.239  1.00  0.00     0.007 C 
ATOM     17  C   UNL     1     134.862 126.949 105.815  1.00  0.00     0.012 C 
ATOM     18  C   UNL     1     137.022 128.405 107.711  1.00  0.00     0.000 C 
ATOM     19  C   UNL     1     137.052 129.014 105.157  1.00  0.00     0.005 C 
ATOM     20  C   UNL     1     137.812 129.060 106.527  1.00  0.00     0.003 C 
ATOM     21  C   UNL     1     137.480 126.960 107.970  1.00  0.00     0.031 C 
ATOM     22  C   UNL     1     139.339 128.576 106.444  1.00  0.00    -0.008 C 
ATOM     23  C   UNL     1     138.928 127.019 108.366  1.00  0.00    -0.027 C 
ATOM     24  C   UNL     1     139.777 127.850 107.726  1.00  0.00    -0.065 C 
ATOM     25  C   UNL     1     140.243 129.828 106.257  1.00  0.00     0.014 C 
ATOM     26  C   UNL     1     139.585 127.593 105.267  1.00  0.00     0.016 C 
ATOM     27  C   UNL     1     141.128 128.144 108.344  1.00  0.00     0.063 C 
ATOM     28  C   UNL     1     141.755 129.528 106.263  1.00  0.00     0.033 C 
ATOM     29  C   UNL     1     142.189 128.436 107.274  1.00  0.00     0.118 C 
BRANCH  29  30
ATOM     30  O   UNL     1     143.381 128.824 107.910  1.00  0.00    -0.393 OA
ATOM     31  H   UNL     1     143.706 128.036 108.418  1.00  0.00     0.210 HD
ENDBRANCH  29  30
ENDBRANCH   1  11
TORSDOF 6
ENDMDL
MODEL 4
REMARK VINA RESULT:    -6.409      1.485      2.344
REMARK INTER + INTRA:          -9.587
REMARK INTER:                  -8.473
REMARK INTRA:                  -1.114
REMARK UNBOUND:                -1.118
REMARK SMILES CC[C@@H](C=C[C@@H](C)[C@@H]1CC[C@H]2[C@H]3CC=C4C[C@H](O)CC[C@]4(C)[C@H]3CC[C@@]21C)C(C)C
REMARK SMILES IDX 6 1 7 2 5 3 4 4 3 5 2 6 1 7 28 8 29 9 30 10 8 11 9 12 26 13
REMARK SMILES IDX 10 14 11 15 25 16 27 17 12 18 24 19 23 20 13 21 21 22 14 23
REMARK SMILES IDX 15 24 20 25 22 26 16 27 19 28 17 29 18 30
REMARK H PARENT 18 31
REMARK Flexibility Score: inf
ROOT
ATOM      1  C   UNL     1     129.017 138.277 106.246  1.00  0.00     0.012 C 
ATOM      2  C   UNL     1     130.194 138.503 107.218  1.00  0.00     0.012 C 
ENDROOT
BRANCH   1   3
ATOM      3  C   UNL     1     128.381 139.622 105.954  1.00  0.00    -0.028 C 
ATOM      4  C   UNL     1     128.984 140.789 106.244  1.00  0.00    -0.027 C 
BRANCH   4   5
ATOM      5  C   UNL     1     128.293 142.117 106.002  1.00  0.00     0.014 C 
BRANCH   5   6
ATOM      6  C   UNL     1     129.328 143.168 105.522  1.00  0.00     0.004 C 
ATOM      7  C   UNL     1     130.749 142.615 105.363  1.00  0.00     0.004 C 
ENDBRANCH   5   6
BRANCH   5   8
ATOM      8  C   UNL     1     127.470 142.555 107.257  1.00  0.00    -0.011 C 
ATOM      9  C   UNL     1     128.134 142.122 108.578  1.00  0.00     0.008 C 
ATOM     10  C   UNL     1     127.272 144.082 107.284  1.00  0.00     0.008 C 
ENDBRANCH   5   8
ENDBRANCH   4   5
ENDBRANCH   1   3
BRANCH   1  11
ATOM     11  C   UNL     1     127.971 137.243 106.795  1.00  0.00     0.002 C 
ATOM     12  C   UNL     1     127.811 137.314 108.347  1.00  0.00     0.005 C 
ATOM     13  C   UNL     1     128.254 135.718 106.500  1.00  0.00    -0.026 C 
ATOM     14  C   UNL     1     128.086 135.917 108.912  1.00  0.00     0.005 C 
ATOM     15  C   UNL     1     128.889 135.257 107.814  1.00  0.00    -0.001 C 
ATOM     16  C   UNL     1     129.260 135.357 105.373  1.00  0.00     0.007 C 
ATOM     17  C   UNL     1     126.875 135.055 106.198  1.00  0.00     0.012 C 
ATOM     18  C   UNL     1     129.255 133.760 107.943  1.00  0.00     0.000 C 
ATOM     19  C   UNL     1     129.576 133.847 105.338  1.00  0.00     0.005 C 
ATOM     20  C   UNL     1     130.056 133.240 106.701  1.00  0.00     0.003 C 
ATOM     21  C   UNL     1     128.150 132.775 108.360  1.00  0.00     0.031 C 
ATOM     22  C   UNL     1     130.226 131.645 106.683  1.00  0.00    -0.008 C 
ATOM     23  C   UNL     1     128.828 131.494 108.759  1.00  0.00    -0.027 C 
ATOM     24  C   UNL     1     129.866 131.018 108.040  1.00  0.00    -0.065 C 
ATOM     25  C   UNL     1     131.712 131.311 106.369  1.00  0.00     0.014 C 
ATOM     26  C   UNL     1     129.318 130.965 105.621  1.00  0.00     0.016 C 
ATOM     27  C   UNL     1     130.738 129.932 108.633  1.00  0.00     0.063 C 
ATOM     28  C   UNL     1     132.051 129.808 106.419  1.00  0.00     0.033 C 
ATOM     29  C   UNL     1     131.331 129.024 107.546  1.00  0.00     0.118 C 
BRANCH  29  30
ATOM     30  O   UNL     1     132.226 128.123 108.146  1.00  0.00    -0.393 OA
ATOM     31  H   UNL     1     132.707 128.624 108.855  1.00  0.00     0.210 HD
ENDBRANCH  29  30
ENDBRANCH   1  11
TORSDOF 6
ENDMDL
MODEL 5
REMARK VINA RESULT:    -6.343      7.483     11.964
REMARK INTER + INTRA:          -9.500
REMARK INTER:                  -8.478
REMARK INTRA:                  -1.022
REMARK UNBOUND:                -1.118
REMARK SMILES CC[C@@H](C=C[C@@H](C)[C@@H]1CC[C@H]2[C@H]3CC=C4C[C@H](O)CC[C@]4(C)[C@H]3CC[C@@]21C)C(C)C
REMARK SMILES IDX 6 1 7 2 5 3 4 4 3 5 2 6 1 7 28 8 29 9 30 10 8 11 9 12 26 13
REMARK SMILES IDX 10 14 11 15 25 16 27 17 12 18 24 19 23 20 13 21 21 22 14 23
REMARK SMILES IDX 15 24 20 25 22 26 16 27 19 28 17 29 18 30
REMARK H PARENT 18 31
REMARK Flexibility Score: inf
ROOT
ATOM      1  C   UNL     1     132.255 143.653 106.469  1.00  0.00     0.012 C 
ATOM      2  C   UNL     1     132.425 143.133 105.027  1.00  0.00     0.012 C 
ENDROOT
BRANCH   1   3
ATOM      3  C   UNL     1     130.777 143.642 106.804  1.00  0.00    -0.028 C 
ATOM      4  C   UNL     1     129.829 144.006 105.922  1.00  0.00    -0.027 C 
BRANCH   4   5
ATOM      5  C   UNL     1     128.363 144.048 106.308  1.00  0.00     0.014 C 
BRANCH   5   6
ATOM      6  C   UNL     1     127.583 142.955 105.533  1.00  0.00     0.004 C 
ATOM      7  C   UNL     1     126.934 141.897 106.434  1.00  0.00     0.004 C 
ENDBRANCH   5   6
BRANCH   5   8
ATOM      8  C   UNL     1     127.783 145.491 106.139  1.00  0.00    -0.011 C 
ATOM      9  C   UNL     1     126.942 145.641 104.857  1.00  0.00     0.008 C 
ATOM     10  C   UNL     1     126.913 145.883 107.347  1.00  0.00     0.008 C 
ENDBRANCH   5   8
ENDBRANCH   4   5
ENDBRANCH   1   3
BRANCH   1  11
ATOM     11  C   UNL     1     132.890 145.074 106.677  1.00  0.00     0.002 C 
ATOM     12  C   UNL     1     132.912 145.922 105.365  1.00  0.00     0.005 C 
ATOM     13  C   UNL     1     134.380 145.120 107.198  1.00  0.00    -0.026 C 
ATOM     14  C   UNL     1     134.360 146.346 105.105  1.00  0.00     0.005 C 
ATOM     15  C   UNL     1     135.159 145.337 105.899  1.00  0.00    -0.001 C 
ATOM     16  C   UNL     1     134.972 143.845 107.859  1.00  0.00     0.007 C 
ATOM     17  C   UNL     1     134.471 146.314 108.197  1.00  0.00     0.012 C 
ATOM     18  C   UNL     1     136.693 145.506 106.006  1.00  0.00     0.000 C 
ATOM     19  C   UNL     1     136.485 143.982 108.135  1.00  0.00     0.005 C 
ATOM     20  C   UNL     1     137.348 144.393 106.892  1.00  0.00     0.003 C 
ATOM     21  C   UNL     1     137.249 146.900 106.342  1.00  0.00     0.031 C 
ATOM     22  C   UNL     1     138.888 144.684 107.234  1.00  0.00    -0.008 C 
ATOM     23  C   UNL     1     138.719 146.877 106.030  1.00  0.00    -0.027 C 
ATOM     24  C   UNL     1     139.467 145.800 106.350  1.00  0.00    -0.065 C 
ATOM     25  C   UNL     1     139.703 143.384 106.978  1.00  0.00     0.014 C 
ATOM     26  C   UNL     1     139.093 145.129 108.708  1.00  0.00     0.016 C 
ATOM     27  C   UNL     1     140.845 145.651 105.739  1.00  0.00     0.063 C 
ATOM     28  C   UNL     1     141.226 143.540 107.168  1.00  0.00     0.033 C 
ATOM     29  C   UNL     1     141.799 144.893 106.672  1.00  0.00     0.118 C 
BRANCH  29  30
ATOM     30  O   UNL     1     143.014 144.677 106.001  1.00  0.00    -0.393 OA
ATOM     31  H   UNL     1     143.569 144.101 106.588  1.00  0.00     0.210 HD
ENDBRANCH  29  30
ENDBRANCH   1  11
TORSDOF 6
ENDMDL
MODEL 6
REMARK VINA RESULT:    -6.285      8.353     12.453
REMARK INTER + INTRA:          -9.423
REMARK INTER:                  -8.309
REMARK INTRA:                  -1.114
REMARK UNBOUND:                -1.118
REMARK SMILES CC[C@@H](C=C[C@@H](C)[C@@H]1CC[C@H]2[C@H]3CC=C4C[C@H](O)CC[C@]4(C)[C@H]3CC[C@@]21C)C(C)C
REMARK SMILES IDX 6 1 7 2 5 3 4 4 3 5 2 6 1 7 28 8 29 9 30 10 8 11 9 12 26 13
REMARK SMILES IDX 10 14 11 15 25 16 27 17 12 18 24 19 23 20 13 21 21 22 14 23
REMARK SMILES IDX 15 24 20 25 22 26 16 27 19 28 17 29 18 30
REMARK H PARENT 18 31
REMARK Flexibility Score: inf
ROOT
ATOM      1  C   UNL     1     128.848 145.798 115.614  1.00  0.00     0.012 C 
ATOM      2  C   UNL     1     129.394 147.065 116.304  1.00  0.00     0.012 C 
ENDROOT
BRANCH   1   3
ATOM      3  C   UNL     1     128.233 144.909 116.677  1.00  0.00    -0.028 C 
ATOM      4  C   UNL     1     128.215 145.242 117.980  1.00  0.00    -0.027 C 
BRANCH   4   5
ATOM      5  C   UNL     1     127.653 144.301 119.029  1.00  0.00     0.014 C 
BRANCH   5   6
ATOM      6  C   UNL     1     126.876 145.110 120.100  1.00  0.00     0.004 C 
ATOM      7  C   UNL     1     127.033 146.630 119.967  1.00  0.00     0.004 C 
ENDBRANCH   5   6
BRANCH   5   8
ATOM      8  C   UNL     1     128.776 143.381 119.611  1.00  0.00    -0.011 C 
ATOM      9  C   UNL     1     130.169 144.035 119.542  1.00  0.00     0.008 C 
ATOM     10  C   UNL     1     128.481 143.006 121.076  1.00  0.00     0.008 C 
ENDBRANCH   5   8
ENDBRANCH   4   5
ENDBRANCH   1   3
BRANCH   1  11
ATOM     11  C   UNL     1     129.945 145.043 114.783  1.00  0.00     0.002 C 
ATOM     12  C   UNL     1     131.210 145.920 114.519  1.00  0.00     0.005 C 
ATOM     13  C   UNL     1     129.524 144.522 113.353  1.00  0.00    -0.026 C 
ATOM     14  C   UNL     1     131.437 145.972 113.005  1.00  0.00     0.005 C 
ATOM     15  C   UNL     1     130.077 145.621 112.444  1.00  0.00    -0.001 C 
ATOM     16  C   UNL     1     128.010 144.401 113.027  1.00  0.00     0.007 C 
ATOM     17  C   UNL     1     130.210 143.136 113.160  1.00  0.00     0.012 C 
ATOM     18  C   UNL     1     129.918 145.432 110.917  1.00  0.00     0.000 C 
ATOM     19  C   UNL     1     127.761 144.070 111.540  1.00  0.00     0.005 C 
ATOM     20  C   UNL     1     128.454 145.040 110.522  1.00  0.00     0.003 C 
ATOM     21  C   UNL     1     130.957 144.571 110.179  1.00  0.00     0.031 C 
ATOM     22  C   UNL     1     128.314 144.587 108.990  1.00  0.00    -0.008 C 
ATOM     23  C   UNL     1     130.793 144.844 108.710  1.00  0.00    -0.027 C 
ATOM     24  C   UNL     1     129.561 144.957 108.170  1.00  0.00    -0.065 C 
ATOM     25  C   UNL     1     127.088 145.316 108.370  1.00  0.00     0.014 C 
ATOM     26  C   UNL     1     128.120 143.053 108.841  1.00  0.00     0.016 C 
ATOM     27  C   UNL     1     129.414 145.555 106.787  1.00  0.00     0.063 C 
ATOM     28  C   UNL     1     126.887 145.056 106.863  1.00  0.00     0.033 C 
ATOM     29  C   UNL     1     128.202 144.977 106.045  1.00  0.00     0.118 C 
BRANCH  29  30
ATOM     30  O   UNL     1     128.046 145.660 104.827  1.00  0.00    -0.393 OA
ATOM     31  H   UNL     1     128.168 146.625 105.022  1.00  0.00     0.210 HD
ENDBRANCH  29  30
ENDBRANCH   1  11
TORSDOF 6
ENDMDL
MODEL 7
REMARK VINA RESULT:    -6.272      6.287     10.780
REMARK INTER + INTRA:          -9.406
REMARK INTER:                  -7.858
REMARK INTRA:                  -1.548
REMARK UNBOUND:                -1.118
REMARK SMILES CC[C@@H](C=C[C@@H](C)[C@@H]1CC[C@H]2[C@H]3CC=C4C[C@H](O)CC[C@]4(C)[C@H]3CC[C@@]21C)C(C)C
REMARK SMILES IDX 6 1 7 2 5 3 4 4 3 5 2 6 1 7 28 8 29 9 30 10 8 11 9 12 26 13
REMARK SMILES IDX 10 14 11 15 25 16 27 17 12 18 24 19 23 20 13 21 21 22 14 23
REMARK SMILES IDX 15 24 20 25 22 26 16 27 19 28 17 29 18 30
REMARK H PARENT 18 31
REMARK Flexibility Score: inf
ROOT
ATOM      1  C   UNL     1     131.720 143.644 107.452  1.00  0.00     0.012 C 
ATOM      2  C   UNL     1     133.063 143.716 106.696  1.00  0.00     0.012 C 
ENDROOT
BRANCH   1   3
ATOM      3  C   UNL     1     130.677 143.078 106.509  1.00  0.00    -0.028 C 
ATOM      4  C   UNL     1     129.430 143.576 106.424  1.00  0.00    -0.027 C 
BRANCH   4   5
ATOM      5  C   UNL     1     128.388 142.945 105.520  1.00  0.00     0.014 C 
BRANCH   5   6
ATOM      6  C   UNL     1     127.617 144.052 104.754  1.00  0.00     0.004 C 
ATOM      7  C   UNL     1     127.538 145.388 105.503  1.00  0.00     0.004 C 
ENDBRANCH   5   6
BRANCH   5   8
ATOM      8  C   UNL     1     127.472 141.965 106.324  1.00  0.00    -0.011 C 
ATOM      9  C   UNL     1     127.950 140.503 106.234  1.00  0.00     0.008 C 
ATOM     10  C   UNL     1     127.397 142.368 107.808  1.00  0.00     0.008 C 
ENDBRANCH   5   8
ENDBRANCH   4   5
ENDBRANCH   1   3
BRANCH   1  11
ATOM     11  C   UNL     1     131.284 145.032 108.042  1.00  0.00     0.002 C 
ATOM     12  C   UNL     1     132.479 146.028 108.184  1.00  0.00     0.005 C 
ATOM     13  C   UNL     1     130.611 145.021 109.470  1.00  0.00    -0.026 C 
ATOM     14  C   UNL     1     132.538 146.483 109.645  1.00  0.00     0.005 C 
ATOM     15  C   UNL     1     131.789 145.391 110.374  1.00  0.00    -0.001 C 
ATOM     16  C   UNL     1     130.045 143.679 110.010  1.00  0.00     0.007 C 
ATOM     17  C   UNL     1     129.476 146.090 109.441  1.00  0.00     0.012 C 
ATOM     18  C   UNL     1     131.505 145.550 111.886  1.00  0.00     0.000 C 
ATOM     19  C   UNL     1     129.601 143.787 111.484  1.00  0.00     0.005 C 
ATOM     20  C   UNL     1     130.692 144.342 112.463  1.00  0.00     0.003 C 
ATOM     21  C   UNL     1     130.954 146.897 112.384  1.00  0.00     0.031 C 
ATOM     22  C   UNL     1     130.161 144.596 113.956  1.00  0.00    -0.008 C 
ATOM     23  C   UNL     1     131.113 146.914 113.878  1.00  0.00    -0.027 C 
ATOM     24  C   UNL     1     130.845 145.809 114.606  1.00  0.00    -0.065 C 
ATOM     25  C   UNL     1     130.481 143.337 114.813  1.00  0.00     0.014 C 
ATOM     26  C   UNL     1     128.632 144.865 114.003  1.00  0.00     0.016 C 
ATOM     27  C   UNL     1     131.324 145.737 116.041  1.00  0.00     0.063 C 
ATOM     28  C   UNL     1     130.119 143.474 116.305  1.00  0.00     0.033 C 
ATOM     29  C   UNL     1     130.392 144.877 116.906  1.00  0.00     0.118 C 
BRANCH  29  30
ATOM     30  O   UNL     1     130.955 144.744 118.186  1.00  0.00    -0.393 OA
ATOM     31  H   UNL     1     130.365 144.132 118.698  1.00  0.00     0.210 HD
ENDBRANCH  29  30
ENDBRANCH   1  11
TORSDOF 6
ENDMDL
MODEL 8
REMARK VINA RESULT:    -6.251      8.492     13.034
REMARK INTER + INTRA:          -9.379
REMARK INTER:                  -8.238
REMARK INTRA:                  -1.141
REMARK UNBOUND:                -1.118
REMARK SMILES CC[C@@H](C=C[C@@H](C)[C@@H]1CC[C@H]2[C@H]3CC=C4C[C@H](O)CC[C@]4(C)[C@H]3CC[C@@]21C)C(C)C
REMARK SMILES IDX 6 1 7 2 5 3 4 4 3 5 2 6 1 7 28 8 29 9 30 10 8 11 9 12 26 13
REMARK SMILES IDX 10 14 11 15 25 16 27 17 12 18 24 19 23 20 13 21 21 22 14 23
REMARK SMILES IDX 15 24 20 25 22 26 16 27 19 28 17 29 18 30
REMARK H PARENT 18 31
REMARK Flexibility Score: inf
ROOT
ATOM      1  C   UNL     1     134.530 143.712 105.293  1.00  0.00     0.012 C 
ATOM      2  C   UNL     1     134.786 144.264 103.875  1.00  0.00     0.012 C 
ENDROOT
BRANCH   1   3
ATOM      3  C   UNL     1     133.034 143.534 105.466  1.00  0.00    -0.028 C 
ATOM      4  C   UNL     1     132.333 144.169 106.423  1.00  0.00    -0.027 C 
BRANCH   4   5
ATOM      5  C   UNL     1     130.850 143.918 106.614  1.00  0.00     0.014 C 
BRANCH   5   6
ATOM      6  C   UNL     1     130.359 142.861 105.592  1.00  0.00     0.004 C 
ATOM      7  C   UNL     1     128.901 143.048 105.154  1.00  0.00     0.004 C 
ENDBRANCH   5   6
BRANCH   5   8
ATOM      8  C   UNL     1     130.048 145.261 106.582  1.00  0.00    -0.011 C 
ATOM      9  C   UNL     1     129.521 145.666 107.972  1.00  0.00     0.008 C 
ATOM     10  C   UNL     1     130.912 146.409 106.030  1.00  0.00     0.008 C 
ENDBRANCH   5   8
ENDBRANCH   4   5
ENDBRANCH   1   3
BRANCH   1  11
ATOM     11  C   UNL     1     135.144 144.622 106.415  1.00  0.00     0.002 C 
ATOM     12  C   UNL     1     135.128 146.137 106.038  1.00  0.00     0.005 C 
ATOM     13  C   UNL     1     136.642 144.336 106.825  1.00  0.00    -0.026 C 
ATOM     14  C   UNL     1     136.564 146.660 106.136  1.00  0.00     0.005 C 
ATOM     15  C   UNL     1     137.394 145.401 106.024  1.00  0.00    -0.001 C 
ATOM     16  C   UNL     1     137.267 142.968 106.435  1.00  0.00     0.007 C 
ATOM     17  C   UNL     1     136.730 144.526 108.370  1.00  0.00     0.012 C 
ATOM     18  C   UNL     1     138.926 145.488 106.217  1.00  0.00     0.000 C 
ATOM     19  C   UNL     1     138.781 142.917 106.728  1.00  0.00     0.005 C 
ATOM     20  C   UNL     1     139.615 144.087 106.101  1.00  0.00     0.003 C 
ATOM     21  C   UNL     1     139.464 146.290 107.415  1.00  0.00     0.031 C 
ATOM     22  C   UNL     1     141.156 144.103 106.548  1.00  0.00    -0.008 C 
ATOM     23  C   UNL     1     140.928 146.522 107.170  1.00  0.00    -0.027 C 
ATOM     24  C   UNL     1     141.700 145.536 106.666  1.00  0.00    -0.065 C 
ATOM     25  C   UNL     1     141.989 143.350 105.472  1.00  0.00     0.014 C 
ATOM     26  C   UNL     1     141.379 143.424 107.928  1.00  0.00     0.016 C 
ATOM     27  C   UNL     1     143.069 145.878 106.117  1.00  0.00     0.063 C 
ATOM     28  C   UNL     1     143.511 143.371 105.715  1.00  0.00     0.033 C 
ATOM     29  C   UNL     1     144.053 144.711 106.278  1.00  0.00     0.118 C 
BRANCH  29  30
ATOM     30  O   UNL     1     145.259 145.042 105.639  1.00  0.00    -0.393 OA
ATOM     31  H   UNL     1     145.327 146.032 105.646  1.00  0.00     0.210 HD
ENDBRANCH  29  30
ENDBRANCH   1  11
TORSDOF 6
ENDMDL
MODEL 9
REMARK VINA RESULT:    -6.223      3.402      9.800
REMARK INTER + INTRA:          -9.341
REMARK INTER:                  -8.268
REMARK INTRA:                  -1.074
REMARK UNBOUND:                -1.118
REMARK SMILES CC[C@@H](C=C[C@@H](C)[C@@H]1CC[C@H]2[C@H]3CC=C4C[C@H](O)CC[C@]4(C)[C@H]3CC[C@@]21C)C(C)C
REMARK SMILES IDX 6 1 7 2 5 3 4 4 3 5 2 6 1 7 28 8 29 9 30 10 8 11 9 12 26 13
REMARK SMILES IDX 10 14 11 15 25 16 27 17 12 18 24 19 23 20 13 21 21 22 14 23
REMARK SMILES IDX 15 24 20 25 22 26 16 27 19 28 17 29 18 30
REMARK H PARENT 18 31
REMARK Flexibility Score: inf
ROOT
ATOM      1  C   UNL     1     129.593 135.322 106.067  1.00  0.00     0.012 C 
ATOM      2  C   UNL     1     130.029 135.506 104.599  1.00  0.00     0.012 C 
ENDROOT
BRANCH   1   3
ATOM      3  C   UNL     1     129.338 133.846 106.303  1.00  0.00    -0.028 C 
ATOM      4  C   UNL     1     129.481 132.921 105.337  1.00  0.00    -0.027 C 
BRANCH   4   5
ATOM      5  C   UNL     1     129.152 131.462 105.585  1.00  0.00     0.014 C 
BRANCH   5   6
ATOM      6  C   UNL     1     127.633 131.302 105.853  1.00  0.00     0.004 C 
ATOM      7  C   UNL     1     126.959 130.224 104.995  1.00  0.00     0.004 C 
ENDBRANCH   5   6
BRANCH   5   8
ATOM      8  C   UNL     1     130.066 130.867 106.706  1.00  0.00    -0.011 C 
ATOM      9  C   UNL     1     129.266 130.422 107.945  1.00  0.00     0.008 C 
ATOM     10  C   UNL     1     130.872 129.663 106.183  1.00  0.00     0.008 C 
ENDBRANCH   5   8
ENDBRANCH   4   5
ENDBRANCH   1   3
BRANCH   1  11
ATOM     11  C   UNL     1     128.345 136.198 106.440  1.00  0.00     0.002 C 
ATOM     12  C   UNL     1     127.385 136.425 105.228  1.00  0.00     0.005 C 
ATOM     13  C   UNL     1     128.631 137.650 106.991  1.00  0.00    -0.026 C 
ATOM     14  C   UNL     1     127.214 137.936 105.043  1.00  0.00     0.005 C 
ATOM     15  C   UNL     1     128.430 138.506 105.739  1.00  0.00    -0.001 C 
ATOM     16  C   UNL     1     130.055 137.972 107.522  1.00  0.00     0.007 C 
ATOM     17  C   UNL     1     127.584 137.919 108.115  1.00  0.00     0.012 C 
ATOM     18  C   UNL     1     128.562 140.039 105.894  1.00  0.00     0.000 C 
ATOM     19  C   UNL     1     130.231 139.472 107.840  1.00  0.00     0.005 C 
ATOM     20  C   UNL     1     129.863 140.443 106.666  1.00  0.00     0.003 C 
ATOM     21  C   UNL     1     127.337 140.827 106.389  1.00  0.00     0.031 C 
ATOM     22  C   UNL     1     129.900 141.996 107.068  1.00  0.00    -0.008 C 
ATOM     23  C   UNL     1     127.602 142.279 106.105  1.00  0.00    -0.027 C 
ATOM     24  C   UNL     1     128.827 142.804 106.321  1.00  0.00    -0.065 C 
ATOM     25  C   UNL     1     131.296 142.569 106.689  1.00  0.00     0.014 C 
ATOM     26  C   UNL     1     129.655 142.222 108.585  1.00  0.00     0.016 C 
ATOM     27  C   UNL     1     129.166 144.154 105.725  1.00  0.00     0.063 C 
ATOM     28  C   UNL     1     131.447 144.086 106.923  1.00  0.00     0.033 C 
ATOM     29  C   UNL     1     130.180 144.916 106.588  1.00  0.00     0.118 C 
BRANCH  29  30
ATOM     30  O   UNL     1     130.549 146.096 105.921  1.00  0.00    -0.393 OA
ATOM     31  H   UNL     1     129.712 146.509 105.583  1.00  0.00     0.210 HD
ENDBRANCH  29  30
ENDBRANCH   1  11
TORSDOF 6
ENDMDL
