MODEL 1
REMARK VINA RESULT:    -5.062      0.000      0.000
REMARK INTER + INTRA:         -18.973
REMARK INTER:                 -13.348
REMARK INTRA:                  -5.625
REMARK UNBOUND:                -5.625
REMARK SMILES CCCCCCCCCCCCCCCCCCCCCCCCCCCCCC(=O)[O-]
REMARK SMILES IDX 16 1 17 2 18 3 19 4 20 5 21 6 22 7 23 8 24 9 25 10 26 11
REMARK SMILES IDX 27 12 28 13 29 14 30 15 31 16 32 17 15 18 14 19 13 20 12 21
REMARK SMILES IDX 11 22 10 23 9 24 8 25 7 26 6 27 5 28 4 29 3 30 2 31 1 32
REMARK H PARENT
REMARK Flexibility Score: inf
ROOT
ATOM      1  C   UNL     1      13.609 -30.342  23.700  1.00  0.00     0.000 C 
ENDROOT
BRANCH   1   2
ATOM      2  C   UNL     1      14.923 -29.584  23.474  1.00  0.00     0.000 C 
BRANCH   2   3
ATOM      3  C   UNL     1      15.102 -29.219  21.995  1.00  0.00     0.000 C 
BRANCH   3   4
ATOM      4  C   UNL     1      16.587 -29.170  21.615  1.00  0.00     0.000 C 
BRANCH   4   5
ATOM      5  C   UNL     1      17.293 -30.484  21.981  1.00  0.00     0.000 C 
BRANCH   5   6
ATOM      6  C   UNL     1      17.715 -31.292  20.744  1.00  0.00     0.000 C 
BRANCH   6   7
ATOM      7  C   UNL     1      18.701 -32.423  21.085  1.00  0.00     0.000 C 
BRANCH   7   8
ATOM      8  C   UNL     1      19.217 -32.336  22.530  1.00  0.00     0.000 C 
BRANCH   8   9
ATOM      9  C   UNL     1      20.681 -32.791  22.667  1.00  0.00     0.000 C 
BRANCH   9  10
ATOM     10  C   UNL     1      21.655 -31.613  22.839  1.00  0.00     0.000 C 
BRANCH  10  11
ATOM     11  C   UNL     1      20.925 -30.275  23.049  1.00  0.00     0.000 C 
BRANCH  11  12
ATOM     12  C   UNL     1      21.436 -29.167  22.113  1.00  0.00     0.000 C 
BRANCH  12  13
ATOM     13  C   UNL     1      20.618 -29.037  20.810  1.00  0.00     0.006 C 
BRANCH  13  14
ATOM     14  C   UNL     1      19.853 -27.710  20.741  1.00  0.00     0.053 C 
BRANCH  14  15
ATOM     15  C   UNL     1      20.777 -26.557  20.979  1.00  0.00     0.041 C 
ATOM     16  O   UNL     1      20.592 -25.791  21.961  1.00  0.00    -0.550 OA
ATOM     17  O   UNL     1      21.809 -26.297  20.087  1.00  0.00    -0.550 OA
ENDBRANCH  14  15
ENDBRANCH  13  14
ENDBRANCH  12  13
ENDBRANCH  11  12
ENDBRANCH  10  11
ENDBRANCH   9  10
ENDBRANCH   8   9
ENDBRANCH   7   8
ENDBRANCH   6   7
ENDBRANCH   5   6
ENDBRANCH   4   5
ENDBRANCH   3   4
ENDBRANCH   2   3
ENDBRANCH   1   2
BRANCH   1  18
ATOM     18  C   UNL     1      13.662 -31.737  23.061  1.00  0.00     0.000 C 
BRANCH  18  19
ATOM     19  C   UNL     1      14.684 -32.663  23.741  1.00  0.00     0.000 C 
BRANCH  19  20
ATOM     20  C   UNL     1      15.349 -33.634  22.751  1.00  0.00     0.000 C 
BRANCH  20  21
ATOM     21  C   UNL     1      14.816 -33.480  21.314  1.00  0.00     0.000 C 
BRANCH  21  22
ATOM     22  C   UNL     1      15.116 -34.665  20.374  1.00  0.00     0.000 C 
BRANCH  22  23
ATOM     23  C   UNL     1      16.209 -34.404  19.319  1.00  0.00     0.000 C 
BRANCH  23  24
ATOM     24  C   UNL     1      17.368 -35.419  19.316  1.00  0.00    -0.000 C 
BRANCH  24  25
ATOM     25  C   UNL     1      17.031 -36.787  19.936  1.00  0.00    -0.000 C 
BRANCH  25  26
ATOM     26  C   UNL     1      17.941 -37.142  21.125  1.00  0.00    -0.000 C 
BRANCH  26  27
ATOM     27  C   UNL     1      18.093 -35.980  22.119  1.00  0.00    -0.000 C 
BRANCH  27  28
ATOM     28  C   UNL     1      19.211 -36.224  23.144  1.00  0.00    -0.000 C 
BRANCH  28  29
ATOM     29  C   UNL     1      18.859 -35.595  24.496  1.00  0.00    -0.000 C 
BRANCH  29  30
ATOM     30  C   UNL     1      17.375 -35.798  24.830  1.00  0.00    -0.000 C 
BRANCH  30  31
ATOM     31  C   UNL     1      17.207 -36.483  26.190  1.00  0.00    -0.003 C 
ATOM     32  C   UNL     1      17.976 -37.799  26.245  1.00  0.00     0.004 C 
ENDBRANCH  30  31
ENDBRANCH  29  30
ENDBRANCH  28  29
ENDBRANCH  27  28
ENDBRANCH  26  27
ENDBRANCH  25  26
ENDBRANCH  24  25
ENDBRANCH  23  24
ENDBRANCH  22  23
ENDBRANCH  21  22
ENDBRANCH  20  21
ENDBRANCH  19  20
ENDBRANCH  18  19
ENDBRANCH   1  18
TORSDOF 28
ENDMDL
MODEL 2
REMARK VINA RESULT:    -5.013      2.848      7.231
REMARK INTER + INTRA:         -18.845
REMARK INTER:                 -13.931
REMARK INTRA:                  -4.914
REMARK UNBOUND:                -5.625
REMARK SMILES CCCCCCCCCCCCCCCCCCCCCCCCCCCCCC(=O)[O-]
REMARK SMILES IDX 16 1 17 2 18 3 19 4 20 5 21 6 22 7 23 8 24 9 25 10 26 11
REMARK SMILES IDX 27 12 28 13 29 14 30 15 31 16 32 17 15 18 14 19 13 20 12 21
REMARK SMILES IDX 11 22 10 23 9 24 8 25 7 26 6 27 5 28 4 29 3 30 2 31 1 32
REMARK H PARENT
REMARK Flexibility Score: inf
ROOT
ATOM      1  C   UNL     1      13.108 -30.018  23.182  1.00  0.00     0.000 C 
ENDROOT
BRANCH   1   2
ATOM      2  C   UNL     1      13.545 -31.349  23.805  1.00  0.00     0.000 C 
BRANCH   2   3
ATOM      3  C   UNL     1      14.094 -32.304  22.737  1.00  0.00     0.000 C 
BRANCH   3   4
ATOM      4  C   UNL     1      13.515 -31.979  21.356  1.00  0.00     0.000 C 
BRANCH   4   5
ATOM      5  C   UNL     1      14.103 -32.905  20.279  1.00  0.00     0.000 C 
BRANCH   5   6
ATOM      6  C   UNL     1      14.961 -34.032  20.875  1.00  0.00     0.000 C 
BRANCH   6   7
ATOM      7  C   UNL     1      15.573 -34.941  19.795  1.00  0.00     0.000 C 
BRANCH   7   8
ATOM      8  C   UNL     1      16.833 -34.332  19.160  1.00  0.00     0.000 C 
BRANCH   8   9
ATOM      9  C   UNL     1      18.093 -35.181  19.408  1.00  0.00     0.000 C 
BRANCH   9  10
ATOM     10  C   UNL     1      17.781 -36.681  19.545  1.00  0.00     0.000 C 
BRANCH  10  11
ATOM     11  C   UNL     1      17.968 -37.190  20.984  1.00  0.00     0.000 C 
BRANCH  11  12
ATOM     12  C   UNL     1      19.034 -36.399  21.760  1.00  0.00     0.000 C 
BRANCH  12  13
ATOM     13  C   UNL     1      18.620 -36.070  23.211  1.00  0.00     0.006 C 
BRANCH  13  14
ATOM     14  C   UNL     1      17.306 -35.282  23.271  1.00  0.00     0.053 C 
BRANCH  14  15
ATOM     15  C   UNL     1      16.853 -35.124  24.688  1.00  0.00     0.041 C 
ATOM     16  O   UNL     1      17.125 -36.010  25.541  1.00  0.00    -0.550 OA
ATOM     17  O   UNL     1      16.083 -34.028  25.055  1.00  0.00    -0.550 OA
ENDBRANCH  14  15
ENDBRANCH  13  14
ENDBRANCH  12  13
ENDBRANCH  11  12
ENDBRANCH  10  11
ENDBRANCH   9  10
ENDBRANCH   8   9
ENDBRANCH   7   8
ENDBRANCH   6   7
ENDBRANCH   5   6
ENDBRANCH   4   5
ENDBRANCH   3   4
ENDBRANCH   2   3
ENDBRANCH   1   2
BRANCH   1  18
ATOM     18  C   UNL     1      13.935 -28.851  23.743  1.00  0.00     0.000 C 
BRANCH  18  19
ATOM     19  C   UNL     1      14.619 -28.025  22.642  1.00  0.00     0.000 C 
BRANCH  19  20
ATOM     20  C   UNL     1      15.290 -28.908  21.575  1.00  0.00     0.000 C 
BRANCH  20  21
ATOM     21  C   UNL     1      16.576 -29.587  22.084  1.00  0.00     0.000 C 
BRANCH  21  22
ATOM     22  C   UNL     1      17.085 -30.756  21.217  1.00  0.00     0.000 C 
BRANCH  22  23
ATOM     23  C   UNL     1      17.685 -31.939  22.003  1.00  0.00     0.000 C 
BRANCH  23  24
ATOM     24  C   UNL     1      19.110 -32.347  21.579  1.00  0.00    -0.000 C 
BRANCH  24  25
ATOM     25  C   UNL     1      20.189 -32.141  22.656  1.00  0.00    -0.000 C 
BRANCH  25  26
ATOM     26  C   UNL     1      21.141 -30.976  22.330  1.00  0.00    -0.000 C 
BRANCH  26  27
ATOM     27  C   UNL     1      20.658 -30.136  21.137  1.00  0.00    -0.000 C 
BRANCH  27  28
ATOM     28  C   UNL     1      21.043 -28.655  21.265  1.00  0.00    -0.000 C 
BRANCH  28  29
ATOM     29  C   UNL     1      19.904 -27.750  20.784  1.00  0.00    -0.000 C 
BRANCH  29  30
ATOM     30  C   UNL     1      20.211 -26.275  21.074  1.00  0.00    -0.000 C 
BRANCH  30  31
ATOM     31  C   UNL     1      21.172 -25.698  20.029  1.00  0.00    -0.003 C 
ATOM     32  C   UNL     1      22.367 -25.022  20.692  1.00  0.00     0.004 C 
ENDBRANCH  30  31
ENDBRANCH  29  30
ENDBRANCH  28  29
ENDBRANCH  27  28
ENDBRANCH  26  27
ENDBRANCH  25  26
ENDBRANCH  24  25
ENDBRANCH  23  24
ENDBRANCH  22  23
ENDBRANCH  21  22
ENDBRANCH  20  21
ENDBRANCH  19  20
ENDBRANCH  18  19
ENDBRANCH   1  18
TORSDOF 28
ENDMDL
MODEL 3
REMARK VINA RESULT:    -4.984      2.687      5.422
REMARK INTER + INTRA:         -18.767
REMARK INTER:                 -12.690
REMARK INTRA:                  -6.077
REMARK UNBOUND:                -5.625
REMARK SMILES CCCCCCCCCCCCCCCCCCCCCCCCCCCCCC(=O)[O-]
REMARK SMILES IDX 16 1 17 2 18 3 19 4 20 5 21 6 22 7 23 8 24 9 25 10 26 11
REMARK SMILES IDX 27 12 28 13 29 14 30 15 31 16 32 17 15 18 14 19 13 20 12 21
REMARK SMILES IDX 11 22 10 23 9 24 8 25 7 26 6 27 5 28 4 29 3 30 2 31 1 32
REMARK H PARENT
REMARK Flexibility Score: inf
ROOT
ATOM      1  C   UNL     1      12.573 -30.892  21.632  1.00  0.00     0.000 C 
ENDROOT
BRANCH   1   2
ATOM      2  C   UNL     1      13.176 -31.729  20.497  1.00  0.00     0.000 C 
BRANCH   2   3
ATOM      3  C   UNL     1      14.226 -32.710  21.033  1.00  0.00     0.000 C 
BRANCH   3   4
ATOM      4  C   UNL     1      14.468 -33.855  20.042  1.00  0.00     0.000 C 
BRANCH   4   5
ATOM      5  C   UNL     1      15.790 -34.577  20.345  1.00  0.00     0.000 C 
BRANCH   5   6
ATOM      6  C   UNL     1      16.876 -34.283  19.298  1.00  0.00     0.000 C 
BRANCH   6   7
ATOM      7  C   UNL     1      17.994 -35.340  19.296  1.00  0.00     0.000 C 
BRANCH   7   8
ATOM      8  C   UNL     1      17.448 -36.774  19.372  1.00  0.00     0.000 C 
BRANCH   8   9
ATOM      9  C   UNL     1      17.905 -37.518  20.640  1.00  0.00     0.000 C 
BRANCH   9  10
ATOM     10  C   UNL     1      18.700 -36.618  21.601  1.00  0.00     0.000 C 
BRANCH  10  11
ATOM     11  C   UNL     1      19.228 -37.389  22.823  1.00  0.00     0.000 C 
BRANCH  11  12
ATOM     12  C   UNL     1      20.662 -36.985  23.205  1.00  0.00     0.000 C 
BRANCH  12  13
ATOM     13  C   UNL     1      21.010 -35.526  22.834  1.00  0.00     0.006 C 
BRANCH  13  14
ATOM     14  C   UNL     1      22.069 -34.931  23.769  1.00  0.00     0.053 C 
BRANCH  14  15
ATOM     15  C   UNL     1      23.291 -34.542  22.998  1.00  0.00     0.041 C 
ATOM     16  O   UNL     1      23.390 -33.383  22.513  1.00  0.00    -0.550 OA
ATOM     17  O   UNL     1      24.295 -35.473  22.767  1.00  0.00    -0.550 OA
ENDBRANCH  14  15
ENDBRANCH  13  14
ENDBRANCH  12  13
ENDBRANCH  11  12
ENDBRANCH  10  11
ENDBRANCH   9  10
ENDBRANCH   8   9
ENDBRANCH   7   8
ENDBRANCH   6   7
ENDBRANCH   5   6
ENDBRANCH   4   5
ENDBRANCH   3   4
ENDBRANCH   2   3
ENDBRANCH   1   2
BRANCH   1  18
ATOM     18  C   UNL     1      13.159 -31.306  22.991  1.00  0.00     0.000 C 
BRANCH  18  19
ATOM     19  C   UNL     1      13.515 -30.101  23.875  1.00  0.00     0.000 C 
BRANCH  19  20
ATOM     20  C   UNL     1      14.727 -29.317  23.341  1.00  0.00     0.000 C 
BRANCH  20  21
ATOM     21  C   UNL     1      15.962 -30.209  23.113  1.00  0.00     0.000 C 
BRANCH  21  22
ATOM     22  C   UNL     1      16.838 -29.817  21.906  1.00  0.00     0.000 C 
BRANCH  22  23
ATOM     23  C   UNL     1      17.372 -31.000  21.074  1.00  0.00     0.000 C 
BRANCH  23  24
ATOM     24  C   UNL     1      18.045 -32.120  21.891  1.00  0.00    -0.000 C 
BRANCH  24  25
ATOM     25  C   UNL     1      19.579 -32.171  21.776  1.00  0.00    -0.000 C 
BRANCH  25  26
ATOM     26  C   UNL     1      20.287 -31.781  23.086  1.00  0.00    -0.000 C 
BRANCH  26  27
ATOM     27  C   UNL     1      19.300 -31.507  24.231  1.00  0.00    -0.000 C 
BRANCH  27  28
ATOM     28  C   UNL     1      19.353 -32.583  25.325  1.00  0.00    -0.000 C 
BRANCH  28  29
ATOM     29  C   UNL     1      17.979 -33.236  25.517  1.00  0.00    -0.000 C 
BRANCH  29  30
ATOM     30  C   UNL     1      17.941 -34.635  24.890  1.00  0.00    -0.000 C 
BRANCH  30  31
ATOM     31  C   UNL     1      16.689 -34.816  24.026  1.00  0.00    -0.003 C 
ATOM     32  C   UNL     1      15.654 -33.735  24.319  1.00  0.00     0.004 C 
ENDBRANCH  30  31
ENDBRANCH  29  30
ENDBRANCH  28  29
ENDBRANCH  27  28
ENDBRANCH  26  27
ENDBRANCH  25  26
ENDBRANCH  24  25
ENDBRANCH  23  24
ENDBRANCH  22  23
ENDBRANCH  21  22
ENDBRANCH  20  21
ENDBRANCH  19  20
ENDBRANCH  18  19
ENDBRANCH   1  18
TORSDOF 28
ENDMDL
MODEL 4
REMARK VINA RESULT:    -4.970      1.531      3.656
REMARK INTER + INTRA:         -18.730
REMARK INTER:                 -14.104
REMARK INTRA:                  -4.625
REMARK UNBOUND:                -5.625
REMARK SMILES CCCCCCCCCCCCCCCCCCCCCCCCCCCCCC(=O)[O-]
REMARK SMILES IDX 16 1 17 2 18 3 19 4 20 5 21 6 22 7 23 8 24 9 25 10 26 11
REMARK SMILES IDX 27 12 28 13 29 14 30 15 31 16 32 17 15 18 14 19 13 20 12 21
REMARK SMILES IDX 11 22 10 23 9 24 8 25 7 26 6 27 5 28 4 29 3 30 2 31 1 32
REMARK H PARENT
REMARK Flexibility Score: inf
ROOT
ATOM      1  C   UNL     1      14.549 -30.635  21.337  1.00  0.00     0.000 C 
ENDROOT
BRANCH   1   2
ATOM      2  C   UNL     1      15.159 -29.258  21.627  1.00  0.00     0.000 C 
BRANCH   2   3
ATOM      3  C   UNL     1      16.679 -29.354  21.808  1.00  0.00     0.000 C 
BRANCH   3   4
ATOM      4  C   UNL     1      17.037 -30.207  23.031  1.00  0.00     0.000 C 
BRANCH   4   5
ATOM      5  C   UNL     1      17.805 -31.471  22.616  1.00  0.00     0.000 C 
BRANCH   5   6
ATOM      6  C   UNL     1      18.169 -31.477  21.123  1.00  0.00     0.000 C 
BRANCH   6   7
ATOM      7  C   UNL     1      19.686 -31.391  20.885  1.00  0.00     0.000 C 
BRANCH   7   8
ATOM      8  C   UNL     1      20.460 -31.017  22.159  1.00  0.00     0.000 C 
BRANCH   8   9
ATOM      9  C   UNL     1      21.073 -29.606  22.091  1.00  0.00     0.000 C 
BRANCH   9  10
ATOM     10  C   UNL     1      20.854 -28.931  20.726  1.00  0.00     0.000 C 
BRANCH  10  11
ATOM     11  C   UNL     1      19.855 -27.764  20.802  1.00  0.00     0.000 C 
BRANCH  11  12
ATOM     12  C   UNL     1      20.480 -26.419  20.398  1.00  0.00     0.000 C 
BRANCH  12  13
ATOM     13  C   UNL     1      22.019 -26.396  20.514  1.00  0.00     0.006 C 
BRANCH  13  14
ATOM     14  C   UNL     1      22.552 -24.995  20.839  1.00  0.00     0.053 C 
BRANCH  14  15
ATOM     15  C   UNL     1      23.495 -24.533  19.773  1.00  0.00     0.041 C 
ATOM     16  O   UNL     1      24.200 -23.505  19.956  1.00  0.00    -0.550 OA
ATOM     17  O   UNL     1      23.557 -25.203  18.559  1.00  0.00    -0.550 OA
ENDBRANCH  14  15
ENDBRANCH  13  14
ENDBRANCH  12  13
ENDBRANCH  11  12
ENDBRANCH  10  11
ENDBRANCH   9  10
ENDBRANCH   8   9
ENDBRANCH   7   8
ENDBRANCH   6   7
ENDBRANCH   5   6
ENDBRANCH   4   5
ENDBRANCH   3   4
ENDBRANCH   2   3
ENDBRANCH   1   2
BRANCH   1  18
ATOM     18  C   UNL     1      13.044 -30.644  21.642  1.00  0.00     0.000 C 
BRANCH  18  19
ATOM     19  C   UNL     1      12.740 -30.925  23.123  1.00  0.00     0.000 C 
BRANCH  19  20
ATOM     20  C   UNL     1      13.975 -31.429  23.891  1.00  0.00     0.000 C 
BRANCH  20  21
ATOM     21  C   UNL     1      13.891 -32.926  24.241  1.00  0.00     0.000 C 
BRANCH  21  22
ATOM     22  C   UNL     1      15.128 -33.760  23.851  1.00  0.00     0.000 C 
BRANCH  22  23
ATOM     23  C   UNL     1      16.207 -33.881  24.944  1.00  0.00     0.000 C 
BRANCH  23  24
ATOM     24  C   UNL     1      16.884 -35.262  25.042  1.00  0.00    -0.000 C 
BRANCH  24  25
ATOM     25  C   UNL     1      17.694 -35.674  23.801  1.00  0.00    -0.000 C 
BRANCH  25  26
ATOM     26  C   UNL     1      18.937 -34.793  23.581  1.00  0.00    -0.000 C 
BRANCH  26  27
ATOM     27  C   UNL     1      19.463 -34.864  22.139  1.00  0.00    -0.000 C 
BRANCH  27  28
ATOM     28  C   UNL     1      18.620 -35.791  21.250  1.00  0.00    -0.000 C 
BRANCH  28  29
ATOM     29  C   UNL     1      18.299 -35.121  19.910  1.00  0.00    -0.000 C 
BRANCH  29  30
ATOM     30  C   UNL     1      17.064 -35.755  19.257  1.00  0.00    -0.000 C 
BRANCH  30  31
ATOM     31  C   UNL     1      15.801 -35.466  20.075  1.00  0.00    -0.003 C 
ATOM     32  C   UNL     1      15.605 -33.967  20.277  1.00  0.00     0.004 C 
ENDBRANCH  30  31
ENDBRANCH  29  30
ENDBRANCH  28  29
ENDBRANCH  27  28
ENDBRANCH  26  27
ENDBRANCH  25  26
ENDBRANCH  24  25
ENDBRANCH  23  24
ENDBRANCH  22  23
ENDBRANCH  21  22
ENDBRANCH  20  21
ENDBRANCH  19  20
ENDBRANCH  18  19
ENDBRANCH   1  18
TORSDOF 28
ENDMDL
MODEL 5
REMARK VINA RESULT:    -4.878      1.576      2.782
REMARK INTER + INTRA:         -18.487
REMARK INTER:                 -13.002
REMARK INTRA:                  -5.485
REMARK UNBOUND:                -5.625
REMARK SMILES CCCCCCCCCCCCCCCCCCCCCCCCCCCCCC(=O)[O-]
REMARK SMILES IDX 16 1 17 2 18 3 19 4 20 5 21 6 22 7 23 8 24 9 25 10 26 11
REMARK SMILES IDX 27 12 28 13 29 14 30 15 31 16 32 17 15 18 14 19 13 20 12 21
REMARK SMILES IDX 11 22 10 23 9 24 8 25 7 26 6 27 5 28 4 29 3 30 2 31 1 32
REMARK H PARENT
REMARK Flexibility Score: inf
ROOT
ATOM      1  C   UNL     1      12.523 -30.791  21.763  1.00  0.00     0.000 C 
ENDROOT
BRANCH   1   2
ATOM      2  C   UNL     1      13.115 -31.290  23.087  1.00  0.00     0.000 C 
BRANCH   2   3
ATOM      3  C   UNL     1      14.012 -30.224  23.728  1.00  0.00     0.000 C 
BRANCH   3   4
ATOM      4  C   UNL     1      13.997 -28.927  22.911  1.00  0.00     0.000 C 
BRANCH   4   5
ATOM      5  C   UNL     1      15.336 -28.716  22.185  1.00  0.00     0.000 C 
BRANCH   5   6
ATOM      6  C   UNL     1      16.341 -29.845  22.462  1.00  0.00     0.000 C 
BRANCH   6   7
ATOM      7  C   UNL     1      16.933 -30.438  21.172  1.00  0.00     0.000 C 
BRANCH   7   8
ATOM      8  C   UNL     1      17.635 -31.784  21.411  1.00  0.00     0.000 C 
BRANCH   8   9
ATOM      9  C   UNL     1      19.055 -31.828  20.819  1.00  0.00     0.000 C 
BRANCH   9  10
ATOM     10  C   UNL     1      20.150 -31.704  21.893  1.00  0.00     0.000 C 
BRANCH  10  11
ATOM     11  C   UNL     1      20.532 -30.241  22.175  1.00  0.00     0.000 C 
BRANCH  11  12
ATOM     12  C   UNL     1      20.850 -29.453  20.894  1.00  0.00     0.000 C 
BRANCH  12  13
ATOM     13  C   UNL     1      20.758 -27.922  21.075  1.00  0.00     0.006 C 
BRANCH  13  14
ATOM     14  C   UNL     1      22.061 -27.216  20.680  1.00  0.00     0.053 C 
BRANCH  14  15
ATOM     15  C   UNL     1      22.369 -26.109  21.638  1.00  0.00     0.041 C 
ATOM     16  O   UNL     1      22.454 -24.921  21.226  1.00  0.00    -0.550 OA
ATOM     17  O   UNL     1      22.616 -26.393  22.975  1.00  0.00    -0.550 OA
ENDBRANCH  14  15
ENDBRANCH  13  14
ENDBRANCH  12  13
ENDBRANCH  11  12
ENDBRANCH  10  11
ENDBRANCH   9  10
ENDBRANCH   8   9
ENDBRANCH   7   8
ENDBRANCH   6   7
ENDBRANCH   5   6
ENDBRANCH   4   5
ENDBRANCH   3   4
ENDBRANCH   2   3
ENDBRANCH   1   2
BRANCH   1  18
ATOM     18  C   UNL     1      13.119 -31.557  20.572  1.00  0.00     0.000 C 
BRANCH  18  19
ATOM     19  C   UNL     1      14.088 -32.669  21.007  1.00  0.00     0.000 C 
BRANCH  19  20
ATOM     20  C   UNL     1      14.364 -33.681  19.882  1.00  0.00     0.000 C 
BRANCH  20  21
ATOM     21  C   UNL     1      15.412 -34.740  20.274  1.00  0.00     0.000 C 
BRANCH  21  22
ATOM     22  C   UNL     1      16.740 -34.666  19.496  1.00  0.00     0.000 C 
BRANCH  22  23
ATOM     23  C   UNL     1      17.816 -35.677  19.939  1.00  0.00     0.000 C 
BRANCH  23  24
ATOM     24  C   UNL     1      17.654 -36.213  21.375  1.00  0.00    -0.000 C 
BRANCH  24  25
ATOM     25  C   UNL     1      18.159 -35.267  22.479  1.00  0.00    -0.000 C 
BRANCH  25  26
ATOM     26  C   UNL     1      17.370 -35.408  23.792  1.00  0.00    -0.000 C 
BRANCH  26  27
ATOM     27  C   UNL     1      16.131 -34.499  23.836  1.00  0.00    -0.000 C 
BRANCH  27  28
ATOM     28  C   UNL     1      16.459 -33.082  24.329  1.00  0.00    -0.000 C 
BRANCH  28  29
ATOM     29  C   UNL     1      17.529 -33.118  25.426  1.00  0.00    -0.000 C 
BRANCH  29  30
ATOM     30  C   UNL     1      18.546 -31.985  25.242  1.00  0.00    -0.000 C 
BRANCH  30  31
ATOM     31  C   UNL     1      19.934 -32.406  25.736  1.00  0.00    -0.003 C 
ATOM     32  C   UNL     1      20.396 -33.690  25.055  1.00  0.00     0.004 C 
ENDBRANCH  30  31
ENDBRANCH  29  30
ENDBRANCH  28  29
ENDBRANCH  27  28
ENDBRANCH  26  27
ENDBRANCH  25  26
ENDBRANCH  24  25
ENDBRANCH  23  24
ENDBRANCH  22  23
ENDBRANCH  21  22
ENDBRANCH  20  21
ENDBRANCH  19  20
ENDBRANCH  18  19
ENDBRANCH   1  18
TORSDOF 28
ENDMDL
MODEL 6
REMARK VINA RESULT:    -4.876      2.767      6.346
REMARK INTER + INTRA:         -18.481
REMARK INTER:                 -12.969
REMARK INTRA:                  -5.513
REMARK UNBOUND:                -5.625
REMARK SMILES CCCCCCCCCCCCCCCCCCCCCCCCCCCCCC(=O)[O-]
REMARK SMILES IDX 16 1 17 2 18 3 19 4 20 5 21 6 22 7 23 8 24 9 25 10 26 11
REMARK SMILES IDX 27 12 28 13 29 14 30 15 31 16 32 17 15 18 14 19 13 20 12 21
REMARK SMILES IDX 11 22 10 23 9 24 8 25 7 26 6 27 5 28 4 29 3 30 2 31 1 32
REMARK H PARENT
REMARK Flexibility Score: inf
ROOT
ATOM      1  C   UNL     1      18.795 -33.199  20.804  1.00  0.00     0.000 C 
ENDROOT
BRANCH   1   2
ATOM      2  C   UNL     1      17.684 -33.270  19.750  1.00  0.00     0.000 C 
BRANCH   2   3
ATOM      3  C   UNL     1      17.823 -34.528  18.884  1.00  0.00     0.000 C 
BRANCH   3   4
ATOM      4  C   UNL     1      16.989 -35.683  19.450  1.00  0.00     0.000 C 
BRANCH   4   5
ATOM      5  C   UNL     1      17.869 -36.908  19.741  1.00  0.00     0.000 C 
BRANCH   5   6
ATOM      6  C   UNL     1      17.816 -37.336  21.216  1.00  0.00     0.000 C 
BRANCH   6   7
ATOM      7  C   UNL     1      18.789 -36.534  22.098  1.00  0.00     0.000 C 
BRANCH   7   8
ATOM      8  C   UNL     1      18.091 -35.879  23.300  1.00  0.00     0.000 C 
BRANCH   8   9
ATOM      9  C   UNL     1      19.085 -35.296  24.320  1.00  0.00     0.000 C 
BRANCH   9  10
ATOM     10  C   UNL     1      20.089 -34.322  23.680  1.00  0.00     0.000 C 
BRANCH  10  11
ATOM     11  C   UNL     1      20.341 -33.081  24.553  1.00  0.00     0.000 C 
BRANCH  11  12
ATOM     12  C   UNL     1      19.337 -32.957  25.711  1.00  0.00     0.000 C 
BRANCH  12  13
ATOM     13  C   UNL     1      19.774 -31.949  26.797  1.00  0.00     0.006 C 
BRANCH  13  14
ATOM     14  C   UNL     1      19.105 -30.581  26.616  1.00  0.00     0.053 C 
BRANCH  14  15
ATOM     15  C   UNL     1      19.592 -29.618  27.653  1.00  0.00     0.041 C 
ATOM     16  O   UNL     1      20.822 -29.531  27.907  1.00  0.00    -0.550 OA
ATOM     17  O   UNL     1      18.683 -28.858  28.378  1.00  0.00    -0.550 OA
ENDBRANCH  14  15
ENDBRANCH  13  14
ENDBRANCH  12  13
ENDBRANCH  11  12
ENDBRANCH  10  11
ENDBRANCH   9  10
ENDBRANCH   8   9
ENDBRANCH   7   8
ENDBRANCH   6   7
ENDBRANCH   5   6
ENDBRANCH   4   5
ENDBRANCH   3   4
ENDBRANCH   2   3
ENDBRANCH   1   2
BRANCH   1  18
ATOM     18  C   UNL     1      19.114 -31.741  21.169  1.00  0.00     0.000 C 
BRANCH  18  19
ATOM     19  C   UNL     1      17.988 -30.771  20.774  1.00  0.00     0.000 C 
BRANCH  19  20
ATOM     20  C   UNL     1      17.429 -29.998  21.981  1.00  0.00     0.000 C 
BRANCH  20  21
ATOM     21  C   UNL     1      17.752 -30.674  23.326  1.00  0.00     0.000 C 
BRANCH  21  22
ATOM     22  C   UNL     1      16.565 -31.386  24.003  1.00  0.00     0.000 C 
BRANCH  22  23
ATOM     23  C   UNL     1      16.429 -32.886  23.676  1.00  0.00     0.000 C 
BRANCH  23  24
ATOM     24  C   UNL     1      15.013 -33.339  23.268  1.00  0.00    -0.000 C 
BRANCH  24  25
ATOM     25  C   UNL     1      14.897 -33.881  21.832  1.00  0.00    -0.000 C 
BRANCH  25  26
ATOM     26  C   UNL     1      14.183 -32.902  20.883  1.00  0.00    -0.000 C 
BRANCH  26  27
ATOM     27  C   UNL     1      13.559 -31.710  21.625  1.00  0.00    -0.000 C 
BRANCH  27  28
ATOM     28  C   UNL     1      14.233 -30.377  21.268  1.00  0.00    -0.000 C 
BRANCH  28  29
ATOM     29  C   UNL     1      13.747 -29.255  22.192  1.00  0.00    -0.000 C 
BRANCH  29  30
ATOM     30  C   UNL     1      13.440 -29.790  23.596  1.00  0.00    -0.000 C 
BRANCH  30  31
ATOM     31  C   UNL     1      12.374 -28.936  24.290  1.00  0.00    -0.003 C 
ATOM     32  C   UNL     1      12.929 -27.571  24.682  1.00  0.00     0.004 C 
ENDBRANCH  30  31
ENDBRANCH  29  30
ENDBRANCH  28  29
ENDBRANCH  27  28
ENDBRANCH  26  27
ENDBRANCH  25  26
ENDBRANCH  24  25
ENDBRANCH  23  24
ENDBRANCH  22  23
ENDBRANCH  21  22
ENDBRANCH  20  21
ENDBRANCH  19  20
ENDBRANCH  18  19
ENDBRANCH   1  18
TORSDOF 28
ENDMDL
MODEL 7
REMARK VINA RESULT:    -4.861      3.122      6.135
REMARK INTER + INTRA:         -18.443
REMARK INTER:                 -12.427
REMARK INTRA:                  -6.016
REMARK UNBOUND:                -5.625
REMARK SMILES CCCCCCCCCCCCCCCCCCCCCCCCCCCCCC(=O)[O-]
REMARK SMILES IDX 16 1 17 2 18 3 19 4 20 5 21 6 22 7 23 8 24 9 25 10 26 11
REMARK SMILES IDX 27 12 28 13 29 14 30 15 31 16 32 17 15 18 14 19 13 20 12 21
REMARK SMILES IDX 11 22 10 23 9 24 8 25 7 26 6 27 5 28 4 29 3 30 2 31 1 32
REMARK H PARENT
REMARK Flexibility Score: inf
ROOT
ATOM      1  C   UNL     1      18.715 -33.057  20.922  1.00  0.00     0.000 C 
ENDROOT
BRANCH   1   2
ATOM      2  C   UNL     1      18.901 -31.545  21.100  1.00  0.00     0.000 C 
BRANCH   2   3
ATOM      3  C   UNL     1      17.727 -30.931  21.872  1.00  0.00     0.000 C 
BRANCH   3   4
ATOM      4  C   UNL     1      18.013 -30.897  23.378  1.00  0.00     0.000 C 
BRANCH   4   5
ATOM      5  C   UNL     1      16.915 -31.630  24.165  1.00  0.00     0.000 C 
BRANCH   5   6
ATOM      6  C   UNL     1      17.250 -33.110  24.404  1.00  0.00     0.000 C 
BRANCH   6   7
ATOM      7  C   UNL     1      15.992 -33.993  24.484  1.00  0.00     0.000 C 
BRANCH   7   8
ATOM      8  C   UNL     1      14.886 -33.529  23.524  1.00  0.00     0.000 C 
BRANCH   8   9
ATOM      9  C   UNL     1      15.154 -33.940  22.065  1.00  0.00     0.000 C 
BRANCH   9  10
ATOM     10  C   UNL     1      14.588 -32.931  21.051  1.00  0.00     0.000 C 
BRANCH  10  11
ATOM     11  C   UNL     1      13.684 -31.878  21.713  1.00  0.00     0.000 C 
BRANCH  11  12
ATOM     12  C   UNL     1      14.110 -30.438  21.385  1.00  0.00     0.000 C 
BRANCH  12  13
ATOM     13  C   UNL     1      14.449 -29.597  22.635  1.00  0.00     0.006 C 
BRANCH  13  14
ATOM     14  C   UNL     1      13.474 -29.861  23.789  1.00  0.00     0.053 C 
BRANCH  14  15
ATOM     15  C   UNL     1      12.499 -28.733  23.920  1.00  0.00     0.041 C 
ATOM     16  O   UNL     1      11.628 -28.544  23.030  1.00  0.00    -0.550 OA
ATOM     17  O   UNL     1      12.586 -27.858  24.995  1.00  0.00    -0.550 OA
ENDBRANCH  14  15
ENDBRANCH  13  14
ENDBRANCH  12  13
ENDBRANCH  11  12
ENDBRANCH  10  11
ENDBRANCH   9  10
ENDBRANCH   8   9
ENDBRANCH   7   8
ENDBRANCH   6   7
ENDBRANCH   5   6
ENDBRANCH   4   5
ENDBRANCH   3   4
ENDBRANCH   2   3
ENDBRANCH   1   2
BRANCH   1  18
ATOM     18  C   UNL     1      17.905 -33.364  19.653  1.00  0.00     0.000 C 
BRANCH  18  19
ATOM     19  C   UNL     1      18.138 -34.792  19.133  1.00  0.00     0.000 C 
BRANCH  19  20
ATOM     20  C   UNL     1      16.881 -35.672  19.249  1.00  0.00     0.000 C 
BRANCH  20  21
ATOM     21  C   UNL     1      17.072 -36.866  20.203  1.00  0.00     0.000 C 
BRANCH  21  22
ATOM     22  C   UNL     1      18.353 -36.820  21.060  1.00  0.00     0.000 C 
BRANCH  22  23
ATOM     23  C   UNL     1      18.159 -36.302  22.499  1.00  0.00     0.000 C 
BRANCH  23  24
ATOM     24  C   UNL     1      19.382 -36.470  23.422  1.00  0.00    -0.000 C 
BRANCH  24  25
ATOM     25  C   UNL     1      20.740 -36.188  22.755  1.00  0.00    -0.000 C 
BRANCH  25  26
ATOM     26  C   UNL     1      21.172 -34.716  22.884  1.00  0.00    -0.000 C 
BRANCH  26  27
ATOM     27  C   UNL     1      20.734 -34.088  24.216  1.00  0.00    -0.000 C 
BRANCH  27  28
ATOM     28  C   UNL     1      21.174 -32.623  24.349  1.00  0.00    -0.000 C 
BRANCH  28  29
ATOM     29  C   UNL     1      21.950 -32.171  23.107  1.00  0.00    -0.000 C 
BRANCH  29  30
ATOM     30  C   UNL     1      23.287 -31.526  23.496  1.00  0.00    -0.000 C 
BRANCH  30  31
ATOM     31  C   UNL     1      24.357 -32.592  23.752  1.00  0.00    -0.003 C 
ATOM     32  C   UNL     1      25.118 -32.929  22.474  1.00  0.00     0.004 C 
ENDBRANCH  30  31
ENDBRANCH  29  30
ENDBRANCH  28  29
ENDBRANCH  27  28
ENDBRANCH  26  27
ENDBRANCH  25  26
ENDBRANCH  24  25
ENDBRANCH  23  24
ENDBRANCH  22  23
ENDBRANCH  21  22
ENDBRANCH  20  21
ENDBRANCH  19  20
ENDBRANCH  18  19
ENDBRANCH   1  18
TORSDOF 28
ENDMDL
MODEL 8
REMARK VINA RESULT:    -4.852      2.610      5.175
REMARK INTER + INTRA:         -18.419
REMARK INTER:                 -12.044
REMARK INTRA:                  -6.375
REMARK UNBOUND:                -5.625
REMARK SMILES CCCCCCCCCCCCCCCCCCCCCCCCCCCCCC(=O)[O-]
REMARK SMILES IDX 16 1 17 2 18 3 19 4 20 5 21 6 22 7 23 8 24 9 25 10 26 11
REMARK SMILES IDX 27 12 28 13 29 14 30 15 31 16 32 17 15 18 14 19 13 20 12 21
REMARK SMILES IDX 11 22 10 23 9 24 8 25 7 26 6 27 5 28 4 29 3 30 2 31 1 32
REMARK H PARENT
REMARK Flexibility Score: inf
ROOT
ATOM      1  C   UNL     1      18.449 -33.092  20.427  1.00  0.00     0.000 C 
ENDROOT
BRANCH   1   2
ATOM      2  C   UNL     1      17.837 -33.938  19.303  1.00  0.00     0.000 C 
BRANCH   2   3
ATOM      3  C   UNL     1      18.387 -35.370  19.329  1.00  0.00     0.000 C 
BRANCH   3   4
ATOM      4  C   UNL     1      17.266 -36.387  19.571  1.00  0.00     0.000 C 
BRANCH   4   5
ATOM      5  C   UNL     1      17.641 -37.363  20.698  1.00  0.00     0.000 C 
BRANCH   5   6
ATOM      6  C   UNL     1      18.042 -36.641  21.994  1.00  0.00     0.000 C 
BRANCH   6   7
ATOM      7  C   UNL     1      19.178 -37.360  22.743  1.00  0.00     0.000 C 
BRANCH   7   8
ATOM      8  C   UNL     1      20.518 -36.617  22.632  1.00  0.00     0.000 C 
BRANCH   8   9
ATOM      9  C   UNL     1      20.438 -35.167  23.142  1.00  0.00     0.000 C 
BRANCH   9  10
ATOM     10  C   UNL     1      21.099 -34.984  24.518  1.00  0.00     0.000 C 
BRANCH  10  11
ATOM     11  C   UNL     1      20.880 -33.573  25.091  1.00  0.00     0.000 C 
BRANCH  11  12
ATOM     12  C   UNL     1      20.664 -32.515  23.997  1.00  0.00     0.000 C 
BRANCH  12  13
ATOM     13  C   UNL     1      20.278 -31.126  24.553  1.00  0.00     0.006 C 
BRANCH  13  14
ATOM     14  C   UNL     1      20.978 -30.823  25.882  1.00  0.00     0.053 C 
BRANCH  14  15
ATOM     15  C   UNL     1      19.977 -30.699  26.987  1.00  0.00     0.041 C 
ATOM     16  O   UNL     1      18.745 -30.768  26.734  1.00  0.00    -0.550 OA
ATOM     17  O   UNL     1      20.400 -30.453  28.287  1.00  0.00    -0.550 OA
ENDBRANCH  14  15
ENDBRANCH  13  14
ENDBRANCH  12  13
ENDBRANCH  11  12
ENDBRANCH  10  11
ENDBRANCH   9  10
ENDBRANCH   8   9
ENDBRANCH   7   8
ENDBRANCH   6   7
ENDBRANCH   5   6
ENDBRANCH   4   5
ENDBRANCH   3   4
ENDBRANCH   2   3
ENDBRANCH   1   2
BRANCH   1  18
ATOM     18  C   UNL     1      17.774 -31.714  20.505  1.00  0.00     0.000 C 
BRANCH  18  19
ATOM     19  C   UNL     1      18.252 -30.887  21.710  1.00  0.00     0.000 C 
BRANCH  19  20
ATOM     20  C   UNL     1      17.321 -29.701  22.016  1.00  0.00     0.000 C 
BRANCH  20  21
ATOM     21  C   UNL     1      16.351 -29.987  23.177  1.00  0.00     0.000 C 
BRANCH  21  22
ATOM     22  C   UNL     1      14.857 -29.805  22.842  1.00  0.00     0.000 C 
BRANCH  22  23
ATOM     23  C   UNL     1      14.344 -30.650  21.659  1.00  0.00     0.000 C 
BRANCH  23  24
ATOM     24  C   UNL     1      13.953 -32.098  22.014  1.00  0.00    -0.000 C 
BRANCH  24  25
ATOM     25  C   UNL     1      14.603 -33.178  21.130  1.00  0.00    -0.000 C 
BRANCH  25  26
ATOM     26  C   UNL     1      15.324 -34.263  21.950  1.00  0.00    -0.000 C 
BRANCH  26  27
ATOM     27  C   UNL     1      15.483 -33.877  23.429  1.00  0.00    -0.000 C 
BRANCH  27  28
ATOM     28  C   UNL     1      16.943 -33.590  23.809  1.00  0.00    -0.000 C 
BRANCH  28  29
ATOM     29  C   UNL     1      17.226 -34.019  25.252  1.00  0.00    -0.000 C 
BRANCH  29  30
ATOM     30  C   UNL     1      16.827 -35.482  25.482  1.00  0.00    -0.000 C 
BRANCH  30  31
ATOM     31  C   UNL     1      18.012 -36.301  26.001  1.00  0.00    -0.003 C 
ATOM     32  C   UNL     1      17.573 -37.697  26.432  1.00  0.00     0.004 C 
ENDBRANCH  30  31
ENDBRANCH  29  30
ENDBRANCH  28  29
ENDBRANCH  27  28
ENDBRANCH  26  27
ENDBRANCH  25  26
ENDBRANCH  24  25
ENDBRANCH  23  24
ENDBRANCH  22  23
ENDBRANCH  21  22
ENDBRANCH  20  21
ENDBRANCH  19  20
ENDBRANCH  18  19
ENDBRANCH   1  18
TORSDOF 28
ENDMDL
MODEL 9
REMARK VINA RESULT:    -4.786      1.471      2.859
REMARK INTER + INTRA:         -18.245
REMARK INTER:                 -13.413
REMARK INTRA:                  -4.832
REMARK UNBOUND:                -5.625
REMARK SMILES CCCCCCCCCCCCCCCCCCCCCCCCCCCCCC(=O)[O-]
REMARK SMILES IDX 16 1 17 2 18 3 19 4 20 5 21 6 22 7 23 8 24 9 25 10 26 11
REMARK SMILES IDX 27 12 28 13 29 14 30 15 31 16 32 17 15 18 14 19 13 20 12 21
REMARK SMILES IDX 11 22 10 23 9 24 8 25 7 26 6 27 5 28 4 29 3 30 2 31 1 32
REMARK H PARENT
REMARK Flexibility Score: inf
ROOT
ATOM      1  C   UNL     1      15.946 -29.187  21.669  1.00  0.00     0.000 C 
ENDROOT
BRANCH   1   2
ATOM      2  C   UNL     1      17.109 -30.057  22.159  1.00  0.00     0.000 C 
BRANCH   2   3
ATOM      3  C   UNL     1      17.654 -30.939  21.029  1.00  0.00     0.000 C 
BRANCH   3   4
ATOM      4  C   UNL     1      17.986 -32.347  21.539  1.00  0.00     0.000 C 
BRANCH   4   5
ATOM      5  C   UNL     1      19.504 -32.586  21.547  1.00  0.00     0.000 C 
BRANCH   5   6
ATOM      6  C   UNL     1      20.168 -32.120  22.852  1.00  0.00     0.000 C 
BRANCH   6   7
ATOM      7  C   UNL     1      21.559 -31.506  22.620  1.00  0.00     0.000 C 
BRANCH   7   8
ATOM      8  C   UNL     1      21.710 -30.127  23.282  1.00  0.00     0.000 C 
BRANCH   8   9
ATOM      9  C   UNL     1      21.750 -28.977  22.260  1.00  0.00     0.000 C 
BRANCH   9  10
ATOM     10  C   UNL     1      20.650 -29.095  21.191  1.00  0.00     0.000 C 
BRANCH  10  11
ATOM     11  C   UNL     1      20.134 -27.723  20.726  1.00  0.00     0.000 C 
BRANCH  11  12
ATOM     12  C   UNL     1      21.033 -26.563  21.187  1.00  0.00     0.000 C 
BRANCH  12  13
ATOM     13  C   UNL     1      21.393 -25.577  20.055  1.00  0.00     0.006 C 
BRANCH  13  14
ATOM     14  C   UNL     1      22.907 -25.487  19.829  1.00  0.00     0.053 C 
BRANCH  14  15
ATOM     15  C   UNL     1      23.458 -24.243  20.453  1.00  0.00     0.041 C 
ATOM     16  O   UNL     1      23.027 -23.852  21.569  1.00  0.00    -0.550 OA
ATOM     17  O   UNL     1      24.407 -23.487  19.777  1.00  0.00    -0.550 OA
ENDBRANCH  14  15
ENDBRANCH  13  14
ENDBRANCH  12  13
ENDBRANCH  11  12
ENDBRANCH  10  11
ENDBRANCH   9  10
ENDBRANCH   8   9
ENDBRANCH   7   8
ENDBRANCH   6   7
ENDBRANCH   5   6
ENDBRANCH   4   5
ENDBRANCH   3   4
ENDBRANCH   2   3
ENDBRANCH   1   2
BRANCH   1  18
ATOM     18  C   UNL     1      14.709 -29.368  22.561  1.00  0.00     0.000 C 
BRANCH  18  19
ATOM     19  C   UNL     1      14.818 -30.594  23.483  1.00  0.00     0.000 C 
BRANCH  19  20
ATOM     20  C   UNL     1      13.863 -31.727  23.069  1.00  0.00     0.000 C 
BRANCH  20  21
ATOM     21  C   UNL     1      14.601 -32.955  22.504  1.00  0.00     0.000 C 
BRANCH  21  22
ATOM     22  C   UNL     1      14.515 -33.123  20.973  1.00  0.00     0.000 C 
BRANCH  22  23
ATOM     23  C   UNL     1      14.998 -34.484  20.436  1.00  0.00     0.000 C 
BRANCH  23  24
ATOM     24  C   UNL     1      16.084 -34.406  19.345  1.00  0.00    -0.000 C 
BRANCH  24  25
ATOM     25  C   UNL     1      17.087 -35.573  19.346  1.00  0.00    -0.000 C 
BRANCH  25  26
ATOM     26  C   UNL     1      17.222 -36.240  20.727  1.00  0.00    -0.000 C 
BRANCH  26  27
ATOM     27  C   UNL     1      18.632 -36.091  21.319  1.00  0.00    -0.000 C 
BRANCH  27  28
ATOM     28  C   UNL     1      18.629 -36.093  22.855  1.00  0.00    -0.000 C 
BRANCH  28  29
ATOM     29  C   UNL     1      17.360 -35.427  23.399  1.00  0.00    -0.000 C 
BRANCH  29  30
ATOM     30  C   UNL     1      17.274 -35.570  24.924  1.00  0.00    -0.000 C 
BRANCH  30  31
ATOM     31  C   UNL     1      17.801 -34.314  25.625  1.00  0.00    -0.003 C 
ATOM     32  C   UNL     1      17.290 -33.047  24.946  1.00  0.00     0.004 C 
ENDBRANCH  30  31
ENDBRANCH  29  30
ENDBRANCH  28  29
ENDBRANCH  27  28
ENDBRANCH  26  27
ENDBRANCH  25  26
ENDBRANCH  24  25
ENDBRANCH  23  24
ENDBRANCH  22  23
ENDBRANCH  21  22
ENDBRANCH  20  21
ENDBRANCH  19  20
ENDBRANCH  18  19
ENDBRANCH   1  18
TORSDOF 28
ENDMDL
