MODEL 1
REMARK VINA RESULT:    -5.548      0.000      0.000
REMARK INTER + INTRA:         -15.281
REMARK INTER:                 -12.036
REMARK INTRA:                  -3.245
REMARK UNBOUND:                -3.245
REMARK SMILES CCCCCCCCCCCCCCCCCCCCCC(=O)[O-]
REMARK SMILES IDX 12 1 11 2 10 3 9 4 8 5 7 6 6 7 5 8 4 9 3 10 2 11 1 12 13 13
REMARK SMILES IDX 14 14 15 15 16 16 17 17 18 18 19 19 20 20 21 21 22 22 23 23
REMARK SMILES IDX 24 24
REMARK H PARENT
REMARK Flexibility Score: inf
ROOT
ATOM      1  C   UNL     1     114.780 -78.962  22.468  1.00  0.00     0.000 C 
ENDROOT
BRANCH   1   2
ATOM      2  C   UNL     1     114.867 -77.606  21.747  1.00  0.00     0.000 C 
BRANCH   2   3
ATOM      3  C   UNL     1     114.961 -76.415  22.720  1.00  0.00     0.000 C 
BRANCH   3   4
ATOM      4  C   UNL     1     115.058 -76.790  24.212  1.00  0.00    -0.000 C 
BRANCH   4   5
ATOM      5  C   UNL     1     116.466 -76.674  24.828  1.00  0.00    -0.000 C 
BRANCH   5   6
ATOM      6  C   UNL     1     116.923 -77.906  25.630  1.00  0.00    -0.000 C 
BRANCH   6   7
ATOM      7  C   UNL     1     118.319 -78.402  25.214  1.00  0.00    -0.000 C 
BRANCH   7   8
ATOM      8  C   UNL     1     118.919 -77.579  24.063  1.00  0.00    -0.000 C 
BRANCH   8   9
ATOM      9  C   UNL     1     120.270 -76.944  24.433  1.00  0.00    -0.000 C 
BRANCH   9  10
ATOM     10  C   UNL     1     120.117 -75.637  25.234  1.00  0.00    -0.000 C 
BRANCH  10  11
ATOM     11  C   UNL     1     120.426 -75.756  26.736  1.00  0.00    -0.003 C 
ATOM     12  C   UNL     1     119.186 -75.608  27.615  1.00  0.00     0.004 C 
ENDBRANCH  10  11
ENDBRANCH   9  10
ENDBRANCH   8   9
ENDBRANCH   7   8
ENDBRANCH   6   7
ENDBRANCH   5   6
ENDBRANCH   4   5
ENDBRANCH   3   4
ENDBRANCH   2   3
ENDBRANCH   1   2
BRANCH   1  13
ATOM     13  C   UNL     1     116.124 -79.709  22.496  1.00  0.00     0.000 C 
BRANCH  13  14
ATOM     14  C   UNL     1     117.007 -79.517  21.248  1.00  0.00     0.000 C 
BRANCH  14  15
ATOM     15  C   UNL     1     118.391 -80.196  21.311  1.00  0.00     0.000 C 
BRANCH  15  16
ATOM     16  C   UNL     1     118.562 -81.223  22.446  1.00  0.00     0.000 C 
BRANCH  16  17
ATOM     17  C   UNL     1     118.895 -82.655  21.985  1.00  0.00     0.000 C 
BRANCH  17  18
ATOM     18  C   UNL     1     117.823 -83.280  21.069  1.00  0.00     0.000 C 
BRANCH  18  19
ATOM     19  C   UNL     1     116.430 -83.311  21.725  1.00  0.00     0.000 C 
BRANCH  19  20
ATOM     20  C   UNL     1     115.321 -82.861  20.761  1.00  0.00     0.006 C 
BRANCH  20  21
ATOM     21  C   UNL     1     114.092 -83.780  20.810  1.00  0.00     0.053 C 
BRANCH  21  22
ATOM     22  C   UNL     1     112.895 -83.037  21.320  1.00  0.00     0.041 C 
ATOM     23  O   UNL     1     112.594 -81.909  20.843  1.00  0.00    -0.550 OA
ATOM     24  O   UNL     1     112.120 -83.584  22.335  1.00  0.00    -0.550 OA
ENDBRANCH  21  22
ENDBRANCH  20  21
ENDBRANCH  19  20
ENDBRANCH  18  19
ENDBRANCH  17  18
ENDBRANCH  16  17
ENDBRANCH  15  16
ENDBRANCH  14  15
ENDBRANCH  13  14
ENDBRANCH   1  13
TORSDOF 20
ENDMDL
MODEL 2
REMARK VINA RESULT:    -5.539      9.263     12.647
REMARK INTER + INTRA:         -15.259
REMARK INTER:                 -12.164
REMARK INTRA:                  -3.095
REMARK UNBOUND:                -3.245
REMARK SMILES CCCCCCCCCCCCCCCCCCCCCC(=O)[O-]
REMARK SMILES IDX 12 1 11 2 10 3 9 4 8 5 7 6 6 7 5 8 4 9 3 10 2 11 1 12 13 13
REMARK SMILES IDX 14 14 15 15 16 16 17 17 18 18 19 19 20 20 21 21 22 22 23 23
REMARK SMILES IDX 24 24
REMARK H PARENT
REMARK Flexibility Score: inf
ROOT
ATOM      1  C   UNL     1     106.003 -82.285  19.203  1.00  0.00     0.000 C 
ENDROOT
BRANCH   1   2
ATOM      2  C   UNL     1     104.951 -83.401  19.312  1.00  0.00     0.000 C 
BRANCH   2   3
ATOM      3  C   UNL     1     103.506 -82.868  19.299  1.00  0.00     0.000 C 
BRANCH   3   4
ATOM      4  C   UNL     1     102.621 -83.336  20.472  1.00  0.00    -0.000 C 
BRANCH   4   5
ATOM      5  C   UNL     1     102.304 -82.258  21.526  1.00  0.00    -0.000 C 
BRANCH   5   6
ATOM      6  C   UNL     1     102.927 -82.508  22.912  1.00  0.00    -0.000 C 
BRANCH   6   7
ATOM      7  C   UNL     1     104.430 -82.183  22.957  1.00  0.00    -0.000 C 
BRANCH   7   8
ATOM      8  C   UNL     1     105.305 -83.446  23.007  1.00  0.00    -0.000 C 
BRANCH   8   9
ATOM      9  C   UNL     1     106.469 -83.318  24.005  1.00  0.00    -0.000 C 
BRANCH   9  10
ATOM     10  C   UNL     1     107.826 -83.717  23.395  1.00  0.00    -0.000 C 
BRANCH  10  11
ATOM     11  C   UNL     1     108.908 -82.626  23.450  1.00  0.00    -0.003 C 
ATOM     12  C   UNL     1     108.893 -81.832  24.754  1.00  0.00     0.004 C 
ENDBRANCH  10  11
ENDBRANCH   9  10
ENDBRANCH   8   9
ENDBRANCH   7   8
ENDBRANCH   6   7
ENDBRANCH   5   6
ENDBRANCH   4   5
ENDBRANCH   3   4
ENDBRANCH   2   3
ENDBRANCH   1   2
BRANCH   1  13
ATOM     13  C   UNL     1     105.381 -80.877  19.230  1.00  0.00     0.000 C 
BRANCH  13  14
ATOM     14  C   UNL     1     105.662 -80.061  20.506  1.00  0.00     0.000 C 
BRANCH  14  15
ATOM     15  C   UNL     1     107.067 -80.256  21.114  1.00  0.00     0.000 C 
BRANCH  15  16
ATOM     16  C   UNL     1     107.634 -79.028  21.851  1.00  0.00     0.000 C 
BRANCH  16  17
ATOM     17  C   UNL     1     108.692 -78.228  21.067  1.00  0.00     0.000 C 
BRANCH  17  18
ATOM     18  C   UNL     1     108.622 -76.705  21.302  1.00  0.00     0.000 C 
BRANCH  18  19
ATOM     19  C   UNL     1     107.218 -76.130  21.043  1.00  0.00     0.000 C 
BRANCH  19  20
ATOM     20  C   UNL     1     106.892 -76.040  19.544  1.00  0.00     0.006 C 
BRANCH  20  21
ATOM     21  C   UNL     1     105.624 -76.822  19.171  1.00  0.00     0.053 C 
BRANCH  21  22
ATOM     22  C   UNL     1     104.423 -76.242  19.852  1.00  0.00     0.041 C 
ATOM     23  O   UNL     1     103.567 -76.997  20.388  1.00  0.00    -0.550 OA
ATOM     24  O   UNL     1     104.240 -74.865  19.884  1.00  0.00    -0.550 OA
ENDBRANCH  21  22
ENDBRANCH  20  21
ENDBRANCH  19  20
ENDBRANCH  18  19
ENDBRANCH  17  18
ENDBRANCH  16  17
ENDBRANCH  15  16
ENDBRANCH  14  15
ENDBRANCH  13  14
ENDBRANCH   1  13
TORSDOF 20
ENDMDL
MODEL 3
REMARK VINA RESULT:    -5.426      2.983      5.852
REMARK INTER + INTRA:         -15.016
REMARK INTER:                 -11.692
REMARK INTRA:                  -3.324
REMARK UNBOUND:                -3.245
REMARK SMILES CCCCCCCCCCCCCCCCCCCCCC(=O)[O-]
REMARK SMILES IDX 12 1 11 2 10 3 9 4 8 5 7 6 6 7 5 8 4 9 3 10 2 11 1 12 13 13
REMARK SMILES IDX 14 14 15 15 16 16 17 17 18 18 19 19 20 20 21 21 22 22 23 23
REMARK SMILES IDX 24 24
REMARK H PARENT
REMARK Flexibility Score: inf
ROOT
ATOM      1  C   UNL     1     112.423 -82.565  20.691  1.00  0.00     0.000 C 
ENDROOT
BRANCH   1   2
ATOM      2  C   UNL     1     111.768 -81.772  21.835  1.00  0.00     0.000 C 
BRANCH   2   3
ATOM      3  C   UNL     1     112.100 -80.268  21.789  1.00  0.00     0.000 C 
BRANCH   3   4
ATOM      4  C   UNL     1     112.098 -79.637  20.382  1.00  0.00    -0.000 C 
BRANCH   4   5
ATOM      5  C   UNL     1     113.387 -78.883  20.000  1.00  0.00    -0.000 C 
BRANCH   5   6
ATOM      6  C   UNL     1     114.687 -79.683  20.202  1.00  0.00    -0.000 C 
BRANCH   6   7
ATOM      7  C   UNL     1     115.713 -78.941  21.074  1.00  0.00    -0.000 C 
BRANCH   7   8
ATOM      8  C   UNL     1     115.628 -79.340  22.556  1.00  0.00    -0.000 C 
BRANCH   8   9
ATOM      9  C   UNL     1     115.402 -78.131  23.480  1.00  0.00    -0.000 C 
BRANCH   9  10
ATOM     10  C   UNL     1     114.057 -77.425  23.223  1.00  0.00    -0.000 C 
BRANCH  10  11
ATOM     11  C   UNL     1     114.150 -75.900  23.042  1.00  0.00    -0.003 C 
ATOM     12  C   UNL     1     113.259 -75.376  21.918  1.00  0.00     0.004 C 
ENDBRANCH  10  11
ENDBRANCH   9  10
ENDBRANCH   8   9
ENDBRANCH   7   8
ENDBRANCH   6   7
ENDBRANCH   5   6
ENDBRANCH   4   5
ENDBRANCH   3   4
ENDBRANCH   2   3
ENDBRANCH   1   2
BRANCH   1  13
ATOM     13  C   UNL     1     113.610 -83.421  21.164  1.00  0.00     0.000 C 
BRANCH  13  14
ATOM     14  C   UNL     1     114.928 -83.195  20.396  1.00  0.00     0.000 C 
BRANCH  14  15
ATOM     15  C   UNL     1     116.197 -83.711  21.104  1.00  0.00     0.000 C 
BRANCH  15  16
ATOM     16  C   UNL     1     116.878 -82.698  22.043  1.00  0.00     0.000 C 
BRANCH  16  17
ATOM     17  C   UNL     1     118.406 -82.581  21.877  1.00  0.00     0.000 C 
BRANCH  17  18
ATOM     18  C   UNL     1     118.862 -81.260  21.224  1.00  0.00     0.000 C 
BRANCH  18  19
ATOM     19  C   UNL     1     119.913 -80.516  22.067  1.00  0.00     0.000 C 
BRANCH  19  20
ATOM     20  C   UNL     1     119.333 -79.274  22.762  1.00  0.00     0.006 C 
BRANCH  20  21
ATOM     21  C   UNL     1     118.889 -79.561  24.204  1.00  0.00     0.053 C 
BRANCH  21  22
ATOM     22  C   UNL     1     118.719 -78.286  24.970  1.00  0.00     0.041 C 
ATOM     23  O   UNL     1     117.978 -78.250  25.990  1.00  0.00    -0.550 OA
ATOM     24  O   UNL     1     119.366 -77.131  24.549  1.00  0.00    -0.550 OA
ENDBRANCH  21  22
ENDBRANCH  20  21
ENDBRANCH  19  20
ENDBRANCH  18  19
ENDBRANCH  17  18
ENDBRANCH  16  17
ENDBRANCH  15  16
ENDBRANCH  14  15
ENDBRANCH  13  14
ENDBRANCH   1  13
TORSDOF 20
ENDMDL
MODEL 4
REMARK VINA RESULT:    -5.424      7.277     11.273
REMARK INTER + INTRA:         -15.012
REMARK INTER:                 -11.625
REMARK INTRA:                  -3.387
REMARK UNBOUND:                -3.245
REMARK SMILES CCCCCCCCCCCCCCCCCCCCCC(=O)[O-]
REMARK SMILES IDX 12 1 11 2 10 3 9 4 8 5 7 6 6 7 5 8 4 9 3 10 2 11 1 12 13 13
REMARK SMILES IDX 14 14 15 15 16 16 17 17 18 18 19 19 20 20 21 21 22 22 23 23
REMARK SMILES IDX 24 24
REMARK H PARENT
REMARK Flexibility Score: inf
ROOT
ATOM      1  C   UNL     1     104.658 -81.131  20.948  1.00  0.00     0.000 C 
ENDROOT
BRANCH   1   2
ATOM      2  C   UNL     1     105.971 -81.542  20.260  1.00  0.00     0.000 C 
BRANCH   2   3
ATOM      3  C   UNL     1     107.215 -80.922  20.925  1.00  0.00     0.000 C 
BRANCH   3   4
ATOM      4  C   UNL     1     106.928 -79.989  22.118  1.00  0.00    -0.000 C 
BRANCH   4   5
ATOM      5  C   UNL     1     107.913 -78.816  22.287  1.00  0.00    -0.000 C 
BRANCH   5   6
ATOM      6  C   UNL     1     108.649 -78.402  20.999  1.00  0.00    -0.000 C 
BRANCH   6   7
ATOM      7  C   UNL     1     108.288 -76.979  20.539  1.00  0.00    -0.000 C 
BRANCH   7   8
ATOM      8  C   UNL     1     106.815 -76.629  20.805  1.00  0.00    -0.000 C 
BRANCH   8   9
ATOM      9  C   UNL     1     105.908 -76.941  19.603  1.00  0.00    -0.000 C 
BRANCH   9  10
ATOM     10  C   UNL     1     104.584 -77.614  20.012  1.00  0.00    -0.000 C 
BRANCH  10  11
ATOM     11  C   UNL     1     103.492 -76.651  20.507  1.00  0.00    -0.003 C 
ATOM     12  C   UNL     1     103.439 -75.347  19.714  1.00  0.00     0.004 C 
ENDBRANCH  10  11
ENDBRANCH   9  10
ENDBRANCH   8   9
ENDBRANCH   7   8
ENDBRANCH   6   7
ENDBRANCH   5   6
ENDBRANCH   4   5
ENDBRANCH   3   4
ENDBRANCH   2   3
ENDBRANCH   1   2
BRANCH   1  13
ATOM     13  C   UNL     1     103.932 -82.320  21.602  1.00  0.00     0.000 C 
BRANCH  13  14
ATOM     14  C   UNL     1     104.437 -82.703  23.007  1.00  0.00     0.000 C 
BRANCH  14  15
ATOM     15  C   UNL     1     105.140 -84.072  23.101  1.00  0.00     0.000 C 
BRANCH  15  16
ATOM     16  C   UNL     1     106.545 -84.042  23.730  1.00  0.00     0.000 C 
BRANCH  16  17
ATOM     17  C   UNL     1     106.730 -83.013  24.863  1.00  0.00     0.000 C 
BRANCH  17  18
ATOM     18  C   UNL     1     108.066 -82.245  24.795  1.00  0.00     0.000 C 
BRANCH  18  19
ATOM     19  C   UNL     1     108.973 -82.735  23.653  1.00  0.00     0.000 C 
BRANCH  19  20
ATOM     20  C   UNL     1     110.289 -81.945  23.571  1.00  0.00     0.006 C 
BRANCH  20  21
ATOM     21  C   UNL     1     110.876 -81.927  22.152  1.00  0.00     0.053 C 
BRANCH  21  22
ATOM     22  C   UNL     1     111.411 -80.569  21.817  1.00  0.00     0.041 C 
ATOM     23  O   UNL     1     111.520 -79.688  22.713  1.00  0.00    -0.550 OA
ATOM     24  O   UNL     1     111.777 -80.269  20.511  1.00  0.00    -0.550 OA
ENDBRANCH  21  22
ENDBRANCH  20  21
ENDBRANCH  19  20
ENDBRANCH  18  19
ENDBRANCH  17  18
ENDBRANCH  16  17
ENDBRANCH  15  16
ENDBRANCH  14  15
ENDBRANCH  13  14
ENDBRANCH   1  13
TORSDOF 20
ENDMDL
MODEL 5
REMARK VINA RESULT:    -5.405      8.581     12.402
REMARK INTER + INTRA:         -14.969
REMARK INTER:                 -12.026
REMARK INTRA:                  -2.943
REMARK UNBOUND:                -3.245
REMARK SMILES CCCCCCCCCCCCCCCCCCCCCC(=O)[O-]
REMARK SMILES IDX 12 1 11 2 10 3 9 4 8 5 7 6 6 7 5 8 4 9 3 10 2 11 1 12 13 13
REMARK SMILES IDX 14 14 15 15 16 16 17 17 18 18 19 19 20 20 21 21 22 22 23 23
REMARK SMILES IDX 24 24
REMARK H PARENT
REMARK Flexibility Score: inf
ROOT
ATOM      1  C   UNL     1     109.688 -81.532  24.906  1.00  0.00     0.000 C 
ENDROOT
BRANCH   1   2
ATOM      2  C   UNL     1     108.561 -81.917  25.878  1.00  0.00     0.000 C 
BRANCH   2   3
ATOM      3  C   UNL     1     107.169 -81.901  25.219  1.00  0.00     0.000 C 
BRANCH   3   4
ATOM      4  C   UNL     1     106.555 -83.289  24.945  1.00  0.00    -0.000 C 
BRANCH   4   5
ATOM      5  C   UNL     1     105.740 -83.400  23.642  1.00  0.00    -0.000 C 
BRANCH   5   6
ATOM      6  C   UNL     1     105.075 -82.089  23.183  1.00  0.00    -0.000 C 
BRANCH   6   7
ATOM      7  C   UNL     1     103.611 -82.283  22.755  1.00  0.00    -0.000 C 
BRANCH   7   8
ATOM      8  C   UNL     1     103.395 -82.026  21.255  1.00  0.00    -0.000 C 
BRANCH   8   9
ATOM      9  C   UNL     1     103.262 -83.328  20.446  1.00  0.00    -0.000 C 
BRANCH   9  10
ATOM     10  C   UNL     1     104.565 -83.719  19.725  1.00  0.00    -0.000 C 
BRANCH  10  11
ATOM     11  C   UNL     1     105.610 -82.596  19.617  1.00  0.00    -0.003 C 
ATOM     12  C   UNL     1     105.511 -81.810  18.311  1.00  0.00     0.004 C 
ENDBRANCH  10  11
ENDBRANCH   9  10
ENDBRANCH   8   9
ENDBRANCH   7   8
ENDBRANCH   6   7
ENDBRANCH   5   6
ENDBRANCH   4   5
ENDBRANCH   3   4
ENDBRANCH   2   3
ENDBRANCH   1   2
BRANCH   1  13
ATOM     13  C   UNL     1     109.489 -82.125  23.500  1.00  0.00     0.000 C 
BRANCH  13  14
ATOM     14  C   UNL     1     109.608 -81.116  22.340  1.00  0.00     0.000 C 
BRANCH  14  15
ATOM     15  C   UNL     1     108.325 -80.919  21.508  1.00  0.00     0.000 C 
BRANCH  15  16
ATOM     16  C   UNL     1     107.509 -79.660  21.856  1.00  0.00     0.000 C 
BRANCH  16  17
ATOM     17  C   UNL     1     108.307 -78.536  22.544  1.00  0.00     0.000 C 
BRANCH  17  18
ATOM     18  C   UNL     1     108.037 -77.133  21.962  1.00  0.00     0.000 C 
BRANCH  18  19
ATOM     19  C   UNL     1     108.451 -77.016  20.484  1.00  0.00     0.000 C 
BRANCH  19  20
ATOM     20  C   UNL     1     107.281 -76.595  19.582  1.00  0.00     0.006 C 
BRANCH  20  21
ATOM     21  C   UNL     1     105.997 -76.315  20.377  1.00  0.00     0.053 C 
BRANCH  21  22
ATOM     22  C   UNL     1     104.881 -77.198  19.910  1.00  0.00     0.041 C 
ATOM     23  O   UNL     1     103.681 -76.839  20.057  1.00  0.00    -0.550 OA
ATOM     24  O   UNL     1     105.165 -78.426  19.327  1.00  0.00    -0.550 OA
ENDBRANCH  21  22
ENDBRANCH  20  21
ENDBRANCH  19  20
ENDBRANCH  18  19
ENDBRANCH  17  18
ENDBRANCH  16  17
ENDBRANCH  15  16
ENDBRANCH  14  15
ENDBRANCH  13  14
ENDBRANCH   1  13
TORSDOF 20
ENDMDL
MODEL 6
REMARK VINA RESULT:    -5.399      8.309     12.127
REMARK INTER + INTRA:         -14.956
REMARK INTER:                 -11.767
REMARK INTRA:                  -3.190
REMARK UNBOUND:                -3.245
REMARK SMILES CCCCCCCCCCCCCCCCCCCCCC(=O)[O-]
REMARK SMILES IDX 12 1 11 2 10 3 9 4 8 5 7 6 6 7 5 8 4 9 3 10 2 11 1 12 13 13
REMARK SMILES IDX 14 14 15 15 16 16 17 17 18 18 19 19 20 20 21 21 22 22 23 23
REMARK SMILES IDX 24 24
REMARK H PARENT
REMARK Flexibility Score: inf
ROOT
ATOM      1  C   UNL     1     103.450 -83.096  19.688  1.00  0.00     0.000 C 
ENDROOT
BRANCH   1   2
ATOM      2  C   UNL     1     102.771 -84.014  20.718  1.00  0.00     0.000 C 
BRANCH   2   3
ATOM      3  C   UNL     1     102.873 -83.479  22.159  1.00  0.00     0.000 C 
BRANCH   3   4
ATOM      4  C   UNL     1     103.623 -82.140  22.311  1.00  0.00    -0.000 C 
BRANCH   4   5
ATOM      5  C   UNL     1     104.931 -82.209  23.123  1.00  0.00    -0.000 C 
BRANCH   5   6
ATOM      6  C   UNL     1     106.021 -83.111  22.514  1.00  0.00    -0.000 C 
BRANCH   6   7
ATOM      7  C   UNL     1     106.940 -83.735  23.578  1.00  0.00    -0.000 C 
BRANCH   7   8
ATOM      8  C   UNL     1     106.856 -83.009  24.930  1.00  0.00    -0.000 C 
BRANCH   8   9
ATOM      9  C   UNL     1     108.014 -82.017  25.140  1.00  0.00    -0.000 C 
BRANCH   9  10
ATOM     10  C   UNL     1     109.179 -82.243  24.158  1.00  0.00    -0.000 C 
BRANCH  10  11
ATOM     11  C   UNL     1     109.564 -81.016  23.315  1.00  0.00    -0.003 C 
ATOM     12  C   UNL     1     109.061 -81.098  21.875  1.00  0.00     0.004 C 
ENDBRANCH  10  11
ENDBRANCH   9  10
ENDBRANCH   8   9
ENDBRANCH   7   8
ENDBRANCH   6   7
ENDBRANCH   5   6
ENDBRANCH   4   5
ENDBRANCH   3   4
ENDBRANCH   2   3
ENDBRANCH   1   2
BRANCH   1  13
ATOM     13  C   UNL     1     104.790 -83.659  19.181  1.00  0.00     0.000 C 
BRANCH  13  14
ATOM     14  C   UNL     1     105.803 -82.603  18.697  1.00  0.00     0.000 C 
BRANCH  14  15
ATOM     15  C   UNL     1     105.331 -81.139  18.814  1.00  0.00     0.000 C 
BRANCH  15  16
ATOM     16  C   UNL     1     105.911 -80.361  20.009  1.00  0.00     0.000 C 
BRANCH  16  17
ATOM     17  C   UNL     1     105.083 -79.139  20.455  1.00  0.00     0.000 C 
BRANCH  17  18
ATOM     18  C   UNL     1     105.378 -77.858  19.648  1.00  0.00     0.000 C 
BRANCH  18  19
ATOM     19  C   UNL     1     106.737 -77.232  20.008  1.00  0.00     0.000 C 
BRANCH  19  20
ATOM     20  C   UNL     1     106.880 -76.977  21.517  1.00  0.00     0.006 C 
BRANCH  20  21
ATOM     21  C   UNL     1     108.194 -77.534  22.085  1.00  0.00     0.053 C 
BRANCH  21  22
ATOM     22  C   UNL     1     109.344 -76.642  21.733  1.00  0.00     0.041 C 
ATOM     23  O   UNL     1     110.217 -77.024  20.907  1.00  0.00    -0.550 OA
ATOM     24  O   UNL     1     109.462 -75.394  22.330  1.00  0.00    -0.550 OA
ENDBRANCH  21  22
ENDBRANCH  20  21
ENDBRANCH  19  20
ENDBRANCH  18  19
ENDBRANCH  17  18
ENDBRANCH  16  17
ENDBRANCH  15  16
ENDBRANCH  14  15
ENDBRANCH  13  14
ENDBRANCH   1  13
TORSDOF 20
ENDMDL
MODEL 7
REMARK VINA RESULT:    -5.378      4.961      8.481
REMARK INTER + INTRA:         -14.912
REMARK INTER:                 -12.245
REMARK INTRA:                  -2.667
REMARK UNBOUND:                -3.245
REMARK SMILES CCCCCCCCCCCCCCCCCCCCCC(=O)[O-]
REMARK SMILES IDX 12 1 11 2 10 3 9 4 8 5 7 6 6 7 5 8 4 9 3 10 2 11 1 12 13 13
REMARK SMILES IDX 14 14 15 15 16 16 17 17 18 18 19 19 20 20 21 21 22 22 23 23
REMARK SMILES IDX 24 24
REMARK H PARENT
REMARK Flexibility Score: inf
ROOT
ATOM      1  C   UNL     1     109.751 -80.510  21.498  1.00  0.00     0.000 C 
ENDROOT
BRANCH   1   2
ATOM      2  C   UNL     1     111.125 -79.819  21.514  1.00  0.00     0.000 C 
BRANCH   2   3
ATOM      3  C   UNL     1     112.297 -80.816  21.602  1.00  0.00     0.000 C 
BRANCH   3   4
ATOM      4  C   UNL     1     112.062 -82.170  20.901  1.00  0.00    -0.000 C 
BRANCH   4   5
ATOM      5  C   UNL     1     112.850 -83.357  21.488  1.00  0.00    -0.000 C 
BRANCH   5   6
ATOM      6  C   UNL     1     113.978 -83.892  20.587  1.00  0.00    -0.000 C 
BRANCH   6   7
ATOM      7  C   UNL     1     115.084 -82.853  20.339  1.00  0.00    -0.000 C 
BRANCH   7   8
ATOM      8  C   UNL     1     115.993 -82.655  21.562  1.00  0.00    -0.000 C 
BRANCH   8   9
ATOM      9  C   UNL     1     116.189 -81.171  21.917  1.00  0.00    -0.000 C 
BRANCH   9  10
ATOM     10  C   UNL     1     116.132 -80.249  20.685  1.00  0.00    -0.000 C 
BRANCH  10  11
ATOM     11  C   UNL     1     115.132 -79.084  20.793  1.00  0.00    -0.003 C 
ATOM     12  C   UNL     1     115.462 -78.116  21.927  1.00  0.00     0.004 C 
ENDBRANCH  10  11
ENDBRANCH   9  10
ENDBRANCH   8   9
ENDBRANCH   7   8
ENDBRANCH   6   7
ENDBRANCH   5   6
ENDBRANCH   4   5
ENDBRANCH   3   4
ENDBRANCH   2   3
ENDBRANCH   1   2
BRANCH   1  13
ATOM     13  C   UNL     1     109.106 -80.584  22.893  1.00  0.00     0.000 C 
BRANCH  13  14
ATOM     14  C   UNL     1     109.480 -81.828  23.723  1.00  0.00     0.000 C 
BRANCH  14  15
ATOM     15  C   UNL     1     108.538 -83.038  23.553  1.00  0.00     0.000 C 
BRANCH  15  16
ATOM     16  C   UNL     1     107.268 -83.003  24.422  1.00  0.00     0.000 C 
BRANCH  16  17
ATOM     17  C   UNL     1     106.077 -83.809  23.868  1.00  0.00     0.000 C 
BRANCH  17  18
ATOM     18  C   UNL     1     105.628 -83.369  22.459  1.00  0.00     0.000 C 
BRANCH  18  19
ATOM     19  C   UNL     1     105.145 -81.909  22.420  1.00  0.00     0.000 C 
BRANCH  19  20
ATOM     20  C   UNL     1     105.708 -81.139  21.214  1.00  0.00     0.006 C 
BRANCH  20  21
ATOM     21  C   UNL     1     106.562 -82.027  20.298  1.00  0.00     0.053 C 
BRANCH  21  22
ATOM     22  C   UNL     1     105.866 -82.269  18.994  1.00  0.00     0.041 C 
ATOM     23  O   UNL     1     106.448 -82.895  18.068  1.00  0.00    -0.550 OA
ATOM     24  O   UNL     1     104.578 -81.787  18.795  1.00  0.00    -0.550 OA
ENDBRANCH  21  22
ENDBRANCH  20  21
ENDBRANCH  19  20
ENDBRANCH  18  19
ENDBRANCH  17  18
ENDBRANCH  16  17
ENDBRANCH  15  16
ENDBRANCH  14  15
ENDBRANCH  13  14
ENDBRANCH   1  13
TORSDOF 20
ENDMDL
MODEL 8
REMARK VINA RESULT:    -5.347      3.589      7.984
REMARK INTER + INTRA:         -14.844
REMARK INTER:                 -12.503
REMARK INTRA:                  -2.341
REMARK UNBOUND:                -3.245
REMARK SMILES CCCCCCCCCCCCCCCCCCCCCC(=O)[O-]
REMARK SMILES IDX 12 1 11 2 10 3 9 4 8 5 7 6 6 7 5 8 4 9 3 10 2 11 1 12 13 13
REMARK SMILES IDX 14 14 15 15 16 16 17 17 18 18 19 19 20 20 21 21 22 22 23 23
REMARK SMILES IDX 24 24
REMARK H PARENT
REMARK Flexibility Score: inf
ROOT
ATOM      1  C   UNL     1     115.947 -83.125  21.490  1.00  0.00     0.000 C 
ENDROOT
BRANCH   1   2
ATOM      2  C   UNL     1     115.070 -83.139  20.228  1.00  0.00     0.000 C 
BRANCH   2   3
ATOM      3  C   UNL     1     113.660 -83.707  20.483  1.00  0.00     0.000 C 
BRANCH   3   4
ATOM      4  C   UNL     1     113.038 -83.337  21.845  1.00  0.00    -0.000 C 
BRANCH   4   5
ATOM      5  C   UNL     1     111.745 -82.502  21.771  1.00  0.00    -0.000 C 
BRANCH   5   6
ATOM      6  C   UNL     1     110.823 -82.632  22.997  1.00  0.00    -0.000 C 
BRANCH   6   7
ATOM      7  C   UNL     1     110.096 -81.320  23.336  1.00  0.00    -0.000 C 
BRANCH   7   8
ATOM      8  C   UNL     1     108.741 -81.193  22.620  1.00  0.00    -0.000 C 
BRANCH   8   9
ATOM      9  C   UNL     1     107.566 -81.046  23.601  1.00  0.00    -0.000 C 
BRANCH   9  10
ATOM     10  C   UNL     1     106.765 -82.349  23.775  1.00  0.00    -0.000 C 
BRANCH  10  11
ATOM     11  C   UNL     1     106.863 -82.991  25.169  1.00  0.00    -0.003 C 
ATOM     12  C   UNL     1     107.086 -81.970  26.283  1.00  0.00     0.004 C 
ENDBRANCH  10  11
ENDBRANCH   9  10
ENDBRANCH   8   9
ENDBRANCH   7   8
ENDBRANCH   6   7
ENDBRANCH   5   6
ENDBRANCH   4   5
ENDBRANCH   3   4
ENDBRANCH   2   3
ENDBRANCH   1   2
BRANCH   1  13
ATOM     13  C   UNL     1     117.435 -83.371  21.184  1.00  0.00     0.000 C 
BRANCH  13  14
ATOM     14  C   UNL     1     118.418 -82.454  21.937  1.00  0.00     0.000 C 
BRANCH  14  15
ATOM     15  C   UNL     1     118.950 -81.254  21.125  1.00  0.00     0.000 C 
BRANCH  15  16
ATOM     16  C   UNL     1     118.343 -79.891  21.504  1.00  0.00     0.000 C 
BRANCH  16  17
ATOM     17  C   UNL     1     116.913 -79.646  20.983  1.00  0.00     0.000 C 
BRANCH  17  18
ATOM     18  C   UNL     1     115.891 -79.327  22.093  1.00  0.00     0.000 C 
BRANCH  18  19
ATOM     19  C   UNL     1     114.453 -79.710  21.700  1.00  0.00     0.000 C 
BRANCH  19  20
ATOM     20  C   UNL     1     113.745 -78.594  20.914  1.00  0.00     0.006 C 
BRANCH  20  21
ATOM     21  C   UNL     1     112.458 -79.082  20.234  1.00  0.00     0.053 C 
BRANCH  21  22
ATOM     22  C   UNL     1     111.253 -78.459  20.870  1.00  0.00     0.041 C 
ATOM     23  O   UNL     1     110.261 -78.126  20.166  1.00  0.00    -0.550 OA
ATOM     24  O   UNL     1     111.232 -78.231  22.240  1.00  0.00    -0.550 OA
ENDBRANCH  21  22
ENDBRANCH  20  21
ENDBRANCH  19  20
ENDBRANCH  18  19
ENDBRANCH  17  18
ENDBRANCH  16  17
ENDBRANCH  15  16
ENDBRANCH  14  15
ENDBRANCH  13  14
ENDBRANCH   1  13
TORSDOF 20
ENDMDL
MODEL 9
REMARK VINA RESULT:    -5.344      3.344      6.554
REMARK INTER + INTRA:         -14.838
REMARK INTER:                 -11.630
REMARK INTRA:                  -3.208
REMARK UNBOUND:                -3.245
REMARK SMILES CCCCCCCCCCCCCCCCCCCCCC(=O)[O-]
REMARK SMILES IDX 12 1 11 2 10 3 9 4 8 5 7 6 6 7 5 8 4 9 3 10 2 11 1 12 13 13
REMARK SMILES IDX 14 14 15 15 16 16 17 17 18 18 19 19 20 20 21 21 22 22 23 23
REMARK SMILES IDX 24 24
REMARK H PARENT
REMARK Flexibility Score: inf
ROOT
ATOM      1  C   UNL     1     115.121 -81.153  21.540  1.00  0.00     0.000 C 
ENDROOT
BRANCH   1   2
ATOM      2  C   UNL     1     115.590 -79.957  20.694  1.00  0.00     0.000 C 
BRANCH   2   3
ATOM      3  C   UNL     1     116.276 -78.862  21.534  1.00  0.00     0.000 C 
BRANCH   3   4
ATOM      4  C   UNL     1     115.546 -78.477  22.836  1.00  0.00    -0.000 C 
BRANCH   4   5
ATOM      5  C   UNL     1     115.916 -77.096  23.413  1.00  0.00    -0.000 C 
BRANCH   5   6
ATOM      6  C   UNL     1     114.745 -76.102  23.510  1.00  0.00    -0.000 C 
BRANCH   6   7
ATOM      7  C   UNL     1     114.074 -75.839  22.151  1.00  0.00    -0.000 C 
BRANCH   7   8
ATOM      8  C   UNL     1     112.540 -75.866  22.234  1.00  0.00    -0.000 C 
BRANCH   8   9
ATOM      9  C   UNL     1     111.939 -77.144  21.624  1.00  0.00    -0.000 C 
BRANCH   9  10
ATOM     10  C   UNL     1     112.788 -77.713  20.471  1.00  0.00    -0.000 C 
BRANCH  10  11
ATOM     11  C   UNL     1     112.118 -78.839  19.667  1.00  0.00    -0.003 C 
ATOM     12  C   UNL     1     111.709 -80.031  20.531  1.00  0.00     0.004 C 
ENDBRANCH  10  11
ENDBRANCH   9  10
ENDBRANCH   8   9
ENDBRANCH   7   8
ENDBRANCH   6   7
ENDBRANCH   5   6
ENDBRANCH   4   5
ENDBRANCH   3   4
ENDBRANCH   2   3
ENDBRANCH   1   2
BRANCH   1  13
ATOM     13  C   UNL     1     115.150 -82.480  20.761  1.00  0.00     0.000 C 
BRANCH  13  14
ATOM     14  C   UNL     1     116.326 -83.415  21.105  1.00  0.00     0.000 C 
BRANCH  14  15
ATOM     15  C   UNL     1     117.268 -82.905  22.216  1.00  0.00     0.000 C 
BRANCH  15  16
ATOM     16  C   UNL     1     118.720 -82.649  21.773  1.00  0.00     0.000 C 
BRANCH  16  17
ATOM     17  C   UNL     1     119.011 -81.215  21.290  1.00  0.00     0.000 C 
BRANCH  17  18
ATOM     18  C   UNL     1     119.745 -80.343  22.330  1.00  0.00     0.000 C 
BRANCH  18  19
ATOM     19  C   UNL     1     119.224 -80.565  23.761  1.00  0.00     0.000 C 
BRANCH  19  20
ATOM     20  C   UNL     1     119.114 -79.252  24.552  1.00  0.00     0.006 C 
BRANCH  20  21
ATOM     21  C   UNL     1     119.491 -78.024  23.709  1.00  0.00     0.053 C 
BRANCH  21  22
ATOM     22  C   UNL     1     119.591 -76.802  24.568  1.00  0.00     0.041 C 
ATOM     23  O   UNL     1     119.326 -75.665  24.092  1.00  0.00    -0.550 OA
ATOM     24  O   UNL     1     119.991 -76.915  25.893  1.00  0.00    -0.550 OA
ENDBRANCH  21  22
ENDBRANCH  20  21
ENDBRANCH  19  20
ENDBRANCH  18  19
ENDBRANCH  17  18
ENDBRANCH  16  17
ENDBRANCH  15  16
ENDBRANCH  14  15
ENDBRANCH  13  14
ENDBRANCH   1  13
TORSDOF 20
ENDMDL
