MODEL 1
REMARK VINA RESULT:    -4.232      0.000      0.000
REMARK INTER + INTRA:         -14.718
REMARK INTER:                 -11.159
REMARK INTRA:                  -3.558
REMARK UNBOUND:                -3.558
REMARK SMILES CCCCCCCCCCCCCCCCCCCCCCCCCCCCCC(=O)[O-]
REMARK SMILES IDX 16 1 17 2 18 3 19 4 20 5 21 6 22 7 23 8 24 9 25 10 26 11
REMARK SMILES IDX 27 12 28 13 29 14 30 15 31 16 32 17 15 18 14 19 13 20 12 21
REMARK SMILES IDX 11 22 10 23 9 24 8 25 7 26 6 27 5 28 4 29 3 30 2 31 1 32
REMARK H PARENT
REMARK Flexibility Score: inf
ROOT
ATOM      1  C   UNL     1     -51.733  14.904 -30.832  1.00  0.00     0.000 C 
ENDROOT
BRANCH   1   2
ATOM      2  C   UNL     1     -53.178  15.174 -31.291  1.00  0.00     0.000 C 
BRANCH   2   3
ATOM      3  C   UNL     1     -53.863  13.925 -31.876  1.00  0.00     0.000 C 
BRANCH   3   4
ATOM      4  C   UNL     1     -52.894  12.747 -32.054  1.00  0.00     0.000 C 
BRANCH   4   5
ATOM      5  C   UNL     1     -53.620  11.431 -32.384  1.00  0.00     0.000 C 
BRANCH   5   6
ATOM      6  C   UNL     1     -54.434  10.896 -31.189  1.00  0.00     0.000 C 
BRANCH   6   7
ATOM      7  C   UNL     1     -55.288   9.660 -31.524  1.00  0.00     0.000 C 
BRANCH   7   8
ATOM      8  C   UNL     1     -54.516   8.338 -31.378  1.00  0.00     0.000 C 
BRANCH   8   9
ATOM      9  C   UNL     1     -53.299   8.463 -30.449  1.00  0.00     0.000 C 
BRANCH   9  10
ATOM     10  C   UNL     1     -52.017   7.884 -31.074  1.00  0.00     0.000 C 
BRANCH  10  11
ATOM     11  C   UNL     1     -51.807   8.343 -32.527  1.00  0.00     0.000 C 
BRANCH  11  12
ATOM     12  C   UNL     1     -50.367   8.108 -33.016  1.00  0.00     0.000 C 
BRANCH  12  13
ATOM     13  C   UNL     1     -49.327   8.208 -31.883  1.00  0.00     0.006 C 
BRANCH  13  14
ATOM     14  C   UNL     1     -48.899   9.643 -31.536  1.00  0.00     0.053 C 
BRANCH  14  15
ATOM     15  C   UNL     1     -48.610   9.812 -30.075  1.00  0.00     0.041 C 
ATOM     16  O   UNL     1     -48.392  10.958 -29.601  1.00  0.00    -0.550 OA
ATOM     17  O   UNL     1     -48.592   8.704 -29.236  1.00  0.00    -0.550 OA
ENDBRANCH  14  15
ENDBRANCH  13  14
ENDBRANCH  12  13
ENDBRANCH  11  12
ENDBRANCH  10  11
ENDBRANCH   9  10
ENDBRANCH   8   9
ENDBRANCH   7   8
ENDBRANCH   6   7
ENDBRANCH   5   6
ENDBRANCH   4   5
ENDBRANCH   3   4
ENDBRANCH   2   3
ENDBRANCH   1   2
BRANCH   1  18
ATOM     18  C   UNL     1     -51.565  14.659 -29.321  1.00  0.00     0.000 C 
BRANCH  18  19
ATOM     19  C   UNL     1     -50.662  13.455 -29.008  1.00  0.00     0.000 C 
BRANCH  19  20
ATOM     20  C   UNL     1     -51.421  12.295 -28.339  1.00  0.00     0.000 C 
BRANCH  20  21
ATOM     21  C   UNL     1     -52.885  12.128 -28.785  1.00  0.00     0.000 C 
BRANCH  21  22
ATOM     22  C   UNL     1     -53.861  13.011 -27.988  1.00  0.00     0.000 C 
BRANCH  22  23
ATOM     23  C   UNL     1     -55.260  13.072 -28.620  1.00  0.00     0.000 C 
BRANCH  23  24
ATOM     24  C   UNL     1     -55.797  14.510 -28.740  1.00  0.00    -0.000 C 
BRANCH  24  25
ATOM     25  C   UNL     1     -55.199  15.450 -27.673  1.00  0.00    -0.000 C 
BRANCH  25  26
ATOM     26  C   UNL     1     -55.987  16.756 -27.479  1.00  0.00    -0.000 C 
BRANCH  26  27
ATOM     27  C   UNL     1     -55.081  17.951 -27.139  1.00  0.00    -0.000 C 
BRANCH  27  28
ATOM     28  C   UNL     1     -55.138  19.075 -28.191  1.00  0.00    -0.000 C 
BRANCH  28  29
ATOM     29  C   UNL     1     -53.987  19.081 -29.215  1.00  0.00    -0.000 C 
BRANCH  29  30
ATOM     30  C   UNL     1     -54.435  18.699 -30.634  1.00  0.00    -0.000 C 
BRANCH  30  31
ATOM     31  C   UNL     1     -55.622  19.559 -31.084  1.00  0.00    -0.003 C 
ATOM     32  C   UNL     1     -55.175  20.976 -31.432  1.00  0.00     0.004 C 
ENDBRANCH  30  31
ENDBRANCH  29  30
ENDBRANCH  28  29
ENDBRANCH  27  28
ENDBRANCH  26  27
ENDBRANCH  25  26
ENDBRANCH  24  25
ENDBRANCH  23  24
ENDBRANCH  22  23
ENDBRANCH  21  22
ENDBRANCH  20  21
ENDBRANCH  19  20
ENDBRANCH  18  19
ENDBRANCH   1  18
TORSDOF 28
ENDMDL
MODEL 2
REMARK VINA RESULT:    -4.161      2.887      8.798
REMARK INTER + INTRA:         -14.530
REMARK INTER:                 -10.948
REMARK INTRA:                  -3.582
REMARK UNBOUND:                -3.558
REMARK SMILES CCCCCCCCCCCCCCCCCCCCCCCCCCCCCC(=O)[O-]
REMARK SMILES IDX 16 1 17 2 18 3 19 4 20 5 21 6 22 7 23 8 24 9 25 10 26 11
REMARK SMILES IDX 27 12 28 13 29 14 30 15 31 16 32 17 15 18 14 19 13 20 12 21
REMARK SMILES IDX 11 22 10 23 9 24 8 25 7 26 6 27 5 28 4 29 3 30 2 31 1 32
REMARK H PARENT
REMARK Flexibility Score: inf
ROOT
ATOM      1  C   UNL     1     -52.009  14.953 -30.731  1.00  0.00     0.000 C 
ENDROOT
BRANCH   1   2
ATOM      2  C   UNL     1     -52.207  13.710 -31.619  1.00  0.00     0.000 C 
BRANCH   2   3
ATOM      3  C   UNL     1     -53.640  13.592 -32.170  1.00  0.00     0.000 C 
BRANCH   3   4
ATOM      4  C   UNL     1     -54.384  12.364 -31.625  1.00  0.00     0.000 C 
BRANCH   4   5
ATOM      5  C   UNL     1     -55.726  12.732 -30.967  1.00  0.00     0.000 C 
BRANCH   5   6
ATOM      6  C   UNL     1     -55.650  12.700 -29.426  1.00  0.00     0.000 C 
BRANCH   6   7
ATOM      7  C   UNL     1     -54.785  13.822 -28.826  1.00  0.00     0.000 C 
BRANCH   7   8
ATOM      8  C   UNL     1     -55.237  14.243 -27.418  1.00  0.00     0.000 C 
BRANCH   8   9
ATOM      9  C   UNL     1     -56.125  15.496 -27.432  1.00  0.00     0.000 C 
BRANCH   9  10
ATOM     10  C   UNL     1     -55.828  16.418 -28.628  1.00  0.00     0.000 C 
BRANCH  10  11
ATOM     11  C   UNL     1     -54.845  17.548 -28.275  1.00  0.00     0.000 C 
BRANCH  11  12
ATOM     12  C   UNL     1     -55.545  18.758 -27.633  1.00  0.00     0.000 C 
BRANCH  12  13
ATOM     13  C   UNL     1     -55.802  19.901 -28.634  1.00  0.00     0.006 C 
BRANCH  13  14
ATOM     14  C   UNL     1     -55.911  19.452 -30.100  1.00  0.00     0.053 C 
BRANCH  14  15
ATOM     15  C   UNL     1     -54.643  19.685 -30.864  1.00  0.00     0.041 C 
ATOM     16  O   UNL     1     -53.848  18.733 -31.078  1.00  0.00    -0.550 OA
ATOM     17  O   UNL     1     -54.346  20.954 -31.347  1.00  0.00    -0.550 OA
ENDBRANCH  14  15
ENDBRANCH  13  14
ENDBRANCH  12  13
ENDBRANCH  11  12
ENDBRANCH  10  11
ENDBRANCH   9  10
ENDBRANCH   8   9
ENDBRANCH   7   8
ENDBRANCH   6   7
ENDBRANCH   5   6
ENDBRANCH   4   5
ENDBRANCH   3   4
ENDBRANCH   2   3
ENDBRANCH   1   2
BRANCH   1  18
ATOM     18  C   UNL     1     -51.677  14.654 -29.257  1.00  0.00     0.000 C 
BRANCH  18  19
ATOM     19  C   UNL     1     -50.703  13.477 -29.092  1.00  0.00     0.000 C 
BRANCH  19  20
ATOM     20  C   UNL     1     -51.419  12.127 -28.909  1.00  0.00     0.000 C 
BRANCH  20  21
ATOM     21  C   UNL     1     -50.490  10.917 -28.705  1.00  0.00     0.000 C 
BRANCH  21  22
ATOM     22  C   UNL     1     -49.054  11.172 -29.197  1.00  0.00     0.000 C 
BRANCH  22  23
ATOM     23  C   UNL     1     -48.425   9.937 -29.861  1.00  0.00     0.000 C 
BRANCH  23  24
ATOM     24  C   UNL     1     -48.843   9.775 -31.333  1.00  0.00    -0.000 C 
BRANCH  24  25
ATOM     25  C   UNL     1     -49.268   8.330 -31.666  1.00  0.00    -0.000 C 
BRANCH  25  26
ATOM     26  C   UNL     1     -50.206   8.218 -32.879  1.00  0.00    -0.000 C 
BRANCH  26  27
ATOM     27  C   UNL     1     -50.864   9.558 -33.246  1.00  0.00    -0.000 C 
BRANCH  27  28
ATOM     28  C   UNL     1     -52.271   9.730 -32.641  1.00  0.00    -0.000 C 
BRANCH  28  29
ATOM     29  C   UNL     1     -53.162   8.473 -32.670  1.00  0.00    -0.000 C 
BRANCH  29  30
ATOM     30  C   UNL     1     -53.945   8.256 -31.366  1.00  0.00    -0.000 C 
BRANCH  30  31
ATOM     31  C   UNL     1     -53.228   8.910 -30.180  1.00  0.00    -0.003 C 
ATOM     32  C   UNL     1     -52.318   7.913 -29.467  1.00  0.00     0.004 C 
ENDBRANCH  30  31
ENDBRANCH  29  30
ENDBRANCH  28  29
ENDBRANCH  27  28
ENDBRANCH  26  27
ENDBRANCH  25  26
ENDBRANCH  24  25
ENDBRANCH  23  24
ENDBRANCH  22  23
ENDBRANCH  21  22
ENDBRANCH  20  21
ENDBRANCH  19  20
ENDBRANCH  18  19
ENDBRANCH   1  18
TORSDOF 28
ENDMDL
MODEL 3
REMARK VINA RESULT:    -4.098      1.325      4.436
REMARK INTER + INTRA:         -14.363
REMARK INTER:                 -11.122
REMARK INTRA:                  -3.241
REMARK UNBOUND:                -3.558
REMARK SMILES CCCCCCCCCCCCCCCCCCCCCCCCCCCCCC(=O)[O-]
REMARK SMILES IDX 16 1 17 2 18 3 19 4 20 5 21 6 22 7 23 8 24 9 25 10 26 11
REMARK SMILES IDX 27 12 28 13 29 14 30 15 31 16 32 17 15 18 14 19 13 20 12 21
REMARK SMILES IDX 11 22 10 23 9 24 8 25 7 26 6 27 5 28 4 29 3 30 2 31 1 32
REMARK H PARENT
REMARK Flexibility Score: inf
ROOT
ATOM      1  C   UNL     1     -52.884  14.761 -31.697  1.00  0.00     0.000 C 
ENDROOT
BRANCH   1   2
ATOM      2  C   UNL     1     -53.766  13.652 -32.301  1.00  0.00     0.000 C 
BRANCH   2   3
ATOM      3  C   UNL     1     -55.015  13.353 -31.452  1.00  0.00     0.000 C 
BRANCH   3   4
ATOM      4  C   UNL     1     -55.467  11.890 -31.560  1.00  0.00     0.000 C 
BRANCH   4   5
ATOM      5  C   UNL     1     -55.926  11.312 -30.208  1.00  0.00     0.000 C 
BRANCH   5   6
ATOM      6  C   UNL     1     -55.471   9.851 -30.012  1.00  0.00     0.000 C 
BRANCH   6   7
ATOM      7  C   UNL     1     -56.041   8.880 -31.061  1.00  0.00     0.000 C 
BRANCH   7   8
ATOM      8  C   UNL     1     -54.963   7.996 -31.710  1.00  0.00     0.000 C 
BRANCH   8   9
ATOM      9  C   UNL     1     -55.092   7.933 -33.239  1.00  0.00     0.000 C 
BRANCH   9  10
ATOM     10  C   UNL     1     -53.863   8.514 -33.961  1.00  0.00     0.000 C 
BRANCH  10  11
ATOM     11  C   UNL     1     -52.652   8.680 -33.027  1.00  0.00     0.000 C 
BRANCH  11  12
ATOM     12  C   UNL     1     -52.496  10.123 -32.515  1.00  0.00     0.000 C 
BRANCH  12  13
ATOM     13  C   UNL     1     -51.034  10.609 -32.533  1.00  0.00     0.006 C 
BRANCH  13  14
ATOM     14  C   UNL     1     -49.997   9.502 -32.776  1.00  0.00     0.053 C 
BRANCH  14  15
ATOM     15  C   UNL     1     -49.151   9.239 -31.567  1.00  0.00     0.041 C 
ATOM     16  O   UNL     1     -48.940   8.058 -31.186  1.00  0.00    -0.550 OA
ATOM     17  O   UNL     1     -48.588  10.300 -30.867  1.00  0.00    -0.550 OA
ENDBRANCH  14  15
ENDBRANCH  13  14
ENDBRANCH  12  13
ENDBRANCH  11  12
ENDBRANCH  10  11
ENDBRANCH   9  10
ENDBRANCH   8   9
ENDBRANCH   7   8
ENDBRANCH   6   7
ENDBRANCH   5   6
ENDBRANCH   4   5
ENDBRANCH   3   4
ENDBRANCH   2   3
ENDBRANCH   1   2
BRANCH   1  18
ATOM     18  C   UNL     1     -53.649  15.861 -30.938  1.00  0.00     0.000 C 
BRANCH  18  19
ATOM     19  C   UNL     1     -53.295  17.276 -31.420  1.00  0.00     0.000 C 
BRANCH  19  20
ATOM     20  C   UNL     1     -53.764  18.375 -30.450  1.00  0.00     0.000 C 
BRANCH  20  21
ATOM     21  C   UNL     1     -55.252  18.310 -30.060  1.00  0.00     0.000 C 
BRANCH  21  22
ATOM     22  C   UNL     1     -55.635  19.336 -28.979  1.00  0.00     0.000 C 
BRANCH  22  23
ATOM     23  C   UNL     1     -55.735  18.714 -27.577  1.00  0.00     0.000 C 
BRANCH  23  24
ATOM     24  C   UNL     1     -55.012  17.359 -27.475  1.00  0.00    -0.000 C 
BRANCH  24  25
ATOM     25  C   UNL     1     -55.944  16.172 -27.795  1.00  0.00    -0.000 C 
BRANCH  25  26
ATOM     26  C   UNL     1     -55.425  14.816 -27.289  1.00  0.00    -0.000 C 
BRANCH  26  27
ATOM     27  C   UNL     1     -54.805  13.963 -28.408  1.00  0.00    -0.000 C 
BRANCH  27  28
ATOM     28  C   UNL     1     -53.654  13.063 -27.919  1.00  0.00    -0.000 C 
BRANCH  28  29
ATOM     29  C   UNL     1     -52.679  12.583 -29.012  1.00  0.00    -0.000 C 
BRANCH  29  30
ATOM     30  C   UNL     1     -51.415  11.918 -28.448  1.00  0.00    -0.000 C 
BRANCH  30  31
ATOM     31  C   UNL     1     -50.175  12.776 -28.722  1.00  0.00    -0.003 C 
ATOM     32  C   UNL     1     -50.565  14.156 -29.245  1.00  0.00     0.004 C 
ENDBRANCH  30  31
ENDBRANCH  29  30
ENDBRANCH  28  29
ENDBRANCH  27  28
ENDBRANCH  26  27
ENDBRANCH  25  26
ENDBRANCH  24  25
ENDBRANCH  23  24
ENDBRANCH  22  23
ENDBRANCH  21  22
ENDBRANCH  20  21
ENDBRANCH  19  20
ENDBRANCH  18  19
ENDBRANCH   1  18
TORSDOF 28
ENDMDL
MODEL 4
REMARK VINA RESULT:    -4.011      2.307      5.207
REMARK INTER + INTRA:         -14.134
REMARK INTER:                 -10.832
REMARK INTRA:                  -3.301
REMARK UNBOUND:                -3.558
REMARK SMILES CCCCCCCCCCCCCCCCCCCCCCCCCCCCCC(=O)[O-]
REMARK SMILES IDX 16 1 17 2 18 3 19 4 20 5 21 6 22 7 23 8 24 9 25 10 26 11
REMARK SMILES IDX 27 12 28 13 29 14 30 15 31 16 32 17 15 18 14 19 13 20 12 21
REMARK SMILES IDX 11 22 10 23 9 24 8 25 7 26 6 27 5 28 4 29 3 30 2 31 1 32
REMARK H PARENT
REMARK Flexibility Score: inf
ROOT
ATOM      1  C   UNL     1     -53.320   9.640 -33.139  1.00  0.00     0.000 C 
ENDROOT
BRANCH   1   2
ATOM      2  C   UNL     1     -52.973   8.140 -33.180  1.00  0.00     0.000 C 
BRANCH   2   3
ATOM      3  C   UNL     1     -51.456   7.877 -33.149  1.00  0.00     0.000 C 
BRANCH   3   4
ATOM      4  C   UNL     1     -50.864   7.991 -31.737  1.00  0.00     0.000 C 
BRANCH   4   5
ATOM      5  C   UNL     1     -49.340   8.207 -31.752  1.00  0.00     0.000 C 
BRANCH   5   6
ATOM      6  C   UNL     1     -48.946   9.623 -31.283  1.00  0.00     0.000 C 
BRANCH   6   7
ATOM      7  C   UNL     1     -49.259   9.894 -29.802  1.00  0.00     0.000 C 
BRANCH   7   8
ATOM      8  C   UNL     1     -50.408  10.897 -29.603  1.00  0.00     0.000 C 
BRANCH   8   9
ATOM      9  C   UNL     1     -50.150  11.869 -28.443  1.00  0.00     0.000 C 
BRANCH   9  10
ATOM     10  C   UNL     1     -51.045  13.120 -28.510  1.00  0.00     0.000 C 
BRANCH  10  11
ATOM     11  C   UNL     1     -52.409  12.837 -29.162  1.00  0.00     0.000 C 
BRANCH  11  12
ATOM     12  C   UNL     1     -53.558  12.816 -28.138  1.00  0.00     0.000 C 
BRANCH  12  13
ATOM     13  C   UNL     1     -54.758  11.969 -28.604  1.00  0.00     0.006 C 
BRANCH  13  14
ATOM     14  C   UNL     1     -54.379  10.635 -29.267  1.00  0.00     0.053 C 
BRANCH  14  15
ATOM     15  C   UNL     1     -55.562   9.945 -29.876  1.00  0.00     0.041 C 
ATOM     16  O   UNL     1     -56.059   8.931 -29.320  1.00  0.00    -0.550 OA
ATOM     17  O   UNL     1     -56.123  10.432 -31.051  1.00  0.00    -0.550 OA
ENDBRANCH  14  15
ENDBRANCH  13  14
ENDBRANCH  12  13
ENDBRANCH  11  12
ENDBRANCH  10  11
ENDBRANCH   9  10
ENDBRANCH   8   9
ENDBRANCH   7   8
ENDBRANCH   6   7
ENDBRANCH   5   6
ENDBRANCH   4   5
ENDBRANCH   3   4
ENDBRANCH   2   3
ENDBRANCH   1   2
BRANCH   1  18
ATOM     18  C   UNL     1     -52.368  10.506 -32.293  1.00  0.00     0.000 C 
BRANCH  18  19
ATOM     19  C   UNL     1     -52.683  12.007 -32.390  1.00  0.00     0.000 C 
BRANCH  19  20
ATOM     20  C   UNL     1     -54.186  12.313 -32.261  1.00  0.00     0.000 C 
BRANCH  20  21
ATOM     21  C   UNL     1     -54.527  13.768 -31.891  1.00  0.00     0.000 C 
BRANCH  21  22
ATOM     22  C   UNL     1     -55.775  13.885 -30.999  1.00  0.00     0.000 C 
BRANCH  22  23
ATOM     23  C   UNL     1     -55.976  15.301 -30.439  1.00  0.00     0.000 C 
BRANCH  23  24
ATOM     24  C   UNL     1     -56.074  15.325 -28.903  1.00  0.00    -0.000 C 
BRANCH  24  25
ATOM     25  C   UNL     1     -54.915  16.110 -28.254  1.00  0.00    -0.000 C 
BRANCH  25  26
ATOM     26  C   UNL     1     -55.371  17.304 -27.398  1.00  0.00    -0.000 C 
BRANCH  26  27
ATOM     27  C   UNL     1     -55.870  18.486 -28.245  1.00  0.00    -0.000 C 
BRANCH  27  28
ATOM     28  C   UNL     1     -54.773  19.100 -29.136  1.00  0.00    -0.000 C 
BRANCH  28  29
ATOM     29  C   UNL     1     -54.487  18.344 -30.449  1.00  0.00    -0.000 C 
BRANCH  29  30
ATOM     30  C   UNL     1     -53.007  17.973 -30.624  1.00  0.00    -0.000 C 
BRANCH  30  31
ATOM     31  C   UNL     1     -52.836  16.893 -31.699  1.00  0.00    -0.003 C 
ATOM     32  C   UNL     1     -51.814  15.844 -31.268  1.00  0.00     0.004 C 
ENDBRANCH  30  31
ENDBRANCH  29  30
ENDBRANCH  28  29
ENDBRANCH  27  28
ENDBRANCH  26  27
ENDBRANCH  25  26
ENDBRANCH  24  25
ENDBRANCH  23  24
ENDBRANCH  22  23
ENDBRANCH  21  22
ENDBRANCH  20  21
ENDBRANCH  19  20
ENDBRANCH  18  19
ENDBRANCH   1  18
TORSDOF 28
ENDMDL
MODEL 5
REMARK VINA RESULT:    -3.910      1.638      4.536
REMARK INTER + INTRA:         -13.870
REMARK INTER:                 -11.020
REMARK INTRA:                  -2.849
REMARK UNBOUND:                -3.558
REMARK SMILES CCCCCCCCCCCCCCCCCCCCCCCCCCCCCC(=O)[O-]
REMARK SMILES IDX 16 1 17 2 18 3 19 4 20 5 21 6 22 7 23 8 24 9 25 10 26 11
REMARK SMILES IDX 27 12 28 13 29 14 30 15 31 16 32 17 15 18 14 19 13 20 12 21
REMARK SMILES IDX 11 22 10 23 9 24 8 25 7 26 6 27 5 28 4 29 3 30 2 31 1 32
REMARK H PARENT
REMARK Flexibility Score: inf
ROOT
ATOM      1  C   UNL     1     -51.061  14.079 -29.414  1.00  0.00     0.000 C 
ENDROOT
BRANCH   1   2
ATOM      2  C   UNL     1     -50.620  12.819 -28.646  1.00  0.00     0.000 C 
BRANCH   2   3
ATOM      3  C   UNL     1     -50.715  11.538 -29.494  1.00  0.00     0.000 C 
BRANCH   3   4
ATOM      4  C   UNL     1     -49.401  11.207 -30.216  1.00  0.00     0.000 C 
BRANCH   4   5
ATOM      5  C   UNL     1     -48.911   9.777 -29.922  1.00  0.00     0.000 C 
BRANCH   5   6
ATOM      6  C   UNL     1     -49.873   9.008 -28.994  1.00  0.00     0.000 C 
BRANCH   6   7
ATOM      7  C   UNL     1     -50.753   7.982 -29.729  1.00  0.00     0.000 C 
BRANCH   7   8
ATOM      8  C   UNL     1     -52.233   8.056 -29.319  1.00  0.00     0.000 C 
BRANCH   8   9
ATOM      9  C   UNL     1     -53.186   7.897 -30.513  1.00  0.00     0.000 C 
BRANCH   9  10
ATOM     10  C   UNL     1     -54.060   9.143 -30.742  1.00  0.00     0.000 C 
BRANCH  10  11
ATOM     11  C   UNL     1     -54.968   9.011 -31.977  1.00  0.00     0.000 C 
BRANCH  11  12
ATOM     12  C   UNL     1     -54.524   7.875 -32.915  1.00  0.00     0.000 C 
BRANCH  12  13
ATOM     13  C   UNL     1     -53.480   8.330 -33.953  1.00  0.00     0.006 C 
BRANCH  13  14
ATOM     14  C   UNL     1     -52.039   7.894 -33.641  1.00  0.00     0.053 C 
BRANCH  14  15
ATOM     15  C   UNL     1     -51.184   9.038 -33.186  1.00  0.00     0.041 C 
ATOM     16  O   UNL     1     -51.705  10.155 -32.927  1.00  0.00    -0.550 OA
ATOM     17  O   UNL     1     -49.813   8.866 -33.036  1.00  0.00    -0.550 OA
ENDBRANCH  14  15
ENDBRANCH  13  14
ENDBRANCH  12  13
ENDBRANCH  11  12
ENDBRANCH  10  11
ENDBRANCH   9  10
ENDBRANCH   8   9
ENDBRANCH   7   8
ENDBRANCH   6   7
ENDBRANCH   5   6
ENDBRANCH   4   5
ENDBRANCH   3   4
ENDBRANCH   2   3
ENDBRANCH   1   2
BRANCH   1  18
ATOM     18  C   UNL     1     -51.734  13.811 -30.773  1.00  0.00     0.000 C 
BRANCH  18  19
ATOM     19  C   UNL     1     -52.217  15.096 -31.463  1.00  0.00     0.000 C 
BRANCH  19  20
ATOM     20  C   UNL     1     -53.597  15.562 -30.964  1.00  0.00     0.000 C 
BRANCH  20  21
ATOM     21  C   UNL     1     -53.797  17.088 -30.927  1.00  0.00     0.000 C 
BRANCH  21  22
ATOM     22  C   UNL     1     -55.280  17.499 -30.936  1.00  0.00     0.000 C 
BRANCH  22  23
ATOM     23  C   UNL     1     -55.475  19.018 -31.065  1.00  0.00     0.000 C 
BRANCH  23  24
ATOM     24  C   UNL     1     -54.549  19.818 -30.132  1.00  0.00    -0.000 C 
BRANCH  24  25
ATOM     25  C   UNL     1     -54.295  19.092 -28.795  1.00  0.00    -0.000 C 
BRANCH  25  26
ATOM     26  C   UNL     1     -55.377  19.343 -27.732  1.00  0.00    -0.000 C 
BRANCH  26  27
ATOM     27  C   UNL     1     -56.100  18.056 -27.305  1.00  0.00    -0.000 C 
BRANCH  27  28
ATOM     28  C   UNL     1     -55.166  16.833 -27.220  1.00  0.00    -0.000 C 
BRANCH  28  29
ATOM     29  C   UNL     1     -55.725  15.530 -27.824  1.00  0.00    -0.000 C 
BRANCH  29  30
ATOM     30  C   UNL     1     -54.638  14.621 -28.416  1.00  0.00    -0.000 C 
BRANCH  30  31
ATOM     31  C   UNL     1     -54.860  13.162 -28.003  1.00  0.00    -0.003 C 
ATOM     32  C   UNL     1     -54.690  12.221 -29.193  1.00  0.00     0.004 C 
ENDBRANCH  30  31
ENDBRANCH  29  30
ENDBRANCH  28  29
ENDBRANCH  27  28
ENDBRANCH  26  27
ENDBRANCH  25  26
ENDBRANCH  24  25
ENDBRANCH  23  24
ENDBRANCH  22  23
ENDBRANCH  21  22
ENDBRANCH  20  21
ENDBRANCH  19  20
ENDBRANCH  18  19
ENDBRANCH   1  18
TORSDOF 28
ENDMDL
MODEL 6
REMARK VINA RESULT:    -3.800      1.230      4.489
REMARK INTER + INTRA:         -13.578
REMARK INTER:                  -9.293
REMARK INTRA:                  -4.285
REMARK UNBOUND:                -3.558
REMARK SMILES CCCCCCCCCCCCCCCCCCCCCCCCCCCCCC(=O)[O-]
REMARK SMILES IDX 16 1 17 2 18 3 19 4 20 5 21 6 22 7 23 8 24 9 25 10 26 11
REMARK SMILES IDX 27 12 28 13 29 14 30 15 31 16 32 17 15 18 14 19 13 20 12 21
REMARK SMILES IDX 11 22 10 23 9 24 8 25 7 26 6 27 5 28 4 29 3 30 2 31 1 32
REMARK H PARENT
REMARK Flexibility Score: inf
ROOT
ATOM      1  C   UNL     1     -52.452  16.943 -31.153  1.00  0.00     0.000 C 
ENDROOT
BRANCH   1   2
ATOM      2  C   UNL     1     -52.630  15.608 -30.407  1.00  0.00     0.000 C 
BRANCH   2   3
ATOM      3  C   UNL     1     -51.412  14.678 -30.548  1.00  0.00     0.000 C 
BRANCH   3   4
ATOM      4  C   UNL     1     -50.924  14.132 -29.198  1.00  0.00     0.000 C 
BRANCH   4   5
ATOM      5  C   UNL     1     -51.764  12.939 -28.706  1.00  0.00     0.000 C 
BRANCH   5   6
ATOM      6  C   UNL     1     -52.075  11.937 -29.836  1.00  0.00     0.000 C 
BRANCH   6   7
ATOM      7  C   UNL     1     -52.359  10.510 -29.337  1.00  0.00     0.000 C 
BRANCH   7   8
ATOM      8  C   UNL     1     -53.370   9.755 -30.216  1.00  0.00     0.000 C 
BRANCH   8   9
ATOM      9  C   UNL     1     -52.719   8.624 -31.027  1.00  0.00     0.000 C 
BRANCH   9  10
ATOM     10  C   UNL     1     -52.793   8.868 -32.545  1.00  0.00     0.000 C 
BRANCH  10  11
ATOM     11  C   UNL     1     -51.452   8.608 -33.252  1.00  0.00     0.000 C 
BRANCH  11  12
ATOM     12  C   UNL     1     -50.324   9.513 -32.727  1.00  0.00     0.000 C 
BRANCH  12  13
ATOM     13  C   UNL     1     -49.365   8.779 -31.770  1.00  0.00     0.006 C 
BRANCH  13  14
ATOM     14  C   UNL     1     -48.922   9.607 -30.553  1.00  0.00     0.053 C 
BRANCH  14  15
ATOM     15  C   UNL     1     -48.719   8.761 -29.332  1.00  0.00     0.041 C 
ATOM     16  O   UNL     1     -49.663   8.060 -28.883  1.00  0.00    -0.550 OA
ATOM     17  O   UNL     1     -47.482   8.739 -28.698  1.00  0.00    -0.550 OA
ENDBRANCH  14  15
ENDBRANCH  13  14
ENDBRANCH  12  13
ENDBRANCH  11  12
ENDBRANCH  10  11
ENDBRANCH   9  10
ENDBRANCH   8   9
ENDBRANCH   7   8
ENDBRANCH   6   7
ENDBRANCH   5   6
ENDBRANCH   4   5
ENDBRANCH   3   4
ENDBRANCH   2   3
ENDBRANCH   1   2
BRANCH   1  18
ATOM     18  C   UNL     1     -53.218  18.135 -30.548  1.00  0.00     0.000 C 
BRANCH  18  19
ATOM     19  C   UNL     1     -54.609  18.329 -31.172  1.00  0.00     0.000 C 
BRANCH  19  20
ATOM     20  C   UNL     1     -55.107  19.783 -31.083  1.00  0.00     0.000 C 
BRANCH  20  21
ATOM     21  C   UNL     1     -56.125  20.057 -29.961  1.00  0.00     0.000 C 
BRANCH  21  22
ATOM     22  C   UNL     1     -55.514  19.940 -28.553  1.00  0.00     0.000 C 
BRANCH  22  23
ATOM     23  C   UNL     1     -55.896  18.631 -27.846  1.00  0.00     0.000 C 
BRANCH  23  24
ATOM     24  C   UNL     1     -54.692  17.943 -27.178  1.00  0.00    -0.000 C 
BRANCH  24  25
ATOM     25  C   UNL     1     -55.002  16.490 -26.765  1.00  0.00    -0.000 C 
BRANCH  25  26
ATOM     26  C   UNL     1     -55.512  15.608 -27.917  1.00  0.00    -0.000 C 
BRANCH  26  27
ATOM     27  C   UNL     1     -55.173  14.122 -27.722  1.00  0.00    -0.000 C 
BRANCH  27  28
ATOM     28  C   UNL     1     -55.279  13.299 -29.021  1.00  0.00    -0.000 C 
BRANCH  28  29
ATOM     29  C   UNL     1     -56.124  13.937 -30.141  1.00  0.00    -0.000 C 
BRANCH  29  30
ATOM     30  C   UNL     1     -55.468  13.839 -31.526  1.00  0.00    -0.000 C 
BRANCH  30  31
ATOM     31  C   UNL     1     -54.866  12.447 -31.750  1.00  0.00    -0.003 C 
ATOM     32  C   UNL     1     -53.590  12.526 -32.584  1.00  0.00     0.004 C 
ENDBRANCH  30  31
ENDBRANCH  29  30
ENDBRANCH  28  29
ENDBRANCH  27  28
ENDBRANCH  26  27
ENDBRANCH  25  26
ENDBRANCH  24  25
ENDBRANCH  23  24
ENDBRANCH  22  23
ENDBRANCH  21  22
ENDBRANCH  20  21
ENDBRANCH  19  20
ENDBRANCH  18  19
ENDBRANCH   1  18
TORSDOF 28
ENDMDL
MODEL 7
REMARK VINA RESULT:    -3.764      1.474      4.235
REMARK INTER + INTRA:         -13.482
REMARK INTER:                 -10.135
REMARK INTRA:                  -3.347
REMARK UNBOUND:                -3.558
REMARK SMILES CCCCCCCCCCCCCCCCCCCCCCCCCCCCCC(=O)[O-]
REMARK SMILES IDX 16 1 17 2 18 3 19 4 20 5 21 6 22 7 23 8 24 9 25 10 26 11
REMARK SMILES IDX 27 12 28 13 29 14 30 15 31 16 32 17 15 18 14 19 13 20 12 21
REMARK SMILES IDX 11 22 10 23 9 24 8 25 7 26 6 27 5 28 4 29 3 30 2 31 1 32
REMARK H PARENT
REMARK Flexibility Score: inf
ROOT
ATOM      1  C   UNL     1     -55.800  11.903 -29.769  1.00  0.00     0.000 C 
ENDROOT
BRANCH   1   2
ATOM      2  C   UNL     1     -55.566  11.252 -31.145  1.00  0.00     0.000 C 
BRANCH   2   3
ATOM      3  C   UNL     1     -55.642   9.715 -31.099  1.00  0.00     0.000 C 
BRANCH   3   4
ATOM      4  C   UNL     1     -54.577   9.097 -30.180  1.00  0.00     0.000 C 
BRANCH   4   5
ATOM      5  C   UNL     1     -53.659   8.109 -30.922  1.00  0.00     0.000 C 
BRANCH   5   6
ATOM      6  C   UNL     1     -54.047   7.952 -32.407  1.00  0.00     0.000 C 
BRANCH   6   7
ATOM      7  C   UNL     1     -52.868   8.145 -33.377  1.00  0.00     0.000 C 
BRANCH   7   8
ATOM      8  C   UNL     1     -52.004   9.371 -33.038  1.00  0.00     0.000 C 
BRANCH   8   9
ATOM      9  C   UNL     1     -50.503   9.049 -33.013  1.00  0.00     0.000 C 
BRANCH   9  10
ATOM     10  C   UNL     1     -50.166   7.875 -32.077  1.00  0.00     0.000 C 
BRANCH  10  11
ATOM     11  C   UNL     1     -49.063   8.224 -31.063  1.00  0.00     0.000 C 
BRANCH  11  12
ATOM     12  C   UNL     1     -48.575   9.677 -31.201  1.00  0.00     0.000 C 
BRANCH  12  13
ATOM     13  C   UNL     1     -48.442  10.394 -29.843  1.00  0.00     0.006 C 
BRANCH  13  14
ATOM     14  C   UNL     1     -49.386  11.593 -29.660  1.00  0.00     0.053 C 
BRANCH  14  15
ATOM     15  C   UNL     1     -50.655  11.217 -28.958  1.00  0.00     0.041 C 
ATOM     16  O   UNL     1     -51.293  12.077 -28.296  1.00  0.00    -0.550 OA
ATOM     17  O   UNL     1     -51.140   9.917 -29.045  1.00  0.00    -0.550 OA
ENDBRANCH  14  15
ENDBRANCH  13  14
ENDBRANCH  12  13
ENDBRANCH  11  12
ENDBRANCH  10  11
ENDBRANCH   9  10
ENDBRANCH   8   9
ENDBRANCH   7   8
ENDBRANCH   6   7
ENDBRANCH   5   6
ENDBRANCH   4   5
ENDBRANCH   3   4
ENDBRANCH   2   3
ENDBRANCH   1   2
BRANCH   1  18
ATOM     18  C   UNL     1     -55.834  13.443 -29.774  1.00  0.00     0.000 C 
BRANCH  18  19
ATOM     19  C   UNL     1     -56.045  14.040 -28.374  1.00  0.00     0.000 C 
BRANCH  19  20
ATOM     20  C   UNL     1     -54.847  14.879 -27.894  1.00  0.00     0.000 C 
BRANCH  20  21
ATOM     21  C   UNL     1     -55.214  16.167 -27.135  1.00  0.00     0.000 C 
BRANCH  21  22
ATOM     22  C   UNL     1     -56.103  17.117 -27.957  1.00  0.00     0.000 C 
BRANCH  22  23
ATOM     23  C   UNL     1     -56.123  18.547 -27.397  1.00  0.00     0.000 C 
BRANCH  23  24
ATOM     24  C   UNL     1     -55.229  19.512 -28.196  1.00  0.00    -0.000 C 
BRANCH  24  25
ATOM     25  C   UNL     1     -55.943  20.079 -29.440  1.00  0.00    -0.000 C 
BRANCH  25  26
ATOM     26  C   UNL     1     -55.480  19.454 -30.766  1.00  0.00    -0.000 C 
BRANCH  26  27
ATOM     27  C   UNL     1     -53.953  19.498 -30.941  1.00  0.00    -0.000 C 
BRANCH  27  28
ATOM     28  C   UNL     1     -53.255  18.192 -30.515  1.00  0.00    -0.000 C 
BRANCH  28  29
ATOM     29  C   UNL     1     -53.130  17.119 -31.614  1.00  0.00    -0.000 C 
BRANCH  29  30
ATOM     30  C   UNL     1     -53.602  15.729 -31.161  1.00  0.00    -0.000 C 
BRANCH  30  31
ATOM     31  C   UNL     1     -52.455  14.947 -30.511  1.00  0.00    -0.003 C 
ATOM     32  C   UNL     1     -52.119  13.692 -31.314  1.00  0.00     0.004 C 
ENDBRANCH  30  31
ENDBRANCH  29  30
ENDBRANCH  28  29
ENDBRANCH  27  28
ENDBRANCH  26  27
ENDBRANCH  25  26
ENDBRANCH  24  25
ENDBRANCH  23  24
ENDBRANCH  22  23
ENDBRANCH  21  22
ENDBRANCH  20  21
ENDBRANCH  19  20
ENDBRANCH  18  19
ENDBRANCH   1  18
TORSDOF 28
ENDMDL
MODEL 8
REMARK VINA RESULT:    -3.655      1.555      4.482
REMARK INTER + INTRA:         -13.195
REMARK INTER:                  -9.813
REMARK INTRA:                  -3.382
REMARK UNBOUND:                -3.558
REMARK SMILES CCCCCCCCCCCCCCCCCCCCCCCCCCCCCC(=O)[O-]
REMARK SMILES IDX 16 1 17 2 18 3 19 4 20 5 21 6 22 7 23 8 24 9 25 10 26 11
REMARK SMILES IDX 27 12 28 13 29 14 30 15 31 16 32 17 15 18 14 19 13 20 12 21
REMARK SMILES IDX 11 22 10 23 9 24 8 25 7 26 6 27 5 28 4 29 3 30 2 31 1 32
REMARK H PARENT
REMARK Flexibility Score: inf
ROOT
ATOM      1  C   UNL     1     -54.430   8.152 -30.464  1.00  0.00     0.000 C 
ENDROOT
BRANCH   1   2
ATOM      2  C   UNL     1     -55.852   8.742 -30.523  1.00  0.00     0.000 C 
BRANCH   2   3
ATOM      3  C   UNL     1     -56.125   9.759 -29.400  1.00  0.00     0.000 C 
BRANCH   3   4
ATOM      4  C   UNL     1     -54.910  10.648 -29.099  1.00  0.00     0.000 C 
BRANCH   4   5
ATOM      5  C   UNL     1     -55.158  12.125 -29.454  1.00  0.00     0.000 C 
BRANCH   5   6
ATOM      6  C   UNL     1     -54.945  13.061 -28.247  1.00  0.00     0.000 C 
BRANCH   6   7
ATOM      7  C   UNL     1     -53.469  13.236 -27.852  1.00  0.00     0.000 C 
BRANCH   7   8
ATOM      8  C   UNL     1     -52.495  12.669 -28.898  1.00  0.00     0.000 C 
BRANCH   8   9
ATOM      9  C   UNL     1     -51.174  13.450 -28.962  1.00  0.00     0.000 C 
BRANCH   9  10
ATOM     10  C   UNL     1     -49.951  12.530 -29.129  1.00  0.00     0.000 C 
BRANCH  10  11
ATOM     11  C   UNL     1     -50.249  11.073 -28.737  1.00  0.00     0.000 C 
BRANCH  11  12
ATOM     12  C   UNL     1     -49.165  10.098 -29.230  1.00  0.00     0.000 C 
BRANCH  12  13
ATOM     13  C   UNL     1     -49.711   8.682 -29.498  1.00  0.00     0.006 C 
BRANCH  13  14
ATOM     14  C   UNL     1     -50.600   8.568 -30.748  1.00  0.00     0.053 C 
BRANCH  14  15
ATOM     15  C   UNL     1     -49.816   8.203 -31.972  1.00  0.00     0.041 C 
ATOM     16  O   UNL     1     -48.595   7.908 -31.878  1.00  0.00    -0.550 OA
ATOM     17  O   UNL     1     -50.438   8.178 -33.215  1.00  0.00    -0.550 OA
ENDBRANCH  14  15
ENDBRANCH  13  14
ENDBRANCH  12  13
ENDBRANCH  11  12
ENDBRANCH  10  11
ENDBRANCH   9  10
ENDBRANCH   8   9
ENDBRANCH   7   8
ENDBRANCH   6   7
ENDBRANCH   5   6
ENDBRANCH   4   5
ENDBRANCH   3   4
ENDBRANCH   2   3
ENDBRANCH   1   2
BRANCH   1  18
ATOM     18  C   UNL     1     -53.742   7.974 -31.830  1.00  0.00     0.000 C 
BRANCH  18  19
ATOM     19  C   UNL     1     -54.235   8.979 -32.882  1.00  0.00     0.000 C 
BRANCH  19  20
ATOM     20  C   UNL     1     -53.255  10.145 -33.103  1.00  0.00     0.000 C 
BRANCH  20  21
ATOM     21  C   UNL     1     -53.394  11.312 -32.109  1.00  0.00     0.000 C 
BRANCH  21  22
ATOM     22  C   UNL     1     -53.467  12.685 -32.801  1.00  0.00     0.000 C 
BRANCH  22  23
ATOM     23  C   UNL     1     -53.804  13.825 -31.826  1.00  0.00     0.000 C 
BRANCH  23  24
ATOM     24  C   UNL     1     -52.723  14.920 -31.797  1.00  0.00    -0.000 C 
BRANCH  24  25
ATOM     25  C   UNL     1     -53.180  16.175 -31.024  1.00  0.00    -0.000 C 
BRANCH  25  26
ATOM     26  C   UNL     1     -54.277  15.901 -29.981  1.00  0.00    -0.000 C 
BRANCH  26  27
ATOM     27  C   UNL     1     -55.552  16.722 -30.231  1.00  0.00    -0.000 C 
BRANCH  27  28
ATOM     28  C   UNL     1     -56.055  17.460 -28.975  1.00  0.00    -0.000 C 
BRANCH  28  29
ATOM     29  C   UNL     1     -55.663  18.947 -28.880  1.00  0.00    -0.000 C 
BRANCH  29  30
ATOM     30  C   UNL     1     -54.147  19.181 -28.960  1.00  0.00    -0.000 C 
BRANCH  30  31
ATOM     31  C   UNL     1     -53.748  19.721 -30.337  1.00  0.00    -0.003 C 
ATOM     32  C   UNL     1     -54.969  20.204 -31.115  1.00  0.00     0.004 C 
ENDBRANCH  30  31
ENDBRANCH  29  30
ENDBRANCH  28  29
ENDBRANCH  27  28
ENDBRANCH  26  27
ENDBRANCH  25  26
ENDBRANCH  24  25
ENDBRANCH  23  24
ENDBRANCH  22  23
ENDBRANCH  21  22
ENDBRANCH  20  21
ENDBRANCH  19  20
ENDBRANCH  18  19
ENDBRANCH   1  18
TORSDOF 28
ENDMDL
MODEL 9
REMARK VINA RESULT:    -3.461      2.387      8.339
REMARK INTER + INTRA:         -12.683
REMARK INTER:                  -9.956
REMARK INTRA:                  -2.727
REMARK UNBOUND:                -3.558
REMARK SMILES CCCCCCCCCCCCCCCCCCCCCCCCCCCCCC(=O)[O-]
REMARK SMILES IDX 16 1 17 2 18 3 19 4 20 5 21 6 22 7 23 8 24 9 25 10 26 11
REMARK SMILES IDX 27 12 28 13 29 14 30 15 31 16 32 17 15 18 14 19 13 20 12 21
REMARK SMILES IDX 11 22 10 23 9 24 8 25 7 26 6 27 5 28 4 29 3 30 2 31 1 32
REMARK H PARENT
REMARK Flexibility Score: inf
ROOT
ATOM      1  C   UNL     1     -52.205  12.526 -31.394  1.00  0.00     0.000 C 
ENDROOT
BRANCH   1   2
ATOM      2  C   UNL     1     -53.577  12.665 -30.708  1.00  0.00     0.000 C 
BRANCH   2   3
ATOM      3  C   UNL     1     -54.540  13.586 -31.480  1.00  0.00     0.000 C 
BRANCH   3   4
ATOM      4  C   UNL     1     -55.846  13.849 -30.715  1.00  0.00     0.000 C 
BRANCH   4   5
ATOM      5  C   UNL     1     -55.938  13.041 -29.409  1.00  0.00     0.000 C 
BRANCH   5   6
ATOM      6  C   UNL     1     -55.275  13.770 -28.222  1.00  0.00     0.000 C 
BRANCH   6   7
ATOM      7  C   UNL     1     -56.112  14.935 -27.666  1.00  0.00     0.000 C 
BRANCH   7   8
ATOM      8  C   UNL     1     -55.555  16.315 -28.056  1.00  0.00     0.000 C 
BRANCH   8   9
ATOM      9  C   UNL     1     -56.025  17.431 -27.112  1.00  0.00     0.000 C 
BRANCH   9  10
ATOM     10  C   UNL     1     -56.056  18.809 -27.795  1.00  0.00     0.000 C 
BRANCH  10  11
ATOM     11  C   UNL     1     -55.853  18.720 -29.318  1.00  0.00     0.000 C 
BRANCH  11  12
ATOM     12  C   UNL     1     -54.790  19.709 -29.828  1.00  0.00     0.000 C 
BRANCH  12  13
ATOM     13  C   UNL     1     -53.667  19.020 -30.626  1.00  0.00     0.006 C 
BRANCH  13  14
ATOM     14  C   UNL     1     -53.924  17.537 -30.938  1.00  0.00     0.053 C 
BRANCH  14  15
ATOM     15  C   UNL     1     -52.693  16.837 -31.431  1.00  0.00     0.041 C 
ATOM     16  O   UNL     1     -52.706  16.235 -32.536  1.00  0.00    -0.550 OA
ATOM     17  O   UNL     1     -51.528  16.862 -30.673  1.00  0.00    -0.550 OA
ENDBRANCH  14  15
ENDBRANCH  13  14
ENDBRANCH  12  13
ENDBRANCH  11  12
ENDBRANCH  10  11
ENDBRANCH   9  10
ENDBRANCH   8   9
ENDBRANCH   7   8
ENDBRANCH   6   7
ENDBRANCH   5   6
ENDBRANCH   4   5
ENDBRANCH   3   4
ENDBRANCH   2   3
ENDBRANCH   1   2
BRANCH   1  18
ATOM     18  C   UNL     1     -52.130  11.443 -32.487  1.00  0.00     0.000 C 
BRANCH  18  19
ATOM     19  C   UNL     1     -53.516  10.961 -32.945  1.00  0.00     0.000 C 
BRANCH  19  20
ATOM     20  C   UNL     1     -53.524   9.481 -33.371  1.00  0.00     0.000 C 
BRANCH  20  21
ATOM     21  C   UNL     1     -54.639   8.627 -32.742  1.00  0.00     0.000 C 
BRANCH  21  22
ATOM     22  C   UNL     1     -54.181   7.875 -31.480  1.00  0.00     0.000 C 
BRANCH  22  23
ATOM     23  C   UNL     1     -54.396   8.687 -30.193  1.00  0.00     0.000 C 
BRANCH  23  24
ATOM     24  C   UNL     1     -53.096   9.321 -29.667  1.00  0.00    -0.000 C 
BRANCH  24  25
ATOM     25  C   UNL     1     -51.919   8.324 -29.654  1.00  0.00    -0.000 C 
BRANCH  25  26
ATOM     26  C   UNL     1     -51.312   8.055 -31.041  1.00  0.00    -0.000 C 
BRANCH  26  27
ATOM     27  C   UNL     1     -49.786   8.233 -31.066  1.00  0.00    -0.000 C 
BRANCH  27  28
ATOM     28  C   UNL     1     -49.163   8.334 -29.660  1.00  0.00    -0.000 C 
BRANCH  28  29
ATOM     29  C   UNL     1     -48.661   9.734 -29.258  1.00  0.00    -0.000 C 
BRANCH  29  30
ATOM     30  C   UNL     1     -49.595  10.866 -29.712  1.00  0.00    -0.000 C 
BRANCH  30  31
ATOM     31  C   UNL     1     -50.132  11.650 -28.509  1.00  0.00    -0.003 C 
ATOM     32  C   UNL     1     -50.116  13.152 -28.778  1.00  0.00     0.004 C 
ENDBRANCH  30  31
ENDBRANCH  29  30
ENDBRANCH  28  29
ENDBRANCH  27  28
ENDBRANCH  26  27
ENDBRANCH  25  26
ENDBRANCH  24  25
ENDBRANCH  23  24
ENDBRANCH  22  23
ENDBRANCH  21  22
ENDBRANCH  20  21
ENDBRANCH  19  20
ENDBRANCH  18  19
ENDBRANCH   1  18
TORSDOF 28
ENDMDL
