MODEL 1
REMARK VINA RESULT:    -4.559      0.000      0.000
REMARK INTER + INTRA:          -9.998
REMARK INTER:                  -8.824
REMARK INTRA:                  -1.174
REMARK UNBOUND:                -1.174
REMARK SMILES CCCCCCCCCCCCCCCCCC(=O)[O-]
REMARK SMILES IDX 10 1 11 2 12 3 13 4 14 5 15 6 16 7 17 8 18 9 19 10 20 11
REMARK SMILES IDX 9 12 8 13 7 14 6 15 5 16 4 17 3 18 2 19 1 20
REMARK H PARENT
REMARK Flexibility Score: inf
ROOT
ATOM      1  C   UNL     1     -28.839  22.101  26.683  1.00  0.00     0.000 C 
ENDROOT
BRANCH   1   2
ATOM      2  C   UNL     1     -30.119  21.828  27.491  1.00  0.00     0.000 C 
BRANCH   2   3
ATOM      3  C   UNL     1     -30.508  23.006  28.397  1.00  0.00     0.000 C 
BRANCH   3   4
ATOM      4  C   UNL     1     -31.362  22.571  29.598  1.00  0.00     0.000 C 
BRANCH   4   5
ATOM      5  C   UNL     1     -31.205  23.551  30.767  1.00  0.00     0.000 C 
BRANCH   5   6
ATOM      6  C   UNL     1     -31.759  24.937  30.401  1.00  0.00     0.000 C 
BRANCH   6   7
ATOM      7  C   UNL     1     -33.277  24.924  30.160  1.00  0.00     0.006 C 
BRANCH   7   8
ATOM      8  C   UNL     1     -34.049  25.725  31.216  1.00  0.00     0.053 C 
BRANCH   8   9
ATOM      9  C   UNL     1     -34.348  24.867  32.405  1.00  0.00     0.041 C 
ATOM     10  O   UNL     1     -34.494  25.388  33.543  1.00  0.00    -0.550 OA
ATOM     11  O   UNL     1     -34.513  23.497  32.250  1.00  0.00    -0.550 OA
ENDBRANCH   8   9
ENDBRANCH   7   8
ENDBRANCH   6   7
ENDBRANCH   5   6
ENDBRANCH   4   5
ENDBRANCH   3   4
ENDBRANCH   2   3
ENDBRANCH   1   2
BRANCH   1  12
ATOM     12  C   UNL     1     -28.665  21.112  25.510  1.00  0.00     0.000 C 
BRANCH  12  13
ATOM     13  C   UNL     1     -28.787  21.770  24.122  1.00  0.00    -0.000 C 
BRANCH  13  14
ATOM     14  C   UNL     1     -29.654  20.997  23.113  1.00  0.00    -0.000 C 
BRANCH  14  15
ATOM     15  C   UNL     1     -29.783  19.487  23.394  1.00  0.00    -0.000 C 
BRANCH  15  16
ATOM     16  C   UNL     1     -31.241  19.007  23.563  1.00  0.00    -0.000 C 
BRANCH  16  17
ATOM     17  C   UNL     1     -32.072  19.960  24.439  1.00  0.00    -0.000 C 
BRANCH  17  18
ATOM     18  C   UNL     1     -33.495  19.438  24.702  1.00  0.00    -0.000 C 
BRANCH  18  19
ATOM     19  C   UNL     1     -33.642  17.917  24.484  1.00  0.00    -0.003 C 
ATOM     20  C   UNL     1     -33.610  17.137  25.798  1.00  0.00     0.004 C 
ENDBRANCH  18  19
ENDBRANCH  17  18
ENDBRANCH  16  17
ENDBRANCH  15  16
ENDBRANCH  14  15
ENDBRANCH  13  14
ENDBRANCH  12  13
ENDBRANCH   1  12
TORSDOF 16
ENDMDL
MODEL 2
REMARK VINA RESULT:    -4.544      3.252      7.977
REMARK INTER + INTRA:          -9.968
REMARK INTER:                  -8.551
REMARK INTRA:                  -1.417
REMARK UNBOUND:                -1.174
REMARK SMILES CCCCCCCCCCCCCCCCCC(=O)[O-]
REMARK SMILES IDX 10 1 11 2 12 3 13 4 14 5 15 6 16 7 17 8 18 9 19 10 20 11
REMARK SMILES IDX 9 12 8 13 7 14 6 15 5 16 4 17 3 18 2 19 1 20
REMARK H PARENT
REMARK Flexibility Score: inf
ROOT
ATOM      1  C   UNL     1     -28.544  21.890  28.747  1.00  0.00     0.000 C 
ENDROOT
BRANCH   1   2
ATOM      2  C   UNL     1     -29.225  21.874  27.367  1.00  0.00     0.000 C 
BRANCH   2   3
ATOM      3  C   UNL     1     -28.476  22.725  26.330  1.00  0.00     0.000 C 
BRANCH   3   4
ATOM      4  C   UNL     1     -28.337  22.017  24.974  1.00  0.00     0.000 C 
BRANCH   4   5
ATOM      5  C   UNL     1     -29.290  20.820  24.880  1.00  0.00     0.000 C 
BRANCH   5   6
ATOM      6  C   UNL     1     -30.119  20.877  23.587  1.00  0.00     0.000 C 
BRANCH   6   7
ATOM      7  C   UNL     1     -30.864  19.563  23.302  1.00  0.00     0.006 C 
BRANCH   7   8
ATOM      8  C   UNL     1     -31.524  18.974  24.555  1.00  0.00     0.053 C 
BRANCH   8   9
ATOM      9  C   UNL     1     -33.014  19.072  24.454  1.00  0.00     0.041 C 
ATOM     10  O   UNL     1     -33.570  20.198  24.360  1.00  0.00    -0.550 OA
ATOM     11  O   UNL     1     -33.785  17.918  24.414  1.00  0.00    -0.550 OA
ENDBRANCH   8   9
ENDBRANCH   7   8
ENDBRANCH   6   7
ENDBRANCH   5   6
ENDBRANCH   4   5
ENDBRANCH   3   4
ENDBRANCH   2   3
ENDBRANCH   1   2
BRANCH   1  12
ATOM     12  C   UNL     1     -29.537  22.205  29.887  1.00  0.00     0.000 C 
BRANCH  12  13
ATOM     13  C   UNL     1     -30.987  21.783  29.580  1.00  0.00    -0.000 C 
BRANCH  13  14
ATOM     14  C   UNL     1     -32.051  22.851  29.888  1.00  0.00    -0.000 C 
BRANCH  14  15
ATOM     15  C   UNL     1     -31.606  24.303  29.629  1.00  0.00    -0.000 C 
BRANCH  15  16
ATOM     16  C   UNL     1     -31.984  25.282  30.761  1.00  0.00    -0.000 C 
BRANCH  16  17
ATOM     17  C   UNL     1     -32.039  24.593  32.135  1.00  0.00    -0.000 C 
BRANCH  17  18
ATOM     18  C   UNL     1     -33.355  24.862  32.884  1.00  0.00    -0.000 C 
BRANCH  18  19
ATOM     19  C   UNL     1     -34.611  24.662  32.010  1.00  0.00    -0.003 C 
ATOM     20  C   UNL     1     -35.425  23.439  32.434  1.00  0.00     0.004 C 
ENDBRANCH  18  19
ENDBRANCH  17  18
ENDBRANCH  16  17
ENDBRANCH  15  16
ENDBRANCH  14  15
ENDBRANCH  13  14
ENDBRANCH  12  13
ENDBRANCH   1  12
TORSDOF 16
ENDMDL
MODEL 3
REMARK VINA RESULT:    -4.533      3.271      7.711
REMARK INTER + INTRA:          -9.946
REMARK INTER:                  -8.447
REMARK INTRA:                  -1.499
REMARK UNBOUND:                -1.174
REMARK SMILES CCCCCCCCCCCCCCCCCC(=O)[O-]
REMARK SMILES IDX 10 1 11 2 12 3 13 4 14 5 15 6 16 7 17 8 18 9 19 10 20 11
REMARK SMILES IDX 9 12 8 13 7 14 6 15 5 16 4 17 3 18 2 19 1 20
REMARK H PARENT
REMARK Flexibility Score: inf
ROOT
ATOM      1  C   UNL     1     -29.236  21.618  26.160  1.00  0.00     0.000 C 
ENDROOT
BRANCH   1   2
ATOM      2  C   UNL     1     -28.722  22.226  24.843  1.00  0.00     0.000 C 
BRANCH   2   3
ATOM      3  C   UNL     1     -28.414  21.160  23.781  1.00  0.00     0.000 C 
BRANCH   3   4
ATOM      4  C   UNL     1     -29.659  20.742  22.985  1.00  0.00     0.000 C 
BRANCH   4   5
ATOM      5  C   UNL     1     -29.805  19.217  22.953  1.00  0.00     0.000 C 
BRANCH   5   6
ATOM      6  C   UNL     1     -31.242  18.794  23.300  1.00  0.00     0.000 C 
BRANCH   6   7
ATOM      7  C   UNL     1     -31.991  19.860  24.117  1.00  0.00     0.006 C 
BRANCH   7   8
ATOM      8  C   UNL     1     -32.094  19.500  25.605  1.00  0.00     0.053 C 
BRANCH   8   9
ATOM      9  C   UNL     1     -32.838  18.214  25.779  1.00  0.00     0.041 C 
ATOM     10  O   UNL     1     -34.034  18.116  25.395  1.00  0.00    -0.550 OA
ATOM     11  O   UNL     1     -32.198  17.107  26.322  1.00  0.00    -0.550 OA
ENDBRANCH   8   9
ENDBRANCH   7   8
ENDBRANCH   6   7
ENDBRANCH   5   6
ENDBRANCH   4   5
ENDBRANCH   3   4
ENDBRANCH   2   3
ENDBRANCH   1   2
BRANCH   1  12
ATOM     12  C   UNL     1     -28.521  22.207  27.395  1.00  0.00     0.000 C 
BRANCH  12  13
ATOM     13  C   UNL     1     -29.380  22.190  28.674  1.00  0.00    -0.000 C 
BRANCH  13  14
ATOM     14  C   UNL     1     -30.878  21.923  28.444  1.00  0.00    -0.000 C 
BRANCH  14  15
ATOM     15  C   UNL     1     -31.828  22.786  29.297  1.00  0.00    -0.000 C 
BRANCH  15  16
ATOM     16  C   UNL     1     -31.346  24.241  29.488  1.00  0.00    -0.000 C 
BRANCH  16  17
ATOM     17  C   UNL     1     -31.807  24.839  30.828  1.00  0.00    -0.000 C 
BRANCH  17  18
ATOM     18  C   UNL     1     -33.222  24.387  31.227  1.00  0.00    -0.000 C 
BRANCH  18  19
ATOM     19  C   UNL     1     -34.230  25.550  31.340  1.00  0.00    -0.003 C 
ATOM     20  C   UNL     1     -35.034  25.748  30.056  1.00  0.00     0.004 C 
ENDBRANCH  18  19
ENDBRANCH  17  18
ENDBRANCH  16  17
ENDBRANCH  15  16
ENDBRANCH  14  15
ENDBRANCH  13  14
ENDBRANCH  12  13
ENDBRANCH   1  12
TORSDOF 16
ENDMDL
MODEL 4
REMARK VINA RESULT:    -4.480      1.589      3.013
REMARK INTER + INTRA:          -9.844
REMARK INTER:                  -8.266
REMARK INTRA:                  -1.577
REMARK UNBOUND:                -1.174
REMARK SMILES CCCCCCCCCCCCCCCCCC(=O)[O-]
REMARK SMILES IDX 10 1 11 2 12 3 13 4 14 5 15 6 16 7 17 8 18 9 19 10 20 11
REMARK SMILES IDX 9 12 8 13 7 14 6 15 5 16 4 17 3 18 2 19 1 20
REMARK H PARENT
REMARK Flexibility Score: inf
ROOT
ATOM      1  C   UNL     1     -29.065  20.607  25.513  1.00  0.00     0.000 C 
ENDROOT
BRANCH   1   2
ATOM      2  C   UNL     1     -28.626  22.078  25.622  1.00  0.00     0.000 C 
BRANCH   2   3
ATOM      3  C   UNL     1     -29.304  22.811  26.789  1.00  0.00     0.000 C 
BRANCH   3   4
ATOM      4  C   UNL     1     -29.647  21.874  27.956  1.00  0.00     0.000 C 
BRANCH   4   5
ATOM      5  C   UNL     1     -31.043  22.175  28.512  1.00  0.00     0.000 C 
BRANCH   5   6
ATOM      6  C   UNL     1     -31.068  23.535  29.228  1.00  0.00     0.000 C 
BRANCH   6   7
ATOM      7  C   UNL     1     -32.299  23.705  30.133  1.00  0.00     0.006 C 
BRANCH   7   8
ATOM      8  C   UNL     1     -32.549  25.168  30.522  1.00  0.00     0.053 C 
BRANCH   8   9
ATOM      9  C   UNL     1     -33.993  25.380  30.850  1.00  0.00     0.041 C 
ATOM     10  O   UNL     1     -34.766  25.901  30.003  1.00  0.00    -0.550 OA
ATOM     11  O   UNL     1     -34.499  24.956  32.072  1.00  0.00    -0.550 OA
ENDBRANCH   8   9
ENDBRANCH   7   8
ENDBRANCH   6   7
ENDBRANCH   5   6
ENDBRANCH   4   5
ENDBRANCH   3   4
ENDBRANCH   2   3
ENDBRANCH   1   2
BRANCH   1  12
ATOM     12  C   UNL     1     -30.336  20.438  24.653  1.00  0.00     0.000 C 
BRANCH  12  13
ATOM     13  C   UNL     1     -31.520  19.810  25.414  1.00  0.00    -0.000 C 
BRANCH  13  14
ATOM     14  C   UNL     1     -32.881  19.932  24.707  1.00  0.00    -0.000 C 
BRANCH  14  15
ATOM     15  C   UNL     1     -33.637  18.601  24.523  1.00  0.00    -0.000 C 
BRANCH  15  16
ATOM     16  C   UNL     1     -32.754  17.351  24.728  1.00  0.00    -0.000 C 
BRANCH  16  17
ATOM     17  C   UNL     1     -32.930  16.321  23.599  1.00  0.00    -0.000 C 
BRANCH  17  18
ATOM     18  C   UNL     1     -31.598  15.922  22.943  1.00  0.00    -0.000 C 
BRANCH  18  19
ATOM     19  C   UNL     1     -30.522  17.028  23.014  1.00  0.00    -0.003 C 
ATOM     20  C   UNL     1     -30.462  17.862  21.735  1.00  0.00     0.004 C 
ENDBRANCH  18  19
ENDBRANCH  17  18
ENDBRANCH  16  17
ENDBRANCH  15  16
ENDBRANCH  14  15
ENDBRANCH  13  14
ENDBRANCH  12  13
ENDBRANCH   1  12
TORSDOF 16
ENDMDL
MODEL 5
REMARK VINA RESULT:    -4.468      1.150      2.298
REMARK INTER + INTRA:          -9.820
REMARK INTER:                  -8.715
REMARK INTRA:                  -1.105
REMARK UNBOUND:                -1.174
REMARK SMILES CCCCCCCCCCCCCCCCCC(=O)[O-]
REMARK SMILES IDX 10 1 11 2 12 3 13 4 14 5 15 6 16 7 17 8 18 9 19 10 20 11
REMARK SMILES IDX 9 12 8 13 7 14 6 15 5 16 4 17 3 18 2 19 1 20
REMARK H PARENT
REMARK Flexibility Score: inf
ROOT
ATOM      1  C   UNL     1     -29.674  21.147  25.397  1.00  0.00     0.000 C 
ENDROOT
BRANCH   1   2
ATOM      2  C   UNL     1     -28.858  22.256  26.084  1.00  0.00     0.000 C 
BRANCH   2   3
ATOM      3  C   UNL     1     -29.349  22.552  27.510  1.00  0.00     0.000 C 
BRANCH   3   4
ATOM      4  C   UNL     1     -30.537  21.669  27.921  1.00  0.00     0.000 C 
BRANCH   4   5
ATOM      5  C   UNL     1     -31.035  22.037  29.323  1.00  0.00     0.000 C 
BRANCH   5   6
ATOM      6  C   UNL     1     -31.976  23.251  29.271  1.00  0.00     0.000 C 
BRANCH   6   7
ATOM      7  C   UNL     1     -31.373  24.496  29.942  1.00  0.00     0.006 C 
BRANCH   7   8
ATOM      8  C   UNL     1     -32.398  25.270  30.780  1.00  0.00     0.053 C 
BRANCH   8   9
ATOM      9  C   UNL     1     -32.945  24.401  31.868  1.00  0.00     0.041 C 
ATOM     10  O   UNL     1     -32.184  23.960  32.770  1.00  0.00    -0.550 OA
ATOM     11  O   UNL     1     -34.304  24.115  31.915  1.00  0.00    -0.550 OA
ENDBRANCH   8   9
ENDBRANCH   7   8
ENDBRANCH   6   7
ENDBRANCH   5   6
ENDBRANCH   4   5
ENDBRANCH   3   4
ENDBRANCH   2   3
ENDBRANCH   1   2
BRANCH   1  12
ATOM     12  C   UNL     1     -29.607  21.239  23.857  1.00  0.00     0.000 C 
BRANCH  12  13
ATOM     13  C   UNL     1     -30.582  20.288  23.136  1.00  0.00    -0.000 C 
BRANCH  13  14
ATOM     14  C   UNL     1     -31.353  19.330  24.061  1.00  0.00    -0.000 C 
BRANCH  14  15
ATOM     15  C   UNL     1     -32.791  19.771  24.397  1.00  0.00    -0.000 C 
BRANCH  15  16
ATOM     16  C   UNL     1     -33.773  18.597  24.594  1.00  0.00    -0.000 C 
BRANCH  16  17
ATOM     17  C   UNL     1     -33.144  17.241  24.230  1.00  0.00    -0.000 C 
BRANCH  17  18
ATOM     18  C   UNL     1     -33.050  16.285  25.431  1.00  0.00    -0.000 C 
BRANCH  18  19
ATOM     19  C   UNL     1     -33.907  16.728  26.637  1.00  0.00    -0.003 C 
ATOM     20  C   UNL     1     -34.734  15.580  27.214  1.00  0.00     0.004 C 
ENDBRANCH  18  19
ENDBRANCH  17  18
ENDBRANCH  16  17
ENDBRANCH  15  16
ENDBRANCH  14  15
ENDBRANCH  13  14
ENDBRANCH  12  13
ENDBRANCH   1  12
TORSDOF 16
ENDMDL
MODEL 6
REMARK VINA RESULT:    -4.424      4.544      6.900
REMARK INTER + INTRA:          -9.736
REMARK INTER:                  -6.830
REMARK INTRA:                  -2.906
REMARK UNBOUND:                -1.174
REMARK SMILES CCCCCCCCCCCCCCCCCC(=O)[O-]
REMARK SMILES IDX 10 1 11 2 12 3 13 4 14 5 15 6 16 7 17 8 18 9 19 10 20 11
REMARK SMILES IDX 9 12 8 13 7 14 6 15 5 16 4 17 3 18 2 19 1 20
REMARK H PARENT
REMARK Flexibility Score: inf
ROOT
ATOM      1  C   UNL     1     -26.699  18.959  24.072  1.00  0.00     0.000 C 
ENDROOT
BRANCH   1   2
ATOM      2  C   UNL     1     -27.834  18.414  24.956  1.00  0.00     0.000 C 
BRANCH   2   3
ATOM      3  C   UNL     1     -29.049  17.952  24.137  1.00  0.00     0.000 C 
BRANCH   3   4
ATOM      4  C   UNL     1     -30.384  18.319  24.802  1.00  0.00     0.000 C 
BRANCH   4   5
ATOM      5  C   UNL     1     -31.424  18.734  23.755  1.00  0.00     0.000 C 
BRANCH   5   6
ATOM      6  C   UNL     1     -32.463  19.690  24.361  1.00  0.00     0.000 C 
BRANCH   6   7
ATOM      7  C   UNL     1     -33.611  18.948  25.065  1.00  0.00     0.006 C 
BRANCH   7   8
ATOM      8  C   UNL     1     -33.875  17.562  24.464  1.00  0.00     0.053 C 
BRANCH   8   9
ATOM      9  C   UNL     1     -33.847  16.517  25.535  1.00  0.00     0.041 C 
ATOM     10  O   UNL     1     -33.042  15.552  25.458  1.00  0.00    -0.550 OA
ATOM     11  O   UNL     1     -34.677  16.634  26.643  1.00  0.00    -0.550 OA
ENDBRANCH   8   9
ENDBRANCH   7   8
ENDBRANCH   6   7
ENDBRANCH   5   6
ENDBRANCH   4   5
ENDBRANCH   3   4
ENDBRANCH   2   3
ENDBRANCH   1   2
BRANCH   1  12
ATOM     12  C   UNL     1     -27.230  19.656  22.800  1.00  0.00     0.000 C 
BRANCH  12  13
ATOM     13  C   UNL     1     -27.423  21.176  22.961  1.00  0.00    -0.000 C 
BRANCH  13  14
ATOM     14  C   UNL     1     -28.889  21.638  23.036  1.00  0.00    -0.000 C 
BRANCH  14  15
ATOM     15  C   UNL     1     -29.444  21.801  24.464  1.00  0.00    -0.000 C 
BRANCH  15  16
ATOM     16  C   UNL     1     -28.368  22.147  25.515  1.00  0.00    -0.000 C 
BRANCH  16  17
ATOM     17  C   UNL     1     -28.898  22.034  26.955  1.00  0.00    -0.000 C 
BRANCH  17  18
ATOM     18  C   UNL     1     -30.247  21.299  27.037  1.00  0.00    -0.000 C 
BRANCH  18  19
ATOM     19  C   UNL     1     -30.262  20.157  28.076  1.00  0.00    -0.003 C 
ATOM     20  C   UNL     1     -28.872  19.568  28.311  1.00  0.00     0.004 C 
ENDBRANCH  18  19
ENDBRANCH  17  18
ENDBRANCH  16  17
ENDBRANCH  15  16
ENDBRANCH  14  15
ENDBRANCH  13  14
ENDBRANCH  12  13
ENDBRANCH   1  12
TORSDOF 16
ENDMDL
MODEL 7
REMARK VINA RESULT:    -4.410      3.833      6.874
REMARK INTER + INTRA:          -9.709
REMARK INTER:                  -6.968
REMARK INTRA:                  -2.741
REMARK UNBOUND:                -1.174
REMARK SMILES CCCCCCCCCCCCCCCCCC(=O)[O-]
REMARK SMILES IDX 10 1 11 2 12 3 13 4 14 5 15 6 16 7 17 8 18 9 19 10 20 11
REMARK SMILES IDX 9 12 8 13 7 14 6 15 5 16 4 17 3 18 2 19 1 20
REMARK H PARENT
REMARK Flexibility Score: inf
ROOT
ATOM      1  C   UNL     1     -29.708  18.502  24.352  1.00  0.00     0.000 C 
ENDROOT
BRANCH   1   2
ATOM      2  C   UNL     1     -30.049  18.620  25.848  1.00  0.00     0.000 C 
BRANCH   2   3
ATOM      3  C   UNL     1     -31.337  19.419  26.098  1.00  0.00     0.000 C 
BRANCH   3   4
ATOM      4  C   UNL     1     -31.953  19.967  24.802  1.00  0.00     0.000 C 
BRANCH   4   5
ATOM      5  C   UNL     1     -33.380  19.442  24.607  1.00  0.00     0.000 C 
BRANCH   5   6
ATOM      6  C   UNL     1     -33.369  17.961  24.196  1.00  0.00     0.000 C 
BRANCH   6   7
ATOM      7  C   UNL     1     -34.103  17.062  25.203  1.00  0.00     0.006 C 
BRANCH   7   8
ATOM      8  C   UNL     1     -33.182  16.012  25.839  1.00  0.00     0.053 C 
BRANCH   8   9
ATOM      9  C   UNL     1     -33.159  16.173  27.326  1.00  0.00     0.041 C 
ATOM     10  O   UNL     1     -32.085  16.468  27.915  1.00  0.00    -0.550 OA
ATOM     11  O   UNL     1     -34.332  16.045  28.058  1.00  0.00    -0.550 OA
ENDBRANCH   8   9
ENDBRANCH   7   8
ENDBRANCH   6   7
ENDBRANCH   5   6
ENDBRANCH   4   5
ENDBRANCH   3   4
ENDBRANCH   2   3
ENDBRANCH   1   2
BRANCH   1  12
ATOM     12  C   UNL     1     -28.357  19.166  24.005  1.00  0.00     0.000 C 
BRANCH  12  13
ATOM     13  C   UNL     1     -28.497  20.479  23.211  1.00  0.00    -0.000 C 
BRANCH  13  14
ATOM     14  C   UNL     1     -28.070  21.745  23.974  1.00  0.00    -0.000 C 
BRANCH  14  15
ATOM     15  C   UNL     1     -29.021  22.169  25.110  1.00  0.00    -0.000 C 
BRANCH  15  16
ATOM     16  C   UNL     1     -28.295  22.575  26.411  1.00  0.00    -0.000 C 
BRANCH  16  17
ATOM     17  C   UNL     1     -27.937  21.361  27.283  1.00  0.00    -0.000 C 
BRANCH  17  18
ATOM     18  C   UNL     1     -28.925  21.146  28.442  1.00  0.00    -0.000 C 
BRANCH  18  19
ATOM     19  C   UNL     1     -29.749  22.405  28.788  1.00  0.00    -0.003 C 
ATOM     20  C   UNL     1     -31.252  22.173  28.644  1.00  0.00     0.004 C 
ENDBRANCH  18  19
ENDBRANCH  17  18
ENDBRANCH  16  17
ENDBRANCH  15  16
ENDBRANCH  14  15
ENDBRANCH  13  14
ENDBRANCH  12  13
ENDBRANCH   1  12
TORSDOF 16
ENDMDL
MODEL 8
REMARK VINA RESULT:    -4.397      1.514      2.154
REMARK INTER + INTRA:          -9.684
REMARK INTER:                  -7.752
REMARK INTRA:                  -1.932
REMARK UNBOUND:                -1.174
REMARK SMILES CCCCCCCCCCCCCCCCCC(=O)[O-]
REMARK SMILES IDX 10 1 11 2 12 3 13 4 14 5 15 6 16 7 17 8 18 9 19 10 20 11
REMARK SMILES IDX 9 12 8 13 7 14 6 15 5 16 4 17 3 18 2 19 1 20
REMARK H PARENT
REMARK Flexibility Score: inf
ROOT
ATOM      1  C   UNL     1     -28.422  21.379  27.546  1.00  0.00     0.000 C 
ENDROOT
BRANCH   1   2
ATOM      2  C   UNL     1     -28.066  21.884  28.955  1.00  0.00     0.000 C 
BRANCH   2   3
ATOM      3  C   UNL     1     -29.293  21.981  29.875  1.00  0.00     0.000 C 
BRANCH   3   4
ATOM      4  C   UNL     1     -30.575  21.464  29.205  1.00  0.00     0.000 C 
BRANCH   4   5
ATOM      5  C   UNL     1     -31.686  22.519  29.258  1.00  0.00     0.000 C 
BRANCH   5   6
ATOM      6  C   UNL     1     -31.106  23.936  29.129  1.00  0.00     0.000 C 
BRANCH   6   7
ATOM      7  C   UNL     1     -31.589  24.878  30.243  1.00  0.00     0.006 C 
BRANCH   7   8
ATOM      8  C   UNL     1     -33.115  24.880  30.395  1.00  0.00     0.053 C 
BRANCH   8   9
ATOM      9  C   UNL     1     -33.498  24.548  31.803  1.00  0.00     0.041 C 
ATOM     10  O   UNL     1     -32.838  23.698  32.457  1.00  0.00    -0.550 OA
ATOM     11  O   UNL     1     -34.554  25.215  32.412  1.00  0.00    -0.550 OA
ENDBRANCH   8   9
ENDBRANCH   7   8
ENDBRANCH   6   7
ENDBRANCH   5   6
ENDBRANCH   4   5
ENDBRANCH   3   4
ENDBRANCH   2   3
ENDBRANCH   1   2
BRANCH   1  12
ATOM     12  C   UNL     1     -28.269  22.479  26.473  1.00  0.00     0.000 C 
BRANCH  12  13
ATOM     13  C   UNL     1     -28.879  22.104  25.109  1.00  0.00    -0.000 C 
BRANCH  13  14
ATOM     14  C   UNL     1     -27.895  22.146  23.927  1.00  0.00    -0.000 C 
BRANCH  14  15
ATOM     15  C   UNL     1     -27.746  20.817  23.160  1.00  0.00    -0.000 C 
BRANCH  15  16
ATOM     16  C   UNL     1     -28.721  19.716  23.628  1.00  0.00    -0.000 C 
BRANCH  16  17
ATOM     17  C   UNL     1     -29.960  19.609  22.723  1.00  0.00    -0.000 C 
BRANCH  17  18
ATOM     18  C   UNL     1     -31.275  19.546  23.518  1.00  0.00    -0.000 C 
BRANCH  18  19
ATOM     19  C   UNL     1     -31.098  19.019  24.959  1.00  0.00    -0.003 C 
ATOM     20  C   UNL     1     -31.671  19.977  26.002  1.00  0.00     0.004 C 
ENDBRANCH  18  19
ENDBRANCH  17  18
ENDBRANCH  16  17
ENDBRANCH  15  16
ENDBRANCH  14  15
ENDBRANCH  13  14
ENDBRANCH  12  13
ENDBRANCH   1  12
TORSDOF 16
ENDMDL
MODEL 9
REMARK VINA RESULT:    -4.383      2.401      4.283
REMARK INTER + INTRA:          -9.657
REMARK INTER:                  -6.943
REMARK INTRA:                  -2.713
REMARK UNBOUND:                -1.174
REMARK SMILES CCCCCCCCCCCCCCCCCC(=O)[O-]
REMARK SMILES IDX 10 1 11 2 12 3 13 4 14 5 15 6 16 7 17 8 18 9 19 10 20 11
REMARK SMILES IDX 9 12 8 13 7 14 6 15 5 16 4 17 3 18 2 19 1 20
REMARK H PARENT
REMARK Flexibility Score: inf
ROOT
ATOM      1  C   UNL     1     -27.821  19.458  23.936  1.00  0.00     0.000 C 
ENDROOT
BRANCH   1   2
ATOM      2  C   UNL     1     -29.042  20.098  23.254  1.00  0.00     0.000 C 
BRANCH   2   3
ATOM      3  C   UNL     1     -29.090  21.623  23.439  1.00  0.00     0.000 C 
BRANCH   3   4
ATOM      4  C   UNL     1     -28.166  22.110  24.565  1.00  0.00     0.000 C 
BRANCH   4   5
ATOM      5  C   UNL     1     -28.959  22.382  25.848  1.00  0.00     0.000 C 
BRANCH   5   6
ATOM      6  C   UNL     1     -28.189  21.892  27.085  1.00  0.00     0.000 C 
BRANCH   6   7
ATOM      7  C   UNL     1     -29.056  21.876  28.354  1.00  0.00     0.006 C 
BRANCH   7   8
ATOM      8  C   UNL     1     -30.365  22.658  28.186  1.00  0.00     0.053 C 
BRANCH   8   9
ATOM      9  C   UNL     1     -30.774  23.274  29.487  1.00  0.00     0.041 C 
ATOM     10  O   UNL     1     -30.285  22.854  30.569  1.00  0.00    -0.550 OA
ATOM     11  O   UNL     1     -31.656  24.347  29.502  1.00  0.00    -0.550 OA
ENDBRANCH   8   9
ENDBRANCH   7   8
ENDBRANCH   6   7
ENDBRANCH   5   6
ENDBRANCH   4   5
ENDBRANCH   3   4
ENDBRANCH   2   3
ENDBRANCH   1   2
BRANCH   1  12
ATOM     12  C   UNL     1     -28.215  18.598  25.156  1.00  0.00     0.000 C 
BRANCH  12  13
ATOM     13  C   UNL     1     -29.716  18.252  25.211  1.00  0.00    -0.000 C 
BRANCH  13  14
ATOM     14  C   UNL     1     -30.480  18.872  26.394  1.00  0.00    -0.000 C 
BRANCH  14  15
ATOM     15  C   UNL     1     -31.562  19.897  26.000  1.00  0.00    -0.000 C 
BRANCH  15  16
ATOM     16  C   UNL     1     -32.404  19.474  24.776  1.00  0.00    -0.000 C 
BRANCH  16  17
ATOM     17  C   UNL     1     -33.657  18.677  25.176  1.00  0.00    -0.000 C 
BRANCH  17  18
ATOM     18  C   UNL     1     -33.845  17.402  24.337  1.00  0.00    -0.000 C 
BRANCH  18  19
ATOM     19  C   UNL     1     -32.723  16.361  24.540  1.00  0.00    -0.003 C 
ATOM     20  C   UNL     1     -32.878  15.589  25.849  1.00  0.00     0.004 C 
ENDBRANCH  18  19
ENDBRANCH  17  18
ENDBRANCH  16  17
ENDBRANCH  15  16
ENDBRANCH  14  15
ENDBRANCH  13  14
ENDBRANCH  12  13
ENDBRANCH   1  12
TORSDOF 16
ENDMDL
