MODEL 1
REMARK VINA RESULT:     0.281      0.000      0.000
REMARK INTER + INTRA:          -1.467
REMARK INTER:                   0.709
REMARK INTRA:                  -2.176
REMARK UNBOUND:                -2.176
REMARK SMILES CCCCCCCCCCCCCCCCCCCCCCCCCCCC(=O)[O-]
REMARK SMILES IDX 15 1 16 2 17 3 18 4 19 5 20 6 21 7 22 8 23 9 24 10 25 11
REMARK SMILES IDX 26 12 27 13 28 14 29 15 30 16 14 17 13 18 12 19 11 20 10 21
REMARK SMILES IDX 9 22 8 23 7 24 6 25 5 26 4 27 3 28 2 29 1 30
REMARK H PARENT
REMARK Flexibility Score: inf
ROOT
ATOM      1  C   UNL     1      24.167   1.959  41.504  1.00  0.00     0.000 C 
ENDROOT
BRANCH   1   2
ATOM      2  C   UNL     1      24.459   0.683  42.317  1.00  0.00     0.000 C 
BRANCH   2   3
ATOM      3  C   UNL     1      25.855   0.627  42.959  1.00  0.00     0.000 C 
BRANCH   3   4
ATOM      4  C   UNL     1      26.944   0.189  41.968  1.00  0.00     0.000 C 
BRANCH   4   5
ATOM      5  C   UNL     1      27.734  -1.012  42.512  1.00  0.00     0.000 C 
BRANCH   5   6
ATOM      6  C   UNL     1      28.736  -0.613  43.608  1.00  0.00     0.000 C 
BRANCH   6   7
ATOM      7  C   UNL     1      30.198  -0.841  43.185  1.00  0.00     0.000 C 
BRANCH   7   8
ATOM      8  C   UNL     1      30.309  -1.428  41.767  1.00  0.00     0.000 C 
BRANCH   8   9
ATOM      9  C   UNL     1      31.397  -0.736  40.930  1.00  0.00     0.000 C 
BRANCH   9  10
ATOM     10  C   UNL     1      31.680   0.704  41.394  1.00  0.00     0.000 C 
BRANCH  10  11
ATOM     11  C   UNL     1      31.569   1.781  40.296  1.00  0.00     0.000 C 
BRANCH  11  12
ATOM     12  C   UNL     1      30.875   1.321  38.998  1.00  0.00     0.006 C 
BRANCH  12  13
ATOM     13  C   UNL     1      29.357   1.116  39.129  1.00  0.00     0.053 C 
BRANCH  13  14
ATOM     14  C   UNL     1      28.885  -0.072  38.351  1.00  0.00     0.041 C 
ATOM     15  O   UNL     1      28.350  -1.047  38.943  1.00  0.00    -0.550 OA
ATOM     16  O   UNL     1      29.073  -0.122  36.976  1.00  0.00    -0.550 OA
ENDBRANCH  13  14
ENDBRANCH  12  13
ENDBRANCH  11  12
ENDBRANCH  10  11
ENDBRANCH   9  10
ENDBRANCH   8   9
ENDBRANCH   7   8
ENDBRANCH   6   7
ENDBRANCH   5   6
ENDBRANCH   4   5
ENDBRANCH   3   4
ENDBRANCH   2   3
ENDBRANCH   1   2
BRANCH   1  17
ATOM     17  C   UNL     1      22.693   2.101  41.073  1.00  0.00     0.000 C 
BRANCH  17  18
ATOM     18  C   UNL     1      22.023   0.744  40.806  1.00  0.00     0.000 C 
BRANCH  18  19
ATOM     19  C   UNL     1      20.850   0.900  39.832  1.00  0.00     0.000 C 
BRANCH  19  20
ATOM     20  C   UNL     1      20.061   2.189  40.116  1.00  0.00     0.000 C 
BRANCH  20  21
ATOM     21  C   UNL     1      18.546   1.933  40.184  1.00  0.00     0.000 C 
BRANCH  21  22
ATOM     22  C   UNL     1      18.023   1.908  41.628  1.00  0.00    -0.000 C 
BRANCH  22  23
ATOM     23  C   UNL     1      19.047   1.274  42.577  1.00  0.00    -0.000 C 
BRANCH  23  24
ATOM     24  C   UNL     1      18.377   0.229  43.484  1.00  0.00    -0.000 C 
BRANCH  24  25
ATOM     25  C   UNL     1      18.751  -1.215  43.099  1.00  0.00    -0.000 C 
BRANCH  25  26
ATOM     26  C   UNL     1      17.542  -2.125  42.793  1.00  0.00    -0.000 C 
BRANCH  26  27
ATOM     27  C   UNL     1      16.270  -1.372  42.362  1.00  0.00    -0.000 C 
BRANCH  27  28
ATOM     28  C   UNL     1      14.978  -2.125  42.729  1.00  0.00    -0.000 C 
BRANCH  28  29
ATOM     29  C   UNL     1      13.788  -1.700  41.851  1.00  0.00    -0.003 C 
ATOM     30  C   UNL     1      14.210  -0.790  40.695  1.00  0.00     0.004 C 
ENDBRANCH  28  29
ENDBRANCH  27  28
ENDBRANCH  26  27
ENDBRANCH  25  26
ENDBRANCH  24  25
ENDBRANCH  23  24
ENDBRANCH  22  23
ENDBRANCH  21  22
ENDBRANCH  20  21
ENDBRANCH  19  20
ENDBRANCH  18  19
ENDBRANCH  17  18
ENDBRANCH   1  17
TORSDOF 26
ENDMDL
MODEL 2
REMARK VINA RESULT:     0.352      3.346     11.430
REMARK INTER + INTRA:          -1.290
REMARK INTER:                   1.173
REMARK INTRA:                  -2.463
REMARK UNBOUND:                -2.176
REMARK SMILES CCCCCCCCCCCCCCCCCCCCCCCCCCCC(=O)[O-]
REMARK SMILES IDX 15 1 16 2 17 3 18 4 19 5 20 6 21 7 22 8 23 9 24 10 25 11
REMARK SMILES IDX 26 12 27 13 28 14 29 15 30 16 14 17 13 18 12 19 11 20 10 21
REMARK SMILES IDX 9 22 8 23 7 24 6 25 5 26 4 27 3 28 2 29 1 30
REMARK H PARENT
REMARK Flexibility Score: inf
ROOT
ATOM      1  C   UNL     1      25.573   1.158  43.027  1.00  0.00     0.000 C 
ENDROOT
BRANCH   1   2
ATOM      2  C   UNL     1      24.336   1.219  42.110  1.00  0.00     0.000 C 
BRANCH   2   3
ATOM      3  C   UNL     1      23.951   2.629  41.632  1.00  0.00     0.000 C 
BRANCH   3   4
ATOM      4  C   UNL     1      23.114   2.610  40.344  1.00  0.00     0.000 C 
BRANCH   4   5
ATOM      5  C   UNL     1      21.666   2.184  40.632  1.00  0.00     0.000 C 
BRANCH   5   6
ATOM      6  C   UNL     1      21.186   1.058  39.702  1.00  0.00     0.000 C 
BRANCH   6   7
ATOM      7  C   UNL     1      21.178  -0.317  40.392  1.00  0.00     0.000 C 
BRANCH   7   8
ATOM      8  C   UNL     1      21.088  -0.201  41.923  1.00  0.00     0.000 C 
BRANCH   8   9
ATOM      9  C   UNL     1      19.730  -0.672  42.468  1.00  0.00     0.000 C 
BRANCH   9  10
ATOM     10  C   UNL     1      18.919   0.467  43.111  1.00  0.00     0.000 C 
BRANCH  10  11
ATOM     11  C   UNL     1      17.816   1.072  42.219  1.00  0.00     0.000 C 
BRANCH  11  12
ATOM     12  C   UNL     1      18.282   2.203  41.280  1.00  0.00     0.006 C 
BRANCH  12  13
ATOM     13  C   UNL     1      17.477   2.315  39.974  1.00  0.00     0.053 C 
BRANCH  13  14
ATOM     14  C   UNL     1      17.974   3.427  39.106  1.00  0.00     0.041 C 
ATOM     15  O   UNL     1      17.347   3.745  38.061  1.00  0.00    -0.550 OA
ATOM     16  O   UNL     1      19.153   4.087  39.428  1.00  0.00    -0.550 OA
ENDBRANCH  13  14
ENDBRANCH  12  13
ENDBRANCH  11  12
ENDBRANCH  10  11
ENDBRANCH   9  10
ENDBRANCH   8   9
ENDBRANCH   7   8
ENDBRANCH   6   7
ENDBRANCH   5   6
ENDBRANCH   4   5
ENDBRANCH   3   4
ENDBRANCH   2   3
ENDBRANCH   1   2
BRANCH   1  17
ATOM     17  C   UNL     1      26.547   0.013  42.683  1.00  0.00     0.000 C 
BRANCH  17  18
ATOM     18  C   UNL     1      27.733  -0.066  43.657  1.00  0.00     0.000 C 
BRANCH  18  19
ATOM     19  C   UNL     1      28.184  -1.518  43.846  1.00  0.00     0.000 C 
BRANCH  19  20
ATOM     20  C   UNL     1      29.621  -1.588  44.389  1.00  0.00     0.000 C 
BRANCH  20  21
ATOM     21  C   UNL     1      30.627  -0.905  43.448  1.00  0.00     0.000 C 
BRANCH  21  22
ATOM     22  C   UNL     1      30.509  -1.411  42.002  1.00  0.00    -0.000 C 
BRANCH  22  23
ATOM     23  C   UNL     1      30.193  -0.262  41.037  1.00  0.00    -0.000 C 
BRANCH  23  24
ATOM     24  C   UNL     1      29.204  -0.716  39.951  1.00  0.00    -0.000 C 
BRANCH  24  25
ATOM     25  C   UNL     1      28.542   0.468  39.221  1.00  0.00    -0.000 C 
BRANCH  25  26
ATOM     26  C   UNL     1      29.449   1.160  38.181  1.00  0.00    -0.000 C 
BRANCH  26  27
ATOM     27  C   UNL     1      30.539   0.254  37.580  1.00  0.00    -0.000 C 
BRANCH  27  28
ATOM     28  C   UNL     1      31.949   0.594  38.096  1.00  0.00    -0.000 C 
BRANCH  28  29
ATOM     29  C   UNL     1      32.046   2.041  38.612  1.00  0.00    -0.003 C 
ATOM     30  C   UNL     1      32.125   2.114  40.138  1.00  0.00     0.004 C 
ENDBRANCH  28  29
ENDBRANCH  27  28
ENDBRANCH  26  27
ENDBRANCH  25  26
ENDBRANCH  24  25
ENDBRANCH  23  24
ENDBRANCH  22  23
ENDBRANCH  21  22
ENDBRANCH  20  21
ENDBRANCH  19  20
ENDBRANCH  18  19
ENDBRANCH  17  18
ENDBRANCH   1  17
TORSDOF 26
ENDMDL
MODEL 3
REMARK VINA RESULT:     0.364      3.181     11.130
REMARK INTER + INTRA:          -1.259
REMARK INTER:                   0.258
REMARK INTRA:                  -1.518
REMARK UNBOUND:                -2.176
REMARK SMILES CCCCCCCCCCCCCCCCCCCCCCCCCCCC(=O)[O-]
REMARK SMILES IDX 15 1 16 2 17 3 18 4 19 5 20 6 21 7 22 8 23 9 24 10 25 11
REMARK SMILES IDX 26 12 27 13 28 14 29 15 30 16 14 17 13 18 12 19 11 20 10 21
REMARK SMILES IDX 9 22 8 23 7 24 6 25 5 26 4 27 3 28 2 29 1 30
REMARK H PARENT
REMARK Flexibility Score: inf
ROOT
ATOM      1  C   UNL     1      27.729   2.054  38.392  1.00  0.00     0.000 C 
ENDROOT
BRANCH   1   2
ATOM      2  C   UNL     1      27.942   3.565  38.610  1.00  0.00     0.000 C 
BRANCH   2   3
ATOM      3  C   UNL     1      26.657   4.409  38.599  1.00  0.00     0.000 C 
BRANCH   3   4
ATOM      4  C   UNL     1      25.384   3.550  38.570  1.00  0.00     0.000 C 
BRANCH   4   5
ATOM      5  C   UNL     1      24.529   3.789  39.824  1.00  0.00     0.000 C 
BRANCH   5   6
ATOM      6  C   UNL     1      23.162   3.089  39.749  1.00  0.00     0.000 C 
BRANCH   6   7
ATOM      7  C   UNL     1      22.897   2.179  40.961  1.00  0.00     0.000 C 
BRANCH   7   8
ATOM      8  C   UNL     1      22.027   0.963  40.598  1.00  0.00     0.000 C 
BRANCH   8   9
ATOM      9  C   UNL     1      20.717   1.365  39.903  1.00  0.00     0.000 C 
BRANCH   9  10
ATOM     10  C   UNL     1      19.958   2.473  40.657  1.00  0.00     0.000 C 
BRANCH  10  11
ATOM     11  C   UNL     1      18.431   2.481  40.448  1.00  0.00     0.000 C 
BRANCH  11  12
ATOM     12  C   UNL     1      17.658   1.400  41.232  1.00  0.00     0.006 C 
BRANCH  12  13
ATOM     13  C   UNL     1      18.182   1.153  42.656  1.00  0.00     0.053 C 
BRANCH  13  14
ATOM     14  C   UNL     1      18.726  -0.231  42.819  1.00  0.00     0.041 C 
ATOM     15  O   UNL     1      17.971  -1.171  43.184  1.00  0.00    -0.550 OA
ATOM     16  O   UNL     1      20.077  -0.476  42.609  1.00  0.00    -0.550 OA
ENDBRANCH  13  14
ENDBRANCH  12  13
ENDBRANCH  11  12
ENDBRANCH  10  11
ENDBRANCH   9  10
ENDBRANCH   8   9
ENDBRANCH   7   8
ENDBRANCH   6   7
ENDBRANCH   5   6
ENDBRANCH   4   5
ENDBRANCH   3   4
ENDBRANCH   2   3
ENDBRANCH   1   2
BRANCH   1  17
ATOM     17  C   UNL     1      28.920   1.185  38.846  1.00  0.00     0.000 C 
BRANCH  17  18
ATOM     18  C   UNL     1      29.812   0.747  37.674  1.00  0.00     0.000 C 
BRANCH  18  19
ATOM     19  C   UNL     1      31.293   0.919  38.028  1.00  0.00     0.000 C 
BRANCH  19  20
ATOM     20  C   UNL     1      31.474   1.877  39.216  1.00  0.00     0.000 C 
BRANCH  20  21
ATOM     21  C   UNL     1      32.073   1.168  40.442  1.00  0.00     0.000 C 
BRANCH  21  22
ATOM     22  C   UNL     1      32.071  -0.361  40.291  1.00  0.00    -0.000 C 
BRANCH  22  23
ATOM     23  C   UNL     1      31.115  -1.016  41.295  1.00  0.00    -0.000 C 
BRANCH  23  24
ATOM     24  C   UNL     1      29.727  -1.227  40.671  1.00  0.00    -0.000 C 
BRANCH  24  25
ATOM     25  C   UNL     1      28.593  -0.646  41.538  1.00  0.00    -0.000 C 
BRANCH  25  26
ATOM     26  C   UNL     1      28.267  -1.477  42.797  1.00  0.00    -0.000 C 
BRANCH  26  27
ATOM     27  C   UNL     1      28.720  -0.835  44.121  1.00  0.00    -0.000 C 
BRANCH  27  28
ATOM     28  C   UNL     1      29.985  -1.494  44.701  1.00  0.00    -0.000 C 
BRANCH  28  29
ATOM     29  C   UNL     1      30.312  -0.980  46.115  1.00  0.00    -0.003 C 
ATOM     30  C   UNL     1      30.626  -2.116  47.091  1.00  0.00     0.004 C 
ENDBRANCH  28  29
ENDBRANCH  27  28
ENDBRANCH  26  27
ENDBRANCH  25  26
ENDBRANCH  24  25
ENDBRANCH  23  24
ENDBRANCH  22  23
ENDBRANCH  21  22
ENDBRANCH  20  21
ENDBRANCH  19  20
ENDBRANCH  18  19
ENDBRANCH  17  18
ENDBRANCH   1  17
TORSDOF 26
ENDMDL
MODEL 4
REMARK VINA RESULT:     0.414      3.407     11.146
REMARK INTER + INTRA:          -1.132
REMARK INTER:                   0.901
REMARK INTRA:                  -2.033
REMARK UNBOUND:                -2.176
REMARK SMILES CCCCCCCCCCCCCCCCCCCCCCCCCCCC(=O)[O-]
REMARK SMILES IDX 15 1 16 2 17 3 18 4 19 5 20 6 21 7 22 8 23 9 24 10 25 11
REMARK SMILES IDX 26 12 27 13 28 14 29 15 30 16 14 17 13 18 12 19 11 20 10 21
REMARK SMILES IDX 9 22 8 23 7 24 6 25 5 26 4 27 3 28 2 29 1 30
REMARK H PARENT
REMARK Flexibility Score: inf
ROOT
ATOM      1  C   UNL     1      27.052   0.417  43.398  1.00  0.00     0.000 C 
ENDROOT
BRANCH   1   2
ATOM      2  C   UNL     1      25.567   0.827  43.346  1.00  0.00     0.000 C 
BRANCH   2   3
ATOM      3  C   UNL     1      25.009   1.067  41.934  1.00  0.00     0.000 C 
BRANCH   3   4
ATOM      4  C   UNL     1      23.930   2.160  41.900  1.00  0.00     0.000 C 
BRANCH   4   5
ATOM      5  C   UNL     1      23.898   2.862  40.533  1.00  0.00     0.000 C 
BRANCH   5   6
ATOM      6  C   UNL     1      22.653   2.494  39.710  1.00  0.00     0.000 C 
BRANCH   6   7
ATOM      7  C   UNL     1      21.603   1.730  40.535  1.00  0.00     0.000 C 
BRANCH   7   8
ATOM      8  C   UNL     1      21.433   0.277  40.060  1.00  0.00     0.000 C 
BRANCH   8   9
ATOM      9  C   UNL     1      20.847  -0.632  41.153  1.00  0.00     0.000 C 
BRANCH   9  10
ATOM     10  C   UNL     1      20.419   0.147  42.410  1.00  0.00     0.000 C 
BRANCH  10  11
ATOM     11  C   UNL     1      18.938  -0.015  42.810  1.00  0.00     0.000 C 
BRANCH  11  12
ATOM     12  C   UNL     1      18.045   1.208  42.515  1.00  0.00     0.006 C 
BRANCH  12  13
ATOM     13  C   UNL     1      18.763   2.358  41.792  1.00  0.00     0.053 C 
BRANCH  13  14
ATOM     14  C   UNL     1      18.227   2.572  40.412  1.00  0.00     0.041 C 
ATOM     15  O   UNL     1      17.325   1.818  39.957  1.00  0.00    -0.550 OA
ATOM     16  O   UNL     1      18.751   3.577  39.609  1.00  0.00    -0.550 OA
ENDBRANCH  13  14
ENDBRANCH  12  13
ENDBRANCH  11  12
ENDBRANCH  10  11
ENDBRANCH   9  10
ENDBRANCH   8   9
ENDBRANCH   7   8
ENDBRANCH   6   7
ENDBRANCH   5   6
ENDBRANCH   4   5
ENDBRANCH   3   4
ENDBRANCH   2   3
ENDBRANCH   1   2
BRANCH   1  17
ATOM     17  C   UNL     1      27.450  -0.617  42.325  1.00  0.00     0.000 C 
BRANCH  17  18
ATOM     18  C   UNL     1      28.291  -1.769  42.898  1.00  0.00     0.000 C 
BRANCH  18  19
ATOM     19  C   UNL     1      29.024  -1.324  44.168  1.00  0.00     0.000 C 
BRANCH  19  20
ATOM     20  C   UNL     1      30.504  -1.024  43.879  1.00  0.00     0.000 C 
BRANCH  20  21
ATOM     21  C   UNL     1      30.841  -1.168  42.386  1.00  0.00     0.000 C 
BRANCH  21  22
ATOM     22  C   UNL     1      31.963  -0.216  41.946  1.00  0.00    -0.000 C 
BRANCH  22  23
ATOM     23  C   UNL     1      32.008  -0.082  40.419  1.00  0.00    -0.000 C 
BRANCH  23  24
ATOM     24  C   UNL     1      32.125   1.393  40.003  1.00  0.00    -0.000 C 
BRANCH  24  25
ATOM     25  C   UNL     1      31.901   1.602  38.493  1.00  0.00    -0.000 C 
BRANCH  25  26
ATOM     26  C   UNL     1      31.087   0.482  37.810  1.00  0.00    -0.000 C 
BRANCH  26  27
ATOM     27  C   UNL     1      29.684   0.907  37.342  1.00  0.00    -0.000 C 
BRANCH  27  28
ATOM     28  C   UNL     1      28.746   1.257  38.511  1.00  0.00    -0.000 C 
BRANCH  28  29
ATOM     29  C   UNL     1      28.701   0.145  39.573  1.00  0.00    -0.003 C 
ATOM     30  C   UNL     1      28.727  -1.255  38.956  1.00  0.00     0.004 C 
ENDBRANCH  28  29
ENDBRANCH  27  28
ENDBRANCH  26  27
ENDBRANCH  25  26
ENDBRANCH  24  25
ENDBRANCH  23  24
ENDBRANCH  22  23
ENDBRANCH  21  22
ENDBRANCH  20  21
ENDBRANCH  19  20
ENDBRANCH  18  19
ENDBRANCH  17  18
ENDBRANCH   1  17
TORSDOF 26
ENDMDL
MODEL 5
REMARK VINA RESULT:     0.609      3.810     10.957
REMARK INTER + INTRA:          -0.643
REMARK INTER:                  -0.155
REMARK INTRA:                  -0.488
REMARK UNBOUND:                -2.176
REMARK SMILES CCCCCCCCCCCCCCCCCCCCCCCCCCCC(=O)[O-]
REMARK SMILES IDX 15 1 16 2 17 3 18 4 19 5 20 6 21 7 22 8 23 9 24 10 25 11
REMARK SMILES IDX 26 12 27 13 28 14 29 15 30 16 14 17 13 18 12 19 11 20 10 21
REMARK SMILES IDX 9 22 8 23 7 24 6 25 5 26 4 27 3 28 2 29 1 30
REMARK H PARENT
REMARK Flexibility Score: inf
ROOT
ATOM      1  C   UNL     1      29.880   1.085  38.300  1.00  0.00     0.000 C 
ENDROOT
BRANCH   1   2
ATOM      2  C   UNL     1      28.349   1.234  38.199  1.00  0.00     0.000 C 
BRANCH   2   3
ATOM      3  C   UNL     1      27.766   2.451  38.935  1.00  0.00     0.000 C 
BRANCH   3   4
ATOM      4  C   UNL     1      26.377   2.850  38.413  1.00  0.00     0.000 C 
BRANCH   4   5
ATOM      5  C   UNL     1      25.768   3.972  39.267  1.00  0.00     0.000 C 
BRANCH   5   6
ATOM      6  C   UNL     1      24.251   3.811  39.458  1.00  0.00     0.000 C 
BRANCH   6   7
ATOM      7  C   UNL     1      23.897   2.915  40.658  1.00  0.00     0.000 C 
BRANCH   7   8
ATOM      8  C   UNL     1      22.379   2.726  40.818  1.00  0.00     0.000 C 
BRANCH   8   9
ATOM      9  C   UNL     1      21.846   1.543  39.994  1.00  0.00     0.000 C 
BRANCH   9  10
ATOM     10  C   UNL     1      20.802   0.707  40.757  1.00  0.00     0.000 C 
BRANCH  10  11
ATOM     11  C   UNL     1      20.057   1.456  41.880  1.00  0.00     0.000 C 
BRANCH  11  12
ATOM     12  C   UNL     1      18.801   2.230  41.428  1.00  0.00     0.006 C 
BRANCH  12  13
ATOM     13  C   UNL     1      18.433   2.032  39.949  1.00  0.00     0.053 C 
BRANCH  13  14
ATOM     14  C   UNL     1      18.307   3.335  39.225  1.00  0.00     0.041 C 
ATOM     15  O   UNL     1      19.063   4.300  39.517  1.00  0.00    -0.550 OA
ATOM     16  O   UNL     1      17.325   3.500  38.256  1.00  0.00    -0.550 OA
ENDBRANCH  13  14
ENDBRANCH  12  13
ENDBRANCH  11  12
ENDBRANCH  10  11
ENDBRANCH   9  10
ENDBRANCH   8   9
ENDBRANCH   7   8
ENDBRANCH   6   7
ENDBRANCH   5   6
ENDBRANCH   4   5
ENDBRANCH   3   4
ENDBRANCH   2   3
ENDBRANCH   1   2
BRANCH   1  17
ATOM     17  C   UNL     1      30.526   1.995  39.365  1.00  0.00     0.000 C 
BRANCH  17  18
ATOM     18  C   UNL     1      31.502   1.236  40.277  1.00  0.00     0.000 C 
BRANCH  18  19
ATOM     19  C   UNL     1      31.615  -0.230  39.849  1.00  0.00     0.000 C 
BRANCH  19  20
ATOM     20  C   UNL     1      30.279  -0.968  40.036  1.00  0.00     0.000 C 
BRANCH  20  21
ATOM     21  C   UNL     1      30.044  -1.373  41.500  1.00  0.00     0.000 C 
BRANCH  21  22
ATOM     22  C   UNL     1      28.584  -1.767  41.769  1.00  0.00    -0.000 C 
BRANCH  22  23
ATOM     23  C   UNL     1      27.837  -0.651  42.511  1.00  0.00    -0.000 C 
BRANCH  23  24
ATOM     24  C   UNL     1      28.269  -0.591  43.985  1.00  0.00    -0.000 C 
BRANCH  24  25
ATOM     25  C   UNL     1      28.896  -1.911  44.473  1.00  0.00    -0.000 C 
BRANCH  25  26
ATOM     26  C   UNL     1      30.393  -1.808  44.835  1.00  0.00    -0.000 C 
BRANCH  26  27
ATOM     27  C   UNL     1      30.672  -1.282  46.255  1.00  0.00    -0.000 C 
BRANCH  27  28
ATOM     28  C   UNL     1      29.987  -2.124  47.347  1.00  0.00    -0.000 C 
BRANCH  28  29
ATOM     29  C   UNL     1      30.603  -1.884  48.737  1.00  0.00    -0.003 C 
ATOM     30  C   UNL     1      29.571  -1.400  49.758  1.00  0.00     0.004 C 
ENDBRANCH  28  29
ENDBRANCH  27  28
ENDBRANCH  26  27
ENDBRANCH  25  26
ENDBRANCH  24  25
ENDBRANCH  23  24
ENDBRANCH  22  23
ENDBRANCH  21  22
ENDBRANCH  20  21
ENDBRANCH  19  20
ENDBRANCH  18  19
ENDBRANCH  17  18
ENDBRANCH   1  17
TORSDOF 26
ENDMDL
MODEL 6
REMARK VINA RESULT:     0.721      3.547     10.930
REMARK INTER + INTRA:          -0.360
REMARK INTER:                   1.154
REMARK INTRA:                  -1.514
REMARK UNBOUND:                -2.176
REMARK SMILES CCCCCCCCCCCCCCCCCCCCCCCCCCCC(=O)[O-]
REMARK SMILES IDX 15 1 16 2 17 3 18 4 19 5 20 6 21 7 22 8 23 9 24 10 25 11
REMARK SMILES IDX 26 12 27 13 28 14 29 15 30 16 14 17 13 18 12 19 11 20 10 21
REMARK SMILES IDX 9 22 8 23 7 24 6 25 5 26 4 27 3 28 2 29 1 30
REMARK H PARENT
REMARK Flexibility Score: inf
ROOT
ATOM      1  C   UNL     1      27.906   1.981  38.554  1.00  0.00     0.000 C 
ENDROOT
BRANCH   1   2
ATOM      2  C   UNL     1      27.637   3.491  38.405  1.00  0.00     0.000 C 
BRANCH   2   3
ATOM      3  C   UNL     1      26.156   3.875  38.256  1.00  0.00     0.000 C 
BRANCH   3   4
ATOM      4  C   UNL     1      25.379   3.763  39.577  1.00  0.00     0.000 C 
BRANCH   4   5
ATOM      5  C   UNL     1      23.910   3.390  39.323  1.00  0.00     0.000 C 
BRANCH   5   6
ATOM      6  C   UNL     1      23.130   3.143  40.625  1.00  0.00     0.000 C 
BRANCH   6   7
ATOM      7  C   UNL     1      21.916   2.219  40.420  1.00  0.00     0.000 C 
BRANCH   7   8
ATOM      8  C   UNL     1      22.165   0.801  40.961  1.00  0.00     0.000 C 
BRANCH   8   9
ATOM      9  C   UNL     1      21.198  -0.233  40.362  1.00  0.00     0.000 C 
BRANCH   9  10
ATOM     10  C   UNL     1      20.357  -0.952  41.432  1.00  0.00     0.000 C 
BRANCH  10  11
ATOM     11  C   UNL     1      20.098  -0.141  42.718  1.00  0.00     0.000 C 
BRANCH  11  12
ATOM     12  C   UNL     1      18.786   0.670  42.726  1.00  0.00     0.006 C 
BRANCH  12  13
ATOM     13  C   UNL     1      18.893   2.055  42.069  1.00  0.00     0.053 C 
BRANCH  13  14
ATOM     14  C   UNL     1      18.126   2.126  40.786  1.00  0.00     0.041 C 
ATOM     15  O   UNL     1      17.022   1.530  40.673  1.00  0.00    -0.550 OA
ATOM     16  O   UNL     1      18.650   2.815  39.700  1.00  0.00    -0.550 OA
ENDBRANCH  13  14
ENDBRANCH  12  13
ENDBRANCH  11  12
ENDBRANCH  10  11
ENDBRANCH   9  10
ENDBRANCH   8   9
ENDBRANCH   7   8
ENDBRANCH   6   7
ENDBRANCH   5   6
ENDBRANCH   4   5
ENDBRANCH   3   4
ENDBRANCH   2   3
ENDBRANCH   1   2
BRANCH   1  17
ATOM     17  C   UNL     1      29.398   1.628  38.724  1.00  0.00     0.000 C 
BRANCH  17  18
ATOM     18  C   UNL     1      29.998   0.979  37.466  1.00  0.00     0.000 C 
BRANCH  18  19
ATOM     19  C   UNL     1      31.452   0.563  37.711  1.00  0.00     0.000 C 
BRANCH  19  20
ATOM     20  C   UNL     1      32.121   1.472  38.755  1.00  0.00     0.000 C 
BRANCH  20  21
ATOM     21  C   UNL     1      31.648   1.154  40.183  1.00  0.00     0.000 C 
BRANCH  21  22
ATOM     22  C   UNL     1      32.111  -0.232  40.657  1.00  0.00    -0.000 C 
BRANCH  22  23
ATOM     23  C   UNL     1      31.015  -0.935  41.466  1.00  0.00    -0.000 C 
BRANCH  23  24
ATOM     24  C   UNL     1      29.900  -1.453  40.543  1.00  0.00    -0.000 C 
BRANCH  24  25
ATOM     25  C   UNL     1      28.513  -0.903  40.923  1.00  0.00    -0.000 C 
BRANCH  25  26
ATOM     26  C   UNL     1      27.876  -1.581  42.155  1.00  0.00    -0.000 C 
BRANCH  26  27
ATOM     27  C   UNL     1      28.010  -0.783  43.464  1.00  0.00    -0.000 C 
BRANCH  27  28
ATOM     28  C   UNL     1      28.641  -1.605  44.602  1.00  0.00    -0.000 C 
BRANCH  28  29
ATOM     29  C   UNL     1      30.141  -1.309  44.770  1.00  0.00    -0.003 C 
ATOM     30  C   UNL     1      30.580  -1.327  46.236  1.00  0.00     0.004 C 
ENDBRANCH  28  29
ENDBRANCH  27  28
ENDBRANCH  26  27
ENDBRANCH  25  26
ENDBRANCH  24  25
ENDBRANCH  23  24
ENDBRANCH  22  23
ENDBRANCH  21  22
ENDBRANCH  20  21
ENDBRANCH  19  20
ENDBRANCH  18  19
ENDBRANCH  17  18
ENDBRANCH   1  17
TORSDOF 26
ENDMDL
MODEL 7
REMARK VINA RESULT:     0.812      4.081     12.167
REMARK INTER + INTRA:          -0.130
REMARK INTER:                   1.783
REMARK INTRA:                  -1.913
REMARK UNBOUND:                -2.176
REMARK SMILES CCCCCCCCCCCCCCCCCCCCCCCCCCCC(=O)[O-]
REMARK SMILES IDX 15 1 16 2 17 3 18 4 19 5 20 6 21 7 22 8 23 9 24 10 25 11
REMARK SMILES IDX 26 12 27 13 28 14 29 15 30 16 14 17 13 18 12 19 11 20 10 21
REMARK SMILES IDX 9 22 8 23 7 24 6 25 5 26 4 27 3 28 2 29 1 30
REMARK H PARENT
REMARK Flexibility Score: inf
ROOT
ATOM      1  C   UNL     1      25.382   1.174  42.950  1.00  0.00     0.000 C 
ENDROOT
BRANCH   1   2
ATOM      2  C   UNL     1      24.209   1.236  41.952  1.00  0.00     0.000 C 
BRANCH   2   3
ATOM      3  C   UNL     1      23.828   2.651  41.486  1.00  0.00     0.000 C 
BRANCH   3   4
ATOM      4  C   UNL     1      22.880   2.641  40.277  1.00  0.00     0.000 C 
BRANCH   4   5
ATOM      5  C   UNL     1      21.475   2.167  40.681  1.00  0.00     0.000 C 
BRANCH   5   6
ATOM      6  C   UNL     1      20.921   1.088  39.738  1.00  0.00     0.000 C 
BRANCH   6   7
ATOM      7  C   UNL     1      20.928  -0.313  40.374  1.00  0.00     0.000 C 
BRANCH   7   8
ATOM      8  C   UNL     1      20.772  -0.260  41.903  1.00  0.00     0.000 C 
BRANCH   8   9
ATOM      9  C   UNL     1      19.708  -1.243  42.419  1.00  0.00     0.000 C 
BRANCH   9  10
ATOM     10  C   UNL     1      18.627  -0.556  43.272  1.00  0.00     0.000 C 
BRANCH  10  11
ATOM     11  C   UNL     1      17.417  -0.013  42.486  1.00  0.00     0.000 C 
BRANCH  11  12
ATOM     12  C   UNL     1      16.205  -0.965  42.414  1.00  0.00     0.006 C 
BRANCH  12  13
ATOM     13  C   UNL     1      15.112  -0.527  41.424  1.00  0.00     0.053 C 
BRANCH  13  14
ATOM     14  C   UNL     1      14.071  -1.584  41.238  1.00  0.00     0.041 C 
ATOM     15  O   UNL     1      13.907  -2.123  40.112  1.00  0.00    -0.550 OA
ATOM     16  O   UNL     1      13.251  -1.947  42.299  1.00  0.00    -0.550 OA
ENDBRANCH  13  14
ENDBRANCH  12  13
ENDBRANCH  11  12
ENDBRANCH  10  11
ENDBRANCH   9  10
ENDBRANCH   8   9
ENDBRANCH   7   8
ENDBRANCH   6   7
ENDBRANCH   5   6
ENDBRANCH   4   5
ENDBRANCH   3   4
ENDBRANCH   2   3
ENDBRANCH   1   2
BRANCH   1  17
ATOM     17  C   UNL     1      26.429   0.093  42.615  1.00  0.00     0.000 C 
BRANCH  17  18
ATOM     18  C   UNL     1      27.631   0.118  43.573  1.00  0.00     0.000 C 
BRANCH  18  19
ATOM     19  C   UNL     1      27.982  -1.299  44.038  1.00  0.00     0.000 C 
BRANCH  19  20
ATOM     20  C   UNL     1      29.403  -1.357  44.622  1.00  0.00     0.000 C 
BRANCH  20  21
ATOM     21  C   UNL     1      30.471  -0.997  43.576  1.00  0.00     0.000 C 
BRANCH  21  22
ATOM     22  C   UNL     1      30.251  -1.726  42.242  1.00  0.00    -0.000 C 
BRANCH  22  23
ATOM     23  C   UNL     1      30.689  -0.858  41.057  1.00  0.00    -0.000 C 
BRANCH  23  24
ATOM     24  C   UNL     1      29.697  -0.984  39.890  1.00  0.00    -0.000 C 
BRANCH  24  25
ATOM     25  C   UNL     1      28.928   0.324  39.622  1.00  0.00    -0.000 C 
BRANCH  25  26
ATOM     26  C   UNL     1      29.512   1.181  38.479  1.00  0.00    -0.000 C 
BRANCH  26  27
ATOM     27  C   UNL     1      30.579   0.469  37.628  1.00  0.00    -0.000 C 
BRANCH  27  28
ATOM     28  C   UNL     1      32.005   0.977  37.914  1.00  0.00    -0.000 C 
BRANCH  28  29
ATOM     29  C   UNL     1      32.006   2.258  38.766  1.00  0.00    -0.003 C 
ATOM     30  C   UNL     1      32.119   1.964  40.263  1.00  0.00     0.004 C 
ENDBRANCH  28  29
ENDBRANCH  27  28
ENDBRANCH  26  27
ENDBRANCH  25  26
ENDBRANCH  24  25
ENDBRANCH  23  24
ENDBRANCH  22  23
ENDBRANCH  21  22
ENDBRANCH  20  21
ENDBRANCH  19  20
ENDBRANCH  18  19
ENDBRANCH  17  18
ENDBRANCH   1  17
TORSDOF 26
ENDMDL
MODEL 8
REMARK VINA RESULT:     0.974      2.867      5.202
REMARK INTER + INTRA:           0.278
REMARK INTER:                   1.079
REMARK INTRA:                  -0.801
REMARK UNBOUND:                -2.176
REMARK SMILES CCCCCCCCCCCCCCCCCCCCCCCCCCCC(=O)[O-]
REMARK SMILES IDX 15 1 16 2 17 3 18 4 19 5 20 6 21 7 22 8 23 9 24 10 25 11
REMARK SMILES IDX 26 12 27 13 28 14 29 15 30 16 14 17 13 18 12 19 11 20 10 21
REMARK SMILES IDX 9 22 8 23 7 24 6 25 5 26 4 27 3 28 2 29 1 30
REMARK H PARENT
REMARK Flexibility Score: inf
ROOT
ATOM      1  C   UNL     1      28.380   2.351  38.411  1.00  0.00     0.000 C 
ENDROOT
BRANCH   1   2
ATOM      2  C   UNL     1      28.511   0.828  38.609  1.00  0.00     0.000 C 
BRANCH   2   3
ATOM      3  C   UNL     1      29.341   0.103  37.536  1.00  0.00     0.000 C 
BRANCH   3   4
ATOM      4  C   UNL     1      30.629   0.858  37.174  1.00  0.00     0.000 C 
BRANCH   4   5
ATOM      5  C   UNL     1      31.761   0.519  38.155  1.00  0.00     0.000 C 
BRANCH   5   6
ATOM      6  C   UNL     1      32.085   1.681  39.108  1.00  0.00     0.000 C 
BRANCH   6   7
ATOM      7  C   UNL     1      31.528   1.456  40.525  1.00  0.00     0.000 C 
BRANCH   7   8
ATOM      8  C   UNL     1      31.884   0.066  41.077  1.00  0.00     0.000 C 
BRANCH   8   9
ATOM      9  C   UNL     1      31.000  -1.044  40.485  1.00  0.00     0.000 C 
BRANCH   9  10
ATOM     10  C   UNL     1      29.717  -1.284  41.303  1.00  0.00     0.000 C 
BRANCH  10  11
ATOM     11  C   UNL     1      29.586  -0.433  42.582  1.00  0.00     0.000 C 
BRANCH  11  12
ATOM     12  C   UNL     1      28.448  -0.855  43.534  1.00  0.00     0.006 C 
BRANCH  12  13
ATOM     13  C   UNL     1      28.890  -1.780  44.680  1.00  0.00     0.053 C 
BRANCH  13  14
ATOM     14  C   UNL     1      30.163  -1.314  45.314  1.00  0.00     0.041 C 
ATOM     15  O   UNL     1      31.089  -0.838  44.604  1.00  0.00    -0.550 OA
ATOM     16  O   UNL     1      30.344  -1.444  46.684  1.00  0.00    -0.550 OA
ENDBRANCH  13  14
ENDBRANCH  12  13
ENDBRANCH  11  12
ENDBRANCH  10  11
ENDBRANCH   9  10
ENDBRANCH   8   9
ENDBRANCH   7   8
ENDBRANCH   6   7
ENDBRANCH   5   6
ENDBRANCH   4   5
ENDBRANCH   3   4
ENDBRANCH   2   3
ENDBRANCH   1   2
BRANCH   1  17
ATOM     17  C   UNL     1      27.256   2.993  39.249  1.00  0.00     0.000 C 
BRANCH  17  18
ATOM     18  C   UNL     1      26.018   3.343  38.408  1.00  0.00     0.000 C 
BRANCH  18  19
ATOM     19  C   UNL     1      24.970   4.066  39.260  1.00  0.00     0.000 C 
BRANCH  19  20
ATOM     20  C   UNL     1      23.661   3.263  39.329  1.00  0.00     0.000 C 
BRANCH  20  21
ATOM     21  C   UNL     1      23.267   2.927  40.777  1.00  0.00     0.000 C 
BRANCH  21  22
ATOM     22  C   UNL     1      21.814   2.439  40.888  1.00  0.00    -0.000 C 
BRANCH  22  23
ATOM     23  C   UNL     1      21.559   1.245  39.961  1.00  0.00    -0.000 C 
BRANCH  23  24
ATOM     24  C   UNL     1      21.740  -0.082  40.717  1.00  0.00    -0.000 C 
BRANCH  24  25
ATOM     25  C   UNL     1      20.441  -0.559  41.394  1.00  0.00    -0.000 C 
BRANCH  25  26
ATOM     26  C   UNL     1      20.015   0.282  42.616  1.00  0.00    -0.000 C 
BRANCH  26  27
ATOM     27  C   UNL     1      18.622   0.927  42.492  1.00  0.00    -0.000 C 
BRANCH  27  28
ATOM     28  C   UNL     1      18.649   2.261  41.725  1.00  0.00    -0.000 C 
BRANCH  28  29
ATOM     29  C   UNL     1      17.997   2.146  40.335  1.00  0.00    -0.003 C 
ATOM     30  C   UNL     1      18.393   3.296  39.407  1.00  0.00     0.004 C 
ENDBRANCH  28  29
ENDBRANCH  27  28
ENDBRANCH  26  27
ENDBRANCH  25  26
ENDBRANCH  24  25
ENDBRANCH  23  24
ENDBRANCH  22  23
ENDBRANCH  21  22
ENDBRANCH  20  21
ENDBRANCH  19  20
ENDBRANCH  18  19
ENDBRANCH  17  18
ENDBRANCH   1  17
TORSDOF 26
ENDMDL
MODEL 9
REMARK VINA RESULT:     1.329      4.247     12.151
REMARK INTER + INTRA:           1.173
REMARK INTER:                   2.322
REMARK INTRA:                  -1.149
REMARK UNBOUND:                -2.176
REMARK SMILES CCCCCCCCCCCCCCCCCCCCCCCCCCCC(=O)[O-]
REMARK SMILES IDX 15 1 16 2 17 3 18 4 19 5 20 6 21 7 22 8 23 9 24 10 25 11
REMARK SMILES IDX 26 12 27 13 28 14 29 15 30 16 14 17 13 18 12 19 11 20 10 21
REMARK SMILES IDX 9 22 8 23 7 24 6 25 5 26 4 27 3 28 2 29 1 30
REMARK H PARENT
REMARK Flexibility Score: inf
ROOT
ATOM      1  C   UNL     1      23.791   1.921  41.839  1.00  0.00     0.000 C 
ENDROOT
BRANCH   1   2
ATOM      2  C   UNL     1      23.487   2.610  40.493  1.00  0.00     0.000 C 
BRANCH   2   3
ATOM      3  C   UNL     1      22.080   2.348  39.933  1.00  0.00     0.000 C 
BRANCH   3   4
ATOM      4  C   UNL     1      21.674   0.869  40.018  1.00  0.00     0.000 C 
BRANCH   4   5
ATOM      5  C   UNL     1      20.569   0.659  41.065  1.00  0.00     0.000 C 
BRANCH   5   6
ATOM      6  C   UNL     1      19.766   1.941  41.342  1.00  0.00     0.000 C 
BRANCH   6   7
ATOM      7  C   UNL     1      18.315   1.651  41.762  1.00  0.00     0.000 C 
BRANCH   7   8
ATOM      8  C   UNL     1      18.167   1.502  43.285  1.00  0.00     0.000 C 
BRANCH   8   9
ATOM      9  C   UNL     1      18.407   0.059  43.759  1.00  0.00     0.000 C 
BRANCH   9  10
ATOM     10  C   UNL     1      18.329  -0.966  42.612  1.00  0.00     0.000 C 
BRANCH  10  11
ATOM     11  C   UNL     1      17.337  -2.125  42.835  1.00  0.00     0.000 C 
BRANCH  11  12
ATOM     12  C   UNL     1      15.860  -1.703  42.976  1.00  0.00     0.006 C 
BRANCH  12  13
ATOM     13  C   UNL     1      15.160  -1.389  41.644  1.00  0.00     0.053 C 
BRANCH  13  14
ATOM     14  C   UNL     1      13.725  -1.811  41.654  1.00  0.00     0.041 C 
ATOM     15  O   UNL     1      13.074  -1.875  40.577  1.00  0.00    -0.550 OA
ATOM     16  O   UNL     1      13.092  -2.096  42.857  1.00  0.00    -0.550 OA
ENDBRANCH  13  14
ENDBRANCH  12  13
ENDBRANCH  11  12
ENDBRANCH  10  11
ENDBRANCH   9  10
ENDBRANCH   8   9
ENDBRANCH   7   8
ENDBRANCH   6   7
ENDBRANCH   5   6
ENDBRANCH   4   5
ENDBRANCH   3   4
ENDBRANCH   2   3
ENDBRANCH   1   2
BRANCH   1  17
ATOM     17  C   UNL     1      25.284   1.597  42.050  1.00  0.00     0.000 C 
BRANCH  17  18
ATOM     18  C   UNL     1      25.512   0.154  42.527  1.00  0.00     0.000 C 
BRANCH  18  19
ATOM     19  C   UNL     1      26.648   0.096  43.553  1.00  0.00     0.000 C 
BRANCH  19  20
ATOM     20  C   UNL     1      27.828  -0.741  43.031  1.00  0.00     0.000 C 
BRANCH  20  21
ATOM     21  C   UNL     1      28.538  -1.504  44.161  1.00  0.00     0.000 C 
BRANCH  21  22
ATOM     22  C   UNL     1      30.063  -1.320  44.120  1.00  0.00    -0.000 C 
BRANCH  22  23
ATOM     23  C   UNL     1      30.455  -0.146  43.214  1.00  0.00    -0.000 C 
BRANCH  23  24
ATOM     24  C   UNL     1      31.642  -0.524  42.314  1.00  0.00    -0.000 C 
BRANCH  24  25
ATOM     25  C   UNL     1      31.211  -0.854  40.872  1.00  0.00    -0.000 C 
BRANCH  25  26
ATOM     26  C   UNL     1      29.712  -1.194  40.720  1.00  0.00    -0.000 C 
BRANCH  26  27
ATOM     27  C   UNL     1      28.909  -0.177  39.890  1.00  0.00    -0.000 C 
BRANCH  27  28
ATOM     28  C   UNL     1      29.775   0.984  39.368  1.00  0.00    -0.000 C 
BRANCH  28  29
ATOM     29  C   UNL     1      30.291   0.728  37.941  1.00  0.00    -0.003 C 
ATOM     30  C   UNL     1      31.806   0.912  37.826  1.00  0.00     0.004 C 
ENDBRANCH  28  29
ENDBRANCH  27  28
ENDBRANCH  26  27
ENDBRANCH  25  26
ENDBRANCH  24  25
ENDBRANCH  23  24
ENDBRANCH  22  23
ENDBRANCH  21  22
ENDBRANCH  20  21
ENDBRANCH  19  20
ENDBRANCH  18  19
ENDBRANCH  17  18
ENDBRANCH   1  17
TORSDOF 26
ENDMDL
