MODEL 1
REMARK VINA RESULT:    -4.346      0.000      0.000
REMARK INTER + INTRA:         -10.525
REMARK INTER:                  -8.410
REMARK INTRA:                  -2.115
REMARK UNBOUND:                -2.115
REMARK SMILES CCCCCCCCCCCCCCCCCC(=O)[O-]
REMARK SMILES IDX 10 1 11 2 12 3 13 4 14 5 15 6 16 7 17 8 18 9 19 10 20 11
REMARK SMILES IDX 9 12 8 13 7 14 6 15 5 16 4 17 3 18 2 19 1 20
REMARK H PARENT
REMARK Flexibility Score: inf
ROOT
ATOM      1  C   UNL     1     -23.154  -8.556  -6.882  1.00  0.00     0.000 C 
ENDROOT
BRANCH   1   2
ATOM      2  C   UNL     1     -24.534  -8.903  -6.295  1.00  0.00     0.000 C 
BRANCH   2   3
ATOM      3  C   UNL     1     -24.504  -9.467  -4.859  1.00  0.00     0.000 C 
BRANCH   3   4
ATOM      4  C   UNL     1     -23.992  -8.489  -3.782  1.00  0.00     0.000 C 
BRANCH   4   5
ATOM      5  C   UNL     1     -25.082  -7.626  -3.121  1.00  0.00     0.000 C 
BRANCH   5   6
ATOM      6  C   UNL     1     -25.120  -6.192  -3.675  1.00  0.00     0.000 C 
BRANCH   6   7
ATOM      7  C   UNL     1     -26.528  -5.770  -4.134  1.00  0.00     0.006 C 
BRANCH   7   8
ATOM      8  C   UNL     1     -26.734  -5.813  -5.656  1.00  0.00     0.053 C 
BRANCH   8   9
ATOM      9  C   UNL     1     -25.760  -4.933  -6.378  1.00  0.00     0.041 C 
ATOM     10  O   UNL     1     -25.680  -3.709  -6.094  1.00  0.00    -0.550 OA
ATOM     11  O   UNL     1     -24.963  -5.459  -7.386  1.00  0.00    -0.550 OA
ENDBRANCH   8   9
ENDBRANCH   7   8
ENDBRANCH   6   7
ENDBRANCH   5   6
ENDBRANCH   4   5
ENDBRANCH   3   4
ENDBRANCH   2   3
ENDBRANCH   1   2
BRANCH   1  12
ATOM     12  C   UNL     1     -22.674  -9.585  -7.919  1.00  0.00     0.000 C 
BRANCH  12  13
ATOM     13  C   UNL     1     -21.379 -10.297  -7.492  1.00  0.00    -0.000 C 
BRANCH  13  14
ATOM     14  C   UNL     1     -21.624 -11.367  -6.413  1.00  0.00    -0.000 C 
BRANCH  14  15
ATOM     15  C   UNL     1     -21.094 -10.946  -5.033  1.00  0.00    -0.000 C 
BRANCH  15  16
ATOM     16  C   UNL     1     -19.852 -10.045  -5.125  1.00  0.00    -0.000 C 
BRANCH  16  17
ATOM     17  C   UNL     1     -18.567 -10.865  -4.948  1.00  0.00    -0.000 C 
BRANCH  17  18
ATOM     18  C   UNL     1     -17.494 -10.430  -5.957  1.00  0.00    -0.000 C 
BRANCH  18  19
ATOM     19  C   UNL     1     -17.980  -9.309  -6.889  1.00  0.00    -0.003 C 
ATOM     20  C   UNL     1     -17.995  -9.729  -8.359  1.00  0.00     0.004 C 
ENDBRANCH  18  19
ENDBRANCH  17  18
ENDBRANCH  16  17
ENDBRANCH  15  16
ENDBRANCH  14  15
ENDBRANCH  13  14
ENDBRANCH  12  13
ENDBRANCH   1  12
TORSDOF 16
ENDMDL
MODEL 2
REMARK VINA RESULT:    -4.240      2.704      7.155
REMARK INTER + INTRA:         -10.322
REMARK INTER:                  -7.958
REMARK INTRA:                  -2.364
REMARK UNBOUND:                -2.115
REMARK SMILES CCCCCCCCCCCCCCCCCC(=O)[O-]
REMARK SMILES IDX 10 1 11 2 12 3 13 4 14 5 15 6 16 7 17 8 18 9 19 10 20 11
REMARK SMILES IDX 9 12 8 13 7 14 6 15 5 16 4 17 3 18 2 19 1 20
REMARK H PARENT
REMARK Flexibility Score: inf
ROOT
ATOM      1  C   UNL     1     -24.183  -6.288  -7.294  1.00  0.00     0.000 C 
ENDROOT
BRANCH   1   2
ATOM      2  C   UNL     1     -23.682  -7.486  -6.468  1.00  0.00     0.000 C 
BRANCH   2   3
ATOM      3  C   UNL     1     -24.724  -8.601  -6.246  1.00  0.00     0.000 C 
BRANCH   3   4
ATOM      4  C   UNL     1     -24.533  -9.432  -4.962  1.00  0.00     0.000 C 
BRANCH   4   5
ATOM      5  C   UNL     1     -23.178  -9.234  -4.259  1.00  0.00     0.000 C 
BRANCH   5   6
ATOM      6  C   UNL     1     -22.423 -10.557  -4.041  1.00  0.00     0.000 C 
BRANCH   6   7
ATOM      7  C   UNL     1     -21.226 -10.722  -4.994  1.00  0.00     0.006 C 
BRANCH   7   8
ATOM      8  C   UNL     1     -21.586 -11.330  -6.359  1.00  0.00     0.053 C 
BRANCH   8   9
ATOM      9  C   UNL     1     -21.259 -10.403  -7.489  1.00  0.00     0.041 C 
ATOM     10  O   UNL     1     -20.083  -9.982  -7.644  1.00  0.00    -0.550 OA
ATOM     11  O   UNL     1     -22.261  -9.981  -8.354  1.00  0.00    -0.550 OA
ENDBRANCH   8   9
ENDBRANCH   7   8
ENDBRANCH   6   7
ENDBRANCH   5   6
ENDBRANCH   4   5
ENDBRANCH   3   4
ENDBRANCH   2   3
ENDBRANCH   1   2
BRANCH   1  12
ATOM     12  C   UNL     1     -25.715  -6.144  -7.262  1.00  0.00     0.000 C 
BRANCH  12  13
ATOM     13  C   UNL     1     -26.182  -4.989  -6.360  1.00  0.00    -0.000 C 
BRANCH  13  14
ATOM     14  C   UNL     1     -27.130  -5.462  -5.244  1.00  0.00    -0.000 C 
BRANCH  14  15
ATOM     15  C   UNL     1     -26.379  -6.069  -4.048  1.00  0.00    -0.000 C 
BRANCH  15  16
ATOM     16  C   UNL     1     -25.166  -5.227  -3.621  1.00  0.00    -0.000 C 
BRANCH  16  17
ATOM     17  C   UNL     1     -25.602  -4.034  -2.761  1.00  0.00    -0.000 C 
BRANCH  17  18
ATOM     18  C   UNL     1     -24.636  -2.852  -2.929  1.00  0.00    -0.000 C 
BRANCH  18  19
ATOM     19  C   UNL     1     -24.691  -2.240  -4.338  1.00  0.00    -0.003 C 
ATOM     20  C   UNL     1     -26.050  -1.621  -4.660  1.00  0.00     0.004 C 
ENDBRANCH  18  19
ENDBRANCH  17  18
ENDBRANCH  16  17
ENDBRANCH  15  16
ENDBRANCH  14  15
ENDBRANCH  13  14
ENDBRANCH  12  13
ENDBRANCH   1  12
TORSDOF 16
ENDMDL
MODEL 3
REMARK VINA RESULT:    -4.171      2.548      7.098
REMARK INTER + INTRA:         -10.187
REMARK INTER:                  -7.911
REMARK INTRA:                  -2.277
REMARK UNBOUND:                -2.115
REMARK SMILES CCCCCCCCCCCCCCCCCC(=O)[O-]
REMARK SMILES IDX 10 1 11 2 12 3 13 4 14 5 15 6 16 7 17 8 18 9 19 10 20 11
REMARK SMILES IDX 9 12 8 13 7 14 6 15 5 16 4 17 3 18 2 19 1 20
REMARK H PARENT
REMARK Flexibility Score: inf
ROOT
ATOM      1  C   UNL     1     -22.111  -8.670  -6.964  1.00  0.00     0.000 C 
ENDROOT
BRANCH   1   2
ATOM      2  C   UNL     1     -21.933 -10.026  -7.672  1.00  0.00     0.000 C 
BRANCH   2   3
ATOM      3  C   UNL     1     -21.575 -11.201  -6.739  1.00  0.00     0.000 C 
BRANCH   3   4
ATOM      4  C   UNL     1     -20.988 -10.799  -5.371  1.00  0.00     0.000 C 
BRANCH   4   5
ATOM      5  C   UNL     1     -19.451 -10.774  -5.309  1.00  0.00     0.000 C 
BRANCH   5   6
ATOM      6  C   UNL     1     -18.874  -9.355  -5.440  1.00  0.00     0.000 C 
BRANCH   6   7
ATOM      7  C   UNL     1     -17.803  -9.248  -6.541  1.00  0.00     0.006 C 
BRANCH   7   8
ATOM      8  C   UNL     1     -18.193  -9.921  -7.866  1.00  0.00     0.053 C 
BRANCH   8   9
ATOM      9  C   UNL     1     -18.334  -8.927  -8.979  1.00  0.00     0.041 C 
ATOM     10  O   UNL     1     -19.178  -7.997  -8.895  1.00  0.00    -0.550 OA
ATOM     11  O   UNL     1     -17.553  -9.047 -10.121  1.00  0.00    -0.550 OA
ENDBRANCH   8   9
ENDBRANCH   7   8
ENDBRANCH   6   7
ENDBRANCH   5   6
ENDBRANCH   4   5
ENDBRANCH   3   4
ENDBRANCH   2   3
ENDBRANCH   1   2
BRANCH   1  12
ATOM     12  C   UNL     1     -23.564  -8.166  -7.006  1.00  0.00     0.000 C 
BRANCH  12  13
ATOM     13  C   UNL     1     -24.540  -9.111  -6.287  1.00  0.00    -0.000 C 
BRANCH  13  14
ATOM     14  C   UNL     1     -24.285  -9.177  -4.770  1.00  0.00    -0.000 C 
BRANCH  14  15
ATOM     15  C   UNL     1     -24.279  -7.788  -4.112  1.00  0.00    -0.000 C 
BRANCH  15  16
ATOM     16  C   UNL     1     -25.643  -7.409  -3.513  1.00  0.00    -0.000 C 
BRANCH  16  17
ATOM     17  C   UNL     1     -25.954  -5.926  -3.751  1.00  0.00    -0.000 C 
BRANCH  17  18
ATOM     18  C   UNL     1     -26.880  -5.746  -4.963  1.00  0.00    -0.000 C 
BRANCH  18  19
ATOM     19  C   UNL     1     -26.105  -5.538  -6.273  1.00  0.00    -0.003 C 
ATOM     20  C   UNL     1     -26.711  -6.305  -7.447  1.00  0.00     0.004 C 
ENDBRANCH  18  19
ENDBRANCH  17  18
ENDBRANCH  16  17
ENDBRANCH  15  16
ENDBRANCH  14  15
ENDBRANCH  13  14
ENDBRANCH  12  13
ENDBRANCH   1  12
TORSDOF 16
ENDMDL
MODEL 4
REMARK VINA RESULT:    -4.170      1.515      2.878
REMARK INTER + INTRA:         -10.186
REMARK INTER:                  -7.654
REMARK INTRA:                  -2.532
REMARK UNBOUND:                -2.115
REMARK SMILES CCCCCCCCCCCCCCCCCC(=O)[O-]
REMARK SMILES IDX 10 1 11 2 12 3 13 4 14 5 15 6 16 7 17 8 18 9 19 10 20 11
REMARK SMILES IDX 9 12 8 13 7 14 6 15 5 16 4 17 3 18 2 19 1 20
REMARK H PARENT
REMARK Flexibility Score: inf
ROOT
ATOM      1  C   UNL     1     -22.262 -10.907  -4.149  1.00  0.00     0.000 C 
ENDROOT
BRANCH   1   2
ATOM      2  C   UNL     1     -22.314  -9.494  -3.540  1.00  0.00     0.000 C 
BRANCH   2   3
ATOM      3  C   UNL     1     -23.331  -8.540  -4.201  1.00  0.00     0.000 C 
BRANCH   3   4
ATOM      4  C   UNL     1     -24.513  -9.232  -4.911  1.00  0.00     0.000 C 
BRANCH   4   5
ATOM      5  C   UNL     1     -24.681  -8.863  -6.396  1.00  0.00     0.000 C 
BRANCH   5   6
ATOM      6  C   UNL     1     -23.996  -7.534  -6.759  1.00  0.00     0.000 C 
BRANCH   6   7
ATOM      7  C   UNL     1     -25.001  -6.388  -6.974  1.00  0.00     0.006 C 
BRANCH   7   8
ATOM      8  C   UNL     1     -25.206  -5.489  -5.745  1.00  0.00     0.053 C 
BRANCH   8   9
ATOM      9  C   UNL     1     -26.474  -5.816  -5.017  1.00  0.00     0.041 C 
ATOM     10  O   UNL     1     -27.586  -5.473  -5.497  1.00  0.00    -0.550 OA
ATOM     11  O   UNL     1     -26.424  -6.473  -3.795  1.00  0.00    -0.550 OA
ENDBRANCH   8   9
ENDBRANCH   7   8
ENDBRANCH   6   7
ENDBRANCH   5   6
ENDBRANCH   4   5
ENDBRANCH   3   4
ENDBRANCH   2   3
ENDBRANCH   1   2
BRANCH   1  12
ATOM     12  C   UNL     1     -21.101 -11.081  -5.143  1.00  0.00     0.000 C 
BRANCH  12  13
ATOM     13  C   UNL     1     -21.584 -11.400  -6.568  1.00  0.00    -0.000 C 
BRANCH  13  14
ATOM     14  C   UNL     1     -21.497 -10.182  -7.505  1.00  0.00    -0.000 C 
BRANCH  14  15
ATOM     15  C   UNL     1     -20.291  -9.282  -7.192  1.00  0.00    -0.000 C 
BRANCH  15  16
ATOM     16  C   UNL     1     -18.982  -9.811  -7.800  1.00  0.00    -0.000 C 
BRANCH  16  17
ATOM     17  C   UNL     1     -17.766  -9.283  -7.027  1.00  0.00    -0.000 C 
BRANCH  17  18
ATOM     18  C   UNL     1     -17.520 -10.111  -5.758  1.00  0.00    -0.000 C 
BRANCH  18  19
ATOM     19  C   UNL     1     -17.278  -9.234  -4.519  1.00  0.00    -0.003 C 
ATOM     20  C   UNL     1     -18.530  -9.067  -3.659  1.00  0.00     0.004 C 
ENDBRANCH  18  19
ENDBRANCH  17  18
ENDBRANCH  16  17
ENDBRANCH  15  16
ENDBRANCH  14  15
ENDBRANCH  13  14
ENDBRANCH  12  13
ENDBRANCH   1  12
TORSDOF 16
ENDMDL
MODEL 5
REMARK VINA RESULT:    -4.161      3.077      7.220
REMARK INTER + INTRA:         -10.168
REMARK INTER:                  -7.470
REMARK INTRA:                  -2.698
REMARK UNBOUND:                -2.115
REMARK SMILES CCCCCCCCCCCCCCCCCC(=O)[O-]
REMARK SMILES IDX 10 1 11 2 12 3 13 4 14 5 15 6 16 7 17 8 18 9 19 10 20 11
REMARK SMILES IDX 9 12 8 13 7 14 6 15 5 16 4 17 3 18 2 19 1 20
REMARK H PARENT
REMARK Flexibility Score: inf
ROOT
ATOM      1  C   UNL     1     -23.695  -8.481  -3.926  1.00  0.00     0.000 C 
ENDROOT
BRANCH   1   2
ATOM      2  C   UNL     1     -24.816  -8.910  -4.891  1.00  0.00     0.000 C 
BRANCH   2   3
ATOM      3  C   UNL     1     -24.345  -9.249  -6.320  1.00  0.00     0.000 C 
BRANCH   3   4
ATOM      4  C   UNL     1     -22.817  -9.340  -6.504  1.00  0.00     0.000 C 
BRANCH   4   5
ATOM      5  C   UNL     1     -22.289 -10.744  -6.850  1.00  0.00     0.000 C 
BRANCH   5   6
ATOM      6  C   UNL     1     -21.619 -11.438  -5.651  1.00  0.00     0.000 C 
BRANCH   6   7
ATOM      7  C   UNL     1     -20.598 -10.535  -4.937  1.00  0.00     0.006 C 
BRANCH   7   8
ATOM      8  C   UNL     1     -19.145 -10.744  -5.391  1.00  0.00     0.053 C 
BRANCH   8   9
ATOM      9  C   UNL     1     -18.191  -9.871  -4.636  1.00  0.00     0.041 C 
ATOM     10  O   UNL     1     -18.561  -9.292  -3.581  1.00  0.00    -0.550 OA
ATOM     11  O   UNL     1     -16.902  -9.672  -5.115  1.00  0.00    -0.550 OA
ENDBRANCH   8   9
ENDBRANCH   7   8
ENDBRANCH   6   7
ENDBRANCH   5   6
ENDBRANCH   4   5
ENDBRANCH   3   4
ENDBRANCH   2   3
ENDBRANCH   1   2
BRANCH   1  12
ATOM     12  C   UNL     1     -23.932  -7.085  -3.325  1.00  0.00     0.000 C 
BRANCH  12  13
ATOM     13  C   UNL     1     -25.400  -6.638  -3.427  1.00  0.00    -0.000 C 
BRANCH  13  14
ATOM     14  C   UNL     1     -25.541  -5.111  -3.559  1.00  0.00    -0.000 C 
BRANCH  14  15
ATOM     15  C   UNL     1     -26.234  -4.692  -4.866  1.00  0.00    -0.000 C 
BRANCH  15  16
ATOM     16  C   UNL     1     -26.999  -5.849  -5.528  1.00  0.00    -0.000 C 
BRANCH  16  17
ATOM     17  C   UNL     1     -26.421  -6.165  -6.914  1.00  0.00    -0.000 C 
BRANCH  17  18
ATOM     18  C   UNL     1     -25.310  -5.173  -7.286  1.00  0.00    -0.000 C 
BRANCH  18  19
ATOM     19  C   UNL     1     -23.969  -5.868  -7.569  1.00  0.00    -0.003 C 
ATOM     20  C   UNL     1     -22.907  -5.554  -6.516  1.00  0.00     0.004 C 
ENDBRANCH  18  19
ENDBRANCH  17  18
ENDBRANCH  16  17
ENDBRANCH  15  16
ENDBRANCH  14  15
ENDBRANCH  13  14
ENDBRANCH  12  13
ENDBRANCH   1  12
TORSDOF 16
ENDMDL
MODEL 6
REMARK VINA RESULT:    -4.138      1.639      2.830
REMARK INTER + INTRA:         -10.122
REMARK INTER:                  -8.131
REMARK INTRA:                  -1.991
REMARK UNBOUND:                -2.115
REMARK SMILES CCCCCCCCCCCCCCCCCC(=O)[O-]
REMARK SMILES IDX 10 1 11 2 12 3 13 4 14 5 15 6 16 7 17 8 18 9 19 10 20 11
REMARK SMILES IDX 9 12 8 13 7 14 6 15 5 16 4 17 3 18 2 19 1 20
REMARK H PARENT
REMARK Flexibility Score: inf
ROOT
ATOM      1  C   UNL     1     -22.978  -8.880  -4.045  1.00  0.00     0.000 C 
ENDROOT
BRANCH   1   2
ATOM      2  C   UNL     1     -24.259  -9.407  -4.717  1.00  0.00     0.000 C 
BRANCH   2   3
ATOM      3  C   UNL     1     -24.599  -8.749  -6.070  1.00  0.00     0.000 C 
BRANCH   3   4
ATOM      4  C   UNL     1     -24.223  -7.257  -6.186  1.00  0.00     0.000 C 
BRANCH   4   5
ATOM      5  C   UNL     1     -24.962  -6.489  -7.297  1.00  0.00     0.000 C 
BRANCH   5   6
ATOM      6  C   UNL     1     -26.436  -6.215  -6.949  1.00  0.00     0.000 C 
BRANCH   6   7
ATOM      7  C   UNL     1     -26.626  -5.753  -5.493  1.00  0.00     0.006 C 
BRANCH   7   8
ATOM      8  C   UNL     1     -26.423  -4.245  -5.279  1.00  0.00     0.053 C 
BRANCH   8   9
ATOM      9  C   UNL     1     -25.619  -3.958  -4.048  1.00  0.00     0.041 C 
ATOM     10  O   UNL     1     -25.093  -4.901  -3.400  1.00  0.00    -0.550 OA
ATOM     11  O   UNL     1     -25.474  -2.651  -3.601  1.00  0.00    -0.550 OA
ENDBRANCH   8   9
ENDBRANCH   7   8
ENDBRANCH   6   7
ENDBRANCH   5   6
ENDBRANCH   4   5
ENDBRANCH   3   4
ENDBRANCH   2   3
ENDBRANCH   1   2
BRANCH   1  12
ATOM     12  C   UNL     1     -21.971  -9.999  -3.730  1.00  0.00     0.000 C 
BRANCH  12  13
ATOM     13  C   UNL     1     -22.267 -11.297  -4.499  1.00  0.00    -0.000 C 
BRANCH  13  14
ATOM     14  C   UNL     1     -21.293 -11.522  -5.670  1.00  0.00    -0.000 C 
BRANCH  14  15
ATOM     15  C   UNL     1     -21.846 -11.000  -7.006  1.00  0.00    -0.000 C 
BRANCH  15  16
ATOM     16  C   UNL     1     -20.977  -9.888  -7.614  1.00  0.00    -0.000 C 
BRANCH  16  17
ATOM     17  C   UNL     1     -19.863  -9.472  -6.644  1.00  0.00    -0.000 C 
BRANCH  17  18
ATOM     18  C   UNL     1     -18.480  -9.811  -7.219  1.00  0.00    -0.000 C 
BRANCH  18  19
ATOM     19  C   UNL     1     -17.496 -10.294  -6.142  1.00  0.00    -0.003 C 
ATOM     20  C   UNL     1     -18.102 -10.284  -4.740  1.00  0.00     0.004 C 
ENDBRANCH  18  19
ENDBRANCH  17  18
ENDBRANCH  16  17
ENDBRANCH  15  16
ENDBRANCH  14  15
ENDBRANCH  13  14
ENDBRANCH  12  13
ENDBRANCH   1  12
TORSDOF 16
ENDMDL
MODEL 7
REMARK VINA RESULT:    -4.130      2.870      4.545
REMARK INTER + INTRA:         -10.107
REMARK INTER:                  -8.103
REMARK INTRA:                  -2.005
REMARK UNBOUND:                -2.115
REMARK SMILES CCCCCCCCCCCCCCCCCC(=O)[O-]
REMARK SMILES IDX 10 1 11 2 12 3 13 4 14 5 15 6 16 7 17 8 18 9 19 10 20 11
REMARK SMILES IDX 9 12 8 13 7 14 6 15 5 16 4 17 3 18 2 19 1 20
REMARK H PARENT
REMARK Flexibility Score: inf
ROOT
ATOM      1  C   UNL     1     -25.479  -5.428  -7.208  1.00  0.00     0.000 C 
ENDROOT
BRANCH   1   2
ATOM      2  C   UNL     1     -26.692  -6.074  -6.515  1.00  0.00     0.000 C 
BRANCH   2   3
ATOM      3  C   UNL     1     -27.164  -5.356  -5.233  1.00  0.00     0.000 C 
BRANCH   3   4
ATOM      4  C   UNL     1     -26.459  -5.799  -3.936  1.00  0.00     0.000 C 
BRANCH   4   5
ATOM      5  C   UNL     1     -25.302  -4.889  -3.485  1.00  0.00     0.000 C 
BRANCH   5   6
ATOM      6  C   UNL     1     -25.449  -3.446  -3.995  1.00  0.00     0.000 C 
BRANCH   6   7
ATOM      7  C   UNL     1     -25.138  -2.398  -2.911  1.00  0.00     0.006 C 
BRANCH   7   8
ATOM      8  C   UNL     1     -25.889  -2.618  -1.588  1.00  0.00     0.053 C 
BRANCH   8   9
ATOM      9  C   UNL     1     -24.955  -2.691  -0.420  1.00  0.00     0.041 C 
ATOM     10  O   UNL     1     -25.083  -1.893   0.545  1.00  0.00    -0.550 OA
ATOM     11  O   UNL     1     -23.925  -3.623  -0.410  1.00  0.00    -0.550 OA
ENDBRANCH   8   9
ENDBRANCH   7   8
ENDBRANCH   6   7
ENDBRANCH   5   6
ENDBRANCH   4   5
ENDBRANCH   3   4
ENDBRANCH   2   3
ENDBRANCH   1   2
BRANCH   1  12
ATOM     12  C   UNL     1     -24.357  -6.439  -7.503  1.00  0.00     0.000 C 
BRANCH  12  13
ATOM     13  C   UNL     1     -23.995  -7.296  -6.279  1.00  0.00    -0.000 C 
BRANCH  13  14
ATOM     14  C   UNL     1     -24.443  -8.761  -6.435  1.00  0.00    -0.000 C 
BRANCH  14  15
ATOM     15  C   UNL     1     -24.508  -9.504  -5.090  1.00  0.00    -0.000 C 
BRANCH  15  16
ATOM     16  C   UNL     1     -23.554  -8.914  -4.040  1.00  0.00    -0.000 C 
BRANCH  16  17
ATOM     17  C   UNL     1     -22.181  -9.594  -4.103  1.00  0.00    -0.000 C 
BRANCH  17  18
ATOM     18  C   UNL     1     -22.322 -11.090  -4.423  1.00  0.00    -0.000 C 
BRANCH  18  19
ATOM     19  C   UNL     1     -21.507 -11.509  -5.656  1.00  0.00    -0.003 C 
ATOM     20  C   UNL     1     -20.968 -10.315  -6.442  1.00  0.00     0.004 C 
ENDBRANCH  18  19
ENDBRANCH  17  18
ENDBRANCH  16  17
ENDBRANCH  15  16
ENDBRANCH  14  15
ENDBRANCH  13  14
ENDBRANCH  12  13
ENDBRANCH   1  12
TORSDOF 16
ENDMDL
MODEL 8
REMARK VINA RESULT:    -4.128      3.055      6.952
REMARK INTER + INTRA:         -10.104
REMARK INTER:                  -7.339
REMARK INTRA:                  -2.765
REMARK UNBOUND:                -2.115
REMARK SMILES CCCCCCCCCCCCCCCCCC(=O)[O-]
REMARK SMILES IDX 10 1 11 2 12 3 13 4 14 5 15 6 16 7 17 8 18 9 19 10 20 11
REMARK SMILES IDX 9 12 8 13 7 14 6 15 5 16 4 17 3 18 2 19 1 20
REMARK H PARENT
REMARK Flexibility Score: inf
ROOT
ATOM      1  C   UNL     1     -23.371  -8.411  -4.152  1.00  0.00     0.000 C 
ENDROOT
BRANCH   1   2
ATOM      2  C   UNL     1     -22.092  -9.268  -4.165  1.00  0.00     0.000 C 
BRANCH   2   3
ATOM      3  C   UNL     1     -22.334 -10.791  -4.115  1.00  0.00     0.000 C 
BRANCH   3   4
ATOM      4  C   UNL     1     -21.765 -11.585  -5.308  1.00  0.00     0.000 C 
BRANCH   4   5
ATOM      5  C   UNL     1     -22.039 -10.963  -6.689  1.00  0.00     0.000 C 
BRANCH   5   6
ATOM      6  C   UNL     1     -20.752 -10.523  -7.408  1.00  0.00     0.000 C 
BRANCH   6   7
ATOM      7  C   UNL     1     -20.752  -9.025  -7.762  1.00  0.00     0.006 C 
BRANCH   7   8
ATOM      8  C   UNL     1     -19.807  -8.174  -6.901  1.00  0.00     0.053 C 
BRANCH   8   9
ATOM      9  C   UNL     1     -18.415  -8.148  -7.454  1.00  0.00     0.041 C 
ATOM     10  O   UNL     1     -17.479  -7.629  -6.791  1.00  0.00    -0.550 OA
ATOM     11  O   UNL     1     -18.158  -8.672  -8.714  1.00  0.00    -0.550 OA
ENDBRANCH   8   9
ENDBRANCH   7   8
ENDBRANCH   6   7
ENDBRANCH   5   6
ENDBRANCH   4   5
ENDBRANCH   3   4
ENDBRANCH   2   3
ENDBRANCH   1   2
BRANCH   1  12
ATOM     12  C   UNL     1     -24.551  -9.094  -4.863  1.00  0.00     0.000 C 
BRANCH  12  13
ATOM     13  C   UNL     1     -24.726  -8.616  -6.313  1.00  0.00    -0.000 C 
BRANCH  13  14
ATOM     14  C   UNL     1     -23.859  -7.385  -6.635  1.00  0.00    -0.000 C 
BRANCH  14  15
ATOM     15  C   UNL     1     -24.638  -6.294  -7.388  1.00  0.00    -0.000 C 
BRANCH  15  16
ATOM     16  C   UNL     1     -26.109  -6.209  -6.951  1.00  0.00    -0.000 C 
BRANCH  16  17
ATOM     17  C   UNL     1     -26.285  -5.193  -5.815  1.00  0.00    -0.000 C 
BRANCH  17  18
ATOM     18  C   UNL     1     -26.768  -5.882  -4.530  1.00  0.00    -0.000 C 
BRANCH  18  19
ATOM     19  C   UNL     1     -25.764  -5.749  -3.375  1.00  0.00    -0.003 C 
ATOM     20  C   UNL     1     -24.540  -4.915  -3.750  1.00  0.00     0.004 C 
ENDBRANCH  18  19
ENDBRANCH  17  18
ENDBRANCH  16  17
ENDBRANCH  15  16
ENDBRANCH  14  15
ENDBRANCH  13  14
ENDBRANCH  12  13
ENDBRANCH   1  12
TORSDOF 16
ENDMDL
MODEL 9
REMARK VINA RESULT:    -4.116      1.907      3.505
REMARK INTER + INTRA:         -10.080
REMARK INTER:                  -7.134
REMARK INTRA:                  -2.946
REMARK UNBOUND:                -2.115
REMARK SMILES CCCCCCCCCCCCCCCCCC(=O)[O-]
REMARK SMILES IDX 10 1 11 2 12 3 13 4 14 5 15 6 16 7 17 8 18 9 19 10 20 11
REMARK SMILES IDX 9 12 8 13 7 14 6 15 5 16 4 17 3 18 2 19 1 20
REMARK H PARENT
REMARK Flexibility Score: inf
ROOT
ATOM      1  C   UNL     1     -21.763  -9.017  -8.136  1.00  0.00     0.000 C 
ENDROOT
BRANCH   1   2
ATOM      2  C   UNL     1     -22.214 -10.389  -7.603  1.00  0.00     0.000 C 
BRANCH   2   3
ATOM      3  C   UNL     1     -21.279 -11.014  -6.548  1.00  0.00     0.000 C 
BRANCH   3   4
ATOM      4  C   UNL     1     -21.971 -11.482  -5.251  1.00  0.00     0.000 C 
BRANCH   4   5
ATOM      5  C   UNL     1     -22.283 -10.361  -4.244  1.00  0.00     0.000 C 
BRANCH   5   6
ATOM      6  C   UNL     1     -23.723  -9.835  -4.368  1.00  0.00     0.000 C 
BRANCH   6   7
ATOM      7  C   UNL     1     -23.780  -8.320  -4.637  1.00  0.00     0.006 C 
BRANCH   7   8
ATOM      8  C   UNL     1     -25.165  -7.806  -5.060  1.00  0.00     0.053 C 
BRANCH   8   9
ATOM      9  C   UNL     1     -25.836  -7.036  -3.964  1.00  0.00     0.041 C 
ATOM     10  O   UNL     1     -26.750  -6.214  -4.235  1.00  0.00    -0.550 OA
ATOM     11  O   UNL     1     -25.430  -7.205  -2.647  1.00  0.00    -0.550 OA
ENDBRANCH   8   9
ENDBRANCH   7   8
ENDBRANCH   6   7
ENDBRANCH   5   6
ENDBRANCH   4   5
ENDBRANCH   3   4
ENDBRANCH   2   3
ENDBRANCH   1   2
BRANCH   1  12
ATOM     12  C   UNL     1     -20.960  -8.213  -7.099  1.00  0.00     0.000 C 
BRANCH  12  13
ATOM     13  C   UNL     1     -19.557  -7.834  -7.600  1.00  0.00    -0.000 C 
BRANCH  13  14
ATOM     14  C   UNL     1     -19.002  -8.847  -8.616  1.00  0.00    -0.000 C 
BRANCH  14  15
ATOM     15  C   UNL     1     -18.134  -9.931  -7.955  1.00  0.00    -0.000 C 
BRANCH  15  16
ATOM     16  C   UNL     1     -17.586  -9.498  -6.586  1.00  0.00    -0.000 C 
BRANCH  16  17
ATOM     17  C   UNL     1     -17.813 -10.592  -5.535  1.00  0.00    -0.000 C 
BRANCH  17  18
ATOM     18  C   UNL     1     -18.585 -10.043  -4.327  1.00  0.00    -0.000 C 
BRANCH  18  19
ATOM     19  C   UNL     1     -18.493  -8.513  -4.214  1.00  0.00    -0.003 C 
ATOM     20  C   UNL     1     -19.712  -7.897  -3.528  1.00  0.00     0.004 C 
ENDBRANCH  18  19
ENDBRANCH  17  18
ENDBRANCH  16  17
ENDBRANCH  15  16
ENDBRANCH  14  15
ENDBRANCH  13  14
ENDBRANCH  12  13
ENDBRANCH   1  12
TORSDOF 16
ENDMDL
