MODEL 1
REMARK VINA RESULT:    -3.928      0.000      0.000
REMARK INTER + INTRA:         -14.227
REMARK INTER:                  -9.899
REMARK INTRA:                  -4.329
REMARK UNBOUND:                -4.329
REMARK SMILES CCCCCCCCCCCCCCCCCCCCCCCCCCCC(=O)[O-]
REMARK SMILES IDX 15 1 16 2 17 3 18 4 19 5 20 6 21 7 22 8 23 9 24 10 25 11
REMARK SMILES IDX 26 12 27 13 28 14 29 15 30 16 14 17 13 18 12 19 11 20 10 21
REMARK SMILES IDX 9 22 8 23 7 24 6 25 5 26 4 27 3 28 2 29 1 30
REMARK H PARENT
REMARK Flexibility Score: inf
ROOT
ATOM      1  C   UNL     1      -3.248  -8.452 -43.630  1.00  0.00     0.000 C 
ENDROOT
BRANCH   1   2
ATOM      2  C   UNL     1      -3.714  -7.916 -42.268  1.00  0.00     0.000 C 
BRANCH   2   3
ATOM      3  C   UNL     1      -3.136  -8.719 -41.089  1.00  0.00     0.000 C 
BRANCH   3   4
ATOM      4  C   UNL     1      -2.533  -7.818 -40.001  1.00  0.00     0.000 C 
BRANCH   4   5
ATOM      5  C   UNL     1      -1.184  -8.342 -39.480  1.00  0.00     0.000 C 
BRANCH   5   6
ATOM      6  C   UNL     1      -1.324  -9.056 -38.118  1.00  0.00     0.000 C 
BRANCH   6   7
ATOM      7  C   UNL     1      -1.263 -10.590 -38.213  1.00  0.00     0.000 C 
BRANCH   7   8
ATOM      8  C   UNL     1      -2.598 -11.217 -38.646  1.00  0.00     0.000 C 
BRANCH   8   9
ATOM      9  C   UNL     1      -2.413 -12.545 -39.399  1.00  0.00     0.000 C 
BRANCH   9  10
ATOM     10  C   UNL     1      -1.232 -12.510 -40.379  1.00  0.00     0.000 C 
BRANCH  10  11
ATOM     11  C   UNL     1      -1.655 -11.910 -41.726  1.00  0.00     0.000 C 
BRANCH  11  12
ATOM     12  C   UNL     1      -0.517 -11.086 -42.345  1.00  0.00     0.006 C 
BRANCH  12  13
ATOM     13  C   UNL     1       0.625 -10.833 -41.351  1.00  0.00     0.053 C 
BRANCH  13  14
ATOM     14  C   UNL     1       1.789 -10.152 -42.005  1.00  0.00     0.041 C 
ATOM     15  O   UNL     1       1.603  -9.179 -42.781  1.00  0.00    -0.550 OA
ATOM     16  O   UNL     1       3.080 -10.610 -41.775  1.00  0.00    -0.550 OA
ENDBRANCH  13  14
ENDBRANCH  12  13
ENDBRANCH  11  12
ENDBRANCH  10  11
ENDBRANCH   9  10
ENDBRANCH   8   9
ENDBRANCH   7   8
ENDBRANCH   6   7
ENDBRANCH   5   6
ENDBRANCH   4   5
ENDBRANCH   3   4
ENDBRANCH   2   3
ENDBRANCH   1   2
BRANCH   1  17
ATOM     17  C   UNL     1      -4.056  -7.872 -44.801  1.00  0.00     0.000 C 
BRANCH  17  18
ATOM     18  C   UNL     1      -3.124  -7.280 -45.868  1.00  0.00     0.000 C 
BRANCH  18  19
ATOM     19  C   UNL     1      -3.732  -7.300 -47.284  1.00  0.00     0.000 C 
BRANCH  19  20
ATOM     20  C   UNL     1      -3.472  -8.581 -48.107  1.00  0.00     0.000 C 
BRANCH  20  21
ATOM     21  C   UNL     1      -4.739  -9.301 -48.624  1.00  0.00     0.000 C 
BRANCH  21  22
ATOM     22  C   UNL     1      -5.795  -9.585 -47.536  1.00  0.00    -0.000 C 
BRANCH  22  23
ATOM     23  C   UNL     1      -7.115  -8.812 -47.689  1.00  0.00    -0.000 C 
BRANCH  23  24
ATOM     24  C   UNL     1      -7.341  -7.792 -46.558  1.00  0.00    -0.000 C 
BRANCH  24  25
ATOM     25  C   UNL     1      -8.270  -8.323 -45.455  1.00  0.00    -0.000 C 
BRANCH  25  26
ATOM     26  C   UNL     1      -7.507  -8.702 -44.176  1.00  0.00    -0.000 C 
BRANCH  26  27
ATOM     27  C   UNL     1      -8.090  -9.947 -43.486  1.00  0.00    -0.000 C 
BRANCH  27  28
ATOM     28  C   UNL     1      -7.418 -11.265 -43.929  1.00  0.00    -0.000 C 
BRANCH  28  29
ATOM     29  C   UNL     1      -5.926 -11.077 -44.238  1.00  0.00    -0.003 C 
ATOM     30  C   UNL     1      -5.056 -11.610 -43.103  1.00  0.00     0.004 C 
ENDBRANCH  28  29
ENDBRANCH  27  28
ENDBRANCH  26  27
ENDBRANCH  25  26
ENDBRANCH  24  25
ENDBRANCH  23  24
ENDBRANCH  22  23
ENDBRANCH  21  22
ENDBRANCH  20  21
ENDBRANCH  19  20
ENDBRANCH  18  19
ENDBRANCH  17  18
ENDBRANCH   1  17
TORSDOF 26
ENDMDL
MODEL 2
REMARK VINA RESULT:    -3.864      2.241      3.220
REMARK INTER + INTRA:         -14.065
REMARK INTER:                  -9.219
REMARK INTRA:                  -4.845
REMARK UNBOUND:                -4.329
REMARK SMILES CCCCCCCCCCCCCCCCCCCCCCCCCCCC(=O)[O-]
REMARK SMILES IDX 15 1 16 2 17 3 18 4 19 5 20 6 21 7 22 8 23 9 24 10 25 11
REMARK SMILES IDX 26 12 27 13 28 14 29 15 30 16 14 17 13 18 12 19 11 20 10 21
REMARK SMILES IDX 9 22 8 23 7 24 6 25 5 26 4 27 3 28 2 29 1 30
REMARK H PARENT
REMARK Flexibility Score: inf
ROOT
ATOM      1  C   UNL     1      -4.209  -7.377 -45.008  1.00  0.00     0.000 C 
ENDROOT
BRANCH   1   2
ATOM      2  C   UNL     1      -4.119  -8.710 -44.249  1.00  0.00     0.000 C 
BRANCH   2   3
ATOM      3  C   UNL     1      -3.020  -8.704 -43.173  1.00  0.00     0.000 C 
BRANCH   3   4
ATOM      4  C   UNL     1      -3.445  -7.954 -41.901  1.00  0.00     0.000 C 
BRANCH   4   5
ATOM      5  C   UNL     1      -3.121  -8.737 -40.617  1.00  0.00     0.000 C 
BRANCH   5   6
ATOM      6  C   UNL     1      -1.933  -8.123 -39.845  1.00  0.00     0.000 C 
BRANCH   6   7
ATOM      7  C   UNL     1      -0.689  -9.028 -39.800  1.00  0.00     0.000 C 
BRANCH   7   8
ATOM      8  C   UNL     1      -0.005  -9.173 -41.169  1.00  0.00     0.000 C 
BRANCH   8   9
ATOM      9  C   UNL     1       0.816 -10.467 -41.289  1.00  0.00     0.000 C 
BRANCH   9  10
ATOM     10  C   UNL     1      -0.065 -11.725 -41.323  1.00  0.00     0.000 C 
BRANCH  10  11
ATOM     11  C   UNL     1      -1.158 -11.599 -42.392  1.00  0.00     0.000 C 
BRANCH  11  12
ATOM     12  C   UNL     1      -2.486 -12.188 -41.895  1.00  0.00     0.006 C 
BRANCH  12  13
ATOM     13  C   UNL     1      -2.578 -12.204 -40.363  1.00  0.00     0.053 C 
BRANCH  13  14
ATOM     14  C   UNL     1      -3.075 -13.522 -39.851  1.00  0.00     0.041 C 
ATOM     15  O   UNL     1      -2.402 -14.570 -40.031  1.00  0.00    -0.550 OA
ATOM     16  O   UNL     1      -4.298 -13.596 -39.195  1.00  0.00    -0.550 OA
ENDBRANCH  13  14
ENDBRANCH  12  13
ENDBRANCH  11  12
ENDBRANCH  10  11
ENDBRANCH   9  10
ENDBRANCH   8   9
ENDBRANCH   7   8
ENDBRANCH   6   7
ENDBRANCH   5   6
ENDBRANCH   4   5
ENDBRANCH   3   4
ENDBRANCH   2   3
ENDBRANCH   1   2
BRANCH   1  17
ATOM     17  C   UNL     1      -3.101  -7.221 -46.060  1.00  0.00     0.000 C 
BRANCH  17  18
ATOM     18  C   UNL     1      -3.699  -7.063 -47.465  1.00  0.00     0.000 C 
BRANCH  18  19
ATOM     19  C   UNL     1      -3.176  -8.110 -48.469  1.00  0.00     0.000 C 
BRANCH  19  20
ATOM     20  C   UNL     1      -4.079  -9.345 -48.681  1.00  0.00     0.000 C 
BRANCH  20  21
ATOM     21  C   UNL     1      -5.582  -9.118 -48.395  1.00  0.00     0.000 C 
BRANCH  21  22
ATOM     22  C   UNL     1      -6.114  -9.880 -47.164  1.00  0.00    -0.000 C 
BRANCH  22  23
ATOM     23  C   UNL     1      -7.519  -9.465 -46.697  1.00  0.00    -0.000 C 
BRANCH  23  24
ATOM     24  C   UNL     1      -7.607  -9.280 -45.171  1.00  0.00    -0.000 C 
BRANCH  24  25
ATOM     25  C   UNL     1      -8.575 -10.272 -44.507  1.00  0.00    -0.000 C 
BRANCH  25  26
ATOM     26  C   UNL     1      -7.883 -11.580 -44.093  1.00  0.00    -0.000 C 
BRANCH  26  27
ATOM     27  C   UNL     1      -6.478 -11.349 -43.513  1.00  0.00    -0.000 C 
BRANCH  27  28
ATOM     28  C   UNL     1      -6.243 -12.068 -42.168  1.00  0.00    -0.000 C 
BRANCH  28  29
ATOM     29  C   UNL     1      -6.067 -11.078 -41.007  1.00  0.00    -0.003 C 
ATOM     30  C   UNL     1      -6.612  -9.700 -41.370  1.00  0.00     0.004 C 
ENDBRANCH  28  29
ENDBRANCH  27  28
ENDBRANCH  26  27
ENDBRANCH  25  26
ENDBRANCH  24  25
ENDBRANCH  23  24
ENDBRANCH  22  23
ENDBRANCH  21  22
ENDBRANCH  20  21
ENDBRANCH  19  20
ENDBRANCH  18  19
ENDBRANCH  17  18
ENDBRANCH   1  17
TORSDOF 26
ENDMDL
MODEL 3
REMARK VINA RESULT:    -3.773      3.098      8.991
REMARK INTER + INTRA:         -13.838
REMARK INTER:                  -9.706
REMARK INTRA:                  -4.132
REMARK UNBOUND:                -4.329
REMARK SMILES CCCCCCCCCCCCCCCCCCCCCCCCCCCC(=O)[O-]
REMARK SMILES IDX 15 1 16 2 17 3 18 4 19 5 20 6 21 7 22 8 23 9 24 10 25 11
REMARK SMILES IDX 26 12 27 13 28 14 29 15 30 16 14 17 13 18 12 19 11 20 10 21
REMARK SMILES IDX 9 22 8 23 7 24 6 25 5 26 4 27 3 28 2 29 1 30
REMARK H PARENT
REMARK Flexibility Score: inf
ROOT
ATOM      1  C   UNL     1      -1.800 -11.738 -38.706  1.00  0.00     0.000 C 
ENDROOT
BRANCH   1   2
ATOM      2  C   UNL     1      -2.895 -12.536 -39.430  1.00  0.00     0.000 C 
BRANCH   2   3
ATOM      3  C   UNL     1      -3.959 -11.629 -40.072  1.00  0.00     0.000 C 
BRANCH   3   4
ATOM      4  C   UNL     1      -4.749 -12.341 -41.181  1.00  0.00     0.000 C 
BRANCH   4   5
ATOM      5  C   UNL     1      -5.563 -11.364 -42.047  1.00  0.00     0.000 C 
BRANCH   5   6
ATOM      6  C   UNL     1      -4.774 -10.890 -43.286  1.00  0.00     0.000 C 
BRANCH   6   7
ATOM      7  C   UNL     1      -4.751  -9.361 -43.457  1.00  0.00     0.000 C 
BRANCH   7   8
ATOM      8  C   UNL     1      -3.327  -8.790 -43.557  1.00  0.00     0.000 C 
BRANCH   8   9
ATOM      9  C   UNL     1      -2.597  -8.778 -42.204  1.00  0.00     0.000 C 
BRANCH   9  10
ATOM     10  C   UNL     1      -1.158  -9.303 -42.304  1.00  0.00     0.000 C 
BRANCH  10  11
ATOM     11  C   UNL     1      -1.139 -10.834 -42.397  1.00  0.00     0.000 C 
BRANCH  11  12
ATOM     12  C   UNL     1       0.161 -11.407 -41.814  1.00  0.00     0.006 C 
BRANCH  12  13
ATOM     13  C   UNL     1       1.280 -10.359 -41.748  1.00  0.00     0.053 C 
BRANCH  13  14
ATOM     14  C   UNL     1       2.581 -10.905 -42.253  1.00  0.00     0.041 C 
ATOM     15  O   UNL     1       3.645 -10.711 -41.610  1.00  0.00    -0.550 OA
ATOM     16  O   UNL     1       2.622 -11.608 -43.451  1.00  0.00    -0.550 OA
ENDBRANCH  13  14
ENDBRANCH  12  13
ENDBRANCH  11  12
ENDBRANCH  10  11
ENDBRANCH   9  10
ENDBRANCH   8   9
ENDBRANCH   7   8
ENDBRANCH   6   7
ENDBRANCH   5   6
ENDBRANCH   4   5
ENDBRANCH   3   4
ENDBRANCH   2   3
ENDBRANCH   1   2
BRANCH   1  17
ATOM     17  C   UNL     1      -2.060 -10.225 -38.725  1.00  0.00     0.000 C 
BRANCH  17  18
ATOM     18  C   UNL     1      -0.742  -9.444 -38.823  1.00  0.00     0.000 C 
BRANCH  18  19
ATOM     19  C   UNL     1      -0.842  -8.011 -38.264  1.00  0.00     0.000 C 
BRANCH  19  20
ATOM     20  C   UNL     1      -0.292  -7.810 -36.835  1.00  0.00     0.000 C 
BRANCH  20  21
ATOM     21  C   UNL     1      -1.356  -7.823 -35.712  1.00  0.00     0.000 C 
BRANCH  21  22
ATOM     22  C   UNL     1      -1.456  -9.159 -34.949  1.00  0.00    -0.000 C 
BRANCH  22  23
ATOM     23  C   UNL     1      -0.409 -10.215 -35.341  1.00  0.00    -0.000 C 
BRANCH  23  24
ATOM     24  C   UNL     1      -0.121 -11.215 -34.207  1.00  0.00    -0.000 C 
BRANCH  24  25
ATOM     25  C   UNL     1      -1.260 -11.293 -33.178  1.00  0.00    -0.000 C 
BRANCH  25  26
ATOM     26  C   UNL     1      -1.391 -12.691 -32.551  1.00  0.00    -0.000 C 
BRANCH  26  27
ATOM     27  C   UNL     1      -0.044 -13.427 -32.461  1.00  0.00    -0.000 C 
BRANCH  27  28
ATOM     28  C   UNL     1      -0.070 -14.835 -33.093  1.00  0.00    -0.000 C 
BRANCH  28  29
ATOM     29  C   UNL     1      -0.698 -14.827 -34.495  1.00  0.00    -0.003 C 
ATOM     30  C   UNL     1       0.371 -14.699 -35.577  1.00  0.00     0.004 C 
ENDBRANCH  28  29
ENDBRANCH  27  28
ENDBRANCH  26  27
ENDBRANCH  25  26
ENDBRANCH  24  25
ENDBRANCH  23  24
ENDBRANCH  22  23
ENDBRANCH  21  22
ENDBRANCH  20  21
ENDBRANCH  19  20
ENDBRANCH  18  19
ENDBRANCH  17  18
ENDBRANCH   1  17
TORSDOF 26
ENDMDL
MODEL 4
REMARK VINA RESULT:    -3.772      3.545      5.529
REMARK INTER + INTRA:         -13.834
REMARK INTER:                  -9.926
REMARK INTRA:                  -3.908
REMARK UNBOUND:                -4.329
REMARK SMILES CCCCCCCCCCCCCCCCCCCCCCCCCCCC(=O)[O-]
REMARK SMILES IDX 15 1 16 2 17 3 18 4 19 5 20 6 21 7 22 8 23 9 24 10 25 11
REMARK SMILES IDX 26 12 27 13 28 14 29 15 30 16 14 17 13 18 12 19 11 20 10 21
REMARK SMILES IDX 9 22 8 23 7 24 6 25 5 26 4 27 3 28 2 29 1 30
REMARK H PARENT
REMARK Flexibility Score: inf
ROOT
ATOM      1  C   UNL     1      -4.428  -7.578 -43.657  1.00  0.00     0.000 C 
ENDROOT
BRANCH   1   2
ATOM      2  C   UNL     1      -3.700  -8.114 -42.415  1.00  0.00     0.000 C 
BRANCH   2   3
ATOM      3  C   UNL     1      -2.524  -9.040 -42.774  1.00  0.00     0.000 C 
BRANCH   3   4
ATOM      4  C   UNL     1      -1.428  -9.046 -41.696  1.00  0.00     0.000 C 
BRANCH   4   5
ATOM      5  C   UNL     1      -1.898  -8.420 -40.372  1.00  0.00     0.000 C 
BRANCH   5   6
ATOM      6  C   UNL     1      -0.809  -8.483 -39.280  1.00  0.00     0.000 C 
BRANCH   6   7
ATOM      7  C   UNL     1      -0.889  -7.336 -38.258  1.00  0.00     0.000 C 
BRANCH   7   8
ATOM      8  C   UNL     1      -1.037  -7.833 -36.811  1.00  0.00     0.000 C 
BRANCH   8   9
ATOM      9  C   UNL     1      -0.717  -9.329 -36.661  1.00  0.00     0.000 C 
BRANCH   9  10
ATOM     10  C   UNL     1      -1.106  -9.882 -35.283  1.00  0.00     0.000 C 
BRANCH  10  11
ATOM     11  C   UNL     1      -0.065 -10.893 -34.784  1.00  0.00     0.000 C 
BRANCH  11  12
ATOM     12  C   UNL     1      -0.711 -11.947 -33.874  1.00  0.00     0.006 C 
BRANCH  12  13
ATOM     13  C   UNL     1      -1.730 -11.333 -32.905  1.00  0.00     0.053 C 
BRANCH  13  14
ATOM     14  C   UNL     1      -3.123 -11.803 -33.193  1.00  0.00     0.041 C 
ATOM     15  O   UNL     1      -4.094 -11.370 -32.520  1.00  0.00    -0.550 OA
ATOM     16  O   UNL     1      -3.347 -12.742 -34.194  1.00  0.00    -0.550 OA
ENDBRANCH  13  14
ENDBRANCH  12  13
ENDBRANCH  11  12
ENDBRANCH  10  11
ENDBRANCH   9  10
ENDBRANCH   8   9
ENDBRANCH   7   8
ENDBRANCH   6   7
ENDBRANCH   5   6
ENDBRANCH   4   5
ENDBRANCH   3   4
ENDBRANCH   2   3
ENDBRANCH   1   2
BRANCH   1  17
ATOM     17  C   UNL     1      -3.722  -7.960 -44.967  1.00  0.00     0.000 C 
BRANCH  17  18
ATOM     18  C   UNL     1      -4.518  -7.464 -46.182  1.00  0.00     0.000 C 
BRANCH  18  19
ATOM     19  C   UNL     1      -4.517  -8.461 -47.357  1.00  0.00     0.000 C 
BRANCH  19  20
ATOM     20  C   UNL     1      -5.596  -9.564 -47.301  1.00  0.00     0.000 C 
BRANCH  20  21
ATOM     21  C   UNL     1      -6.933  -9.144 -46.645  1.00  0.00     0.000 C 
BRANCH  21  22
ATOM     22  C   UNL     1      -7.190  -9.783 -45.265  1.00  0.00    -0.000 C 
BRANCH  22  23
ATOM     23  C   UNL     1      -6.139 -10.811 -44.816  1.00  0.00    -0.000 C 
BRANCH  23  24
ATOM     24  C   UNL     1      -6.098 -10.990 -43.287  1.00  0.00    -0.000 C 
BRANCH  24  25
ATOM     25  C   UNL     1      -4.825 -11.703 -42.806  1.00  0.00    -0.000 C 
BRANCH  25  26
ATOM     26  C   UNL     1      -4.679 -11.676 -41.276  1.00  0.00    -0.000 C 
BRANCH  26  27
ATOM     27  C   UNL     1      -3.316 -12.207 -40.802  1.00  0.00    -0.000 C 
BRANCH  27  28
ATOM     28  C   UNL     1      -2.989 -11.841 -39.338  1.00  0.00    -0.000 C 
BRANCH  28  29
ATOM     29  C   UNL     1      -1.517 -12.105 -38.991  1.00  0.00    -0.003 C 
ATOM     30  C   UNL     1      -0.687 -12.339 -40.251  1.00  0.00     0.004 C 
ENDBRANCH  28  29
ENDBRANCH  27  28
ENDBRANCH  26  27
ENDBRANCH  25  26
ENDBRANCH  24  25
ENDBRANCH  23  24
ENDBRANCH  22  23
ENDBRANCH  21  22
ENDBRANCH  20  21
ENDBRANCH  19  20
ENDBRANCH  18  19
ENDBRANCH  17  18
ENDBRANCH   1  17
TORSDOF 26
ENDMDL
MODEL 5
REMARK VINA RESULT:    -3.761      3.298      8.868
REMARK INTER + INTRA:         -13.807
REMARK INTER:                 -10.428
REMARK INTRA:                  -3.379
REMARK UNBOUND:                -4.329
REMARK SMILES CCCCCCCCCCCCCCCCCCCCCCCCCCCC(=O)[O-]
REMARK SMILES IDX 15 1 16 2 17 3 18 4 19 5 20 6 21 7 22 8 23 9 24 10 25 11
REMARK SMILES IDX 26 12 27 13 28 14 29 15 30 16 14 17 13 18 12 19 11 20 10 21
REMARK SMILES IDX 9 22 8 23 7 24 6 25 5 26 4 27 3 28 2 29 1 30
REMARK H PARENT
REMARK Flexibility Score: inf
ROOT
ATOM      1  C   UNL     1      -1.612 -10.363 -42.413  1.00  0.00     0.000 C 
ENDROOT
BRANCH   1   2
ATOM      2  C   UNL     1      -1.783  -8.838 -42.470  1.00  0.00     0.000 C 
BRANCH   2   3
ATOM      3  C   UNL     1      -3.107  -8.417 -43.132  1.00  0.00     0.000 C 
BRANCH   3   4
ATOM      4  C   UNL     1      -4.090  -7.783 -42.135  1.00  0.00     0.000 C 
BRANCH   4   5
ATOM      5  C   UNL     1      -4.619  -8.794 -41.103  1.00  0.00     0.000 C 
BRANCH   5   6
ATOM      6  C   UNL     1      -5.716  -9.706 -41.692  1.00  0.00     0.000 C 
BRANCH   6   7
ATOM      7  C   UNL     1      -5.247 -11.147 -41.959  1.00  0.00     0.000 C 
BRANCH   7   8
ATOM      8  C   UNL     1      -5.190 -11.490 -43.457  1.00  0.00     0.000 C 
BRANCH   8   9
ATOM      9  C   UNL     1      -6.398 -10.948 -44.237  1.00  0.00     0.000 C 
BRANCH   9  10
ATOM     10  C   UNL     1      -5.993 -10.223 -45.528  1.00  0.00     0.000 C 
BRANCH  10  11
ATOM     11  C   UNL     1      -5.927  -8.706 -45.307  1.00  0.00     0.000 C 
BRANCH  11  12
ATOM     12  C   UNL     1      -5.462  -7.982 -46.578  1.00  0.00     0.006 C 
BRANCH  12  13
ATOM     13  C   UNL     1      -3.955  -8.141 -46.820  1.00  0.00     0.053 C 
BRANCH  13  14
ATOM     14  C   UNL     1      -3.664  -8.651 -48.198  1.00  0.00     0.041 C 
ATOM     15  O   UNL     1      -4.355  -9.580 -48.692  1.00  0.00    -0.550 OA
ATOM     16  O   UNL     1      -2.611  -8.116 -48.930  1.00  0.00    -0.550 OA
ENDBRANCH  13  14
ENDBRANCH  12  13
ENDBRANCH  11  12
ENDBRANCH  10  11
ENDBRANCH   9  10
ENDBRANCH   8   9
ENDBRANCH   7   8
ENDBRANCH   6   7
ENDBRANCH   5   6
ENDBRANCH   4   5
ENDBRANCH   3   4
ENDBRANCH   2   3
ENDBRANCH   1   2
BRANCH   1  17
ATOM     17  C   UNL     1      -0.233 -10.783 -41.883  1.00  0.00     0.000 C 
BRANCH  17  18
ATOM     18  C   UNL     1       0.114 -10.021 -40.596  1.00  0.00     0.000 C 
BRANCH  18  19
ATOM     19  C   UNL     1      -0.748 -10.442 -39.390  1.00  0.00     0.000 C 
BRANCH  19  20
ATOM     20  C   UNL     1      -1.718  -9.367 -38.852  1.00  0.00     0.000 C 
BRANCH  20  21
ATOM     21  C   UNL     1      -1.122  -7.945 -38.730  1.00  0.00     0.000 C 
BRANCH  21  22
ATOM     22  C   UNL     1      -0.288  -7.715 -37.453  1.00  0.00    -0.000 C 
BRANCH  22  23
ATOM     23  C   UNL     1      -0.957  -8.167 -36.145  1.00  0.00    -0.000 C 
BRANCH  23  24
ATOM     24  C   UNL     1      -0.488  -9.560 -35.688  1.00  0.00    -0.000 C 
BRANCH  24  25
ATOM     25  C   UNL     1      -1.407 -10.178 -34.623  1.00  0.00    -0.000 C 
BRANCH  25  26
ATOM     26  C   UNL     1      -1.763 -11.641 -34.931  1.00  0.00    -0.000 C 
BRANCH  26  27
ATOM     27  C   UNL     1      -1.561 -12.567 -33.720  1.00  0.00    -0.000 C 
BRANCH  27  28
ATOM     28  C   UNL     1      -0.121 -12.545 -33.164  1.00  0.00    -0.000 C 
BRANCH  28  29
ATOM     29  C   UNL     1       0.877 -13.214 -34.120  1.00  0.00    -0.003 C 
ATOM     30  C   UNL     1       2.174 -13.573 -33.400  1.00  0.00     0.004 C 
ENDBRANCH  28  29
ENDBRANCH  27  28
ENDBRANCH  26  27
ENDBRANCH  25  26
ENDBRANCH  24  25
ENDBRANCH  23  24
ENDBRANCH  22  23
ENDBRANCH  21  22
ENDBRANCH  20  21
ENDBRANCH  19  20
ENDBRANCH  18  19
ENDBRANCH  17  18
ENDBRANCH   1  17
TORSDOF 26
ENDMDL
MODEL 6
REMARK VINA RESULT:    -3.735      3.509      8.264
REMARK INTER + INTRA:         -13.741
REMARK INTER:                  -9.208
REMARK INTRA:                  -4.533
REMARK UNBOUND:                -4.329
REMARK SMILES CCCCCCCCCCCCCCCCCCCCCCCCCCCC(=O)[O-]
REMARK SMILES IDX 15 1 16 2 17 3 18 4 19 5 20 6 21 7 22 8 23 9 24 10 25 11
REMARK SMILES IDX 26 12 27 13 28 14 29 15 30 16 14 17 13 18 12 19 11 20 10 21
REMARK SMILES IDX 9 22 8 23 7 24 6 25 5 26 4 27 3 28 2 29 1 30
REMARK H PARENT
REMARK Flexibility Score: inf
ROOT
ATOM      1  C   UNL     1      -0.685 -10.494 -35.432  1.00  0.00     0.000 C 
ENDROOT
BRANCH   1   2
ATOM      2  C   UNL     1      -0.405  -9.033 -35.813  1.00  0.00     0.000 C 
BRANCH   2   3
ATOM      3  C   UNL     1      -0.388  -8.812 -37.336  1.00  0.00     0.000 C 
BRANCH   3   4
ATOM      4  C   UNL     1      -0.381  -7.323 -37.716  1.00  0.00     0.000 C 
BRANCH   4   5
ATOM      5  C   UNL     1      -1.540  -6.948 -38.655  1.00  0.00     0.000 C 
BRANCH   5   6
ATOM      6  C   UNL     1      -1.864  -8.075 -39.659  1.00  0.00     0.000 C 
BRANCH   6   7
ATOM      7  C   UNL     1      -3.213  -7.896 -40.377  1.00  0.00     0.000 C 
BRANCH   7   8
ATOM      8  C   UNL     1      -3.116  -8.112 -41.896  1.00  0.00     0.000 C 
BRANCH   8   9
ATOM      9  C   UNL     1      -1.929  -9.005 -42.294  1.00  0.00     0.000 C 
BRANCH   9  10
ATOM     10  C   UNL     1      -2.343 -10.462 -42.545  1.00  0.00     0.000 C 
BRANCH  10  11
ATOM     11  C   UNL     1      -1.205 -11.425 -42.184  1.00  0.00     0.000 C 
BRANCH  11  12
ATOM     12  C   UNL     1      -0.188 -10.752 -41.252  1.00  0.00     0.006 C 
BRANCH  12  13
ATOM     13  C   UNL     1       1.185 -11.436 -41.300  1.00  0.00     0.053 C 
BRANCH  13  14
ATOM     14  C   UNL     1       2.236 -10.531 -41.867  1.00  0.00     0.041 C 
ATOM     15  O   UNL     1       1.913  -9.557 -42.595  1.00  0.00    -0.550 OA
ATOM     16  O   UNL     1       3.579 -10.778 -41.609  1.00  0.00    -0.550 OA
ENDBRANCH  13  14
ENDBRANCH  12  13
ENDBRANCH  11  12
ENDBRANCH  10  11
ENDBRANCH   9  10
ENDBRANCH   8   9
ENDBRANCH   7   8
ENDBRANCH   6   7
ENDBRANCH   5   6
ENDBRANCH   4   5
ENDBRANCH   3   4
ENDBRANCH   2   3
ENDBRANCH   1   2
BRANCH   1  17
ATOM     17  C   UNL     1      -1.460 -10.623 -34.112  1.00  0.00     0.000 C 
BRANCH  17  18
ATOM     18  C   UNL     1      -1.847 -12.084 -33.845  1.00  0.00     0.000 C 
BRANCH  18  19
ATOM     19  C   UNL     1      -0.782 -12.858 -33.045  1.00  0.00     0.000 C 
BRANCH  19  20
ATOM     20  C   UNL     1      -0.685 -14.370 -33.345  1.00  0.00     0.000 C 
BRANCH  20  21
ATOM     21  C   UNL     1      -1.197 -14.798 -34.740  1.00  0.00     0.000 C 
BRANCH  21  22
ATOM     22  C   UNL     1      -0.133 -14.729 -35.854  1.00  0.00    -0.000 C 
BRANCH  22  23
ATOM     23  C   UNL     1      -0.682 -14.476 -37.267  1.00  0.00    -0.000 C 
BRANCH  23  24
ATOM     24  C   UNL     1      -1.805 -13.424 -37.289  1.00  0.00    -0.000 C 
BRANCH  24  25
ATOM     25  C   UNL     1      -1.624 -12.382 -38.404  1.00  0.00    -0.000 C 
BRANCH  25  26
ATOM     26  C   UNL     1      -2.790 -11.383 -38.471  1.00  0.00    -0.000 C 
BRANCH  26  27
ATOM     27  C   UNL     1      -3.922 -11.855 -39.398  1.00  0.00    -0.000 C 
BRANCH  27  28
ATOM     28  C   UNL     1      -4.954 -10.753 -39.718  1.00  0.00    -0.000 C 
BRANCH  28  29
ATOM     29  C   UNL     1      -5.644 -10.983 -41.070  1.00  0.00    -0.003 C 
ATOM     30  C   UNL     1      -5.387 -12.395 -41.588  1.00  0.00     0.004 C 
ENDBRANCH  28  29
ENDBRANCH  27  28
ENDBRANCH  26  27
ENDBRANCH  25  26
ENDBRANCH  24  25
ENDBRANCH  23  24
ENDBRANCH  22  23
ENDBRANCH  21  22
ENDBRANCH  20  21
ENDBRANCH  19  20
ENDBRANCH  18  19
ENDBRANCH  17  18
ENDBRANCH   1  17
TORSDOF 26
ENDMDL
MODEL 7
REMARK VINA RESULT:    -3.692      3.328      6.035
REMARK INTER + INTRA:         -13.634
REMARK INTER:                  -9.331
REMARK INTRA:                  -4.302
REMARK UNBOUND:                -4.329
REMARK SMILES CCCCCCCCCCCCCCCCCCCCCCCCCCCC(=O)[O-]
REMARK SMILES IDX 15 1 16 2 17 3 18 4 19 5 20 6 21 7 22 8 23 9 24 10 25 11
REMARK SMILES IDX 26 12 27 13 28 14 29 15 30 16 14 17 13 18 12 19 11 20 10 21
REMARK SMILES IDX 9 22 8 23 7 24 6 25 5 26 4 27 3 28 2 29 1 30
REMARK H PARENT
REMARK Flexibility Score: inf
ROOT
ATOM      1  C   UNL     1      -5.831 -11.596 -42.399  1.00  0.00     0.000 C 
ENDROOT
BRANCH   1   2
ATOM      2  C   UNL     1      -6.416 -10.362 -41.696  1.00  0.00     0.000 C 
BRANCH   2   3
ATOM      3  C   UNL     1      -6.081 -10.323 -40.195  1.00  0.00     0.000 C 
BRANCH   3   4
ATOM      4  C   UNL     1      -4.729 -10.980 -39.876  1.00  0.00     0.000 C 
BRANCH   4   5
ATOM      5  C   UNL     1      -4.821 -11.988 -38.718  1.00  0.00     0.000 C 
BRANCH   5   6
ATOM      6  C   UNL     1      -3.597 -12.928 -38.667  1.00  0.00     0.000 C 
BRANCH   6   7
ATOM      7  C   UNL     1      -2.427 -12.471 -39.555  1.00  0.00     0.000 C 
BRANCH   7   8
ATOM      8  C   UNL     1      -1.298 -11.796 -38.758  1.00  0.00     0.000 C 
BRANCH   8   9
ATOM      9  C   UNL     1      -1.350 -10.262 -38.840  1.00  0.00     0.000 C 
BRANCH   9  10
ATOM     10  C   UNL     1      -1.026  -9.586 -37.500  1.00  0.00     0.000 C 
BRANCH  10  11
ATOM     11  C   UNL     1      -1.434 -10.481 -36.323  1.00  0.00     0.000 C 
BRANCH  11  12
ATOM     12  C   UNL     1      -0.626 -10.139 -35.063  1.00  0.00     0.006 C 
BRANCH  12  13
ATOM     13  C   UNL     1      -0.261 -11.388 -34.249  1.00  0.00     0.053 C 
BRANCH  13  14
ATOM     14  C   UNL     1      -1.166 -11.565 -33.069  1.00  0.00     0.041 C 
ATOM     15  O   UNL     1      -0.794 -11.205 -31.921  1.00  0.00    -0.550 OA
ATOM     16  O   UNL     1      -2.415 -12.151 -33.232  1.00  0.00    -0.550 OA
ENDBRANCH  13  14
ENDBRANCH  12  13
ENDBRANCH  11  12
ENDBRANCH  10  11
ENDBRANCH   9  10
ENDBRANCH   8   9
ENDBRANCH   7   8
ENDBRANCH   6   7
ENDBRANCH   5   6
ENDBRANCH   4   5
ENDBRANCH   3   4
ENDBRANCH   2   3
ENDBRANCH   1   2
BRANCH   1  17
ATOM     17  C   UNL     1      -5.329 -11.286 -43.817  1.00  0.00     0.000 C 
BRANCH  17  18
ATOM     18  C   UNL     1      -6.503 -10.989 -44.761  1.00  0.00     0.000 C 
BRANCH  18  19
ATOM     19  C   UNL     1      -6.141 -10.001 -45.887  1.00  0.00     0.000 C 
BRANCH  19  20
ATOM     20  C   UNL     1      -6.045  -8.517 -45.470  1.00  0.00     0.000 C 
BRANCH  20  21
ATOM     21  C   UNL     1      -4.687  -7.837 -45.764  1.00  0.00     0.000 C 
BRANCH  21  22
ATOM     22  C   UNL     1      -3.664  -7.943 -44.614  1.00  0.00    -0.000 C 
BRANCH  22  23
ATOM     23  C   UNL     1      -4.236  -7.701 -43.207  1.00  0.00    -0.000 C 
BRANCH  23  24
ATOM     24  C   UNL     1      -3.354  -8.300 -42.096  1.00  0.00    -0.000 C 
BRANCH  24  25
ATOM     25  C   UNL     1      -2.036  -8.881 -42.631  1.00  0.00    -0.000 C 
BRANCH  25  26
ATOM     26  C   UNL     1      -1.933 -10.400 -42.417  1.00  0.00    -0.000 C 
BRANCH  26  27
ATOM     27  C   UNL     1      -0.479 -10.901 -42.417  1.00  0.00    -0.000 C 
BRANCH  27  28
ATOM     28  C   UNL     1       0.535  -9.841 -41.933  1.00  0.00    -0.000 C 
BRANCH  28  29
ATOM     29  C   UNL     1       1.971 -10.181 -42.358  1.00  0.00    -0.003 C 
ATOM     30  C   UNL     1       2.047 -10.486 -43.851  1.00  0.00     0.004 C 
ENDBRANCH  28  29
ENDBRANCH  27  28
ENDBRANCH  26  27
ENDBRANCH  25  26
ENDBRANCH  24  25
ENDBRANCH  23  24
ENDBRANCH  22  23
ENDBRANCH  21  22
ENDBRANCH  20  21
ENDBRANCH  19  20
ENDBRANCH  18  19
ENDBRANCH  17  18
ENDBRANCH   1  17
TORSDOF 26
ENDMDL
MODEL 8
REMARK VINA RESULT:    -3.689      1.961      3.108
REMARK INTER + INTRA:         -13.625
REMARK INTER:                  -9.279
REMARK INTRA:                  -4.345
REMARK UNBOUND:                -4.329
REMARK SMILES CCCCCCCCCCCCCCCCCCCCCCCCCCCC(=O)[O-]
REMARK SMILES IDX 15 1 16 2 17 3 18 4 19 5 20 6 21 7 22 8 23 9 24 10 25 11
REMARK SMILES IDX 26 12 27 13 28 14 29 15 30 16 14 17 13 18 12 19 11 20 10 21
REMARK SMILES IDX 9 22 8 23 7 24 6 25 5 26 4 27 3 28 2 29 1 30
REMARK H PARENT
REMARK Flexibility Score: inf
ROOT
ATOM      1  C   UNL     1      -4.310  -7.398 -43.239  1.00  0.00     0.000 C 
ENDROOT
BRANCH   1   2
ATOM      2  C   UNL     1      -3.592  -7.925 -41.987  1.00  0.00     0.000 C 
BRANCH   2   3
ATOM      3  C   UNL     1      -2.323  -8.725 -42.328  1.00  0.00     0.000 C 
BRANCH   3   4
ATOM      4  C   UNL     1      -1.488  -9.065 -41.083  1.00  0.00     0.000 C 
BRANCH   4   5
ATOM      5  C   UNL     1      -1.983  -8.335 -39.823  1.00  0.00     0.000 C 
BRANCH   5   6
ATOM      6  C   UNL     1      -0.819  -7.913 -38.901  1.00  0.00     0.000 C 
BRANCH   6   7
ATOM      7  C   UNL     1      -1.275  -7.221 -37.605  1.00  0.00     0.000 C 
BRANCH   7   8
ATOM      8  C   UNL     1      -0.466  -7.660 -36.374  1.00  0.00     0.000 C 
BRANCH   8   9
ATOM      9  C   UNL     1      -1.185  -8.736 -35.543  1.00  0.00     0.000 C 
BRANCH   9  10
ATOM     10  C   UNL     1      -0.723 -10.158 -35.890  1.00  0.00     0.000 C 
BRANCH  10  11
ATOM     11  C   UNL     1      -1.805 -10.910 -36.676  1.00  0.00     0.000 C 
BRANCH  11  12
ATOM     12  C   UNL     1      -1.286 -11.345 -38.053  1.00  0.00     0.006 C 
BRANCH  12  13
ATOM     13  C   UNL     1      -2.296 -12.221 -38.806  1.00  0.00     0.053 C 
BRANCH  13  14
ATOM     14  C   UNL     1      -1.636 -13.038 -39.873  1.00  0.00     0.041 C 
ATOM     15  O   UNL     1      -2.249 -13.996 -40.413  1.00  0.00    -0.550 OA
ATOM     16  O   UNL     1      -0.331 -12.757 -40.257  1.00  0.00    -0.550 OA
ENDBRANCH  13  14
ENDBRANCH  12  13
ENDBRANCH  11  12
ENDBRANCH  10  11
ENDBRANCH   9  10
ENDBRANCH   8   9
ENDBRANCH   7   8
ENDBRANCH   6   7
ENDBRANCH   5   6
ENDBRANCH   4   5
ENDBRANCH   3   4
ENDBRANCH   2   3
ENDBRANCH   1   2
BRANCH   1  17
ATOM     17  C   UNL     1      -3.732  -7.975 -44.539  1.00  0.00     0.000 C 
BRANCH  17  18
ATOM     18  C   UNL     1      -3.996  -7.032 -45.722  1.00  0.00     0.000 C 
BRANCH  18  19
ATOM     19  C   UNL     1      -3.161  -7.376 -46.971  1.00  0.00     0.000 C 
BRANCH  19  20
ATOM     20  C   UNL     1      -3.929  -8.061 -48.122  1.00  0.00     0.000 C 
BRANCH  20  21
ATOM     21  C   UNL     1      -5.460  -8.161 -47.924  1.00  0.00     0.000 C 
BRANCH  21  22
ATOM     22  C   UNL     1      -6.066  -9.515 -48.346  1.00  0.00    -0.000 C 
BRANCH  22  23
ATOM     23  C   UNL     1      -6.892 -10.227 -47.262  1.00  0.00    -0.000 C 
BRANCH  23  24
ATOM     24  C   UNL     1      -6.367  -9.956 -45.840  1.00  0.00    -0.000 C 
BRANCH  24  25
ATOM     25  C   UNL     1      -7.340  -9.119 -44.996  1.00  0.00    -0.000 C 
BRANCH  25  26
ATOM     26  C   UNL     1      -7.310  -9.505 -43.508  1.00  0.00    -0.000 C 
BRANCH  26  27
ATOM     27  C   UNL     1      -6.295 -10.621 -43.207  1.00  0.00    -0.000 C 
BRANCH  27  28
ATOM     28  C   UNL     1      -5.962 -10.758 -41.706  1.00  0.00    -0.000 C 
BRANCH  28  29
ATOM     29  C   UNL     1      -4.688 -11.583 -41.471  1.00  0.00    -0.003 C 
ATOM     30  C   UNL     1      -4.001 -11.925 -42.790  1.00  0.00     0.004 C 
ENDBRANCH  28  29
ENDBRANCH  27  28
ENDBRANCH  26  27
ENDBRANCH  25  26
ENDBRANCH  24  25
ENDBRANCH  23  24
ENDBRANCH  22  23
ENDBRANCH  21  22
ENDBRANCH  20  21
ENDBRANCH  19  20
ENDBRANCH  18  19
ENDBRANCH  17  18
ENDBRANCH   1  17
TORSDOF 26
ENDMDL
MODEL 9
REMARK VINA RESULT:    -3.626      3.076      7.978
REMARK INTER + INTRA:         -13.467
REMARK INTER:                  -8.786
REMARK INTRA:                  -4.680
REMARK UNBOUND:                -4.329
REMARK SMILES CCCCCCCCCCCCCCCCCCCCCCCCCCCC(=O)[O-]
REMARK SMILES IDX 15 1 16 2 17 3 18 4 19 5 20 6 21 7 22 8 23 9 24 10 25 11
REMARK SMILES IDX 26 12 27 13 28 14 29 15 30 16 14 17 13 18 12 19 11 20 10 21
REMARK SMILES IDX 9 22 8 23 7 24 6 25 5 26 4 27 3 28 2 29 1 30
REMARK H PARENT
REMARK Flexibility Score: inf
ROOT
ATOM      1  C   UNL     1      -3.040 -12.828 -40.086  1.00  0.00     0.000 C 
ENDROOT
BRANCH   1   2
ATOM      2  C   UNL     1      -4.240 -12.490 -39.188  1.00  0.00     0.000 C 
BRANCH   2   3
ATOM      3  C   UNL     1      -5.584 -12.630 -39.923  1.00  0.00     0.000 C 
BRANCH   3   4
ATOM      4  C   UNL     1      -6.432 -11.350 -39.851  1.00  0.00     0.000 C 
BRANCH   4   5
ATOM      5  C   UNL     1      -6.483 -10.599 -41.193  1.00  0.00     0.000 C 
BRANCH   5   6
ATOM      6  C   UNL     1      -5.682 -11.324 -42.296  1.00  0.00     0.000 C 
BRANCH   6   7
ATOM      7  C   UNL     1      -4.375 -10.611 -42.683  1.00  0.00     0.000 C 
BRANCH   7   8
ATOM      8  C   UNL     1      -3.964  -9.525 -41.675  1.00  0.00     0.000 C 
BRANCH   8   9
ATOM      9  C   UNL     1      -3.297  -8.314 -42.347  1.00  0.00     0.000 C 
BRANCH   9  10
ATOM     10  C   UNL     1      -2.017  -8.690 -43.108  1.00  0.00     0.000 C 
BRANCH  10  11
ATOM     11  C   UNL     1      -1.020  -9.402 -42.185  1.00  0.00     0.000 C 
BRANCH  11  12
ATOM     12  C   UNL     1       0.406  -9.326 -42.749  1.00  0.00     0.006 C 
BRANCH  12  13
ATOM     13  C   UNL     1       1.445  -9.911 -41.783  1.00  0.00     0.053 C 
BRANCH  13  14
ATOM     14  C   UNL     1       2.157 -11.086 -42.380  1.00  0.00     0.041 C 
ATOM     15  O   UNL     1       1.904 -11.454 -43.556  1.00  0.00    -0.550 OA
ATOM     16  O   UNL     1       3.086 -11.792 -41.625  1.00  0.00    -0.550 OA
ENDBRANCH  13  14
ENDBRANCH  12  13
ENDBRANCH  11  12
ENDBRANCH  10  11
ENDBRANCH   9  10
ENDBRANCH   8   9
ENDBRANCH   7   8
ENDBRANCH   6   7
ENDBRANCH   5   6
ENDBRANCH   4   5
ENDBRANCH   3   4
ENDBRANCH   2   3
ENDBRANCH   1   2
BRANCH   1  17
ATOM     17  C   UNL     1      -1.773 -12.052 -39.695  1.00  0.00     0.000 C 
BRANCH  17  18
ATOM     18  C   UNL     1      -2.124 -10.829 -38.835  1.00  0.00     0.000 C 
BRANCH  18  19
ATOM     19  C   UNL     1      -0.961  -9.826 -38.702  1.00  0.00     0.000 C 
BRANCH  19  20
ATOM     20  C   UNL     1      -1.313  -8.351 -38.994  1.00  0.00     0.000 C 
BRANCH  20  21
ATOM     21  C   UNL     1      -0.907  -7.347 -37.890  1.00  0.00     0.000 C 
BRANCH  21  22
ATOM     22  C   UNL     1      -0.357  -8.004 -36.607  1.00  0.00    -0.000 C 
BRANCH  22  23
ATOM     23  C   UNL     1      -1.335  -8.041 -35.422  1.00  0.00    -0.000 C 
BRANCH  23  24
ATOM     24  C   UNL     1      -1.542  -9.462 -34.866  1.00  0.00    -0.000 C 
BRANCH  24  25
ATOM     25  C   UNL     1      -0.375 -10.406 -35.197  1.00  0.00    -0.000 C 
BRANCH  25  26
ATOM     26  C   UNL     1      -0.680 -11.868 -34.833  1.00  0.00    -0.000 C 
BRANCH  26  27
ATOM     27  C   UNL     1      -1.968 -12.386 -35.494  1.00  0.00    -0.000 C 
BRANCH  27  28
ATOM     28  C   UNL     1      -1.929 -13.896 -35.815  1.00  0.00    -0.000 C 
BRANCH  28  29
ATOM     29  C   UNL     1      -0.777 -14.254 -36.764  1.00  0.00    -0.003 C 
ATOM     30  C   UNL     1      -1.226 -15.255 -37.824  1.00  0.00     0.004 C 
ENDBRANCH  28  29
ENDBRANCH  27  28
ENDBRANCH  26  27
ENDBRANCH  25  26
ENDBRANCH  24  25
ENDBRANCH  23  24
ENDBRANCH  22  23
ENDBRANCH  21  22
ENDBRANCH  20  21
ENDBRANCH  19  20
ENDBRANCH  18  19
ENDBRANCH  17  18
ENDBRANCH   1  17
TORSDOF 26
ENDMDL
