MODEL 1
REMARK VINA RESULT:   122.981      0.000      0.000
REMARK INTER + INTRA:         134.068
REMARK INTER:                 133.765
REMARK INTRA:                   0.303
REMARK UNBOUND:                 0.303
REMARK SMILES C[C@@H]1[C@H]2C3=CC[C@@H]4[C@]5(C)CC[C@H](O)C(C)(C)[C@H]5CC[C@]4(C)[C@]3(C)CC[C@@]2(C(=O)[O-])CC[C@@H]1C
REMARK SMILES IDX 26 1 30 2 25 3 3 4 31 5 24 6 4 7 2 8 32 9 22 10 5 11 1 12
REMARK SMILES IDX 33 13 23 14 20 15 6 16 7 17 19 18 21 19 8 20 18 21 17 22
REMARK SMILES IDX 10 23 9 24 14 25 11 26 12 27 15 28 16 29 27 30 28 31 29 32
REMARK SMILES IDX 13 33
REMARK H PARENT 13 34
REMARK Flexibility Score: inf
ROOT
ATOM      1  C   UNL     1      82.655  19.688 103.122  1.00  0.00     0.017 C 
ATOM      2  C   UNL     1      82.526  21.004 102.295  1.00  0.00     0.014 C 
ATOM      3  C   UNL     1      83.406  18.585 102.298  1.00  0.00     0.014 C 
ATOM      4  C   UNL     1      81.255  19.209 103.634  1.00  0.00     0.030 C 
ATOM      5  C   UNL     1      81.432  20.945 101.226  1.00  0.00     0.004 C 
ATOM      6  C   UNL     1      82.693  17.231 102.121  1.00  0.00     0.013 C 
ATOM      7  C   UNL     1      81.381  17.795 104.209  1.00  0.00    -0.063 C 
ATOM      8  C   UNL     1      80.092  19.300 102.589  1.00  0.00    -0.003 C 
ATOM      9  C   UNL     1      80.055  20.658 101.845  1.00  0.00    -0.011 C 
ATOM     10  C   UNL     1      81.928  16.633 103.373  1.00  0.00    -0.006 C 
ATOM     11  C   UNL     1      81.015  17.588 105.480  1.00  0.00    -0.027 C 
ATOM     12  C   UNL     1      78.733  18.958 103.221  1.00  0.00     0.008 C 
ATOM     13  C   UNL     1      79.553  21.837 102.708  1.00  0.00     0.008 C 
ATOM     14  C   UNL     1      80.693  15.835 102.839  1.00  0.00     0.017 C 
ATOM     15  C   UNL     1      82.829  15.657 104.291  1.00  0.00    -0.020 C 
ATOM     16  C   UNL     1      81.077  16.258 106.169  1.00  0.00     0.032 C 
ATOM     17  C   UNL     1      81.973  15.131 105.532  1.00  0.00     0.006 C 
ATOM     18  C   UNL     1      84.079  16.420 104.835  1.00  0.00     0.008 C 
ATOM     19  C   UNL     1      83.310  14.435 103.419  1.00  0.00     0.012 C 
ATOM     20  C   UNL     1      82.793  14.324 106.648  1.00  0.00    -0.025 C 
ATOM     21  C   UNL     1      84.879  15.679 105.917  1.00  0.00     0.005 C 
ATOM     22  C   UNL     1      84.004  15.225 107.116  1.00  0.00     0.003 C 
ATOM     23  C   UNL     1      81.854  13.944 107.873  1.00  0.00     0.010 C 
ATOM     24  C   UNL     1      83.289  12.955 106.079  1.00  0.00     0.012 C 
ATOM     25  C   UNL     1      84.838  14.682 108.361  1.00  0.00    -0.006 C 
ATOM     26  C   UNL     1      82.462  14.236 109.254  1.00  0.00     0.033 C 
ATOM     27  C   UNL     1      83.937  13.801 109.295  1.00  0.00     0.120 C 
ATOM     28  C   UNL     1      85.380  15.903 109.160  1.00  0.00     0.014 C 
ATOM     29  C   UNL     1      86.067  13.838 107.936  1.00  0.00     0.014 C 
ENDROOT
BRANCH   1  30
ATOM     30  C   UNL     1      83.491  20.004 104.359  1.00  0.00     0.048 C 
ATOM     31  O   UNL     1      84.477  20.770 104.287  1.00  0.00    -0.550 OA
ATOM     32  O   UNL     1      84.602  20.862 104.291  1.00  0.00    -0.550 OA
ENDBRANCH   1  30
BRANCH  27  33
ATOM     33  O   UNL     1      84.429  13.743 110.610  1.00  0.00    -0.393 OA
ATOM     34  H   UNL     1      83.778  14.180 111.216  1.00  0.00     0.210 HD
ENDBRANCH  27  33
TORSDOF 2
ENDMDL
MODEL 2
REMARK VINA RESULT:   123.921      2.423      7.577
REMARK INTER + INTRA:         135.091
REMARK INTER:                 133.194
REMARK INTRA:                   1.897
REMARK UNBOUND:                 0.303
REMARK SMILES C[C@@H]1[C@H]2C3=CC[C@@H]4[C@]5(C)CC[C@H](O)C(C)(C)[C@H]5CC[C@]4(C)[C@]3(C)CC[C@@]2(C(=O)[O-])CC[C@@H]1C
REMARK SMILES IDX 26 1 30 2 25 3 3 4 31 5 24 6 4 7 2 8 32 9 22 10 5 11 1 12
REMARK SMILES IDX 33 13 23 14 20 15 6 16 7 17 19 18 21 19 8 20 18 21 17 22
REMARK SMILES IDX 10 23 9 24 14 25 11 26 12 27 15 28 16 29 27 30 28 31 29 32
REMARK SMILES IDX 13 33
REMARK H PARENT 13 34
REMARK Flexibility Score: inf
ROOT
ATOM      1  C   UNL     1      83.744  13.782 107.255  1.00  0.00     0.017 C 
ATOM      2  C   UNL     1      84.297  12.527 108.000  1.00  0.00     0.014 C 
ATOM      3  C   UNL     1      84.903  14.783 106.918  1.00  0.00     0.014 C 
ATOM      4  C   UNL     1      82.586  14.451 108.069  1.00  0.00     0.030 C 
ATOM      5  C   UNL     1      84.609  12.786 109.475  1.00  0.00     0.004 C 
ATOM      6  C   UNL     1      84.743  16.235 107.409  1.00  0.00     0.013 C 
ATOM      7  C   UNL     1      82.250  15.810 107.449  1.00  0.00    -0.063 C 
ATOM      8  C   UNL     1      82.833  14.571 109.610  1.00  0.00    -0.003 C 
ATOM      9  C   UNL     1      83.362  13.259 110.241  1.00  0.00    -0.011 C 
ATOM     10  C   UNL     1      83.311  16.902 107.280  1.00  0.00    -0.006 C 
ATOM     11  C   UNL     1      80.995  16.031 107.036  1.00  0.00    -0.027 C 
ATOM     12  C   UNL     1      81.588  15.095 110.346  1.00  0.00     0.008 C 
ATOM     13  C   UNL     1      82.301  12.142 110.361  1.00  0.00     0.008 C 
ATOM     14  C   UNL     1      83.139  17.895 108.477  1.00  0.00     0.017 C 
ATOM     15  C   UNL     1      83.080  17.701 105.896  1.00  0.00    -0.020 C 
ATOM     16  C   UNL     1      80.523  17.313 106.419  1.00  0.00     0.032 C 
ATOM     17  C   UNL     1      81.604  18.310 105.857  1.00  0.00     0.006 C 
ATOM     18  C   UNL     1      83.253  16.740 104.676  1.00  0.00     0.008 C 
ATOM     19  C   UNL     1      84.139  18.863 105.792  1.00  0.00     0.012 C 
ATOM     20  C   UNL     1      81.153  18.948 104.458  1.00  0.00    -0.025 C 
ATOM     21  C   UNL     1      82.816  17.316 103.320  1.00  0.00     0.005 C 
ATOM     22  C   UNL     1      81.362  17.859 103.332  1.00  0.00     0.003 C 
ATOM     23  C   UNL     1      79.638  19.427 104.519  1.00  0.00     0.010 C 
ATOM     24  C   UNL     1      81.975  20.243 104.157  1.00  0.00     0.012 C 
ATOM     25  C   UNL     1      80.795  18.229 101.889  1.00  0.00    -0.006 C 
ATOM     26  C   UNL     1      78.789  19.002 103.311  1.00  0.00     0.033 C 
ATOM     27  C   UNL     1      79.574  19.207 102.003  1.00  0.00     0.120 C 
ATOM     28  C   UNL     1      80.347  16.916 101.185  1.00  0.00     0.014 C 
ATOM     29  C   UNL     1      81.861  18.891 100.979  1.00  0.00     0.014 C 
ENDROOT
BRANCH   1  30
ATOM     30  C   UNL     1      83.137  13.303 105.939  1.00  0.00     0.048 C 
ATOM     31  O   UNL     1      83.004  14.086 104.973  1.00  0.00    -0.550 OA
ATOM     32  O   UNL     1      82.981  14.174 104.847  1.00  0.00    -0.550 OA
ENDBRANCH   1  30
BRANCH  27  33
ATOM     33  O   UNL     1      78.737  19.148 100.875  1.00  0.00    -0.393 OA
ATOM     34  H   UNL     1      79.282  19.309 100.064  1.00  0.00     0.210 HD
ENDBRANCH  27  33
TORSDOF 2
ENDMDL
MODEL 3
REMARK VINA RESULT:   125.516      5.654     11.305
REMARK INTER + INTRA:         136.825
REMARK INTER:                 136.641
REMARK INTRA:                   0.185
REMARK UNBOUND:                 0.303
REMARK SMILES C[C@@H]1[C@H]2C3=CC[C@@H]4[C@]5(C)CC[C@H](O)C(C)(C)[C@H]5CC[C@]4(C)[C@]3(C)CC[C@@]2(C(=O)[O-])CC[C@@H]1C
REMARK SMILES IDX 26 1 30 2 25 3 3 4 31 5 24 6 4 7 2 8 32 9 22 10 5 11 1 12
REMARK SMILES IDX 33 13 23 14 20 15 6 16 7 17 19 18 21 19 8 20 18 21 17 22
REMARK SMILES IDX 10 23 9 24 14 25 11 26 12 27 15 28 16 29 27 30 28 31 29 32
REMARK SMILES IDX 13 33
REMARK H PARENT 13 34
REMARK Flexibility Score: inf
ROOT
ATOM      1  C   UNL     1      89.987   8.199 107.540  1.00  0.00     0.017 C 
ATOM      2  C   UNL     1      90.811   6.875 107.595  1.00  0.00     0.014 C 
ATOM      3  C   UNL     1      89.676   8.598 106.056  1.00  0.00     0.014 C 
ATOM      4  C   UNL     1      90.707   9.341 108.333  1.00  0.00     0.030 C 
ATOM      5  C   UNL     1      92.290   7.066 107.254  1.00  0.00     0.004 C 
ATOM      6  C   UNL     1      90.099  10.009 105.603  1.00  0.00     0.013 C 
ATOM      7  C   UNL     1      90.016  10.676 108.042  1.00  0.00    -0.063 C 
ATOM      8  C   UNL     1      92.254   9.438 108.112  1.00  0.00    -0.003 C 
ATOM      9  C   UNL     1      92.965   8.065 108.209  1.00  0.00    -0.011 C 
ATOM     10  C   UNL     1      89.863  11.208 106.613  1.00  0.00    -0.006 C 
ATOM     11  C   UNL     1      89.524  11.378 109.070  1.00  0.00    -0.027 C 
ATOM     12  C   UNL     1      92.897  10.480 109.042  1.00  0.00     0.008 C 
ATOM     13  C   UNL     1      93.070   7.508 109.646  1.00  0.00     0.008 C 
ATOM     14  C   UNL     1      91.008  12.250 106.389  1.00  0.00     0.017 C 
ATOM     15  C   UNL     1      88.438  11.945 106.438  1.00  0.00    -0.020 C 
ATOM     16  C   UNL     1      88.831  12.700 108.934  1.00  0.00     0.032 C 
ATOM     17  C   UNL     1      88.292  13.115 107.515  1.00  0.00     0.006 C 
ATOM     18  C   UNL     1      87.268  10.929 106.646  1.00  0.00     0.008 C 
ATOM     19  C   UNL     1      88.347  12.545 104.983  1.00  0.00     0.012 C 
ATOM     20  C   UNL     1      86.845  13.798 107.606  1.00  0.00    -0.025 C 
ATOM     21  C   UNL     1      85.869  11.553 106.752  1.00  0.00     0.005 C 
ATOM     22  C   UNL     1      85.777  12.657 107.840  1.00  0.00     0.003 C 
ATOM     23  C   UNL     1      86.801  14.872 108.777  1.00  0.00     0.010 C 
ATOM     24  C   UNL     1      86.539  14.606 106.304  1.00  0.00     0.012 C 
ATOM     25  C   UNL     1      84.291  13.144 108.147  1.00  0.00    -0.006 C 
ATOM     26  C   UNL     1      85.566  14.773 109.685  1.00  0.00     0.033 C 
ATOM     27  C   UNL     1      84.297  14.550 108.843  1.00  0.00     0.120 C 
ATOM     28  C   UNL     1      83.615  12.101 109.084  1.00  0.00     0.014 C 
ATOM     29  C   UNL     1      83.416  13.240 106.871  1.00  0.00     0.014 C 
ENDROOT
BRANCH   1  30
ATOM     30  C   UNL     1      88.659   7.942 108.247  1.00  0.00     0.048 C 
ATOM     31  O   UNL     1      88.625   7.666 109.466  1.00  0.00    -0.550 OA
ATOM     32  O   UNL     1      88.608   7.630 109.617  1.00  0.00    -0.550 OA
ENDBRANCH   1  30
BRANCH  27  33
ATOM     33  O   UNL     1      83.128  14.781 109.588  1.00  0.00    -0.393 OA
ATOM     34  H   UNL     1      83.264  14.446 110.510  1.00  0.00     0.210 HD
ENDBRANCH  27  33
TORSDOF 2
ENDMDL
