MODEL 1
REMARK VINA RESULT:    -5.002      0.000      0.000
REMARK INTER + INTRA:          -8.395
REMARK INTER:                  -7.926
REMARK INTRA:                  -0.469
REMARK UNBOUND:                -0.469
REMARK SMILES CCCCCCCCCCCC(=O)[O-]
REMARK SMILES IDX 7 1 8 2 9 3 10 4 11 5 12 6 13 7 14 8 6 9 5 10 4 11 3 12 2 13
REMARK SMILES IDX 1 14
REMARK H PARENT
REMARK Flexibility Score: inf
ROOT
ATOM      1  C   UNL     1      97.691 123.022 126.381  1.00  0.00     0.000 C 
ENDROOT
BRANCH   1   2
ATOM      2  C   UNL     1      96.602 124.079 126.121  1.00  0.00     0.000 C 
BRANCH   2   3
ATOM      3  C   UNL     1      96.640 124.634 124.687  1.00  0.00     0.000 C 
BRANCH   3   4
ATOM      4  C   UNL     1      95.460 124.143 123.832  1.00  0.00     0.006 C 
BRANCH   4   5
ATOM      5  C   UNL     1      94.478 123.270 124.624  1.00  0.00     0.053 C 
BRANCH   5   6
ATOM      6  C   UNL     1      93.136 123.263 123.962  1.00  0.00     0.041 C 
ATOM      7  O   UNL     1      92.091 123.425 124.647  1.00  0.00    -0.550 OA
ATOM      8  O   UNL     1      93.041 123.128 122.583  1.00  0.00    -0.550 OA
ENDBRANCH   5   6
ENDBRANCH   4   5
ENDBRANCH   3   4
ENDBRANCH   2   3
ENDBRANCH   1   2
BRANCH   1   9
ATOM      9  C   UNL     1      99.118 123.578 126.562  1.00  0.00     0.000 C 
BRANCH   9  10
ATOM     10  C   UNL     1     100.248 122.551 126.369  1.00  0.00    -0.000 C 
BRANCH  10  11
ATOM     11  C   UNL     1      99.737 121.105 126.312  1.00  0.00    -0.000 C 
BRANCH  11  12
ATOM     12  C   UNL     1     100.663 120.164 127.091  1.00  0.00    -0.000 C 
BRANCH  12  13
ATOM     13  C   UNL     1     102.046 120.086 126.436  1.00  0.00    -0.003 C 
ATOM     14  C   UNL     1     101.942 119.668 124.972  1.00  0.00     0.004 C 
ENDBRANCH  12  13
ENDBRANCH  11  12
ENDBRANCH  10  11
ENDBRANCH   9  10
ENDBRANCH   1   9
TORSDOF 10
ENDMDL
MODEL 2
REMARK VINA RESULT:    -4.860      3.609      6.994
REMARK INTER + INTRA:          -8.170
REMARK INTER:                  -7.653
REMARK INTRA:                  -0.517
REMARK UNBOUND:                -0.469
REMARK SMILES CCCCCCCCCCCC(=O)[O-]
REMARK SMILES IDX 7 1 8 2 9 3 10 4 11 5 12 6 13 7 14 8 6 9 5 10 4 11 3 12 2 13
REMARK SMILES IDX 1 14
REMARK H PARENT
REMARK Flexibility Score: inf
ROOT
ATOM      1  C   UNL     1      97.018 123.943 126.211  1.00  0.00     0.000 C 
ENDROOT
BRANCH   1   2
ATOM      2  C   UNL     1      98.394 124.378 126.746  1.00  0.00     0.000 C 
BRANCH   2   3
ATOM      3  C   UNL     1      99.496 123.340 126.476  1.00  0.00     0.000 C 
BRANCH   3   4
ATOM      4  C   UNL     1      98.945 121.909 126.371  1.00  0.00     0.006 C 
BRANCH   4   5
ATOM      5  C   UNL     1      99.867 120.869 127.022  1.00  0.00     0.053 C 
BRANCH   5   6
ATOM      6  C   UNL     1     100.743 120.231 125.991  1.00  0.00     0.041 C 
ATOM      7  O   UNL     1     100.235 119.690 124.974  1.00  0.00    -0.550 OA
ATOM      8  O   UNL     1     102.125 120.277 126.128  1.00  0.00    -0.550 OA
ENDBRANCH   5   6
ENDBRANCH   4   5
ENDBRANCH   3   4
ENDBRANCH   2   3
ENDBRANCH   1   2
BRANCH   1   9
ATOM      9  C   UNL     1      96.622 124.543 124.847  1.00  0.00     0.000 C 
BRANCH   9  10
ATOM     10  C   UNL     1      95.289 124.031 124.270  1.00  0.00    -0.000 C 
BRANCH  10  11
ATOM     11  C   UNL     1      94.610 122.991 125.172  1.00  0.00    -0.000 C 
BRANCH  11  12
ATOM     12  C   UNL     1      93.125 122.847 124.821  1.00  0.00    -0.000 C 
BRANCH  12  13
ATOM     13  C   UNL     1      92.793 123.582 123.518  1.00  0.00    -0.003 C 
ATOM     14  C   UNL     1      92.760 122.620 122.333  1.00  0.00     0.004 C 
ENDBRANCH  12  13
ENDBRANCH  11  12
ENDBRANCH  10  11
ENDBRANCH   9  10
ENDBRANCH   1   9
TORSDOF 10
ENDMDL
MODEL 3
REMARK VINA RESULT:    -4.740      1.805      3.211
REMARK INTER + INTRA:          -7.979
REMARK INTER:                  -7.625
REMARK INTRA:                  -0.354
REMARK UNBOUND:                -0.469
REMARK SMILES CCCCCCCCCCCC(=O)[O-]
REMARK SMILES IDX 7 1 8 2 9 3 10 4 11 5 12 6 13 7 14 8 6 9 5 10 4 11 3 12 2 13
REMARK SMILES IDX 1 14
REMARK H PARENT
REMARK Flexibility Score: inf
ROOT
ATOM      1  C   UNL     1      95.514 124.078 124.185  1.00  0.00     0.000 C 
ENDROOT
BRANCH   1   2
ATOM      2  C   UNL     1      94.427 123.247 124.890  1.00  0.00     0.000 C 
BRANCH   2   3
ATOM      3  C   UNL     1      93.082 123.269 124.143  1.00  0.00     0.000 C 
BRANCH   3   4
ATOM      4  C   UNL     1      93.255 123.304 122.616  1.00  0.00     0.006 C 
BRANCH   4   5
ATOM      5  C   UNL     1      92.504 122.168 121.909  1.00  0.00     0.053 C 
BRANCH   5   6
ATOM      6  C   UNL     1      92.798 122.182 120.442  1.00  0.00     0.041 C 
ATOM      7  O   UNL     1      93.739 121.486 119.978  1.00  0.00    -0.550 OA
ATOM      8  O   UNL     1      92.002 122.927 119.581  1.00  0.00    -0.550 OA
ENDBRANCH   5   6
ENDBRANCH   4   5
ENDBRANCH   3   4
ENDBRANCH   2   3
ENDBRANCH   1   2
BRANCH   1   9
ATOM      9  C   UNL     1      96.707 124.489 125.072  1.00  0.00     0.000 C 
BRANCH   9  10
ATOM     10  C   UNL     1      97.067 123.491 126.187  1.00  0.00    -0.000 C 
BRANCH  10  11
ATOM     11  C   UNL     1      98.581 123.314 126.364  1.00  0.00    -0.000 C 
BRANCH  11  12
ATOM     12  C   UNL     1      98.937 121.845 126.616  1.00  0.00    -0.000 C 
BRANCH  12  13
ATOM     13  C   UNL     1     100.399 121.562 126.250  1.00  0.00    -0.003 C 
ATOM     14  C   UNL     1     100.675 120.062 126.199  1.00  0.00     0.004 C 
ENDBRANCH  12  13
ENDBRANCH  11  12
ENDBRANCH  10  11
ENDBRANCH   9  10
ENDBRANCH   1   9
TORSDOF 10
ENDMDL
MODEL 4
REMARK VINA RESULT:    -4.606      3.751      7.197
REMARK INTER + INTRA:          -7.767
REMARK INTER:                  -7.264
REMARK INTRA:                  -0.503
REMARK UNBOUND:                -0.469
REMARK SMILES CCCCCCCCCCCC(=O)[O-]
REMARK SMILES IDX 7 1 8 2 9 3 10 4 11 5 12 6 13 7 14 8 6 9 5 10 4 11 3 12 2 13
REMARK SMILES IDX 1 14
REMARK H PARENT
REMARK Flexibility Score: inf
ROOT
ATOM      1  C   UNL     1      95.581 124.081 124.144  1.00  0.00     0.000 C 
ENDROOT
BRANCH   1   2
ATOM      2  C   UNL     1      96.789 124.719 124.854  1.00  0.00     0.000 C 
BRANCH   2   3
ATOM      3  C   UNL     1      97.047 124.121 126.247  1.00  0.00     0.000 C 
BRANCH   3   4
ATOM      4  C   UNL     1      98.498 123.647 126.427  1.00  0.00     0.006 C 
BRANCH   4   5
ATOM      5  C   UNL     1      98.624 122.118 126.444  1.00  0.00     0.053 C 
BRANCH   5   6
ATOM      6  C   UNL     1     100.064 121.713 126.459  1.00  0.00     0.041 C 
ATOM      7  O   UNL     1     100.958 122.542 126.144  1.00  0.00    -0.550 OA
ATOM      8  O   UNL     1     100.424 120.435 126.869  1.00  0.00    -0.550 OA
ENDBRANCH   5   6
ENDBRANCH   4   5
ENDBRANCH   3   4
ENDBRANCH   2   3
ENDBRANCH   1   2
BRANCH   1   9
ATOM      9  C   UNL     1      94.639 123.265 125.052  1.00  0.00     0.000 C 
BRANCH   9  10
ATOM     10  C   UNL     1      93.242 122.992 124.466  1.00  0.00    -0.000 C 
BRANCH  10  11
ATOM     11  C   UNL     1      93.128 123.386 122.987  1.00  0.00    -0.000 C 
BRANCH  11  12
ATOM     12  C   UNL     1      92.748 122.177 122.125  1.00  0.00    -0.000 C 
BRANCH  12  13
ATOM     13  C   UNL     1      92.732 122.546 120.637  1.00  0.00    -0.003 C 
ATOM     14  C   UNL     1      93.578 121.574 119.818  1.00  0.00     0.004 C 
ENDBRANCH  12  13
ENDBRANCH  11  12
ENDBRANCH  10  11
ENDBRANCH   9  10
ENDBRANCH   1   9
TORSDOF 10
ENDMDL
MODEL 5
REMARK VINA RESULT:    -4.575      0.973      1.711
REMARK INTER + INTRA:          -7.718
REMARK INTER:                  -7.224
REMARK INTRA:                  -0.495
REMARK UNBOUND:                -0.469
REMARK SMILES CCCCCCCCCCCC(=O)[O-]
REMARK SMILES IDX 7 1 8 2 9 3 10 4 11 5 12 6 13 7 14 8 6 9 5 10 4 11 3 12 2 13
REMARK SMILES IDX 1 14
REMARK H PARENT
REMARK Flexibility Score: inf
ROOT
ATOM      1  C   UNL     1      98.313 122.691 126.402  1.00  0.00     0.000 C 
ENDROOT
BRANCH   1   2
ATOM      2  C   UNL     1      98.273 124.230 126.385  1.00  0.00     0.000 C 
BRANCH   2   3
ATOM      3  C   UNL     1      96.953 124.786 125.826  1.00  0.00     0.000 C 
BRANCH   3   4
ATOM      4  C   UNL     1      95.970 123.677 125.418  1.00  0.00     0.006 C 
BRANCH   4   5
ATOM      5  C   UNL     1      95.106 124.064 124.211  1.00  0.00     0.053 C 
BRANCH   5   6
ATOM      6  C   UNL     1      93.812 123.314 124.233  1.00  0.00     0.041 C 
ATOM      7  O   UNL     1      93.066 123.307 123.219  1.00  0.00    -0.550 OA
ATOM      8  O   UNL     1      93.453 122.580 125.356  1.00  0.00    -0.550 OA
ENDBRANCH   5   6
ENDBRANCH   4   5
ENDBRANCH   3   4
ENDBRANCH   2   3
ENDBRANCH   1   2
BRANCH   1   9
ATOM      9  C   UNL     1      99.724 122.070 126.448  1.00  0.00     0.000 C 
BRANCH   9  10
ATOM     10  C   UNL     1      99.832 120.753 127.238  1.00  0.00    -0.000 C 
BRANCH  10  11
ATOM     11  C   UNL     1     101.158 120.019 126.997  1.00  0.00    -0.000 C 
BRANCH  11  12
ATOM     12  C   UNL     1     101.916 120.630 125.813  1.00  0.00    -0.000 C 
BRANCH  12  13
ATOM     13  C   UNL     1     101.939 119.669 124.619  1.00  0.00    -0.003 C 
ATOM     14  C   UNL     1     100.554 119.533 123.992  1.00  0.00     0.004 C 
ENDBRANCH  12  13
ENDBRANCH  11  12
ENDBRANCH  10  11
ENDBRANCH   9  10
ENDBRANCH   1   9
TORSDOF 10
ENDMDL
MODEL 6
REMARK VINA RESULT:    -4.193     13.288     15.551
REMARK INTER + INTRA:          -7.113
REMARK INTER:                  -6.397
REMARK INTRA:                  -0.716
REMARK UNBOUND:                -0.469
REMARK SMILES CCCCCCCCCCCC(=O)[O-]
REMARK SMILES IDX 7 1 8 2 9 3 10 4 11 5 12 6 13 7 14 8 6 9 5 10 4 11 3 12 2 13
REMARK SMILES IDX 1 14
REMARK H PARENT
REMARK Flexibility Score: inf
ROOT
ATOM      1  C   UNL     1      82.996 125.558 130.820  1.00  0.00     0.000 C 
ENDROOT
BRANCH   1   2
ATOM      2  C   UNL     1      83.471 124.505 129.803  1.00  0.00     0.000 C 
BRANCH   2   3
ATOM      3  C   UNL     1      83.218 124.927 128.345  1.00  0.00     0.000 C 
BRANCH   3   4
ATOM      4  C   UNL     1      84.448 124.715 127.448  1.00  0.00     0.006 C 
BRANCH   4   5
ATOM      5  C   UNL     1      84.085 124.138 126.073  1.00  0.00     0.053 C 
BRANCH   5   6
ATOM      6  C   UNL     1      84.601 122.740 125.942  1.00  0.00     0.041 C 
ATOM      7  O   UNL     1      84.871 122.269 124.806  1.00  0.00    -0.550 OA
ATOM      8  O   UNL     1      84.829 121.974 127.078  1.00  0.00    -0.550 OA
ENDBRANCH   5   6
ENDBRANCH   4   5
ENDBRANCH   3   4
ENDBRANCH   2   3
ENDBRANCH   1   2
BRANCH   1   9
ATOM      9  C   UNL     1      82.130 126.693 130.238  1.00  0.00     0.000 C 
BRANCH   9  10
ATOM     10  C   UNL     1      82.516 128.111 130.698  1.00  0.00    -0.000 C 
BRANCH  10  11
ATOM     11  C   UNL     1      83.795 128.629 130.027  1.00  0.00    -0.000 C 
BRANCH  11  12
ATOM     12  C   UNL     1      84.803 129.120 131.073  1.00  0.00    -0.000 C 
BRANCH  12  13
ATOM     13  C   UNL     1      84.095 129.551 132.361  1.00  0.00    -0.003 C 
ATOM     14  C   UNL     1      84.145 131.066 132.539  1.00  0.00     0.004 C 
ENDBRANCH  12  13
ENDBRANCH  11  12
ENDBRANCH  10  11
ENDBRANCH   9  10
ENDBRANCH   1   9
TORSDOF 10
ENDMDL
MODEL 7
REMARK VINA RESULT:    -4.123     14.258     16.443
REMARK INTER + INTRA:          -7.002
REMARK INTER:                  -6.418
REMARK INTRA:                  -0.584
REMARK UNBOUND:                -0.469
REMARK SMILES CCCCCCCCCCCC(=O)[O-]
REMARK SMILES IDX 7 1 8 2 9 3 10 4 11 5 12 6 13 7 14 8 6 9 5 10 4 11 3 12 2 13
REMARK SMILES IDX 1 14
REMARK H PARENT
REMARK Flexibility Score: inf
ROOT
ATOM      1  C   UNL     1      82.807 127.125 131.411  1.00  0.00     0.000 C 
ENDROOT
BRANCH   1   2
ATOM      2  C   UNL     1      82.057 125.839 131.021  1.00  0.00     0.000 C 
BRANCH   2   3
ATOM      3  C   UNL     1      81.914 125.670 129.499  1.00  0.00     0.000 C 
BRANCH   3   4
ATOM      4  C   UNL     1      82.814 124.555 128.942  1.00  0.00     0.006 C 
BRANCH   4   5
ATOM      5  C   UNL     1      82.490 124.206 127.483  1.00  0.00     0.053 C 
BRANCH   5   6
ATOM      6  C   UNL     1      83.715 124.329 126.633  1.00  0.00     0.041 C 
ATOM      7  O   UNL     1      83.670 124.030 125.411  1.00  0.00    -0.550 OA
ATOM      8  O   UNL     1      84.893 124.821 127.179  1.00  0.00    -0.550 OA
ENDBRANCH   5   6
ENDBRANCH   4   5
ENDBRANCH   3   4
ENDBRANCH   2   3
ENDBRANCH   1   2
BRANCH   1   9
ATOM      9  C   UNL     1      83.419 127.914 130.235  1.00  0.00     0.000 C 
BRANCH   9  10
ATOM     10  C   UNL     1      84.435 128.999 130.635  1.00  0.00    -0.000 C 
BRANCH  10  11
ATOM     11  C   UNL     1      84.418 129.308 132.138  1.00  0.00    -0.000 C 
BRANCH  11  12
ATOM     12  C   UNL     1      84.128 130.791 132.391  1.00  0.00    -0.000 C 
BRANCH  12  13
ATOM     13  C   UNL     1      82.841 131.229 131.684  1.00  0.00    -0.003 C 
ATOM     14  C   UNL     1      82.734 132.750 131.621  1.00  0.00     0.004 C 
ENDBRANCH  12  13
ENDBRANCH  11  12
ENDBRANCH  10  11
ENDBRANCH   9  10
ENDBRANCH   1   9
TORSDOF 10
ENDMDL
MODEL 8
REMARK VINA RESULT:    -4.094     13.338     14.503
REMARK INTER + INTRA:          -6.956
REMARK INTER:                  -5.751
REMARK INTRA:                  -1.205
REMARK UNBOUND:                -0.469
REMARK SMILES CCCCCCCCCCCC(=O)[O-]
REMARK SMILES IDX 7 1 8 2 9 3 10 4 11 5 12 6 13 7 14 8 6 9 5 10 4 11 3 12 2 13
REMARK SMILES IDX 1 14
REMARK H PARENT
REMARK Flexibility Score: inf
ROOT
ATOM      1  C   UNL     1      84.147 123.594 125.389  1.00  0.00     0.000 C 
ENDROOT
BRANCH   1   2
ATOM      2  C   UNL     1      84.461 122.193 124.835  1.00  0.00     0.000 C 
BRANCH   2   3
ATOM      3  C   UNL     1      83.445 121.131 125.288  1.00  0.00     0.000 C 
BRANCH   3   4
ATOM      4  C   UNL     1      82.662 120.524 124.113  1.00  0.00     0.006 C 
BRANCH   4   5
ATOM      5  C   UNL     1      82.677 121.418 122.866  1.00  0.00     0.053 C 
BRANCH   5   6
ATOM      6  C   UNL     1      82.558 120.587 121.628  1.00  0.00     0.041 C 
ATOM      7  O   UNL     1      82.617 119.332 121.699  1.00  0.00    -0.550 OA
ATOM      8  O   UNL     1      82.333 121.198 120.400  1.00  0.00    -0.550 OA
ENDBRANCH   5   6
ENDBRANCH   4   5
ENDBRANCH   3   4
ENDBRANCH   2   3
ENDBRANCH   1   2
BRANCH   1   9
ATOM      9  C   UNL     1      82.721 123.779 125.944  1.00  0.00     0.000 C 
BRANCH   9  10
ATOM     10  C   UNL     1      82.644 124.202 127.422  1.00  0.00    -0.000 C 
BRANCH  10  11
ATOM     11  C   UNL     1      84.007 124.159 128.126  1.00  0.00    -0.000 C 
BRANCH  11  12
ATOM     12  C   UNL     1      84.097 122.960 129.077  1.00  0.00    -0.000 C 
BRANCH  12  13
ATOM     13  C   UNL     1      85.176 121.973 128.619  1.00  0.00    -0.003 C 
ATOM     14  C   UNL     1      84.678 120.533 128.700  1.00  0.00     0.004 C 
ENDBRANCH  12  13
ENDBRANCH  11  12
ENDBRANCH  10  11
ENDBRANCH   9  10
ENDBRANCH   1   9
TORSDOF 10
ENDMDL
MODEL 9
REMARK VINA RESULT:    -4.080     13.839     15.494
REMARK INTER + INTRA:          -6.933
REMARK INTER:                  -6.355
REMARK INTRA:                  -0.578
REMARK UNBOUND:                -0.469
REMARK SMILES CCCCCCCCCCCC(=O)[O-]
REMARK SMILES IDX 7 1 8 2 9 3 10 4 11 5 12 6 13 7 14 8 6 9 5 10 4 11 3 12 2 13
REMARK SMILES IDX 1 14
REMARK H PARENT
REMARK Flexibility Score: inf
ROOT
ATOM      1  C   UNL     1      82.658 124.951 128.729  1.00  0.00     0.000 C 
ENDROOT
BRANCH   1   2
ATOM      2  C   UNL     1      82.354 125.148 130.225  1.00  0.00     0.000 C 
BRANCH   2   3
ATOM      3  C   UNL     1      83.182 126.279 130.858  1.00  0.00     0.000 C 
BRANCH   3   4
ATOM      4  C   UNL     1      82.752 127.671 130.366  1.00  0.00     0.006 C 
BRANCH   4   5
ATOM      5  C   UNL     1      83.946 128.592 130.081  1.00  0.00     0.053 C 
BRANCH   5   6
ATOM      6  C   UNL     1      84.139 129.560 131.206  1.00  0.00     0.041 C 
ATOM      7  O   UNL     1      83.345 130.526 131.353  1.00  0.00    -0.550 OA
ATOM      8  O   UNL     1      85.165 129.366 132.121  1.00  0.00    -0.550 OA
ENDBRANCH   5   6
ENDBRANCH   4   5
ENDBRANCH   3   4
ENDBRANCH   2   3
ENDBRANCH   1   2
BRANCH   1   9
ATOM      9  C   UNL     1      83.949 124.168 128.416  1.00  0.00     0.000 C 
BRANCH   9  10
ATOM     10  C   UNL     1      84.637 124.545 127.092  1.00  0.00    -0.000 C 
BRANCH  10  11
ATOM     11  C   UNL     1      83.858 124.069 125.858  1.00  0.00    -0.000 C 
BRANCH  11  12
ATOM     12  C   UNL     1      84.578 122.905 125.169  1.00  0.00    -0.000 C 
BRANCH  12  13
ATOM     13  C   UNL     1      83.578 121.970 124.479  1.00  0.00    -0.003 C 
ATOM     14  C   UNL     1      82.149 122.259 124.930  1.00  0.00     0.004 C 
ENDBRANCH  12  13
ENDBRANCH  11  12
ENDBRANCH  10  11
ENDBRANCH   9  10
ENDBRANCH   1   9
TORSDOF 10
ENDMDL
