MODEL 1
REMARK VINA RESULT:    -4.551      0.000      0.000
REMARK INTER + INTRA:         -14.994
REMARK INTER:                 -11.468
REMARK INTRA:                  -3.526
REMARK UNBOUND:                -3.526
REMARK SMILES CCCCCCCCCCCCCCCCCCCCCCCCCCCC(=O)[O-]
REMARK SMILES IDX 15 1 16 2 17 3 18 4 19 5 20 6 21 7 22 8 23 9 24 10 25 11
REMARK SMILES IDX 26 12 27 13 28 14 29 15 30 16 14 17 13 18 12 19 11 20 10 21
REMARK SMILES IDX 9 22 8 23 7 24 6 25 5 26 4 27 3 28 2 29 1 30
REMARK H PARENT
REMARK Flexibility Score: inf
ROOT
ATOM      1  C   UNL     1       1.705   5.319   3.207  1.00  0.00     0.000 C 
ENDROOT
BRANCH   1   2
ATOM      2  C   UNL     1       2.728   4.485   2.410  1.00  0.00     0.000 C 
BRANCH   2   3
ATOM      3  C   UNL     1       3.008   5.067   1.015  1.00  0.00     0.000 C 
BRANCH   3   4
ATOM      4  C   UNL     1       2.288   4.255  -0.072  1.00  0.00     0.000 C 
BRANCH   4   5
ATOM      5  C   UNL     1       1.494   5.134  -1.056  1.00  0.00     0.000 C 
BRANCH   5   6
ATOM      6  C   UNL     1       2.177   5.375  -2.417  1.00  0.00     0.000 C 
BRANCH   6   7
ATOM      7  C   UNL     1       2.874   6.739  -2.566  1.00  0.00     0.000 C 
BRANCH   7   8
ATOM      8  C   UNL     1       4.247   6.791  -1.874  1.00  0.00     0.000 C 
BRANCH   8   9
ATOM      9  C   UNL     1       5.248   5.799  -2.502  1.00  0.00     0.000 C 
BRANCH   9  10
ATOM     10  C   UNL     1       5.712   4.701  -1.530  1.00  0.00     0.000 C 
BRANCH  10  11
ATOM     11  C   UNL     1       6.820   3.811  -2.118  1.00  0.00     0.000 C 
BRANCH  11  12
ATOM     12  C   UNL     1       8.200   4.487  -2.091  1.00  0.00     0.006 C 
BRANCH  12  13
ATOM     13  C   UNL     1       8.992   4.273  -3.390  1.00  0.00     0.053 C 
BRANCH  13  14
ATOM     14  C   UNL     1       8.173   4.665  -4.581  1.00  0.00     0.041 C 
ATOM     15  O   UNL     1       7.849   5.868  -4.759  1.00  0.00    -0.550 OA
ATOM     16  O   UNL     1       7.767   3.700  -5.494  1.00  0.00    -0.550 OA
ENDBRANCH  13  14
ENDBRANCH  12  13
ENDBRANCH  11  12
ENDBRANCH  10  11
ENDBRANCH   9  10
ENDBRANCH   8   9
ENDBRANCH   7   8
ENDBRANCH   6   7
ENDBRANCH   5   6
ENDBRANCH   4   5
ENDBRANCH   3   4
ENDBRANCH   2   3
ENDBRANCH   1   2
BRANCH   1  17
ATOM     17  C   UNL     1       2.199   6.729   3.573  1.00  0.00     0.000 C 
BRANCH  17  18
ATOM     18  C   UNL     1       1.051   7.713   3.851  1.00  0.00     0.000 C 
BRANCH  18  19
ATOM     19  C   UNL     1      -0.331   7.070   3.658  1.00  0.00     0.000 C 
BRANCH  19  20
ATOM     20  C   UNL     1      -1.401   7.678   4.583  1.00  0.00     0.000 C 
BRANCH  20  21
ATOM     21  C   UNL     1      -0.809   8.680   5.587  1.00  0.00     0.000 C 
BRANCH  21  22
ATOM     22  C   UNL     1      -0.919   8.192   7.040  1.00  0.00    -0.000 C 
BRANCH  22  23
ATOM     23  C   UNL     1       0.379   8.464   7.811  1.00  0.00    -0.000 C 
BRANCH  23  24
ATOM     24  C   UNL     1       1.403   7.342   7.574  1.00  0.00    -0.000 C 
BRANCH  24  25
ATOM     25  C   UNL     1       0.745   5.949   7.481  1.00  0.00    -0.000 C 
BRANCH  25  26
ATOM     26  C   UNL     1       1.667   4.862   6.897  1.00  0.00    -0.000 C 
BRANCH  26  27
ATOM     27  C   UNL     1       3.166   5.206   6.907  1.00  0.00    -0.000 C 
BRANCH  27  28
ATOM     28  C   UNL     1       4.013   4.461   5.856  1.00  0.00    -0.000 C 
BRANCH  28  29
ATOM     29  C   UNL     1       4.392   3.022   6.267  1.00  0.00    -0.003 C 
ATOM     30  C   UNL     1       5.903   2.782   6.240  1.00  0.00     0.004 C 
ENDBRANCH  28  29
ENDBRANCH  27  28
ENDBRANCH  26  27
ENDBRANCH  25  26
ENDBRANCH  24  25
ENDBRANCH  23  24
ENDBRANCH  22  23
ENDBRANCH  21  22
ENDBRANCH  20  21
ENDBRANCH  19  20
ENDBRANCH  18  19
ENDBRANCH  17  18
ENDBRANCH   1  17
TORSDOF 26
ENDMDL
MODEL 2
REMARK VINA RESULT:    -4.523      3.210      9.049
REMARK INTER + INTRA:         -14.922
REMARK INTER:                 -11.358
REMARK INTRA:                  -3.564
REMARK UNBOUND:                -3.526
REMARK SMILES CCCCCCCCCCCCCCCCCCCCCCCCCCCC(=O)[O-]
REMARK SMILES IDX 15 1 16 2 17 3 18 4 19 5 20 6 21 7 22 8 23 9 24 10 25 11
REMARK SMILES IDX 26 12 27 13 28 14 29 15 30 16 14 17 13 18 12 19 11 20 10 21
REMARK SMILES IDX 9 22 8 23 7 24 6 25 5 26 4 27 3 28 2 29 1 30
REMARK H PARENT
REMARK Flexibility Score: inf
ROOT
ATOM      1  C   UNL     1      -0.486   6.211   3.648  1.00  0.00     0.000 C 
ENDROOT
BRANCH   1   2
ATOM      2  C   UNL     1      -1.461   7.194   4.329  1.00  0.00     0.000 C 
BRANCH   2   3
ATOM      3  C   UNL     1      -2.374   6.507   5.355  1.00  0.00     0.000 C 
BRANCH   3   4
ATOM      4  C   UNL     1      -2.544   7.378   6.609  1.00  0.00     0.000 C 
BRANCH   4   5
ATOM      5  C   UNL     1      -1.573   8.571   6.651  1.00  0.00     0.000 C 
BRANCH   5   6
ATOM      6  C   UNL     1      -0.559   8.552   7.812  1.00  0.00     0.000 C 
BRANCH   6   7
ATOM      7  C   UNL     1       0.886   8.208   7.412  1.00  0.00     0.000 C 
BRANCH   7   8
ATOM      8  C   UNL     1       1.060   6.739   6.989  1.00  0.00     0.000 C 
BRANCH   8   9
ATOM      9  C   UNL     1       2.187   6.040   7.779  1.00  0.00     0.000 C 
BRANCH   9  10
ATOM     10  C   UNL     1       3.141   5.224   6.891  1.00  0.00     0.000 C 
BRANCH  10  11
ATOM     11  C   UNL     1       2.480   3.966   6.303  1.00  0.00     0.000 C 
BRANCH  11  12
ATOM     12  C   UNL     1       3.442   3.143   5.431  1.00  0.00     0.006 C 
BRANCH  12  13
ATOM     13  C   UNL     1       4.777   3.861   5.178  1.00  0.00     0.053 C 
BRANCH  13  14
ATOM     14  C   UNL     1       5.926   3.026   5.650  1.00  0.00     0.041 C 
ATOM     15  O   UNL     1       6.301   2.027   4.981  1.00  0.00    -0.550 OA
ATOM     16  O   UNL     1       6.584   3.350   6.830  1.00  0.00    -0.550 OA
ENDBRANCH  13  14
ENDBRANCH  12  13
ENDBRANCH  11  12
ENDBRANCH  10  11
ENDBRANCH   9  10
ENDBRANCH   8   9
ENDBRANCH   7   8
ENDBRANCH   6   7
ENDBRANCH   5   6
ENDBRANCH   4   5
ENDBRANCH   3   4
ENDBRANCH   2   3
ENDBRANCH   1   2
BRANCH   1  17
ATOM     17  C   UNL     1       0.729   6.890   2.995  1.00  0.00     0.000 C 
BRANCH  17  18
ATOM     18  C   UNL     1       2.067   6.435   3.601  1.00  0.00     0.000 C 
BRANCH  18  19
ATOM     19  C   UNL     1       2.951   5.699   2.582  1.00  0.00     0.000 C 
BRANCH  19  20
ATOM     20  C   UNL     1       2.318   4.387   2.088  1.00  0.00     0.000 C 
BRANCH  20  21
ATOM     21  C   UNL     1       2.540   4.157   0.585  1.00  0.00     0.000 C 
BRANCH  21  22
ATOM     22  C   UNL     1       3.008   5.427  -0.143  1.00  0.00    -0.000 C 
BRANCH  22  23
ATOM     23  C   UNL     1       2.252   5.614  -1.464  1.00  0.00    -0.000 C 
BRANCH  23  24
ATOM     24  C   UNL     1       3.073   6.460  -2.451  1.00  0.00    -0.000 C 
BRANCH  24  25
ATOM     25  C   UNL     1       4.470   6.820  -1.903  1.00  0.00    -0.000 C 
BRANCH  25  26
ATOM     26  C   UNL     1       5.632   6.359  -2.804  1.00  0.00    -0.000 C 
BRANCH  26  27
ATOM     27  C   UNL     1       5.587   4.877  -3.216  1.00  0.00    -0.000 C 
BRANCH  27  28
ATOM     28  C   UNL     1       5.472   4.626  -4.733  1.00  0.00    -0.000 C 
BRANCH  28  29
ATOM     29  C   UNL     1       4.600   3.406  -5.098  1.00  0.00    -0.003 C 
ATOM     30  C   UNL     1       3.409   3.231  -4.152  1.00  0.00     0.004 C 
ENDBRANCH  28  29
ENDBRANCH  27  28
ENDBRANCH  26  27
ENDBRANCH  25  26
ENDBRANCH  24  25
ENDBRANCH  23  24
ENDBRANCH  22  23
ENDBRANCH  21  22
ENDBRANCH  20  21
ENDBRANCH  19  20
ENDBRANCH  18  19
ENDBRANCH  17  18
ENDBRANCH   1  17
TORSDOF 26
ENDMDL
MODEL 3
REMARK VINA RESULT:    -4.509      3.547      9.247
REMARK INTER + INTRA:         -14.889
REMARK INTER:                 -10.442
REMARK INTRA:                  -4.447
REMARK UNBOUND:                -3.526
REMARK SMILES CCCCCCCCCCCCCCCCCCCCCCCCCCCC(=O)[O-]
REMARK SMILES IDX 15 1 16 2 17 3 18 4 19 5 20 6 21 7 22 8 23 9 24 10 25 11
REMARK SMILES IDX 26 12 27 13 28 14 29 15 30 16 14 17 13 18 12 19 11 20 10 21
REMARK SMILES IDX 9 22 8 23 7 24 6 25 5 26 4 27 3 28 2 29 1 30
REMARK H PARENT
REMARK Flexibility Score: inf
ROOT
ATOM      1  C   UNL     1       3.608   2.464   3.551  1.00  0.00     0.000 C 
ENDROOT
BRANCH   1   2
ATOM      2  C   UNL     1       4.613   1.570   4.307  1.00  0.00     0.000 C 
BRANCH   2   3
ATOM      3  C   UNL     1       6.062   2.065   4.174  1.00  0.00     0.000 C 
BRANCH   3   4
ATOM      4  C   UNL     1       6.278   3.353   4.983  1.00  0.00     0.000 C 
BRANCH   4   5
ATOM      5  C   UNL     1       6.004   3.173   6.487  1.00  0.00     0.000 C 
BRANCH   5   6
ATOM      6  C   UNL     1       4.927   4.106   7.073  1.00  0.00     0.000 C 
BRANCH   6   7
ATOM      7  C   UNL     1       3.682   3.396   7.634  1.00  0.00     0.000 C 
BRANCH   7   8
ATOM      8  C   UNL     1       2.621   4.374   8.166  1.00  0.00     0.000 C 
BRANCH   8   9
ATOM      9  C   UNL     1       2.983   5.843   7.860  1.00  0.00     0.000 C 
BRANCH   9  10
ATOM     10  C   UNL     1       1.787   6.680   7.377  1.00  0.00     0.000 C 
BRANCH  10  11
ATOM     11  C   UNL     1       0.443   6.176   7.929  1.00  0.00     0.000 C 
BRANCH  11  12
ATOM     12  C   UNL     1      -0.517   5.714   6.822  1.00  0.00     0.006 C 
BRANCH  12  13
ATOM     13  C   UNL     1      -0.808   6.814   5.790  1.00  0.00     0.053 C 
BRANCH  13  14
ATOM     14  C   UNL     1      -1.230   6.218   4.483  1.00  0.00     0.041 C 
ATOM     15  O   UNL     1      -1.917   5.163   4.460  1.00  0.00    -0.550 OA
ATOM     16  O   UNL     1      -0.865   6.827   3.289  1.00  0.00    -0.550 OA
ENDBRANCH  13  14
ENDBRANCH  12  13
ENDBRANCH  11  12
ENDBRANCH  10  11
ENDBRANCH   9  10
ENDBRANCH   8   9
ENDBRANCH   7   8
ENDBRANCH   6   7
ENDBRANCH   5   6
ENDBRANCH   4   5
ENDBRANCH   3   4
ENDBRANCH   2   3
ENDBRANCH   1   2
BRANCH   1  17
ATOM     17  C   UNL     1       2.259   2.630   4.270  1.00  0.00     0.000 C 
BRANCH  17  18
ATOM     18  C   UNL     1       1.887   4.102   4.514  1.00  0.00     0.000 C 
BRANCH  18  19
ATOM     19  C   UNL     1       3.063   5.054   4.249  1.00  0.00     0.000 C 
BRANCH  19  20
ATOM     20  C   UNL     1       2.729   6.131   3.202  1.00  0.00     0.000 C 
BRANCH  20  21
ATOM     21  C   UNL     1       2.042   5.547   1.957  1.00  0.00     0.000 C 
BRANCH  21  22
ATOM     22  C   UNL     1       3.049   5.069   0.899  1.00  0.00    -0.000 C 
BRANCH  22  23
ATOM     23  C   UNL     1       2.365   4.186  -0.152  1.00  0.00    -0.000 C 
BRANCH  23  24
ATOM     24  C   UNL     1       1.543   5.037  -1.132  1.00  0.00    -0.000 C 
BRANCH  24  25
ATOM     25  C   UNL     1       2.307   5.340  -2.439  1.00  0.00    -0.000 C 
BRANCH  25  26
ATOM     26  C   UNL     1       3.010   6.711  -2.447  1.00  0.00    -0.000 C 
BRANCH  26  27
ATOM     27  C   UNL     1       4.486   6.689  -2.012  1.00  0.00    -0.000 C 
BRANCH  27  28
ATOM     28  C   UNL     1       5.470   6.157  -3.072  1.00  0.00    -0.000 C 
BRANCH  28  29
ATOM     29  C   UNL     1       6.731   5.496  -2.476  1.00  0.00    -0.003 C 
ATOM     30  C   UNL     1       6.407   4.248  -1.652  1.00  0.00     0.004 C 
ENDBRANCH  28  29
ENDBRANCH  27  28
ENDBRANCH  26  27
ENDBRANCH  25  26
ENDBRANCH  24  25
ENDBRANCH  23  24
ENDBRANCH  22  23
ENDBRANCH  21  22
ENDBRANCH  20  21
ENDBRANCH  19  20
ENDBRANCH  18  19
ENDBRANCH  17  18
ENDBRANCH   1  17
TORSDOF 26
ENDMDL
MODEL 4
REMARK VINA RESULT:    -4.488      3.364      8.655
REMARK INTER + INTRA:         -14.835
REMARK INTER:                 -10.498
REMARK INTRA:                  -4.337
REMARK UNBOUND:                -3.526
REMARK SMILES CCCCCCCCCCCCCCCCCCCCCCCCCCCC(=O)[O-]
REMARK SMILES IDX 15 1 16 2 17 3 18 4 19 5 20 6 21 7 22 8 23 9 24 10 25 11
REMARK SMILES IDX 26 12 27 13 28 14 29 15 30 16 14 17 13 18 12 19 11 20 10 21
REMARK SMILES IDX 9 22 8 23 7 24 6 25 5 26 4 27 3 28 2 29 1 30
REMARK H PARENT
REMARK Flexibility Score: inf
ROOT
ATOM      1  C   UNL     1       0.192   4.781   2.208  1.00  0.00     0.000 C 
ENDROOT
BRANCH   1   2
ATOM      2  C   UNL     1       0.701   6.237   2.252  1.00  0.00     0.000 C 
BRANCH   2   3
ATOM      3  C   UNL     1       1.535   6.534   3.507  1.00  0.00     0.000 C 
BRANCH   3   4
ATOM      4  C   UNL     1       1.386   8.005   3.929  1.00  0.00     0.000 C 
BRANCH   4   5
ATOM      5  C   UNL     1       0.642   8.176   5.266  1.00  0.00     0.000 C 
BRANCH   5   6
ATOM      6  C   UNL     1       0.765   6.989   6.241  1.00  0.00     0.000 C 
BRANCH   6   7
ATOM      7  C   UNL     1       1.197   7.360   7.671  1.00  0.00     0.000 C 
BRANCH   7   8
ATOM      8  C   UNL     1       1.801   6.174   8.443  1.00  0.00     0.000 C 
BRANCH   8   9
ATOM      9  C   UNL     1       3.195   5.785   7.906  1.00  0.00     0.000 C 
BRANCH   9  10
ATOM     10  C   UNL     1       3.353   4.277   7.649  1.00  0.00     0.000 C 
BRANCH  10  11
ATOM     11  C   UNL     1       3.056   3.885   6.192  1.00  0.00     0.000 C 
BRANCH  11  12
ATOM     12  C   UNL     1       4.155   4.342   5.220  1.00  0.00     0.006 C 
BRANCH  12  13
ATOM     13  C   UNL     1       4.995   3.174   4.680  1.00  0.00     0.053 C 
BRANCH  13  14
ATOM     14  C   UNL     1       5.731   2.493   5.790  1.00  0.00     0.041 C 
ATOM     15  O   UNL     1       5.565   1.262   5.999  1.00  0.00    -0.550 OA
ATOM     16  O   UNL     1       6.602   3.216   6.596  1.00  0.00    -0.550 OA
ENDBRANCH  13  14
ENDBRANCH  12  13
ENDBRANCH  11  12
ENDBRANCH  10  11
ENDBRANCH   9  10
ENDBRANCH   8   9
ENDBRANCH   7   8
ENDBRANCH   6   7
ENDBRANCH   5   6
ENDBRANCH   4   5
ENDBRANCH   3   4
ENDBRANCH   2   3
ENDBRANCH   1   2
BRANCH   1  17
ATOM     17  C   UNL     1       0.872   3.852   3.228  1.00  0.00     0.000 C 
BRANCH  17  18
ATOM     18  C   UNL     1       1.272   2.494   2.627  1.00  0.00     0.000 C 
BRANCH  18  19
ATOM     19  C   UNL     1       0.928   2.391   1.133  1.00  0.00     0.000 C 
BRANCH  19  20
ATOM     20  C   UNL     1       2.097   1.850   0.292  1.00  0.00     0.000 C 
BRANCH  20  21
ATOM     21  C   UNL     1       2.749   2.939  -0.575  1.00  0.00     0.000 C 
BRANCH  21  22
ATOM     22  C   UNL     1       3.662   3.871   0.236  1.00  0.00    -0.000 C 
BRANCH  22  23
ATOM     23  C   UNL     1       3.362   5.342  -0.074  1.00  0.00    -0.000 C 
BRANCH  23  24
ATOM     24  C   UNL     1       2.357   5.465  -1.231  1.00  0.00    -0.000 C 
BRANCH  24  25
ATOM     25  C   UNL     1       2.823   6.459  -2.317  1.00  0.00    -0.000 C 
BRANCH  25  26
ATOM     26  C   UNL     1       4.338   6.414  -2.594  1.00  0.00    -0.000 C 
BRANCH  26  27
ATOM     27  C   UNL     1       4.791   5.300  -3.554  1.00  0.00    -0.000 C 
BRANCH  27  28
ATOM     28  C   UNL     1       5.673   4.208  -2.916  1.00  0.00    -0.000 C 
BRANCH  28  29
ATOM     29  C   UNL     1       6.648   4.742  -1.845  1.00  0.00    -0.003 C 
ATOM     30  C   UNL     1       7.855   3.824  -1.639  1.00  0.00     0.004 C 
ENDBRANCH  28  29
ENDBRANCH  27  28
ENDBRANCH  26  27
ENDBRANCH  25  26
ENDBRANCH  24  25
ENDBRANCH  23  24
ENDBRANCH  22  23
ENDBRANCH  21  22
ENDBRANCH  20  21
ENDBRANCH  19  20
ENDBRANCH  18  19
ENDBRANCH  17  18
ENDBRANCH   1  17
TORSDOF 26
ENDMDL
MODEL 5
REMARK VINA RESULT:    -4.480      1.635      4.091
REMARK INTER + INTRA:         -14.814
REMARK INTER:                 -10.766
REMARK INTRA:                  -4.049
REMARK UNBOUND:                -3.526
REMARK SMILES CCCCCCCCCCCCCCCCCCCCCCCCCCCC(=O)[O-]
REMARK SMILES IDX 15 1 16 2 17 3 18 4 19 5 20 6 21 7 22 8 23 9 24 10 25 11
REMARK SMILES IDX 26 12 27 13 28 14 29 15 30 16 14 17 13 18 12 19 11 20 10 21
REMARK SMILES IDX 9 22 8 23 7 24 6 25 5 26 4 27 3 28 2 29 1 30
REMARK H PARENT
REMARK Flexibility Score: inf
ROOT
ATOM      1  C   UNL     1       5.516   3.546   5.623  1.00  0.00     0.000 C 
ENDROOT
BRANCH   1   2
ATOM      2  C   UNL     1       4.123   3.025   5.213  1.00  0.00     0.000 C 
BRANCH   2   3
ATOM      3  C   UNL     1       3.660   3.579   3.857  1.00  0.00     0.000 C 
BRANCH   3   4
ATOM      4  C   UNL     1       3.610   5.115   3.881  1.00  0.00     0.000 C 
BRANCH   4   5
ATOM      5  C   UNL     1       2.943   5.716   2.630  1.00  0.00     0.000 C 
BRANCH   5   6
ATOM      6  C   UNL     1       2.498   4.691   1.569  1.00  0.00     0.000 C 
BRANCH   6   7
ATOM      7  C   UNL     1       1.966   5.297   0.258  1.00  0.00     0.000 C 
BRANCH   7   8
ATOM      8  C   UNL     1       2.208   4.393  -0.964  1.00  0.00     0.000 C 
BRANCH   8   9
ATOM      9  C   UNL     1       2.744   5.188  -2.173  1.00  0.00     0.000 C 
BRANCH   9  10
ATOM     10  C   UNL     1       3.755   6.281  -1.787  1.00  0.00     0.000 C 
BRANCH  10  11
ATOM     11  C   UNL     1       4.718   6.636  -2.932  1.00  0.00     0.000 C 
BRANCH  11  12
ATOM     12  C   UNL     1       6.190   6.389  -2.566  1.00  0.00     0.006 C 
BRANCH  12  13
ATOM     13  C   UNL     1       6.533   4.895  -2.456  1.00  0.00     0.053 C 
BRANCH  13  14
ATOM     14  C   UNL     1       8.012   4.697  -2.343  1.00  0.00     0.041 C 
ATOM     15  O   UNL     1       8.751   4.849  -3.352  1.00  0.00    -0.550 OA
ATOM     16  O   UNL     1       8.578   4.345  -1.124  1.00  0.00    -0.550 OA
ENDBRANCH  13  14
ENDBRANCH  12  13
ENDBRANCH  11  12
ENDBRANCH  10  11
ENDBRANCH   9  10
ENDBRANCH   8   9
ENDBRANCH   7   8
ENDBRANCH   6   7
ENDBRANCH   5   6
ENDBRANCH   4   5
ENDBRANCH   3   4
ENDBRANCH   2   3
ENDBRANCH   1   2
BRANCH   1  17
ATOM     17  C   UNL     1       5.544   4.233   6.999  1.00  0.00     0.000 C 
BRANCH  17  18
ATOM     18  C   UNL     1       4.203   4.138   7.744  1.00  0.00     0.000 C 
BRANCH  18  19
ATOM     19  C   UNL     1       3.647   5.517   8.128  1.00  0.00     0.000 C 
BRANCH  19  20
ATOM     20  C   UNL     1       2.151   5.666   7.798  1.00  0.00     0.000 C 
BRANCH  20  21
ATOM     21  C   UNL     1       1.896   6.681   6.672  1.00  0.00     0.000 C 
BRANCH  21  22
ATOM     22  C   UNL     1       0.996   7.843   7.120  1.00  0.00    -0.000 C 
BRANCH  22  23
ATOM     23  C   UNL     1       0.346   8.532   5.914  1.00  0.00    -0.000 C 
BRANCH  23  24
ATOM     24  C   UNL     1       0.859   7.931   4.596  1.00  0.00    -0.000 C 
BRANCH  24  25
ATOM     25  C   UNL     1      -0.261   7.255   3.778  1.00  0.00    -0.000 C 
BRANCH  25  26
ATOM     26  C   UNL     1      -1.494   6.861   4.614  1.00  0.00    -0.000 C 
BRANCH  26  27
ATOM     27  C   UNL     1      -1.787   5.352   4.670  1.00  0.00    -0.000 C 
BRANCH  27  28
ATOM     28  C   UNL     1      -0.972   4.569   5.719  1.00  0.00    -0.000 C 
BRANCH  28  29
ATOM     29  C   UNL     1       0.218   3.785   5.125  1.00  0.00    -0.003 C 
ATOM     30  C   UNL     1      -0.061   3.279   3.708  1.00  0.00     0.004 C 
ENDBRANCH  28  29
ENDBRANCH  27  28
ENDBRANCH  26  27
ENDBRANCH  25  26
ENDBRANCH  24  25
ENDBRANCH  23  24
ENDBRANCH  22  23
ENDBRANCH  21  22
ENDBRANCH  20  21
ENDBRANCH  19  20
ENDBRANCH  18  19
ENDBRANCH  17  18
ENDBRANCH   1  17
TORSDOF 26
ENDMDL
MODEL 6
REMARK VINA RESULT:    -4.462     10.927     12.939
REMARK INTER + INTRA:         -14.770
REMARK INTER:                  -9.742
REMARK INTRA:                  -5.028
REMARK UNBOUND:                -3.526
REMARK SMILES CCCCCCCCCCCCCCCCCCCCCCCCCCCC(=O)[O-]
REMARK SMILES IDX 15 1 16 2 17 3 18 4 19 5 20 6 21 7 22 8 23 9 24 10 25 11
REMARK SMILES IDX 26 12 27 13 28 14 29 15 30 16 14 17 13 18 12 19 11 20 10 21
REMARK SMILES IDX 9 22 8 23 7 24 6 25 5 26 4 27 3 28 2 29 1 30
REMARK H PARENT
REMARK Flexibility Score: inf
ROOT
ATOM      1  C   UNL     1      -0.132  -7.473   5.096  1.00  0.00     0.000 C 
ENDROOT
BRANCH   1   2
ATOM      2  C   UNL     1      -1.142  -7.724   3.957  1.00  0.00     0.000 C 
BRANCH   2   3
ATOM      3  C   UNL     1      -1.502  -6.441   3.192  1.00  0.00     0.000 C 
BRANCH   3   4
ATOM      4  C   UNL     1      -3.012  -6.165   3.265  1.00  0.00     0.000 C 
BRANCH   4   5
ATOM      5  C   UNL     1      -3.348  -4.666   3.359  1.00  0.00     0.000 C 
BRANCH   5   6
ATOM      6  C   UNL     1      -2.140  -3.738   3.593  1.00  0.00     0.000 C 
BRANCH   6   7
ATOM      7  C   UNL     1      -1.866  -2.726   2.466  1.00  0.00     0.000 C 
BRANCH   7   8
ATOM      8  C   UNL     1      -2.582  -3.081   1.151  1.00  0.00     0.000 C 
BRANCH   8   9
ATOM      9  C   UNL     1      -1.613  -3.682   0.110  1.00  0.00     0.000 C 
BRANCH   9  10
ATOM     10  C   UNL     1      -2.079  -5.037  -0.448  1.00  0.00     0.000 C 
BRANCH  10  11
ATOM     11  C   UNL     1      -3.594  -5.255  -0.300  1.00  0.00     0.000 C 
BRANCH  11  12
ATOM     12  C   UNL     1      -4.186  -6.092  -1.445  1.00  0.00     0.006 C 
BRANCH  12  13
ATOM     13  C   UNL     1      -4.230  -5.330  -2.778  1.00  0.00     0.053 C 
BRANCH  13  14
ATOM     14  C   UNL     1      -5.376  -5.798  -3.620  1.00  0.00     0.041 C 
ATOM     15  O   UNL     1      -5.534  -5.346  -4.784  1.00  0.00    -0.550 OA
ATOM     16  O   UNL     1      -6.272  -6.735  -3.119  1.00  0.00    -0.550 OA
ENDBRANCH  13  14
ENDBRANCH  12  13
ENDBRANCH  11  12
ENDBRANCH  10  11
ENDBRANCH   9  10
ENDBRANCH   8   9
ENDBRANCH   7   8
ENDBRANCH   6   7
ENDBRANCH   5   6
ENDBRANCH   4   5
ENDBRANCH   3   4
ENDBRANCH   2   3
ENDBRANCH   1   2
BRANCH   1  17
ATOM     17  C   UNL     1      -0.475  -6.260   5.976  1.00  0.00     0.000 C 
BRANCH  17  18
ATOM     18  C   UNL     1      -1.528  -6.578   7.051  1.00  0.00     0.000 C 
BRANCH  18  19
ATOM     19  C   UNL     1      -2.746  -5.645   6.971  1.00  0.00     0.000 C 
BRANCH  19  20
ATOM     20  C   UNL     1      -2.386  -4.176   7.251  1.00  0.00     0.000 C 
BRANCH  20  21
ATOM     21  C   UNL     1      -3.610  -3.248   7.184  1.00  0.00     0.000 C 
BRANCH  21  22
ATOM     22  C   UNL     1      -4.895  -3.996   6.794  1.00  0.00    -0.000 C 
BRANCH  22  23
ATOM     23  C   UNL     1      -6.020  -3.013   6.447  1.00  0.00    -0.000 C 
BRANCH  23  24
ATOM     24  C   UNL     1      -6.373  -3.087   4.953  1.00  0.00    -0.000 C 
BRANCH  24  25
ATOM     25  C   UNL     1      -5.760  -1.925   4.142  1.00  0.00    -0.000 C 
BRANCH  25  26
ATOM     26  C   UNL     1      -5.514  -0.649   4.968  1.00  0.00    -0.000 C 
BRANCH  26  27
ATOM     27  C   UNL     1      -4.246   0.137   4.589  1.00  0.00    -0.000 C 
BRANCH  27  28
ATOM     28  C   UNL     1      -2.932  -0.429   5.165  1.00  0.00    -0.000 C 
BRANCH  28  29
ATOM     29  C   UNL     1      -1.677   0.365   4.748  1.00  0.00    -0.003 C 
ATOM     30  C   UNL     1      -1.787   0.939   3.333  1.00  0.00     0.004 C 
ENDBRANCH  28  29
ENDBRANCH  27  28
ENDBRANCH  26  27
ENDBRANCH  25  26
ENDBRANCH  24  25
ENDBRANCH  23  24
ENDBRANCH  22  23
ENDBRANCH  21  22
ENDBRANCH  20  21
ENDBRANCH  19  20
ENDBRANCH  18  19
ENDBRANCH  17  18
ENDBRANCH   1  17
TORSDOF 26
ENDMDL
MODEL 7
REMARK VINA RESULT:    -4.454     11.449     15.133
REMARK INTER + INTRA:         -14.751
REMARK INTER:                 -10.395
REMARK INTRA:                  -4.355
REMARK UNBOUND:                -3.526
REMARK SMILES CCCCCCCCCCCCCCCCCCCCCCCCCCCC(=O)[O-]
REMARK SMILES IDX 15 1 16 2 17 3 18 4 19 5 20 6 21 7 22 8 23 9 24 10 25 11
REMARK SMILES IDX 26 12 27 13 28 14 29 15 30 16 14 17 13 18 12 19 11 20 10 21
REMARK SMILES IDX 9 22 8 23 7 24 6 25 5 26 4 27 3 28 2 29 1 30
REMARK H PARENT
REMARK Flexibility Score: inf
ROOT
ATOM      1  C   UNL     1      -1.245  -7.016   3.881  1.00  0.00     0.000 C 
ENDROOT
BRANCH   1   2
ATOM      2  C   UNL     1      -0.712  -8.225   4.677  1.00  0.00     0.000 C 
BRANCH   2   3
ATOM      3  C   UNL     1      -0.497  -7.906   6.165  1.00  0.00     0.000 C 
BRANCH   3   4
ATOM      4  C   UNL     1      -1.479  -6.825   6.641  1.00  0.00     0.000 C 
BRANCH   4   5
ATOM      5  C   UNL     1      -0.827  -5.783   7.568  1.00  0.00     0.000 C 
BRANCH   5   6
ATOM      6  C   UNL     1       0.605  -5.366   7.179  1.00  0.00     0.000 C 
BRANCH   6   7
ATOM      7  C   UNL     1       0.740  -3.942   6.612  1.00  0.00     0.000 C 
BRANCH   7   8
ATOM      8  C   UNL     1       0.324  -3.842   5.134  1.00  0.00     0.000 C 
BRANCH   8   9
ATOM      9  C   UNL     1      -1.147  -3.402   4.977  1.00  0.00     0.000 C 
BRANCH   9  10
ATOM     10  C   UNL     1      -1.611  -2.421   6.066  1.00  0.00     0.000 C 
BRANCH  10  11
ATOM     11  C   UNL     1      -3.019  -2.738   6.597  1.00  0.00     0.000 C 
BRANCH  11  12
ATOM     12  C   UNL     1      -3.873  -3.515   5.582  1.00  0.00     0.006 C 
BRANCH  12  13
ATOM     13  C   UNL     1      -4.958  -2.646   4.929  1.00  0.00     0.053 C 
BRANCH  13  14
ATOM     14  C   UNL     1      -6.313  -3.005   5.453  1.00  0.00     0.041 C 
ATOM     15  O   UNL     1      -7.247  -3.286   4.657  1.00  0.00    -0.550 OA
ATOM     16  O   UNL     1      -6.547  -3.029   6.823  1.00  0.00    -0.550 OA
ENDBRANCH  13  14
ENDBRANCH  12  13
ENDBRANCH  11  12
ENDBRANCH  10  11
ENDBRANCH   9  10
ENDBRANCH   8   9
ENDBRANCH   7   8
ENDBRANCH   6   7
ENDBRANCH   5   6
ENDBRANCH   4   5
ENDBRANCH   3   4
ENDBRANCH   2   3
ENDBRANCH   1   2
BRANCH   1  17
ATOM     17  C   UNL     1      -0.339  -6.589   2.715  1.00  0.00     0.000 C 
BRANCH  17  18
ATOM     18  C   UNL     1      -0.885  -5.375   1.945  1.00  0.00     0.000 C 
BRANCH  18  19
ATOM     19  C   UNL     1      -2.395  -5.480   1.683  1.00  0.00     0.000 C 
BRANCH  19  20
ATOM     20  C   UNL     1      -3.133  -4.153   1.936  1.00  0.00     0.000 C 
BRANCH  20  21
ATOM     21  C   UNL     1      -2.516  -2.980   1.159  1.00  0.00     0.000 C 
BRANCH  21  22
ATOM     22  C   UNL     1      -2.672  -3.134  -0.362  1.00  0.00    -0.000 C 
BRANCH  22  23
ATOM     23  C   UNL     1      -1.303  -3.224  -1.048  1.00  0.00    -0.000 C 
BRANCH  23  24
ATOM     24  C   UNL     1      -1.132  -4.579  -1.755  1.00  0.00    -0.000 C 
BRANCH  24  25
ATOM     25  C   UNL     1      -2.311  -4.909  -2.695  1.00  0.00    -0.000 C 
BRANCH  25  26
ATOM     26  C   UNL     1      -2.884  -6.326  -2.503  1.00  0.00    -0.000 C 
BRANCH  26  27
ATOM     27  C   UNL     1      -4.091  -6.417  -1.554  1.00  0.00    -0.000 C 
BRANCH  27  28
ATOM     28  C   UNL     1      -5.468  -6.385  -2.246  1.00  0.00    -0.000 C 
BRANCH  28  29
ATOM     29  C   UNL     1      -6.029  -4.962  -2.452  1.00  0.00    -0.003 C 
ATOM     30  C   UNL     1      -7.556  -4.942  -2.555  1.00  0.00     0.004 C 
ENDBRANCH  28  29
ENDBRANCH  27  28
ENDBRANCH  26  27
ENDBRANCH  25  26
ENDBRANCH  24  25
ENDBRANCH  23  24
ENDBRANCH  22  23
ENDBRANCH  21  22
ENDBRANCH  20  21
ENDBRANCH  19  20
ENDBRANCH  18  19
ENDBRANCH  17  18
ENDBRANCH   1  17
TORSDOF 26
ENDMDL
MODEL 8
REMARK VINA RESULT:    -4.435     10.813     12.553
REMARK INTER + INTRA:         -14.701
REMARK INTER:                  -9.869
REMARK INTRA:                  -4.832
REMARK UNBOUND:                -3.526
REMARK SMILES CCCCCCCCCCCCCCCCCCCCCCCCCCCC(=O)[O-]
REMARK SMILES IDX 15 1 16 2 17 3 18 4 19 5 20 6 21 7 22 8 23 9 24 10 25 11
REMARK SMILES IDX 26 12 27 13 28 14 29 15 30 16 14 17 13 18 12 19 11 20 10 21
REMARK SMILES IDX 9 22 8 23 7 24 6 25 5 26 4 27 3 28 2 29 1 30
REMARK H PARENT
REMARK Flexibility Score: inf
ROOT
ATOM      1  C   UNL     1      -3.015  -1.019   6.922  1.00  0.00     0.000 C 
ENDROOT
BRANCH   1   2
ATOM      2  C   UNL     1      -1.812  -1.800   6.354  1.00  0.00     0.000 C 
BRANCH   2   3
ATOM      3  C   UNL     1      -1.398  -1.315   4.956  1.00  0.00     0.000 C 
BRANCH   3   4
ATOM      4  C   UNL     1      -1.565  -2.434   3.916  1.00  0.00     0.000 C 
BRANCH   4   5
ATOM      5  C   UNL     1      -3.036  -2.706   3.552  1.00  0.00     0.000 C 
BRANCH   5   6
ATOM      6  C   UNL     1      -3.250  -3.638   2.344  1.00  0.00     0.000 C 
BRANCH   6   7
ATOM      7  C   UNL     1      -2.864  -5.110   2.576  1.00  0.00     0.000 C 
BRANCH   7   8
ATOM      8  C   UNL     1      -1.665  -5.559   1.724  1.00  0.00     0.000 C 
BRANCH   8   9
ATOM      9  C   UNL     1      -1.415  -4.608   0.533  1.00  0.00     0.000 C 
BRANCH   9  10
ATOM     10  C   UNL     1      -1.929  -5.159  -0.807  1.00  0.00     0.000 C 
BRANCH  10  11
ATOM     11  C   UNL     1      -2.976  -4.246  -1.467  1.00  0.00     0.000 C 
BRANCH  11  12
ATOM     12  C   UNL     1      -4.409  -4.782  -1.317  1.00  0.00     0.006 C 
BRANCH  12  13
ATOM     13  C   UNL     1      -4.531  -6.266  -1.692  1.00  0.00     0.053 C 
BRANCH  13  14
ATOM     14  C   UNL     1      -5.482  -6.449  -2.833  1.00  0.00     0.041 C 
ATOM     15  O   UNL     1      -5.329  -5.794  -3.897  1.00  0.00    -0.550 OA
ATOM     16  O   UNL     1      -6.540  -7.342  -2.722  1.00  0.00    -0.550 OA
ENDBRANCH  13  14
ENDBRANCH  12  13
ENDBRANCH  11  12
ENDBRANCH  10  11
ENDBRANCH   9  10
ENDBRANCH   8   9
ENDBRANCH   7   8
ENDBRANCH   6   7
ENDBRANCH   5   6
ENDBRANCH   4   5
ENDBRANCH   3   4
ENDBRANCH   2   3
ENDBRANCH   1   2
BRANCH   1  17
ATOM     17  C   UNL     1      -3.048   0.462   6.508  1.00  0.00     0.000 C 
BRANCH  17  18
ATOM     18  C   UNL     1      -4.394   0.884   5.897  1.00  0.00     0.000 C 
BRANCH  18  19
ATOM     19  C   UNL     1      -5.489  -0.173   6.105  1.00  0.00     0.000 C 
BRANCH  19  20
ATOM     20  C   UNL     1      -6.025  -0.740   4.779  1.00  0.00     0.000 C 
BRANCH  20  21
ATOM     21  C   UNL     1      -6.341  -2.242   4.868  1.00  0.00     0.000 C 
BRANCH  21  22
ATOM     22  C   UNL     1      -6.080  -2.817   6.268  1.00  0.00    -0.000 C 
BRANCH  22  23
ATOM     23  C   UNL     1      -5.064  -3.964   6.211  1.00  0.00    -0.000 C 
BRANCH  23  24
ATOM     24  C   UNL     1      -4.791  -4.527   7.615  1.00  0.00    -0.000 C 
BRANCH  24  25
ATOM     25  C   UNL     1      -3.352  -5.064   7.768  1.00  0.00    -0.000 C 
BRANCH  25  26
ATOM     26  C   UNL     1      -2.628  -5.299   6.428  1.00  0.00    -0.000 C 
BRANCH  26  27
ATOM     27  C   UNL     1      -1.152  -5.718   6.551  1.00  0.00    -0.000 C 
BRANCH  27  28
ATOM     28  C   UNL     1      -0.352  -5.682   5.234  1.00  0.00    -0.000 C 
BRANCH  28  29
ATOM     29  C   UNL     1       0.116  -7.072   4.752  1.00  0.00    -0.003 C 
ATOM     30  C   UNL     1      -1.048  -7.964   4.312  1.00  0.00     0.004 C 
ENDBRANCH  28  29
ENDBRANCH  27  28
ENDBRANCH  26  27
ENDBRANCH  25  26
ENDBRANCH  24  25
ENDBRANCH  23  24
ENDBRANCH  22  23
ENDBRANCH  21  22
ENDBRANCH  20  21
ENDBRANCH  19  20
ENDBRANCH  18  19
ENDBRANCH  17  18
ENDBRANCH   1  17
TORSDOF 26
ENDMDL
MODEL 9
REMARK VINA RESULT:    -4.431      1.951      2.454
REMARK INTER + INTRA:         -14.691
REMARK INTER:                 -10.548
REMARK INTRA:                  -4.143
REMARK UNBOUND:                -3.526
REMARK SMILES CCCCCCCCCCCCCCCCCCCCCCCCCCCC(=O)[O-]
REMARK SMILES IDX 15 1 16 2 17 3 18 4 19 5 20 6 21 7 22 8 23 9 24 10 25 11
REMARK SMILES IDX 26 12 27 13 28 14 29 15 30 16 14 17 13 18 12 19 11 20 10 21
REMARK SMILES IDX 9 22 8 23 7 24 6 25 5 26 4 27 3 28 2 29 1 30
REMARK H PARENT
REMARK Flexibility Score: inf
ROOT
ATOM      1  C   UNL     1       1.734   5.164   3.084  1.00  0.00     0.000 C 
ENDROOT
BRANCH   1   2
ATOM      2  C   UNL     1       2.810   4.393   2.291  1.00  0.00     0.000 C 
BRANCH   2   3
ATOM      3  C   UNL     1       3.082   5.009   0.910  1.00  0.00     0.000 C 
BRANCH   3   4
ATOM      4  C   UNL     1       2.393   4.197  -0.198  1.00  0.00     0.000 C 
BRANCH   4   5
ATOM      5  C   UNL     1       1.605   5.073  -1.188  1.00  0.00     0.000 C 
BRANCH   5   6
ATOM      6  C   UNL     1       2.360   5.442  -2.480  1.00  0.00     0.000 C 
BRANCH   6   7
ATOM      7  C   UNL     1       3.048   6.818  -2.466  1.00  0.00     0.000 C 
BRANCH   7   8
ATOM      8  C   UNL     1       4.489   6.764  -1.930  1.00  0.00     0.000 C 
BRANCH   8   9
ATOM      9  C   UNL     1       5.410   5.917  -2.835  1.00  0.00     0.000 C 
BRANCH   9  10
ATOM     10  C   UNL     1       6.356   4.994  -2.049  1.00  0.00     0.000 C 
BRANCH  10  11
ATOM     11  C   UNL     1       5.702   3.657  -1.663  1.00  0.00     0.000 C 
BRANCH  11  12
ATOM     12  C   UNL     1       5.094   2.923  -2.870  1.00  0.00     0.006 C 
BRANCH  12  13
ATOM     13  C   UNL     1       4.105   1.822  -2.460  1.00  0.00     0.053 C 
BRANCH  13  14
ATOM     14  C   UNL     1       2.817   1.959  -3.210  1.00  0.00     0.041 C 
ATOM     15  O   UNL     1       2.812   2.420  -4.382  1.00  0.00    -0.550 OA
ATOM     16  O   UNL     1       1.621   1.577  -2.616  1.00  0.00    -0.550 OA
ENDBRANCH  13  14
ENDBRANCH  12  13
ENDBRANCH  11  12
ENDBRANCH  10  11
ENDBRANCH   9  10
ENDBRANCH   8   9
ENDBRANCH   7   8
ENDBRANCH   6   7
ENDBRANCH   5   6
ENDBRANCH   4   5
ENDBRANCH   3   4
ENDBRANCH   2   3
ENDBRANCH   1   2
BRANCH   1  17
ATOM     17  C   UNL     1       2.163   6.580   3.502  1.00  0.00     0.000 C 
BRANCH  17  18
ATOM     18  C   UNL     1       0.970   7.502   3.808  1.00  0.00     0.000 C 
BRANCH  18  19
ATOM     19  C   UNL     1      -0.375   6.763   3.730  1.00  0.00     0.000 C 
BRANCH  19  20
ATOM     20  C   UNL     1      -1.500   7.502   4.476  1.00  0.00     0.000 C 
BRANCH  20  21
ATOM     21  C   UNL     1      -0.963   8.575   5.436  1.00  0.00     0.000 C 
BRANCH  21  22
ATOM     22  C   UNL     1      -1.001   8.123   6.904  1.00  0.00    -0.000 C 
BRANCH  22  23
ATOM     23  C   UNL     1       0.214   8.656   7.675  1.00  0.00    -0.000 C 
BRANCH  23  24
ATOM     24  C   UNL     1       1.406   7.694   7.553  1.00  0.00    -0.000 C 
BRANCH  24  25
ATOM     25  C   UNL     1       0.967   6.222   7.404  1.00  0.00    -0.000 C 
BRANCH  25  26
ATOM     26  C   UNL     1       2.053   5.303   6.811  1.00  0.00    -0.000 C 
BRANCH  26  27
ATOM     27  C   UNL     1       3.132   4.844   7.807  1.00  0.00    -0.000 C 
BRANCH  27  28
ATOM     28  C   UNL     1       4.464   4.404   7.169  1.00  0.00    -0.000 C 
BRANCH  28  29
ATOM     29  C   UNL     1       4.399   4.254   5.634  1.00  0.00    -0.003 C 
ATOM     30  C   UNL     1       4.558   2.801   5.178  1.00  0.00     0.004 C 
ENDBRANCH  28  29
ENDBRANCH  27  28
ENDBRANCH  26  27
ENDBRANCH  25  26
ENDBRANCH  24  25
ENDBRANCH  23  24
ENDBRANCH  22  23
ENDBRANCH  21  22
ENDBRANCH  20  21
ENDBRANCH  19  20
ENDBRANCH  18  19
ENDBRANCH  17  18
ENDBRANCH   1  17
TORSDOF 26
ENDMDL
