MODEL 1
REMARK VINA RESULT:    -6.373      0.000      0.000
REMARK INTER + INTRA:         -10.551
REMARK INTER:                 -10.099
REMARK INTRA:                  -0.452
REMARK UNBOUND:                -0.452
REMARK SMILES CCCCCCCCCCCC(=O)[O-]
REMARK SMILES IDX 7 1 8 2 9 3 10 4 11 5 12 6 13 7 14 8 6 9 5 10 4 11 3 12 2 13
REMARK SMILES IDX 1 14
REMARK H PARENT
REMARK Flexibility Score: inf
ROOT
ATOM      1  C   UNL     1      17.989  73.182  71.614  1.00  0.00     0.000 C 
ENDROOT
BRANCH   1   2
ATOM      2  C   UNL     1      18.967  72.212  72.298  1.00  0.00     0.000 C 
BRANCH   2   3
ATOM      3  C   UNL     1      20.207  71.906  71.437  1.00  0.00     0.000 C 
BRANCH   3   4
ATOM      4  C   UNL     1      20.455  70.410  71.153  1.00  0.00     0.006 C 
BRANCH   4   5
ATOM      5  C   UNL     1      20.782  70.085  69.688  1.00  0.00     0.053 C 
BRANCH   5   6
ATOM      6  C   UNL     1      20.410  68.680  69.328  1.00  0.00     0.041 C 
ATOM      7  O   UNL     1      20.952  68.111  68.345  1.00  0.00    -0.550 OA
ATOM      8  O   UNL     1      19.486  67.987  70.100  1.00  0.00    -0.550 OA
ENDBRANCH   5   6
ENDBRANCH   4   5
ENDBRANCH   3   4
ENDBRANCH   2   3
ENDBRANCH   1   2
BRANCH   1   9
ATOM      9  C   UNL     1      16.533  72.956  72.053  1.00  0.00     0.000 C 
BRANCH   9  10
ATOM     10  C   UNL     1      16.307  71.553  72.643  1.00  0.00    -0.000 C 
BRANCH  10  11
ATOM     11  C   UNL     1      14.908  70.992  72.328  1.00  0.00    -0.000 C 
BRANCH  11  12
ATOM     12  C   UNL     1      14.376  69.953  73.336  1.00  0.00    -0.000 C 
BRANCH  12  13
ATOM     13  C   UNL     1      13.684  70.545  74.576  1.00  0.00    -0.003 C 
ATOM     14  C   UNL     1      14.023  69.794  75.863  1.00  0.00     0.004 C 
ENDBRANCH  12  13
ENDBRANCH  11  12
ENDBRANCH  10  11
ENDBRANCH   9  10
ENDBRANCH   1   9
TORSDOF 10
ENDMDL
MODEL 2
REMARK VINA RESULT:    -6.281      2.800      3.327
REMARK INTER + INTRA:         -10.404
REMARK INTER:                  -9.906
REMARK INTRA:                  -0.498
REMARK UNBOUND:                -0.452
REMARK SMILES CCCCCCCCCCCC(=O)[O-]
REMARK SMILES IDX 7 1 8 2 9 3 10 4 11 5 12 6 13 7 14 8 6 9 5 10 4 11 3 12 2 13
REMARK SMILES IDX 1 14
REMARK H PARENT
REMARK Flexibility Score: inf
ROOT
ATOM      1  C   UNL     1      17.838  73.264  72.005  1.00  0.00     0.000 C 
ENDROOT
BRANCH   1   2
ATOM      2  C   UNL     1      18.743  72.060  71.689  1.00  0.00     0.000 C 
BRANCH   2   3
ATOM      3  C   UNL     1      20.078  72.097  72.454  1.00  0.00     0.000 C 
BRANCH   3   4
ATOM      4  C   UNL     1      20.712  70.719  72.735  1.00  0.00     0.006 C 
BRANCH   4   5
ATOM      5  C   UNL     1      20.854  70.374  74.226  1.00  0.00     0.053 C 
BRANCH   5   6
ATOM      6  C   UNL     1      22.287  70.200  74.626  1.00  0.00     0.041 C 
ATOM      7  O   UNL     1      22.580  69.866  75.804  1.00  0.00    -0.550 OA
ATOM      8  O   UNL     1      23.297  70.375  73.688  1.00  0.00    -0.550 OA
ENDBRANCH   5   6
ENDBRANCH   4   5
ENDBRANCH   3   4
ENDBRANCH   2   3
ENDBRANCH   1   2
BRANCH   1   9
ATOM      9  C   UNL     1      16.430  72.840  72.453  1.00  0.00     0.000 C 
BRANCH   9  10
ATOM     10  C   UNL     1      16.197  71.326  72.308  1.00  0.00    -0.000 C 
BRANCH  10  11
ATOM     11  C   UNL     1      14.705  70.946  72.344  1.00  0.00    -0.000 C 
BRANCH  11  12
ATOM     12  C   UNL     1      14.297  69.999  73.490  1.00  0.00    -0.000 C 
BRANCH  12  13
ATOM     13  C   UNL     1      14.695  70.473  74.898  1.00  0.00    -0.003 C 
ATOM     14  C   UNL     1      13.922  69.761  76.008  1.00  0.00     0.004 C 
ENDBRANCH  12  13
ENDBRANCH  11  12
ENDBRANCH  10  11
ENDBRANCH   9  10
ENDBRANCH   1   9
TORSDOF 10
ENDMDL
MODEL 3
REMARK VINA RESULT:    -6.231      7.258      9.790
REMARK INTER + INTRA:         -10.325
REMARK INTER:                  -9.429
REMARK INTRA:                  -0.896
REMARK UNBOUND:                -0.452
REMARK SMILES CCCCCCCCCCCC(=O)[O-]
REMARK SMILES IDX 7 1 8 2 9 3 10 4 11 5 12 6 13 7 14 8 6 9 5 10 4 11 3 12 2 13
REMARK SMILES IDX 1 14
REMARK H PARENT
REMARK Flexibility Score: inf
ROOT
ATOM      1  C   UNL     1      11.767  72.954  73.397  1.00  0.00     0.000 C 
ENDROOT
BRANCH   1   2
ATOM      2  C   UNL     1      10.725  72.082  74.119  1.00  0.00     0.000 C 
BRANCH   2   3
ATOM      3  C   UNL     1      10.905  72.076  75.648  1.00  0.00     0.000 C 
BRANCH   3   4
ATOM      4  C   UNL     1       9.656  72.483  76.457  1.00  0.00     0.006 C 
BRANCH   4   5
ATOM      5  C   UNL     1       8.466  71.520  76.321  1.00  0.00     0.053 C 
BRANCH   5   6
ATOM      6  C   UNL     1       7.161  72.249  76.242  1.00  0.00     0.041 C 
ATOM      7  O   UNL     1       6.124  71.652  75.850  1.00  0.00    -0.550 OA
ATOM      8  O   UNL     1       7.084  73.580  76.631  1.00  0.00    -0.550 OA
ENDBRANCH   5   6
ENDBRANCH   4   5
ENDBRANCH   3   4
ENDBRANCH   2   3
ENDBRANCH   1   2
BRANCH   1   9
ATOM      9  C   UNL     1      12.410  72.234  72.201  1.00  0.00     0.000 C 
BRANCH   9  10
ATOM     10  C   UNL     1      13.940  72.129  72.331  1.00  0.00    -0.000 C 
BRANCH  10  11
ATOM     11  C   UNL     1      14.439  70.673  72.338  1.00  0.00    -0.000 C 
BRANCH  11  12
ATOM     12  C   UNL     1      14.068  69.858  73.594  1.00  0.00    -0.000 C 
BRANCH  12  13
ATOM     13  C   UNL     1      14.489  70.496  74.930  1.00  0.00    -0.003 C 
ATOM     14  C   UNL     1      13.911  69.770  76.144  1.00  0.00     0.004 C 
ENDBRANCH  12  13
ENDBRANCH  11  12
ENDBRANCH  10  11
ENDBRANCH   9  10
ENDBRANCH   1   9
TORSDOF 10
ENDMDL
MODEL 4
REMARK VINA RESULT:    -6.135      2.880      3.314
REMARK INTER + INTRA:         -10.174
REMARK INTER:                  -9.703
REMARK INTRA:                  -0.471
REMARK UNBOUND:                -0.452
REMARK SMILES CCCCCCCCCCCC(=O)[O-]
REMARK SMILES IDX 7 1 8 2 9 3 10 4 11 5 12 6 13 7 14 8 6 9 5 10 4 11 3 12 2 13
REMARK SMILES IDX 1 14
REMARK H PARENT
REMARK Flexibility Score: inf
ROOT
ATOM      1  C   UNL     1      18.260  72.832  71.631  1.00  0.00     0.000 C 
ENDROOT
BRANCH   1   2
ATOM      2  C   UNL     1      18.967  71.504  71.953  1.00  0.00     0.000 C 
BRANCH   2   3
ATOM      3  C   UNL     1      20.398  71.700  72.483  1.00  0.00     0.000 C 
BRANCH   3   4
ATOM      4  C   UNL     1      21.504  71.685  71.408  1.00  0.00     0.006 C 
BRANCH   4   5
ATOM      5  C   UNL     1      22.782  72.445  71.796  1.00  0.00     0.053 C 
BRANCH   5   6
ATOM      6  C   UNL     1      23.226  72.118  73.188  1.00  0.00     0.041 C 
ATOM      7  O   UNL     1      23.184  72.995  74.090  1.00  0.00    -0.550 OA
ATOM      8  O   UNL     1      23.657  70.834  73.497  1.00  0.00    -0.550 OA
ENDBRANCH   5   6
ENDBRANCH   4   5
ENDBRANCH   3   4
ENDBRANCH   2   3
ENDBRANCH   1   2
BRANCH   1   9
ATOM      9  C   UNL     1      16.766  72.807  71.991  1.00  0.00     0.000 C 
BRANCH   9  10
ATOM     10  C   UNL     1      16.399  71.619  72.898  1.00  0.00    -0.000 C 
BRANCH  10  11
ATOM     11  C   UNL     1      15.199  70.813  72.369  1.00  0.00    -0.000 C 
BRANCH  11  12
ATOM     12  C   UNL     1      14.317  70.160  73.453  1.00  0.00    -0.000 C 
BRANCH  12  13
ATOM     13  C   UNL     1      14.665  70.556  74.898  1.00  0.00    -0.003 C 
ATOM     14  C   UNL     1      13.903  69.737  75.939  1.00  0.00     0.004 C 
ENDBRANCH  12  13
ENDBRANCH  11  12
ENDBRANCH  10  11
ENDBRANCH   9  10
ENDBRANCH   1   9
TORSDOF 10
ENDMDL
MODEL 5
REMARK VINA RESULT:    -6.103      7.701     11.334
REMARK INTER + INTRA:         -10.122
REMARK INTER:                  -9.487
REMARK INTRA:                  -0.635
REMARK UNBOUND:                -0.452
REMARK SMILES CCCCCCCCCCCC(=O)[O-]
REMARK SMILES IDX 7 1 8 2 9 3 10 4 11 5 12 6 13 7 14 8 6 9 5 10 4 11 3 12 2 13
REMARK SMILES IDX 1 14
REMARK H PARENT
REMARK Flexibility Score: inf
ROOT
ATOM      1  C   UNL     1      10.709  72.240  75.915  1.00  0.00     0.000 C 
ENDROOT
BRANCH   1   2
ATOM      2  C   UNL     1       9.384  72.058  76.675  1.00  0.00     0.000 C 
BRANCH   2   3
ATOM      3  C   UNL     1       9.127  73.171  77.706  1.00  0.00     0.000 C 
BRANCH   3   4
ATOM      4  C   UNL     1       7.650  73.362  78.111  1.00  0.00     0.006 C 
BRANCH   4   5
ATOM      5  C   UNL     1       6.718  73.759  76.955  1.00  0.00     0.053 C 
BRANCH   5   6
ATOM      6  C   UNL     1       5.642  72.742  76.728  1.00  0.00     0.041 C 
ATOM      7  O   UNL     1       4.457  72.986  77.075  1.00  0.00    -0.550 OA
ATOM      8  O   UNL     1       5.944  71.539  76.105  1.00  0.00    -0.550 OA
ENDBRANCH   5   6
ENDBRANCH   4   5
ENDBRANCH   3   4
ENDBRANCH   2   3
ENDBRANCH   1   2
BRANCH   1   9
ATOM      9  C   UNL     1      10.542  72.086  74.395  1.00  0.00     0.000 C 
BRANCH   9  10
ATOM     10  C   UNL     1      11.799  72.517  73.618  1.00  0.00    -0.000 C 
BRANCH  10  11
ATOM     11  C   UNL     1      12.560  71.326  73.009  1.00  0.00    -0.000 C 
BRANCH  11  12
ATOM     12  C   UNL     1      13.950  71.052  73.621  1.00  0.00    -0.000 C 
BRANCH  12  13
ATOM     13  C   UNL     1      14.056  69.752  74.435  1.00  0.00    -0.003 C 
ATOM     14  C   UNL     1      13.959  69.983  75.943  1.00  0.00     0.004 C 
ENDBRANCH  12  13
ENDBRANCH  11  12
ENDBRANCH  10  11
ENDBRANCH   9  10
ENDBRANCH   1   9
TORSDOF 10
ENDMDL
MODEL 6
REMARK VINA RESULT:    -6.011      2.717      3.085
REMARK INTER + INTRA:          -9.977
REMARK INTER:                  -9.434
REMARK INTRA:                  -0.544
REMARK UNBOUND:                -0.452
REMARK SMILES CCCCCCCCCCCC(=O)[O-]
REMARK SMILES IDX 7 1 8 2 9 3 10 4 11 5 12 6 13 7 14 8 6 9 5 10 4 11 3 12 2 13
REMARK SMILES IDX 1 14
REMARK H PARENT
REMARK Flexibility Score: inf
ROOT
ATOM      1  C   UNL     1      18.446  71.502  73.644  1.00  0.00     0.000 C 
ENDROOT
BRANCH   1   2
ATOM      2  C   UNL     1      19.323  72.115  72.539  1.00  0.00     0.000 C 
BRANCH   2   3
ATOM      3  C   UNL     1      19.902  71.059  71.580  1.00  0.00     0.000 C 
BRANCH   3   4
ATOM      4  C   UNL     1      21.422  71.158  71.335  1.00  0.00     0.006 C 
BRANCH   4   5
ATOM      5  C   UNL     1      21.812  71.830  70.010  1.00  0.00     0.053 C 
BRANCH   5   6
ATOM      6  C   UNL     1      22.776  72.957  70.216  1.00  0.00     0.041 C 
ATOM      7  O   UNL     1      22.739  73.638  71.274  1.00  0.00    -0.550 OA
ATOM      8  O   UNL     1      23.737  73.235  69.252  1.00  0.00    -0.550 OA
ENDBRANCH   5   6
ENDBRANCH   4   5
ENDBRANCH   3   4
ENDBRANCH   2   3
ENDBRANCH   1   2
BRANCH   1   9
ATOM      9  C   UNL     1      17.027  72.092  73.664  1.00  0.00     0.000 C 
BRANCH   9  10
ATOM     10  C   UNL     1      16.277  71.867  72.340  1.00  0.00    -0.000 C 
BRANCH  10  11
ATOM     11  C   UNL     1      15.174  70.799  72.453  1.00  0.00    -0.000 C 
BRANCH  11  12
ATOM     12  C   UNL     1      14.219  70.966  73.652  1.00  0.00    -0.000 C 
BRANCH  12  13
ATOM     13  C   UNL     1      14.060  69.716  74.534  1.00  0.00    -0.003 C 
ATOM     14  C   UNL     1      14.080  70.035  76.029  1.00  0.00     0.004 C 
ENDBRANCH  12  13
ENDBRANCH  11  12
ENDBRANCH  10  11
ENDBRANCH   9  10
ENDBRANCH   1   9
TORSDOF 10
ENDMDL
MODEL 7
REMARK VINA RESULT:    -5.896      3.063      4.023
REMARK INTER + INTRA:          -9.795
REMARK INTER:                  -9.120
REMARK INTRA:                  -0.675
REMARK UNBOUND:                -0.452
REMARK SMILES CCCCCCCCCCCC(=O)[O-]
REMARK SMILES IDX 7 1 8 2 9 3 10 4 11 5 12 6 13 7 14 8 6 9 5 10 4 11 3 12 2 13
REMARK SMILES IDX 1 14
REMARK H PARENT
REMARK Flexibility Score: inf
ROOT
ATOM      1  C   UNL     1      19.995  70.884  71.160  1.00  0.00     0.000 C 
ENDROOT
BRANCH   1   2
ATOM      2  C   UNL     1      21.411  71.288  70.715  1.00  0.00     0.000 C 
BRANCH   2   3
ATOM      3  C   UNL     1      21.833  72.671  71.244  1.00  0.00     0.000 C 
BRANCH   3   4
ATOM      4  C   UNL     1      22.984  72.656  72.272  1.00  0.00     0.006 C 
BRANCH   4   5
ATOM      5  C   UNL     1      22.534  72.455  73.728  1.00  0.00     0.053 C 
BRANCH   5   6
ATOM      6  C   UNL     1      23.029  71.159  74.293  1.00  0.00     0.041 C 
ATOM      7  O   UNL     1      22.711  70.068  73.751  1.00  0.00    -0.550 OA
ATOM      8  O   UNL     1      23.868  71.159  75.400  1.00  0.00    -0.550 OA
ENDBRANCH   5   6
ENDBRANCH   4   5
ENDBRANCH   3   4
ENDBRANCH   2   3
ENDBRANCH   1   2
BRANCH   1   9
ATOM      9  C   UNL     1      19.200  72.066  71.740  1.00  0.00     0.000 C 
BRANCH   9  10
ATOM     10  C   UNL     1      17.870  71.625  72.375  1.00  0.00    -0.000 C 
BRANCH  10  11
ATOM     11  C   UNL     1      16.720  72.610  72.094  1.00  0.00    -0.000 C 
BRANCH  11  12
ATOM     12  C   UNL     1      15.309  72.083  72.426  1.00  0.00    -0.000 C 
BRANCH  12  13
ATOM     13  C   UNL     1      15.160  70.553  72.383  1.00  0.00    -0.003 C 
ATOM     14  C   UNL     1      14.190  70.019  73.437  1.00  0.00     0.004 C 
ENDBRANCH  12  13
ENDBRANCH  11  12
ENDBRANCH  10  11
ENDBRANCH   9  10
ENDBRANCH   1   9
TORSDOF 10
ENDMDL
MODEL 8
REMARK VINA RESULT:    -5.878      3.853      4.511
REMARK INTER + INTRA:          -9.766
REMARK INTER:                  -9.164
REMARK INTRA:                  -0.602
REMARK UNBOUND:                -0.452
REMARK SMILES CCCCCCCCCCCC(=O)[O-]
REMARK SMILES IDX 7 1 8 2 9 3 10 4 11 5 12 6 13 7 14 8 6 9 5 10 4 11 3 12 2 13
REMARK SMILES IDX 1 14
REMARK H PARENT
REMARK Flexibility Score: inf
ROOT
ATOM      1  C   UNL     1      18.122  71.905  72.034  1.00  0.00     0.000 C 
ENDROOT
BRANCH   1   2
ATOM      2  C   UNL     1      19.491  72.227  72.656  1.00  0.00     0.000 C 
BRANCH   2   3
ATOM      3  C   UNL     1      20.068  71.056  73.472  1.00  0.00     0.000 C 
BRANCH   3   4
ATOM      4  C   UNL     1      19.717  71.068  74.975  1.00  0.00     0.006 C 
BRANCH   4   5
ATOM      5  C   UNL     1      20.512  70.064  75.823  1.00  0.00     0.053 C 
BRANCH   5   6
ATOM      6  C   UNL     1      19.943  69.920  77.201  1.00  0.00     0.041 C 
ATOM      7  O   UNL     1      20.377  69.028  77.976  1.00  0.00    -0.550 OA
ATOM      8  O   UNL     1      18.955  70.791  77.639  1.00  0.00    -0.550 OA
ENDBRANCH   5   6
ENDBRANCH   4   5
ENDBRANCH   3   4
ENDBRANCH   2   3
ENDBRANCH   1   2
BRANCH   1   9
ATOM      9  C   UNL     1      17.015  72.851  72.524  1.00  0.00     0.000 C 
BRANCH   9  10
ATOM     10  C   UNL     1      15.846  72.098  73.183  1.00  0.00    -0.000 C 
BRANCH  10  11
ATOM     11  C   UNL     1      15.407  70.859  72.380  1.00  0.00    -0.000 C 
BRANCH  11  12
ATOM     12  C   UNL     1      14.313  70.000  73.046  1.00  0.00    -0.000 C 
BRANCH  12  13
ATOM     13  C   UNL     1      13.715  70.592  74.333  1.00  0.00    -0.003 C 
ATOM     14  C   UNL     1      14.064  69.781  75.580  1.00  0.00     0.004 C 
ENDBRANCH  12  13
ENDBRANCH  11  12
ENDBRANCH  10  11
ENDBRANCH   9  10
ENDBRANCH   1   9
TORSDOF 10
ENDMDL
MODEL 9
REMARK VINA RESULT:    -5.851      3.546      6.809
REMARK INTER + INTRA:          -9.723
REMARK INTER:                  -9.221
REMARK INTRA:                  -0.502
REMARK UNBOUND:                -0.452
REMARK SMILES CCCCCCCCCCCC(=O)[O-]
REMARK SMILES IDX 7 1 8 2 9 3 10 4 11 5 12 6 13 7 14 8 6 9 5 10 4 11 3 12 2 13
REMARK SMILES IDX 1 14
REMARK H PARENT
REMARK Flexibility Score: inf
ROOT
ATOM      1  C   UNL     1      17.022  72.994  71.808  1.00  0.00     0.000 C 
ENDROOT
BRANCH   1   2
ATOM      2  C   UNL     1      15.718  72.403  72.368  1.00  0.00     0.000 C 
BRANCH   2   3
ATOM      3  C   UNL     1      15.734  70.865  72.427  1.00  0.00     0.000 C 
BRANCH   3   4
ATOM      4  C   UNL     1      14.347  70.198  72.549  1.00  0.00     0.006 C 
BRANCH   4   5
ATOM      5  C   UNL     1      13.238  71.126  73.071  1.00  0.00     0.053 C 
BRANCH   5   6
ATOM      6  C   UNL     1      12.027  71.100  72.191  1.00  0.00     0.041 C 
ATOM      7  O   UNL     1      11.977  70.321  71.203  1.00  0.00    -0.550 OA
ATOM      8  O   UNL     1      10.940  71.915  72.481  1.00  0.00    -0.550 OA
ENDBRANCH   5   6
ENDBRANCH   4   5
ENDBRANCH   3   4
ENDBRANCH   2   3
ENDBRANCH   1   2
BRANCH   1   9
ATOM      9  C   UNL     1      18.266  72.499  72.564  1.00  0.00     0.000 C 
BRANCH   9  10
ATOM     10  C   UNL     1      19.249  71.746  71.652  1.00  0.00    -0.000 C 
BRANCH  10  11
ATOM     11  C   UNL     1      20.165  70.782  72.428  1.00  0.00    -0.000 C 
BRANCH  11  12
ATOM     12  C   UNL     1      20.831  69.681  71.577  1.00  0.00    -0.000 C 
BRANCH  12  13
ATOM     13  C   UNL     1      20.621  69.817  70.059  1.00  0.00    -0.003 C 
ATOM     14  C   UNL     1      20.082  68.540  69.416  1.00  0.00     0.004 C 
ENDBRANCH  12  13
ENDBRANCH  11  12
ENDBRANCH  10  11
ENDBRANCH   9  10
ENDBRANCH   1   9
TORSDOF 10
ENDMDL
