MODEL 1
REMARK VINA RESULT:    -4.309      0.000      0.000
REMARK INTER + INTRA:          -8.345
REMARK INTER:                  -7.332
REMARK INTRA:                  -1.013
REMARK UNBOUND:                -1.013
REMARK SMILES CCCCCCCCCCCCCC(=O)[O-]
REMARK SMILES IDX 8 1 9 2 10 3 11 4 12 5 13 6 14 7 15 8 16 9 7 10 6 11 5 12
REMARK SMILES IDX 4 13 3 14 2 15 1 16
REMARK H PARENT
REMARK Flexibility Score: inf
ROOT
ATOM      1  C   UNL     1      23.121   6.051  18.579  1.00  0.00     0.000 C 
ENDROOT
BRANCH   1   2
ATOM      2  C   UNL     1      23.008   5.820  17.067  1.00  0.00     0.000 C 
BRANCH   2   3
ATOM      3  C   UNL     1      23.265   7.121  16.291  1.00  0.00     0.000 C 
BRANCH   3   4
ATOM      4  C   UNL     1      24.657   7.155  15.641  1.00  0.00     0.000 C 
BRANCH   4   5
ATOM      5  C   UNL     1      25.320   5.767  15.588  1.00  0.00     0.006 C 
BRANCH   5   6
ATOM      6  C   UNL     1      26.790   5.845  15.155  1.00  0.00     0.053 C 
BRANCH   6   7
ATOM      7  C   UNL     1      26.922   6.068  13.679  1.00  0.00     0.041 C 
ATOM      8  O   UNL     1      26.742   5.115  12.875  1.00  0.00    -0.550 OA
ATOM      9  O   UNL     1      27.210   7.335  13.191  1.00  0.00    -0.550 OA
ENDBRANCH   6   7
ENDBRANCH   5   6
ENDBRANCH   4   5
ENDBRANCH   3   4
ENDBRANCH   2   3
ENDBRANCH   1   2
BRANCH   1  10
ATOM     10  C   UNL     1      22.983   4.731  19.351  1.00  0.00     0.000 C 
BRANCH  10  11
ATOM     11  C   UNL     1      22.658   3.532  18.440  1.00  0.00    -0.000 C 
BRANCH  11  12
ATOM     12  C   UNL     1      23.434   2.242  18.761  1.00  0.00    -0.000 C 
BRANCH  12  13
ATOM     13  C   UNL     1      24.420   2.407  19.927  1.00  0.00    -0.000 C 
BRANCH  13  14
ATOM     14  C   UNL     1      24.454   1.145  20.800  1.00  0.00    -0.000 C 
BRANCH  14  15
ATOM     15  C   UNL     1      23.471   1.214  21.978  1.00  0.00    -0.003 C 
ATOM     16  C   UNL     1      23.296   2.633  22.521  1.00  0.00     0.004 C 
ENDBRANCH  14  15
ENDBRANCH  13  14
ENDBRANCH  12  13
ENDBRANCH  11  12
ENDBRANCH  10  11
ENDBRANCH   1  10
TORSDOF 12
ENDMDL
MODEL 2
REMARK VINA RESULT:    -4.218      4.044      7.081
REMARK INTER + INTRA:          -8.190
REMARK INTER:                  -6.757
REMARK INTRA:                  -1.433
REMARK UNBOUND:                -1.013
REMARK SMILES CCCCCCCCCCCCCC(=O)[O-]
REMARK SMILES IDX 8 1 9 2 10 3 11 4 12 5 13 6 14 7 15 8 16 9 7 10 6 11 5 12
REMARK SMILES IDX 4 13 3 14 2 15 1 16
REMARK H PARENT
REMARK Flexibility Score: inf
ROOT
ATOM      1  C   UNL     1      22.061   6.130  13.975  1.00  0.00     0.000 C 
ENDROOT
BRANCH   1   2
ATOM      2  C   UNL     1      21.863   6.841  15.320  1.00  0.00     0.000 C 
BRANCH   2   3
ATOM      3  C   UNL     1      23.047   6.577  16.262  1.00  0.00     0.000 C 
BRANCH   3   4
ATOM      4  C   UNL     1      24.380   7.082  15.691  1.00  0.00     0.000 C 
BRANCH   4   5
ATOM      5  C   UNL     1      25.353   5.937  15.356  1.00  0.00     0.006 C 
BRANCH   5   6
ATOM      6  C   UNL     1      26.758   6.452  15.017  1.00  0.00     0.053 C 
BRANCH   6   7
ATOM      7  C   UNL     1      27.096   6.235  13.574  1.00  0.00     0.041 C 
ATOM      8  O   UNL     1      27.552   7.181  12.880  1.00  0.00    -0.550 OA
ATOM      9  O   UNL     1      26.939   4.977  13.005  1.00  0.00    -0.550 OA
ENDBRANCH   6   7
ENDBRANCH   5   6
ENDBRANCH   4   5
ENDBRANCH   3   4
ENDBRANCH   2   3
ENDBRANCH   1   2
BRANCH   1  10
ATOM     10  C   UNL     1      21.422   6.928  12.829  1.00  0.00     0.000 C 
BRANCH  10  11
ATOM     11  C   UNL     1      22.432   7.326  11.737  1.00  0.00    -0.000 C 
BRANCH  11  12
ATOM     12  C   UNL     1      23.883   6.882  11.997  1.00  0.00    -0.000 C 
BRANCH  12  13
ATOM     13  C   UNL     1      24.588   6.363  10.735  1.00  0.00    -0.000 C 
BRANCH  13  14
ATOM     14  C   UNL     1      24.157   4.924  10.418  1.00  0.00    -0.000 C 
BRANCH  14  15
ATOM     15  C   UNL     1      23.467   4.801   9.051  1.00  0.00    -0.003 C 
ATOM     16  C   UNL     1      21.959   4.579   9.166  1.00  0.00     0.004 C 
ENDBRANCH  14  15
ENDBRANCH  13  14
ENDBRANCH  12  13
ENDBRANCH  11  12
ENDBRANCH  10  11
ENDBRANCH   1  10
TORSDOF 12
ENDMDL
MODEL 3
REMARK VINA RESULT:    -4.147      7.000      9.697
REMARK INTER + INTRA:          -8.069
REMARK INTER:                  -6.139
REMARK INTRA:                  -1.931
REMARK UNBOUND:                -1.013
REMARK SMILES CCCCCCCCCCCCCC(=O)[O-]
REMARK SMILES IDX 8 1 9 2 10 3 11 4 12 5 13 6 14 7 15 8 16 9 7 10 6 11 5 12
REMARK SMILES IDX 4 13 3 14 2 15 1 16
REMARK H PARENT
REMARK Flexibility Score: inf
ROOT
ATOM      1  C   UNL     1      22.019   3.667   9.690  1.00  0.00     0.000 C 
ENDROOT
BRANCH   1   2
ATOM      2  C   UNL     1      21.332   4.168   8.414  1.00  0.00     0.000 C 
BRANCH   2   3
ATOM      3  C   UNL     1      19.914   4.676   8.716  1.00  0.00     0.000 C 
BRANCH   3   4
ATOM      4  C   UNL     1      19.605   4.702  10.221  1.00  0.00     0.000 C 
BRANCH   4   5
ATOM      5  C   UNL     1      19.329   6.123  10.744  1.00  0.00     0.006 C 
BRANCH   5   6
ATOM      6  C   UNL     1      19.370   7.170   9.623  1.00  0.00     0.053 C 
BRANCH   6   7
ATOM      7  C   UNL     1      18.317   8.221   9.806  1.00  0.00     0.041 C 
ATOM      8  O   UNL     1      18.270   8.892  10.871  1.00  0.00    -0.550 OA
ATOM      9  O   UNL     1      17.411   8.482   8.787  1.00  0.00    -0.550 OA
ENDBRANCH   6   7
ENDBRANCH   5   6
ENDBRANCH   4   5
ENDBRANCH   3   4
ENDBRANCH   2   3
ENDBRANCH   1   2
BRANCH   1  10
ATOM     10  C   UNL     1      23.496   4.088   9.722  1.00  0.00     0.000 C 
BRANCH  10  11
ATOM     11  C   UNL     1      23.824   5.210   8.720  1.00  0.00    -0.000 C 
BRANCH  11  12
ATOM     12  C   UNL     1      24.222   6.555   9.356  1.00  0.00    -0.000 C 
BRANCH  12  13
ATOM     13  C   UNL     1      23.090   7.190  10.177  1.00  0.00    -0.000 C 
BRANCH  13  14
ATOM     14  C   UNL     1      23.407   7.143  11.678  1.00  0.00    -0.000 C 
BRANCH  14  15
ATOM     15  C   UNL     1      22.232   6.613  12.514  1.00  0.00    -0.003 C 
ATOM     16  C   UNL     1      22.523   5.253  13.150  1.00  0.00     0.004 C 
ENDBRANCH  14  15
ENDBRANCH  13  14
ENDBRANCH  12  13
ENDBRANCH  11  12
ENDBRANCH  10  11
ENDBRANCH   1  10
TORSDOF 12
ENDMDL
MODEL 4
REMARK VINA RESULT:    -4.115      7.588     10.482
REMARK INTER + INTRA:          -8.014
REMARK INTER:                  -6.646
REMARK INTRA:                  -1.368
REMARK UNBOUND:                -1.013
REMARK SMILES CCCCCCCCCCCCCC(=O)[O-]
REMARK SMILES IDX 8 1 9 2 10 3 11 4 12 5 13 6 14 7 15 8 16 9 7 10 6 11 5 12
REMARK SMILES IDX 4 13 3 14 2 15 1 16
REMARK H PARENT
REMARK Flexibility Score: inf
ROOT
ATOM      1  C   UNL     1      21.683   4.105   8.590  1.00  0.00     0.000 C 
ENDROOT
BRANCH   1   2
ATOM      2  C   UNL     1      23.107   4.643   8.778  1.00  0.00     0.000 C 
BRANCH   2   3
ATOM      3  C   UNL     1      23.254   5.349  10.134  1.00  0.00     0.000 C 
BRANCH   3   4
ATOM      4  C   UNL     1      23.254   6.880  10.006  1.00  0.00     0.000 C 
BRANCH   4   5
ATOM      5  C   UNL     1      22.815   7.583  11.303  1.00  0.00     0.006 C 
BRANCH   5   6
ATOM      6  C   UNL     1      21.960   6.672  12.193  1.00  0.00     0.053 C 
BRANCH   6   7
ATOM      7  C   UNL     1      20.768   7.395  12.744  1.00  0.00     0.041 C 
ATOM      8  O   UNL     1      20.111   8.183  12.013  1.00  0.00    -0.550 OA
ATOM      9  O   UNL     1      20.362   7.170  14.053  1.00  0.00    -0.550 OA
ENDBRANCH   6   7
ENDBRANCH   5   6
ENDBRANCH   4   5
ENDBRANCH   3   4
ENDBRANCH   2   3
ENDBRANCH   1   2
BRANCH   1  10
ATOM     10  C   UNL     1      20.997   3.876   9.945  1.00  0.00     0.000 C 
BRANCH  10  11
ATOM     11  C   UNL     1      19.589   4.495  10.020  1.00  0.00    -0.000 C 
BRANCH  11  12
ATOM     12  C   UNL     1      19.401   5.787   9.204  1.00  0.00    -0.000 C 
BRANCH  12  13
ATOM     13  C   UNL     1      18.273   5.683   8.166  1.00  0.00    -0.000 C 
BRANCH  13  14
ATOM     14  C   UNL     1      18.081   7.015   7.429  1.00  0.00    -0.000 C 
BRANCH  14  15
ATOM     15  C   UNL     1      16.615   7.474   7.411  1.00  0.00    -0.003 C 
ATOM     16  C   UNL     1      16.175   8.102   8.733  1.00  0.00     0.004 C 
ENDBRANCH  14  15
ENDBRANCH  13  14
ENDBRANCH  12  13
ENDBRANCH  11  12
ENDBRANCH  10  11
ENDBRANCH   1  10
TORSDOF 12
ENDMDL
MODEL 5
REMARK VINA RESULT:    -4.106     12.038     14.731
REMARK INTER + INTRA:          -8.000
REMARK INTER:                  -5.821
REMARK INTRA:                  -2.179
REMARK UNBOUND:                -1.013
REMARK SMILES CCCCCCCCCCCCCC(=O)[O-]
REMARK SMILES IDX 8 1 9 2 10 3 11 4 12 5 13 6 14 7 15 8 16 9 7 10 6 11 5 12
REMARK SMILES IDX 4 13 3 14 2 15 1 16
REMARK H PARENT
REMARK Flexibility Score: inf
ROOT
ATOM      1  C   UNL     1      27.971  -3.387   8.513  1.00  0.00     0.000 C 
ENDROOT
BRANCH   1   2
ATOM      2  C   UNL     1      29.335  -4.052   8.290  1.00  0.00     0.000 C 
BRANCH   2   3
ATOM      3  C   UNL     1      29.555  -4.372   6.804  1.00  0.00     0.000 C 
BRANCH   3   4
ATOM      4  C   UNL     1      28.607  -3.588   5.884  1.00  0.00     0.000 C 
BRANCH   4   5
ATOM      5  C   UNL     1      29.289  -3.131   4.583  1.00  0.00     0.006 C 
BRANCH   5   6
ATOM      6  C   UNL     1      30.596  -3.887   4.318  1.00  0.00     0.053 C 
BRANCH   6   7
ATOM      7  C   UNL     1      31.683  -2.970   3.845  1.00  0.00     0.041 C 
ATOM      8  O   UNL     1      32.889  -3.241   4.082  1.00  0.00    -0.550 OA
ATOM      9  O   UNL     1      31.363  -1.835   3.112  1.00  0.00    -0.550 OA
ENDBRANCH   6   7
ENDBRANCH   5   6
ENDBRANCH   4   5
ENDBRANCH   3   4
ENDBRANCH   2   3
ENDBRANCH   1   2
BRANCH   1  10
ATOM     10  C   UNL     1      28.083  -2.218   9.502  1.00  0.00     0.000 C 
BRANCH  10  11
ATOM     11  C   UNL     1      27.916  -0.842   8.830  1.00  0.00    -0.000 C 
BRANCH  11  12
ATOM     12  C   UNL     1      29.225  -0.188   8.350  1.00  0.00    -0.000 C 
BRANCH  12  13
ATOM     13  C   UNL     1      29.324  -0.093   6.820  1.00  0.00    -0.000 C 
BRANCH  13  14
ATOM     14  C   UNL     1      30.763  -0.337   6.347  1.00  0.00    -0.000 C 
BRANCH  14  15
ATOM     15  C   UNL     1      31.722  -0.645   7.507  1.00  0.00    -0.003 C 
ATOM     16  C   UNL     1      32.331  -2.044   7.416  1.00  0.00     0.004 C 
ENDBRANCH  14  15
ENDBRANCH  13  14
ENDBRANCH  12  13
ENDBRANCH  11  12
ENDBRANCH  10  11
ENDBRANCH   1  10
TORSDOF 12
ENDMDL
MODEL 6
REMARK VINA RESULT:    -4.068      1.460      2.240
REMARK INTER + INTRA:          -7.935
REMARK INTER:                  -6.497
REMARK INTRA:                  -1.438
REMARK UNBOUND:                -1.013
REMARK SMILES CCCCCCCCCCCCCC(=O)[O-]
REMARK SMILES IDX 8 1 9 2 10 3 11 4 12 5 13 6 14 7 15 8 16 9 7 10 6 11 5 12
REMARK SMILES IDX 4 13 3 14 2 15 1 16
REMARK H PARENT
REMARK Flexibility Score: inf
ROOT
ATOM      1  C   UNL     1      23.315   5.065  18.598  1.00  0.00     0.000 C 
ENDROOT
BRANCH   1   2
ATOM      2  C   UNL     1      23.043   5.223  17.097  1.00  0.00     0.000 C 
BRANCH   2   3
ATOM      3  C   UNL     1      23.036   6.705  16.692  1.00  0.00     0.000 C 
BRANCH   3   4
ATOM      4  C   UNL     1      24.368   7.153  16.069  1.00  0.00     0.000 C 
BRANCH   4   5
ATOM      5  C   UNL     1      24.904   6.149  15.034  1.00  0.00     0.006 C 
BRANCH   5   6
ATOM      6  C   UNL     1      26.327   5.682  15.365  1.00  0.00     0.053 C 
BRANCH   6   7
ATOM      7  C   UNL     1      27.341   6.295  14.448  1.00  0.00     0.041 C 
ATOM      8  O   UNL     1      27.245   6.139  13.202  1.00  0.00    -0.550 OA
ATOM      9  O   UNL     1      28.370   7.070  14.967  1.00  0.00    -0.550 OA
ENDBRANCH   6   7
ENDBRANCH   5   6
ENDBRANCH   4   5
ENDBRANCH   3   4
ENDBRANCH   2   3
ENDBRANCH   1   2
BRANCH   1  10
ATOM     10  C   UNL     1      22.623   3.813  19.155  1.00  0.00     0.000 C 
BRANCH  10  11
ATOM     11  C   UNL     1      23.364   3.199  20.357  1.00  0.00    -0.000 C 
BRANCH  11  12
ATOM     12  C   UNL     1      23.691   1.700  20.225  1.00  0.00    -0.000 C 
BRANCH  12  13
ATOM     13  C   UNL     1      25.138   1.439  19.779  1.00  0.00    -0.000 C 
BRANCH  13  14
ATOM     14  C   UNL     1      25.228   1.317  18.252  1.00  0.00    -0.000 C 
BRANCH  14  15
ATOM     15  C   UNL     1      25.853   2.558  17.596  1.00  0.00    -0.003 C 
ATOM     16  C   UNL     1      26.662   3.404  18.580  1.00  0.00     0.004 C 
ENDBRANCH  14  15
ENDBRANCH  13  14
ENDBRANCH  12  13
ENDBRANCH  11  12
ENDBRANCH  10  11
ENDBRANCH   1  10
TORSDOF 12
ENDMDL
MODEL 7
REMARK VINA RESULT:    -4.050      2.395      4.823
REMARK INTER + INTRA:          -7.904
REMARK INTER:                  -6.786
REMARK INTRA:                  -1.118
REMARK UNBOUND:                -1.013
REMARK SMILES CCCCCCCCCCCCCC(=O)[O-]
REMARK SMILES IDX 8 1 9 2 10 3 11 4 12 5 13 6 14 7 15 8 16 9 7 10 6 11 5 12
REMARK SMILES IDX 4 13 3 14 2 15 1 16
REMARK H PARENT
REMARK Flexibility Score: inf
ROOT
ATOM      1  C   UNL     1      28.954   3.491  18.236  1.00  0.00     0.000 C 
ENDROOT
BRANCH   1   2
ATOM      2  C   UNL     1      29.034   3.168  16.739  1.00  0.00     0.000 C 
BRANCH   2   3
ATOM      3  C   UNL     1      29.572   4.368  15.945  1.00  0.00     0.000 C 
BRANCH   3   4
ATOM      4  C   UNL     1      29.027   5.709  16.460  1.00  0.00     0.000 C 
BRANCH   4   5
ATOM      5  C   UNL     1      28.508   6.611  15.326  1.00  0.00     0.006 C 
BRANCH   5   6
ATOM      6  C   UNL     1      27.575   5.859  14.370  1.00  0.00     0.053 C 
BRANCH   6   7
ATOM      7  C   UNL     1      27.065   6.749  13.277  1.00  0.00     0.041 C 
ATOM      8  O   UNL     1      25.830   6.828  13.047  1.00  0.00    -0.550 OA
ATOM      9  O   UNL     1      27.953   7.518  12.536  1.00  0.00    -0.550 OA
ENDBRANCH   6   7
ENDBRANCH   5   6
ENDBRANCH   4   5
ENDBRANCH   3   4
ENDBRANCH   2   3
ENDBRANCH   1   2
BRANCH   1  10
ATOM     10  C   UNL     1      27.616   3.028  18.829  1.00  0.00     0.000 C 
BRANCH  10  11
ATOM     11  C   UNL     1      26.474   3.006  17.796  1.00  0.00    -0.000 C 
BRANCH  11  12
ATOM     12  C   UNL     1      25.163   3.667  18.259  1.00  0.00    -0.000 C 
BRANCH  12  13
ATOM     13  C   UNL     1      24.571   4.625  17.214  1.00  0.00    -0.000 C 
BRANCH  13  14
ATOM     14  C   UNL     1      23.280   5.273  17.732  1.00  0.00    -0.000 C 
BRANCH  14  15
ATOM     15  C   UNL     1      22.884   6.523  16.931  1.00  0.00    -0.003 C 
ATOM     16  C   UNL     1      24.027   7.063  16.072  1.00  0.00     0.004 C 
ENDBRANCH  14  15
ENDBRANCH  13  14
ENDBRANCH  12  13
ENDBRANCH  11  12
ENDBRANCH  10  11
ENDBRANCH   1  10
TORSDOF 12
ENDMDL
MODEL 8
REMARK VINA RESULT:    -4.018      5.518      8.794
REMARK INTER + INTRA:          -7.849
REMARK INTER:                  -6.216
REMARK INTRA:                  -1.633
REMARK UNBOUND:                -1.013
REMARK SMILES CCCCCCCCCCCCCC(=O)[O-]
REMARK SMILES IDX 8 1 9 2 10 3 11 4 12 5 13 6 14 7 15 8 16 9 7 10 6 11 5 12
REMARK SMILES IDX 4 13 3 14 2 15 1 16
REMARK H PARENT
REMARK Flexibility Score: inf
ROOT
ATOM      1  C   UNL     1      23.798   4.400   8.899  1.00  0.00     0.000 C 
ENDROOT
BRANCH   1   2
ATOM      2  C   UNL     1      24.081   5.907   8.894  1.00  0.00     0.000 C 
BRANCH   2   3
ATOM      3  C   UNL     1      24.600   6.375  10.262  1.00  0.00     0.000 C 
BRANCH   3   4
ATOM      4  C   UNL     1      24.691   5.229  11.282  1.00  0.00     0.000 C 
BRANCH   4   5
ATOM      5  C   UNL     1      24.201   5.643  12.681  1.00  0.00     0.006 C 
BRANCH   5   6
ATOM      6  C   UNL     1      25.279   5.444  13.753  1.00  0.00     0.053 C 
BRANCH   6   7
ATOM      7  C   UNL     1      25.951   6.735  14.111  1.00  0.00     0.041 C 
ATOM      8  O   UNL     1      26.805   7.241  13.336  1.00  0.00    -0.550 OA
ATOM      9  O   UNL     1      25.607   7.396  15.283  1.00  0.00    -0.550 OA
ENDBRANCH   6   7
ENDBRANCH   5   6
ENDBRANCH   4   5
ENDBRANCH   3   4
ENDBRANCH   2   3
ENDBRANCH   1   2
BRANCH   1  10
ATOM     10  C   UNL     1      22.548   4.070   8.071  1.00  0.00     0.000 C 
BRANCH  10  11
ATOM     11  C   UNL     1      21.240   4.515   8.752  1.00  0.00    -0.000 C 
BRANCH  11  12
ATOM     12  C   UNL     1      21.167   4.240  10.266  1.00  0.00    -0.000 C 
BRANCH  12  13
ATOM     13  C   UNL     1      20.944   5.513  11.097  1.00  0.00    -0.000 C 
BRANCH  13  14
ATOM     14  C   UNL     1      20.625   6.711  10.191  1.00  0.00    -0.000 C 
BRANCH  14  15
ATOM     15  C   UNL     1      19.149   7.131  10.266  1.00  0.00    -0.003 C 
ATOM     16  C   UNL     1      18.456   7.106   8.904  1.00  0.00     0.004 C 
ENDBRANCH  14  15
ENDBRANCH  13  14
ENDBRANCH  12  13
ENDBRANCH  11  12
ENDBRANCH  10  11
ENDBRANCH   1  10
TORSDOF 12
ENDMDL
MODEL 9
REMARK VINA RESULT:    -4.003      6.289      9.304
REMARK INTER + INTRA:          -7.824
REMARK INTER:                  -6.129
REMARK INTRA:                  -1.696
REMARK UNBOUND:                -1.013
REMARK SMILES CCCCCCCCCCCCCC(=O)[O-]
REMARK SMILES IDX 8 1 9 2 10 3 11 4 12 5 13 6 14 7 15 8 16 9 7 10 6 11 5 12
REMARK SMILES IDX 4 13 3 14 2 15 1 16
REMARK H PARENT
REMARK Flexibility Score: inf
ROOT
ATOM      1  C   UNL     1      23.747   5.065   8.910  1.00  0.00     0.000 C 
ENDROOT
BRANCH   1   2
ATOM      2  C   UNL     1      24.198   6.163   9.882  1.00  0.00     0.000 C 
BRANCH   2   3
ATOM      3  C   UNL     1      23.231   7.356   9.849  1.00  0.00     0.000 C 
BRANCH   3   4
ATOM      4  C   UNL     1      22.399   7.478  11.135  1.00  0.00     0.000 C 
BRANCH   4   5
ATOM      5  C   UNL     1      23.038   6.741  12.325  1.00  0.00     0.006 C 
BRANCH   5   6
ATOM      6  C   UNL     1      22.005   5.949  13.137  1.00  0.00     0.053 C 
BRANCH   6   7
ATOM      7  C   UNL     1      21.507   6.731  14.315  1.00  0.00     0.041 C 
ATOM      8  O   UNL     1      20.460   7.424  14.219  1.00  0.00    -0.550 OA
ATOM      9  O   UNL     1      22.180   6.666  15.528  1.00  0.00    -0.550 OA
ENDBRANCH   6   7
ENDBRANCH   5   6
ENDBRANCH   4   5
ENDBRANCH   3   4
ENDBRANCH   2   3
ENDBRANCH   1   2
BRANCH   1  10
ATOM     10  C   UNL     1      23.168   3.862   9.668  1.00  0.00     0.000 C 
BRANCH  10  11
ATOM     11  C   UNL     1      21.643   3.948   9.860  1.00  0.00    -0.000 C 
BRANCH  11  12
ATOM     12  C   UNL     1      20.860   4.453   8.634  1.00  0.00    -0.000 C 
BRANCH  12  13
ATOM     13  C   UNL     1      19.447   4.943   8.985  1.00  0.00    -0.000 C 
BRANCH  13  14
ATOM     14  C   UNL     1      19.467   5.825  10.241  1.00  0.00    -0.000 C 
BRANCH  14  15
ATOM     15  C   UNL     1      18.255   6.765  10.324  1.00  0.00    -0.003 C 
ATOM     16  C   UNL     1      18.149   7.701   9.120  1.00  0.00     0.004 C 
ENDBRANCH  14  15
ENDBRANCH  13  14
ENDBRANCH  12  13
ENDBRANCH  11  12
ENDBRANCH  10  11
ENDBRANCH   1  10
TORSDOF 12
ENDMDL
