MODEL 1
REMARK VINA RESULT:    23.012      0.000      0.000
REMARK INTER + INTRA:          61.082
REMARK INTER:                  60.679
REMARK INTRA:                   0.403
REMARK UNBOUND:                 0.403
REMARK SMILES CCCCCCCCCCCCCCCCCCCCCCCCCCCCCC(=O)[O-]
REMARK SMILES IDX 16 1 17 2 18 3 19 4 20 5 21 6 22 7 23 8 24 9 25 10 26 11
REMARK SMILES IDX 27 12 28 13 29 14 30 15 31 16 32 17 15 18 14 19 13 20 12 21
REMARK SMILES IDX 11 22 10 23 9 24 8 25 7 26 6 27 5 28 4 29 3 30 2 31 1 32
REMARK H PARENT
REMARK Flexibility Score: inf
ROOT
ATOM      1  C   UNL     1      17.409  17.874  20.524  1.00  0.00     0.000 C 
ENDROOT
BRANCH   1   2
ATOM      2  C   UNL     1      16.517  18.092  19.290  1.00  0.00     0.000 C 
BRANCH   2   3
ATOM      3  C   UNL     1      15.453  16.993  19.125  1.00  0.00     0.000 C 
BRANCH   3   4
ATOM      4  C   UNL     1      15.864  15.597  19.636  1.00  0.00     0.000 C 
BRANCH   4   5
ATOM      5  C   UNL     1      14.869  14.975  20.639  1.00  0.00     0.000 C 
BRANCH   5   6
ATOM      6  C   UNL     1      15.009  13.444  20.743  1.00  0.00     0.000 C 
BRANCH   6   7
ATOM      7  C   UNL     1      13.911  12.697  19.971  1.00  0.00     0.000 C 
BRANCH   7   8
ATOM      8  C   UNL     1      14.424  11.412  19.301  1.00  0.00     0.000 C 
BRANCH   8   9
ATOM      9  C   UNL     1      15.657  10.868  20.032  1.00  0.00     0.000 C 
BRANCH   9  10
ATOM     10  C   UNL     1      15.685   9.332  19.997  1.00  0.00     0.000 C 
BRANCH  10  11
ATOM     11  C   UNL     1      16.956   8.775  19.335  1.00  0.00     0.000 C 
BRANCH  11  12
ATOM     12  C   UNL     1      18.262   9.351  19.929  1.00  0.00     0.000 C 
BRANCH  12  13
ATOM     13  C   UNL     1      19.408   9.352  18.905  1.00  0.00     0.006 C 
BRANCH  13  14
ATOM     14  C   UNL     1      20.561  10.253  19.366  1.00  0.00     0.053 C 
BRANCH  14  15
ATOM     15  C   UNL     1      20.166  11.065  20.562  1.00  0.00     0.041 C 
ATOM     16  O   UNL     1      19.880  10.499  21.652  1.00  0.00    -0.550 OA
ATOM     17  O   UNL     1      20.101  12.449  20.469  1.00  0.00    -0.550 OA
ENDBRANCH  14  15
ENDBRANCH  13  14
ENDBRANCH  12  13
ENDBRANCH  11  12
ENDBRANCH  10  11
ENDBRANCH   9  10
ENDBRANCH   8   9
ENDBRANCH   7   8
ENDBRANCH   6   7
ENDBRANCH   5   6
ENDBRANCH   4   5
ENDBRANCH   3   4
ENDBRANCH   2   3
ENDBRANCH   1   2
BRANCH   1  18
ATOM     18  C   UNL     1      18.707  17.142  20.148  1.00  0.00     0.000 C 
BRANCH  18  19
ATOM     19  C   UNL     1      19.946  18.048  20.246  1.00  0.00     0.000 C 
BRANCH  19  20
ATOM     20  C   UNL     1      19.890  19.002  21.452  1.00  0.00     0.000 C 
BRANCH  20  21
ATOM     21  C   UNL     1      19.903  18.258  22.801  1.00  0.00     0.000 C 
BRANCH  21  22
ATOM     22  C   UNL     1      20.373  19.096  24.004  1.00  0.00     0.000 C 
BRANCH  22  23
ATOM     23  C   UNL     1      21.055  20.409  23.584  1.00  0.00     0.000 C 
BRANCH  23  24
ATOM     24  C   UNL     1      21.653  21.172  24.778  1.00  0.00    -0.000 C 
BRANCH  24  25
ATOM     25  C   UNL     1      23.187  21.243  24.729  1.00  0.00    -0.000 C 
BRANCH  25  26
ATOM     26  C   UNL     1      23.785  19.901  24.277  1.00  0.00    -0.000 C 
BRANCH  26  27
ATOM     27  C   UNL     1      24.703  20.042  23.053  1.00  0.00    -0.000 C 
BRANCH  27  28
ATOM     28  C   UNL     1      25.884  19.053  23.010  1.00  0.00    -0.000 C 
BRANCH  28  29
ATOM     29  C   UNL     1      25.567  17.677  23.634  1.00  0.00    -0.000 C 
BRANCH  29  30
ATOM     30  C   UNL     1      25.306  16.602  22.565  1.00  0.00    -0.000 C 
BRANCH  30  31
ATOM     31  C   UNL     1      24.003  16.842  21.786  1.00  0.00    -0.003 C 
ATOM     32  C   UNL     1      23.974  18.198  21.080  1.00  0.00     0.004 C 
ENDBRANCH  30  31
ENDBRANCH  29  30
ENDBRANCH  28  29
ENDBRANCH  27  28
ENDBRANCH  26  27
ENDBRANCH  25  26
ENDBRANCH  24  25
ENDBRANCH  23  24
ENDBRANCH  22  23
ENDBRANCH  21  22
ENDBRANCH  20  21
ENDBRANCH  19  20
ENDBRANCH  18  19
ENDBRANCH   1  18
TORSDOF 28
ENDMDL
MODEL 2
REMARK VINA RESULT:    23.479      0.832      2.726
REMARK INTER + INTRA:          62.316
REMARK INTER:                  63.212
REMARK INTRA:                  -0.896
REMARK UNBOUND:                 0.403
REMARK SMILES CCCCCCCCCCCCCCCCCCCCCCCCCCCCCC(=O)[O-]
REMARK SMILES IDX 16 1 17 2 18 3 19 4 20 5 21 6 22 7 23 8 24 9 25 10 26 11
REMARK SMILES IDX 27 12 28 13 29 14 30 15 31 16 32 17 15 18 14 19 13 20 12 21
REMARK SMILES IDX 11 22 10 23 9 24 8 25 7 26 6 27 5 28 4 29 3 30 2 31 1 32
REMARK H PARENT
REMARK Flexibility Score: inf
ROOT
ATOM      1  C   UNL     1      16.826  18.311  19.667  1.00  0.00     0.000 C 
ENDROOT
BRANCH   1   2
ATOM      2  C   UNL     1      16.003  17.782  18.481  1.00  0.00     0.000 C 
BRANCH   2   3
ATOM      3  C   UNL     1      15.495  16.346  18.704  1.00  0.00     0.000 C 
BRANCH   3   4
ATOM      4  C   UNL     1      15.207  15.972  20.173  1.00  0.00     0.000 C 
BRANCH   4   5
ATOM      5  C   UNL     1      15.727  14.578  20.581  1.00  0.00     0.000 C 
BRANCH   5   6
ATOM      6  C   UNL     1      14.593  13.551  20.768  1.00  0.00     0.000 C 
BRANCH   6   7
ATOM      7  C   UNL     1      14.148  12.916  19.442  1.00  0.00     0.000 C 
BRANCH   7   8
ATOM      8  C   UNL     1      14.234  11.381  19.460  1.00  0.00     0.000 C 
BRANCH   8   9
ATOM      9  C   UNL     1      15.574  10.914  20.041  1.00  0.00     0.000 C 
BRANCH   9  10
ATOM     10  C   UNL     1      15.690   9.383  19.996  1.00  0.00     0.000 C 
BRANCH  10  11
ATOM     11  C   UNL     1      16.951   8.901  19.261  1.00  0.00     0.000 C 
BRANCH  11  12
ATOM     12  C   UNL     1      18.266   9.374  19.923  1.00  0.00     0.000 C 
BRANCH  12  13
ATOM     13  C   UNL     1      19.462   9.273  18.962  1.00  0.00     0.006 C 
BRANCH  13  14
ATOM     14  C   UNL     1      20.590  10.224  19.380  1.00  0.00     0.053 C 
BRANCH  14  15
ATOM     15  C   UNL     1      20.175  11.074  20.542  1.00  0.00     0.041 C 
ATOM     16  O   UNL     1      20.122  12.329  20.430  1.00  0.00    -0.550 OA
ATOM     17  O   UNL     1      19.856  10.480  21.757  1.00  0.00    -0.550 OA
ENDBRANCH  14  15
ENDBRANCH  13  14
ENDBRANCH  12  13
ENDBRANCH  11  12
ENDBRANCH  10  11
ENDBRANCH   9  10
ENDBRANCH   8   9
ENDBRANCH   7   8
ENDBRANCH   6   7
ENDBRANCH   5   6
ENDBRANCH   4   5
ENDBRANCH   3   4
ENDBRANCH   2   3
ENDBRANCH   1   2
BRANCH   1  18
ATOM     18  C   UNL     1      17.863  17.275  20.129  1.00  0.00     0.000 C 
BRANCH  18  19
ATOM     19  C   UNL     1      18.734  17.787  21.289  1.00  0.00     0.000 C 
BRANCH  19  20
ATOM     20  C   UNL     1      19.964  18.575  20.805  1.00  0.00     0.000 C 
BRANCH  20  21
ATOM     21  C   UNL     1      20.759  17.829  19.716  1.00  0.00     0.000 C 
BRANCH  21  22
ATOM     22  C   UNL     1      22.285  18.018  19.778  1.00  0.00     0.000 C 
BRANCH  22  23
ATOM     23  C   UNL     1      22.896  17.500  21.091  1.00  0.00     0.000 C 
BRANCH  23  24
ATOM     24  C   UNL     1      24.434  17.506  21.070  1.00  0.00    -0.000 C 
BRANCH  24  25
ATOM     25  C   UNL     1      25.043  18.105  22.347  1.00  0.00    -0.000 C 
BRANCH  25  26
ATOM     26  C   UNL     1      25.319  19.607  22.172  1.00  0.00    -0.000 C 
BRANCH  26  27
ATOM     27  C   UNL     1      24.671  20.464  23.271  1.00  0.00    -0.000 C 
BRANCH  27  28
ATOM     28  C   UNL     1      24.317  19.703  24.562  1.00  0.00    -0.000 C 
BRANCH  28  29
ATOM     29  C   UNL     1      23.161  20.340  25.364  1.00  0.00    -0.000 C 
BRANCH  29  30
ATOM     30  C   UNL     1      22.381  21.374  24.534  1.00  0.00    -0.000 C 
BRANCH  30  31
ATOM     31  C   UNL     1      20.972  20.890  24.154  1.00  0.00    -0.003 C 
ATOM     32  C   UNL     1      20.923  19.396  23.833  1.00  0.00     0.004 C 
ENDBRANCH  30  31
ENDBRANCH  29  30
ENDBRANCH  28  29
ENDBRANCH  27  28
ENDBRANCH  26  27
ENDBRANCH  25  26
ENDBRANCH  24  25
ENDBRANCH  23  24
ENDBRANCH  22  23
ENDBRANCH  21  22
ENDBRANCH  20  21
ENDBRANCH  19  20
ENDBRANCH  18  19
ENDBRANCH   1  18
TORSDOF 28
ENDMDL
MODEL 3
REMARK VINA RESULT:    23.923      1.903      9.844
REMARK INTER + INTRA:          63.484
REMARK INTER:                  64.787
REMARK INTRA:                  -1.303
REMARK UNBOUND:                 0.403
REMARK SMILES CCCCCCCCCCCCCCCCCCCCCCCCCCCCCC(=O)[O-]
REMARK SMILES IDX 16 1 17 2 18 3 19 4 20 5 21 6 22 7 23 8 24 9 25 10 26 11
REMARK SMILES IDX 27 12 28 13 29 14 30 15 31 16 32 17 15 18 14 19 13 20 12 21
REMARK SMILES IDX 11 22 10 23 9 24 8 25 7 26 6 27 5 28 4 29 3 30 2 31 1 32
REMARK H PARENT
REMARK Flexibility Score: inf
ROOT
ATOM      1  C   UNL     1      16.392  17.292  18.526  1.00  0.00     0.000 C 
ENDROOT
BRANCH   1   2
ATOM      2  C   UNL     1      17.101  17.844  19.774  1.00  0.00     0.000 C 
BRANCH   2   3
ATOM      3  C   UNL     1      18.422  17.116  20.077  1.00  0.00     0.000 C 
BRANCH   3   4
ATOM      4  C   UNL     1      19.686  17.998  20.026  1.00  0.00     0.000 C 
BRANCH   4   5
ATOM      5  C   UNL     1      19.936  18.817  21.311  1.00  0.00     0.000 C 
BRANCH   5   6
ATOM      6  C   UNL     1      19.529  18.056  22.588  1.00  0.00     0.000 C 
BRANCH   6   7
ATOM      7  C   UNL     1      20.149  18.661  23.857  1.00  0.00     0.000 C 
BRANCH   7   8
ATOM      8  C   UNL     1      21.373  19.543  23.559  1.00  0.00     0.000 C 
BRANCH   8   9
ATOM      9  C   UNL     1      21.322  20.843  24.371  1.00  0.00     0.000 C 
BRANCH   9  10
ATOM     10  C   UNL     1      22.655  21.095  25.092  1.00  0.00     0.000 C 
BRANCH  10  11
ATOM     11  C   UNL     1      23.807  20.246  24.529  1.00  0.00     0.000 C 
BRANCH  11  12
ATOM     12  C   UNL     1      24.112  20.533  23.042  1.00  0.00     0.000 C 
BRANCH  12  13
ATOM     13  C   UNL     1      25.403  19.841  22.575  1.00  0.00     0.006 C 
BRANCH  13  14
ATOM     14  C   UNL     1      25.531  18.439  23.183  1.00  0.00     0.053 C 
BRANCH  14  15
ATOM     15  C   UNL     1      24.789  17.427  22.363  1.00  0.00     0.041 C 
ATOM     16  O   UNL     1      24.798  16.209  22.690  1.00  0.00    -0.550 OA
ATOM     17  O   UNL     1      24.095  17.828  21.229  1.00  0.00    -0.550 OA
ENDBRANCH  14  15
ENDBRANCH  13  14
ENDBRANCH  12  13
ENDBRANCH  11  12
ENDBRANCH  10  11
ENDBRANCH   9  10
ENDBRANCH   8   9
ENDBRANCH   7   8
ENDBRANCH   6   7
ENDBRANCH   5   6
ENDBRANCH   4   5
ENDBRANCH   3   4
ENDBRANCH   2   3
ENDBRANCH   1   2
BRANCH   1  18
ATOM     18  C   UNL     1      15.258  16.331  18.913  1.00  0.00     0.000 C 
BRANCH  18  19
ATOM     19  C   UNL     1      15.382  15.821  20.359  1.00  0.00     0.000 C 
BRANCH  19  20
ATOM     20  C   UNL     1      15.712  14.319  20.432  1.00  0.00     0.000 C 
BRANCH  20  21
ATOM     21  C   UNL     1      14.504  13.463  20.856  1.00  0.00     0.000 C 
BRANCH  21  22
ATOM     22  C   UNL     1      13.749  12.782  19.700  1.00  0.00     0.000 C 
BRANCH  22  23
ATOM     23  C   UNL     1      14.544  11.628  19.069  1.00  0.00     0.000 C 
BRANCH  23  24
ATOM     24  C   UNL     1      15.563  11.010  20.041  1.00  0.00    -0.000 C 
BRANCH  24  25
ATOM     25  C   UNL     1      15.512   9.474  20.058  1.00  0.00    -0.000 C 
BRANCH  25  26
ATOM     26  C   UNL     1      16.534   8.879  19.076  1.00  0.00    -0.000 C 
BRANCH  26  27
ATOM     27  C   UNL     1      17.846   8.466  19.762  1.00  0.00    -0.000 C 
BRANCH  27  28
ATOM     28  C   UNL     1      19.124   8.785  18.964  1.00  0.00    -0.000 C 
BRANCH  28  29
ATOM     29  C   UNL     1      19.765  10.142  19.329  1.00  0.00    -0.000 C 
BRANCH  29  30
ATOM     30  C   UNL     1      19.732  10.410  20.844  1.00  0.00    -0.000 C 
BRANCH  30  31
ATOM     31  C   UNL     1      20.391  11.745  21.225  1.00  0.00    -0.003 C 
ATOM     32  C   UNL     1      20.672  12.637  20.016  1.00  0.00     0.004 C 
ENDBRANCH  30  31
ENDBRANCH  29  30
ENDBRANCH  28  29
ENDBRANCH  27  28
ENDBRANCH  26  27
ENDBRANCH  25  26
ENDBRANCH  24  25
ENDBRANCH  23  24
ENDBRANCH  22  23
ENDBRANCH  21  22
ENDBRANCH  20  21
ENDBRANCH  19  20
ENDBRANCH  18  19
ENDBRANCH   1  18
TORSDOF 28
ENDMDL
MODEL 4
REMARK VINA RESULT:    23.971      2.507     10.126
REMARK INTER + INTRA:          63.613
REMARK INTER:                  62.623
REMARK INTRA:                   0.990
REMARK UNBOUND:                 0.403
REMARK SMILES CCCCCCCCCCCCCCCCCCCCCCCCCCCCCC(=O)[O-]
REMARK SMILES IDX 16 1 17 2 18 3 19 4 20 5 21 6 22 7 23 8 24 9 25 10 26 11
REMARK SMILES IDX 27 12 28 13 29 14 30 15 31 16 32 17 15 18 14 19 13 20 12 21
REMARK SMILES IDX 11 22 10 23 9 24 8 25 7 26 6 27 5 28 4 29 3 30 2 31 1 32
REMARK H PARENT
REMARK Flexibility Score: inf
ROOT
ATOM      1  C   UNL     1      16.939  17.530  18.716  1.00  0.00     0.000 C 
ENDROOT
BRANCH   1   2
ATOM      2  C   UNL     1      17.831  17.208  19.927  1.00  0.00     0.000 C 
BRANCH   2   3
ATOM      3  C   UNL     1      19.241  17.811  19.802  1.00  0.00     0.000 C 
BRANCH   3   4
ATOM      4  C   UNL     1      19.773  18.507  21.072  1.00  0.00     0.000 C 
BRANCH   4   5
ATOM      5  C   UNL     1      21.263  18.229  21.364  1.00  0.00     0.000 C 
BRANCH   5   6
ATOM      6  C   UNL     1      22.089  18.008  20.083  1.00  0.00     0.000 C 
BRANCH   6   7
ATOM      7  C   UNL     1      23.438  17.325  20.360  1.00  0.00     0.000 C 
BRANCH   7   8
ATOM      8  C   UNL     1      24.190  17.954  21.545  1.00  0.00     0.000 C 
BRANCH   8   9
ATOM      9  C   UNL     1      24.896  16.878  22.379  1.00  0.00     0.000 C 
BRANCH   9  10
ATOM     10  C   UNL     1      25.497  17.479  23.658  1.00  0.00     0.000 C 
BRANCH  10  11
ATOM     11  C   UNL     1      25.744  18.993  23.546  1.00  0.00     0.000 C 
BRANCH  11  12
ATOM     12  C   UNL     1      24.601  19.751  22.834  1.00  0.00     0.000 C 
BRANCH  12  13
ATOM     13  C   UNL     1      24.114  20.958  23.652  1.00  0.00     0.006 C 
BRANCH  13  14
ATOM     14  C   UNL     1      23.257  20.511  24.843  1.00  0.00     0.053 C 
BRANCH  14  15
ATOM     15  C   UNL     1      21.800  20.732  24.571  1.00  0.00     0.041 C 
ATOM     16  O   UNL     1      21.084  19.796  24.124  1.00  0.00    -0.550 OA
ATOM     17  O   UNL     1      21.233  21.979  24.802  1.00  0.00    -0.550 OA
ENDBRANCH  14  15
ENDBRANCH  13  14
ENDBRANCH  12  13
ENDBRANCH  11  12
ENDBRANCH  10  11
ENDBRANCH   9  10
ENDBRANCH   8   9
ENDBRANCH   7   8
ENDBRANCH   6   7
ENDBRANCH   5   6
ENDBRANCH   4   5
ENDBRANCH   3   4
ENDBRANCH   2   3
ENDBRANCH   1   2
BRANCH   1  18
ATOM     18  C   UNL     1      15.537  16.922  18.883  1.00  0.00     0.000 C 
BRANCH  18  19
ATOM     19  C   UNL     1      15.388  16.131  20.194  1.00  0.00     0.000 C 
BRANCH  19  20
ATOM     20  C   UNL     1      15.597  14.619  20.002  1.00  0.00     0.000 C 
BRANCH  20  21
ATOM     21  C   UNL     1      14.754  13.773  20.975  1.00  0.00     0.000 C 
BRANCH  21  22
ATOM     22  C   UNL     1      13.908  12.669  20.315  1.00  0.00     0.000 C 
BRANCH  22  23
ATOM     23  C   UNL     1      14.745  11.718  19.444  1.00  0.00     0.000 C 
BRANCH  23  24
ATOM     24  C   UNL     1      15.692  10.835  20.274  1.00  0.00    -0.000 C 
BRANCH  24  25
ATOM     25  C   UNL     1      15.563   9.342  19.931  1.00  0.00    -0.000 C 
BRANCH  25  26
ATOM     26  C   UNL     1      16.802   8.844  19.171  1.00  0.00    -0.000 C 
BRANCH  26  27
ATOM     27  C   UNL     1      18.118   9.353  19.781  1.00  0.00    -0.000 C 
BRANCH  27  28
ATOM     28  C   UNL     1      19.386   8.987  18.987  1.00  0.00    -0.000 C 
BRANCH  28  29
ATOM     29  C   UNL     1      20.576   9.939  19.239  1.00  0.00    -0.000 C 
BRANCH  29  30
ATOM     30  C   UNL     1      20.115  11.373  19.552  1.00  0.00    -0.000 C 
BRANCH  30  31
ATOM     31  C   UNL     1      19.817  11.589  21.045  1.00  0.00    -0.003 C 
ATOM     32  C   UNL     1      20.096  10.347  21.892  1.00  0.00     0.004 C 
ENDBRANCH  30  31
ENDBRANCH  29  30
ENDBRANCH  28  29
ENDBRANCH  27  28
ENDBRANCH  26  27
ENDBRANCH  25  26
ENDBRANCH  24  25
ENDBRANCH  23  24
ENDBRANCH  22  23
ENDBRANCH  21  22
ENDBRANCH  20  21
ENDBRANCH  19  20
ENDBRANCH  18  19
ENDBRANCH   1  18
TORSDOF 28
ENDMDL
MODEL 5
REMARK VINA RESULT:    24.263      0.787      1.401
REMARK INTER + INTRA:          64.382
REMARK INTER:                  64.447
REMARK INTRA:                  -0.065
REMARK UNBOUND:                 0.403
REMARK SMILES CCCCCCCCCCCCCCCCCCCCCCCCCCCCCC(=O)[O-]
REMARK SMILES IDX 16 1 17 2 18 3 19 4 20 5 21 6 22 7 23 8 24 9 25 10 26 11
REMARK SMILES IDX 27 12 28 13 29 14 30 15 31 16 32 17 15 18 14 19 13 20 12 21
REMARK SMILES IDX 11 22 10 23 9 24 8 25 7 26 6 27 5 28 4 29 3 30 2 31 1 32
REMARK H PARENT
REMARK Flexibility Score: inf
ROOT
ATOM      1  C   UNL     1      17.113  18.334  20.661  1.00  0.00     0.000 C 
ENDROOT
BRANCH   1   2
ATOM      2  C   UNL     1      16.583  18.693  19.263  1.00  0.00     0.000 C 
BRANCH   2   3
ATOM      3  C   UNL     1      15.771  17.551  18.625  1.00  0.00     0.000 C 
BRANCH   3   4
ATOM      4  C   UNL     1      16.130  16.134  19.118  1.00  0.00     0.000 C 
BRANCH   4   5
ATOM      5  C   UNL     1      15.082  15.513  20.064  1.00  0.00     0.000 C 
BRANCH   5   6
ATOM      6  C   UNL     1      15.503  14.127  20.590  1.00  0.00     0.000 C 
BRANCH   6   7
ATOM      7  C   UNL     1      14.310  13.175  20.767  1.00  0.00     0.000 C 
BRANCH   7   8
ATOM      8  C   UNL     1      13.832  12.566  19.439  1.00  0.00     0.000 C 
BRANCH   8   9
ATOM      9  C   UNL     1      14.640  11.310  19.089  1.00  0.00     0.000 C 
BRANCH   9  10
ATOM     10  C   UNL     1      15.591  10.931  20.234  1.00  0.00     0.000 C 
BRANCH  10  11
ATOM     11  C   UNL     1      15.943   9.434  20.245  1.00  0.00     0.000 C 
BRANCH  11  12
ATOM     12  C   UNL     1      16.797   8.994  19.035  1.00  0.00     0.000 C 
BRANCH  12  13
ATOM     13  C   UNL     1      18.295   8.944  19.376  1.00  0.00     0.006 C 
BRANCH  13  14
ATOM     14  C   UNL     1      18.613   9.803  20.606  1.00  0.00     0.053 C 
BRANCH  14  15
ATOM     15  C   UNL     1      19.849  10.622  20.386  1.00  0.00     0.041 C 
ATOM     16  O   UNL     1      20.578  10.418  19.378  1.00  0.00    -0.550 OA
ATOM     17  O   UNL     1      20.201  11.605  21.302  1.00  0.00    -0.550 OA
ENDBRANCH  14  15
ENDBRANCH  13  14
ENDBRANCH  12  13
ENDBRANCH  11  12
ENDBRANCH  10  11
ENDBRANCH   9  10
ENDBRANCH   8   9
ENDBRANCH   7   8
ENDBRANCH   6   7
ENDBRANCH   5   6
ENDBRANCH   4   5
ENDBRANCH   3   4
ENDBRANCH   2   3
ENDBRANCH   1   2
BRANCH   1  18
ATOM     18  C   UNL     1      18.287  17.346  20.572  1.00  0.00     0.000 C 
BRANCH  18  19
ATOM     19  C   UNL     1      19.622  18.041  20.256  1.00  0.00     0.000 C 
BRANCH  19  20
ATOM     20  C   UNL     1      20.101  18.955  21.399  1.00  0.00     0.000 C 
BRANCH  20  21
ATOM     21  C   UNL     1      20.105  18.246  22.766  1.00  0.00     0.000 C 
BRANCH  21  22
ATOM     22  C   UNL     1      20.556  19.119  23.951  1.00  0.00     0.000 C 
BRANCH  22  23
ATOM     23  C   UNL     1      20.903  20.557  23.533  1.00  0.00     0.000 C 
BRANCH  23  24
ATOM     24  C   UNL     1      21.637  21.333  24.640  1.00  0.00    -0.000 C 
BRANCH  24  25
ATOM     25  C   UNL     1      22.948  20.655  25.070  1.00  0.00    -0.000 C 
BRANCH  25  26
ATOM     26  C   UNL     1      24.057  20.894  24.034  1.00  0.00    -0.000 C 
BRANCH  26  27
ATOM     27  C   UNL     1      24.594  19.589  23.426  1.00  0.00    -0.000 C 
BRANCH  27  28
ATOM     28  C   UNL     1      25.049  19.695  21.959  1.00  0.00    -0.000 C 
BRANCH  28  29
ATOM     29  C   UNL     1      24.417  18.634  21.031  1.00  0.00    -0.000 C 
BRANCH  29  30
ATOM     30  C   UNL     1      24.314  17.258  21.711  1.00  0.00    -0.000 C 
BRANCH  30  31
ATOM     31  C   UNL     1      25.182  17.153  22.976  1.00  0.00    -0.003 C 
ATOM     32  C   UNL     1      26.187  16.002  22.914  1.00  0.00     0.004 C 
ENDBRANCH  30  31
ENDBRANCH  29  30
ENDBRANCH  28  29
ENDBRANCH  27  28
ENDBRANCH  26  27
ENDBRANCH  25  26
ENDBRANCH  24  25
ENDBRANCH  23  24
ENDBRANCH  22  23
ENDBRANCH  21  22
ENDBRANCH  20  21
ENDBRANCH  19  20
ENDBRANCH  18  19
ENDBRANCH   1  18
TORSDOF 28
ENDMDL
MODEL 6
REMARK VINA RESULT:    24.401      0.995      2.939
REMARK INTER + INTRA:          64.746
REMARK INTER:                  65.895
REMARK INTRA:                  -1.149
REMARK UNBOUND:                 0.403
REMARK SMILES CCCCCCCCCCCCCCCCCCCCCCCCCCCCCC(=O)[O-]
REMARK SMILES IDX 16 1 17 2 18 3 19 4 20 5 21 6 22 7 23 8 24 9 25 10 26 11
REMARK SMILES IDX 27 12 28 13 29 14 30 15 31 16 32 17 15 18 14 19 13 20 12 21
REMARK SMILES IDX 11 22 10 23 9 24 8 25 7 26 6 27 5 28 4 29 3 30 2 31 1 32
REMARK H PARENT
REMARK Flexibility Score: inf
ROOT
ATOM      1  C   UNL     1      18.407  18.124  20.957  1.00  0.00     0.000 C 
ENDROOT
BRANCH   1   2
ATOM      2  C   UNL     1      17.976  17.037  19.958  1.00  0.00     0.000 C 
BRANCH   2   3
ATOM      3  C   UNL     1      16.850  17.506  19.020  1.00  0.00     0.000 C 
BRANCH   3   4
ATOM      4  C   UNL     1      15.550  16.678  19.087  1.00  0.00     0.000 C 
BRANCH   4   5
ATOM      5  C   UNL     1      15.460  15.747  20.315  1.00  0.00     0.000 C 
BRANCH   5   6
ATOM      6  C   UNL     1      15.439  14.255  19.929  1.00  0.00     0.000 C 
BRANCH   6   7
ATOM      7  C   UNL     1      14.444  13.442  20.771  1.00  0.00     0.000 C 
BRANCH   7   8
ATOM      8  C   UNL     1      13.768  12.316  19.971  1.00  0.00     0.000 C 
BRANCH   8   9
ATOM      9  C   UNL     1      14.812  11.456  19.248  1.00  0.00     0.000 C 
BRANCH   9  10
ATOM     10  C   UNL     1      15.556  10.546  20.236  1.00  0.00     0.000 C 
BRANCH  10  11
ATOM     11  C   UNL     1      15.947   9.192  19.622  1.00  0.00     0.000 C 
BRANCH  11  12
ATOM     12  C   UNL     1      17.362   9.183  19.001  1.00  0.00     0.000 C 
BRANCH  12  13
ATOM     13  C   UNL     1      18.449   8.910  20.053  1.00  0.00     0.006 C 
BRANCH  13  14
ATOM     14  C   UNL     1      18.993  10.218  20.641  1.00  0.00     0.053 C 
BRANCH  14  15
ATOM     15  C   UNL     1      20.221  10.667  19.909  1.00  0.00     0.041 C 
ATOM     16  O   UNL     1      20.734   9.941  19.016  1.00  0.00    -0.550 OA
ATOM     17  O   UNL     1      20.807  11.887  20.222  1.00  0.00    -0.550 OA
ENDBRANCH  14  15
ENDBRANCH  13  14
ENDBRANCH  12  13
ENDBRANCH  11  12
ENDBRANCH  10  11
ENDBRANCH   9  10
ENDBRANCH   8   9
ENDBRANCH   7   8
ENDBRANCH   6   7
ENDBRANCH   5   6
ENDBRANCH   4   5
ENDBRANCH   3   4
ENDBRANCH   2   3
ENDBRANCH   1   2
BRANCH   1  18
ATOM     18  C   UNL     1      19.904  18.445  20.815  1.00  0.00     0.000 C 
BRANCH  18  19
ATOM     19  C   UNL     1      20.560  17.699  19.641  1.00  0.00     0.000 C 
BRANCH  19  20
ATOM     20  C   UNL     1      22.079  17.936  19.561  1.00  0.00     0.000 C 
BRANCH  20  21
ATOM     21  C   UNL     1      22.843  17.301  20.739  1.00  0.00     0.000 C 
BRANCH  21  22
ATOM     22  C   UNL     1      24.204  17.945  21.056  1.00  0.00     0.000 C 
BRANCH  22  23
ATOM     23  C   UNL     1      24.787  17.474  22.399  1.00  0.00     0.000 C 
BRANCH  23  24
ATOM     24  C   UNL     1      25.525  18.596  23.149  1.00  0.00    -0.000 C 
BRANCH  24  25
ATOM     25  C   UNL     1      25.435  19.951  22.428  1.00  0.00    -0.000 C 
BRANCH  25  26
ATOM     26  C   UNL     1      24.527  20.923  23.198  1.00  0.00    -0.000 C 
BRANCH  26  27
ATOM     27  C   UNL     1      23.848  20.269  24.412  1.00  0.00    -0.000 C 
BRANCH  27  28
ATOM     28  C   UNL     1      22.853  21.172  25.164  1.00  0.00    -0.000 C 
BRANCH  28  29
ATOM     29  C   UNL     1      21.374  20.893  24.819  1.00  0.00    -0.000 C 
BRANCH  29  30
ATOM     30  C   UNL     1      21.188  20.498  23.344  1.00  0.00    -0.000 C 
BRANCH  30  31
ATOM     31  C   UNL     1      20.942  18.991  23.159  1.00  0.00    -0.003 C 
ATOM     32  C   UNL     1      20.074  18.391  24.266  1.00  0.00     0.004 C 
ENDBRANCH  30  31
ENDBRANCH  29  30
ENDBRANCH  28  29
ENDBRANCH  27  28
ENDBRANCH  26  27
ENDBRANCH  25  26
ENDBRANCH  24  25
ENDBRANCH  23  24
ENDBRANCH  22  23
ENDBRANCH  21  22
ENDBRANCH  20  21
ENDBRANCH  19  20
ENDBRANCH  18  19
ENDBRANCH   1  18
TORSDOF 28
ENDMDL
MODEL 7
REMARK VINA RESULT:    24.660      2.528     10.209
REMARK INTER + INTRA:          65.430
REMARK INTER:                  67.050
REMARK INTRA:                  -1.620
REMARK UNBOUND:                 0.403
REMARK SMILES CCCCCCCCCCCCCCCCCCCCCCCCCCCCCC(=O)[O-]
REMARK SMILES IDX 16 1 17 2 18 3 19 4 20 5 21 6 22 7 23 8 24 9 25 10 26 11
REMARK SMILES IDX 27 12 28 13 29 14 30 15 31 16 32 17 15 18 14 19 13 20 12 21
REMARK SMILES IDX 11 22 10 23 9 24 8 25 7 26 6 27 5 28 4 29 3 30 2 31 1 32
REMARK H PARENT
REMARK Flexibility Score: inf
ROOT
ATOM      1  C   UNL     1      18.601  17.168  19.579  1.00  0.00     0.000 C 
ENDROOT
BRANCH   1   2
ATOM      2  C   UNL     1      18.268  17.885  20.899  1.00  0.00     0.000 C 
BRANCH   2   3
ATOM      3  C   UNL     1      19.522  18.210  21.730  1.00  0.00     0.000 C 
BRANCH   3   4
ATOM      4  C   UNL     1      20.684  18.853  20.944  1.00  0.00     0.000 C 
BRANCH   4   5
ATOM      5  C   UNL     1      21.492  17.856  20.087  1.00  0.00     0.000 C 
BRANCH   5   6
ATOM      6  C   UNL     1      23.014  18.031  20.249  1.00  0.00     0.000 C 
BRANCH   6   7
ATOM      7  C   UNL     1      23.498  17.712  21.672  1.00  0.00     0.000 C 
BRANCH   7   8
ATOM      8  C   UNL     1      24.774  16.854  21.687  1.00  0.00     0.000 C 
BRANCH   8   9
ATOM      9  C   UNL     1      25.502  16.980  23.032  1.00  0.00     0.000 C 
BRANCH   9  10
ATOM     10  C   UNL     1      25.417  18.415  23.572  1.00  0.00     0.000 C 
BRANCH  10  11
ATOM     11  C   UNL     1      24.952  18.475  25.036  1.00  0.00     0.000 C 
BRANCH  11  12
ATOM     12  C   UNL     1      24.135  19.743  25.370  1.00  0.00     0.000 C 
BRANCH  12  13
ATOM     13  C   UNL     1      23.782  20.549  24.109  1.00  0.00     0.006 C 
BRANCH  13  14
ATOM     14  C   UNL     1      22.787  21.671  24.429  1.00  0.00     0.053 C 
BRANCH  14  15
ATOM     15  C   UNL     1      21.409  21.123  24.646  1.00  0.00     0.041 C 
ATOM     16  O   UNL     1      20.535  21.809  25.242  1.00  0.00    -0.550 OA
ATOM     17  O   UNL     1      21.092  19.846  24.198  1.00  0.00    -0.550 OA
ENDBRANCH  14  15
ENDBRANCH  13  14
ENDBRANCH  12  13
ENDBRANCH  11  12
ENDBRANCH  10  11
ENDBRANCH   9  10
ENDBRANCH   8   9
ENDBRANCH   7   8
ENDBRANCH   6   7
ENDBRANCH   5   6
ENDBRANCH   4   5
ENDBRANCH   3   4
ENDBRANCH   2   3
ENDBRANCH   1   2
BRANCH   1  18
ATOM     18  C   UNL     1      17.574  17.511  18.488  1.00  0.00     0.000 C 
BRANCH  18  19
ATOM     19  C   UNL     1      16.181  17.818  19.063  1.00  0.00     0.000 C 
BRANCH  19  20
ATOM     20  C   UNL     1      15.266  16.580  19.096  1.00  0.00     0.000 C 
BRANCH  20  21
ATOM     21  C   UNL     1      15.374  15.795  20.416  1.00  0.00     0.000 C 
BRANCH  21  22
ATOM     22  C   UNL     1      15.489  14.268  20.259  1.00  0.00     0.000 C 
BRANCH  22  23
ATOM     23  C   UNL     1      14.232  13.523  20.740  1.00  0.00     0.000 C 
BRANCH  23  24
ATOM     24  C   UNL     1      13.961  12.241  19.936  1.00  0.00    -0.000 C 
BRANCH  24  25
ATOM     25  C   UNL     1      15.248  11.475  19.588  1.00  0.00    -0.000 C 
BRANCH  25  26
ATOM     26  C   UNL     1      15.140  10.000  20.006  1.00  0.00    -0.000 C 
BRANCH  26  27
ATOM     27  C   UNL     1      16.494   9.396  20.411  1.00  0.00    -0.000 C 
BRANCH  27  28
ATOM     28  C   UNL     1      17.456   9.118  19.241  1.00  0.00    -0.000 C 
BRANCH  28  29
ATOM     29  C   UNL     1      18.914   8.860  19.681  1.00  0.00    -0.000 C 
BRANCH  29  30
ATOM     30  C   UNL     1      19.925   9.643  18.826  1.00  0.00    -0.000 C 
BRANCH  30  31
ATOM     31  C   UNL     1      20.593  10.791  19.600  1.00  0.00    -0.003 C 
ATOM     32  C   UNL     1      19.937  11.056  20.956  1.00  0.00     0.004 C 
ENDBRANCH  30  31
ENDBRANCH  29  30
ENDBRANCH  28  29
ENDBRANCH  27  28
ENDBRANCH  26  27
ENDBRANCH  25  26
ENDBRANCH  24  25
ENDBRANCH  23  24
ENDBRANCH  22  23
ENDBRANCH  21  22
ENDBRANCH  20  21
ENDBRANCH  19  20
ENDBRANCH  18  19
ENDBRANCH   1  18
TORSDOF 28
ENDMDL
MODEL 8
REMARK VINA RESULT:    25.054      1.659      4.081
REMARK INTER + INTRA:          66.468
REMARK INTER:                  68.468
REMARK INTRA:                  -1.999
REMARK UNBOUND:                 0.403
REMARK SMILES CCCCCCCCCCCCCCCCCCCCCCCCCCCCCC(=O)[O-]
REMARK SMILES IDX 16 1 17 2 18 3 19 4 20 5 21 6 22 7 23 8 24 9 25 10 26 11
REMARK SMILES IDX 27 12 28 13 29 14 30 15 31 16 32 17 15 18 14 19 13 20 12 21
REMARK SMILES IDX 11 22 10 23 9 24 8 25 7 26 6 27 5 28 4 29 3 30 2 31 1 32
REMARK H PARENT
REMARK Flexibility Score: inf
ROOT
ATOM      1  C   UNL     1      20.153  18.595  21.032  1.00  0.00     0.000 C 
ENDROOT
BRANCH   1   2
ATOM      2  C   UNL     1      18.769  17.936  21.157  1.00  0.00     0.000 C 
BRANCH   2   3
ATOM      3  C   UNL     1      18.349  17.190  19.877  1.00  0.00     0.000 C 
BRANCH   3   4
ATOM      4  C   UNL     1      17.115  17.768  19.154  1.00  0.00     0.000 C 
BRANCH   4   5
ATOM      5  C   UNL     1      15.880  16.843  19.179  1.00  0.00     0.000 C 
BRANCH   5   6
ATOM      6  C   UNL     1      15.997  15.724  20.232  1.00  0.00     0.000 C 
BRANCH   6   7
ATOM      7  C   UNL     1      14.794  14.769  20.216  1.00  0.00     0.000 C 
BRANCH   7   8
ATOM      8  C   UNL     1      15.170  13.330  20.606  1.00  0.00     0.000 C 
BRANCH   8   9
ATOM      9  C   UNL     1      14.073  12.344  20.186  1.00  0.00     0.000 C 
BRANCH   9  10
ATOM     10  C   UNL     1      14.643  11.240  19.282  1.00  0.00     0.000 C 
BRANCH  10  11
ATOM     11  C   UNL     1      15.223  10.059  20.077  1.00  0.00     0.000 C 
BRANCH  11  12
ATOM     12  C   UNL     1      16.496   9.456  19.441  1.00  0.00     0.000 C 
BRANCH  12  13
ATOM     13  C   UNL     1      17.721   9.601  20.358  1.00  0.00     0.006 C 
BRANCH  13  14
ATOM     14  C   UNL     1      19.017   9.265  19.609  1.00  0.00     0.053 C 
BRANCH  14  15
ATOM     15  C   UNL     1      20.082  10.280  19.895  1.00  0.00     0.041 C 
ATOM     16  O   UNL     1      21.091  10.375  19.145  1.00  0.00    -0.550 OA
ATOM     17  O   UNL     1      19.966  11.114  21.000  1.00  0.00    -0.550 OA
ENDBRANCH  14  15
ENDBRANCH  13  14
ENDBRANCH  12  13
ENDBRANCH  11  12
ENDBRANCH  10  11
ENDBRANCH   9  10
ENDBRANCH   8   9
ENDBRANCH   7   8
ENDBRANCH   6   7
ENDBRANCH   5   6
ENDBRANCH   4   5
ENDBRANCH   3   4
ENDBRANCH   2   3
ENDBRANCH   1   2
BRANCH   1  18
ATOM     18  C   UNL     1      21.107  17.727  20.196  1.00  0.00     0.000 C 
BRANCH  18  19
ATOM     19  C   UNL     1      22.461  18.411  19.942  1.00  0.00     0.000 C 
BRANCH  19  20
ATOM     20  C   UNL     1      23.651  17.581  20.456  1.00  0.00     0.000 C 
BRANCH  20  21
ATOM     21  C   UNL     1      23.655  17.430  21.989  1.00  0.00     0.000 C 
BRANCH  21  22
ATOM     22  C   UNL     1      25.050  17.418  22.639  1.00  0.00     0.000 C 
BRANCH  22  23
ATOM     23  C   UNL     1      25.331  18.683  23.467  1.00  0.00     0.000 C 
BRANCH  23  24
ATOM     24  C   UNL     1      25.111  19.976  22.665  1.00  0.00    -0.000 C 
BRANCH  24  25
ATOM     25  C   UNL     1      24.230  20.992  23.408  1.00  0.00    -0.000 C 
BRANCH  25  26
ATOM     26  C   UNL     1      23.448  20.314  24.544  1.00  0.00    -0.000 C 
BRANCH  26  27
ATOM     27  C   UNL     1      21.925  20.407  24.356  1.00  0.00    -0.000 C 
BRANCH  27  28
ATOM     28  C   UNL     1      21.324  21.801  24.613  1.00  0.00    -0.000 C 
BRANCH  28  29
ATOM     29  C   UNL     1      21.143  22.648  23.335  1.00  0.00    -0.000 C 
BRANCH  29  30
ATOM     30  C   UNL     1      20.465  23.998  23.625  1.00  0.00    -0.000 C 
BRANCH  30  31
ATOM     31  C   UNL     1      18.936  23.941  23.468  1.00  0.00    -0.003 C 
ATOM     32  C   UNL     1      18.380  25.101  22.641  1.00  0.00     0.004 C 
ENDBRANCH  30  31
ENDBRANCH  29  30
ENDBRANCH  28  29
ENDBRANCH  27  28
ENDBRANCH  26  27
ENDBRANCH  25  26
ENDBRANCH  24  25
ENDBRANCH  23  24
ENDBRANCH  22  23
ENDBRANCH  21  22
ENDBRANCH  20  21
ENDBRANCH  19  20
ENDBRANCH  18  19
ENDBRANCH   1  18
TORSDOF 28
ENDMDL
MODEL 9
REMARK VINA RESULT:    25.125      2.105      9.933
REMARK INTER + INTRA:          66.654
REMARK INTER:                  67.537
REMARK INTRA:                  -0.883
REMARK UNBOUND:                 0.403
REMARK SMILES CCCCCCCCCCCCCCCCCCCCCCCCCCCCCC(=O)[O-]
REMARK SMILES IDX 16 1 17 2 18 3 19 4 20 5 21 6 22 7 23 8 24 9 25 10 26 11
REMARK SMILES IDX 27 12 28 13 29 14 30 15 31 16 32 17 15 18 14 19 13 20 12 21
REMARK SMILES IDX 11 22 10 23 9 24 8 25 7 26 6 27 5 28 4 29 3 30 2 31 1 32
REMARK H PARENT
REMARK Flexibility Score: inf
ROOT
ATOM      1  C   UNL     1      18.377  17.153  20.325  1.00  0.00     0.000 C 
ENDROOT
BRANCH   1   2
ATOM      2  C   UNL     1      19.389  18.297  20.507  1.00  0.00     0.000 C 
BRANCH   2   3
ATOM      3  C   UNL     1      19.428  18.831  21.949  1.00  0.00     0.000 C 
BRANCH   3   4
ATOM      4  C   UNL     1      20.839  19.002  22.549  1.00  0.00     0.000 C 
BRANCH   4   5
ATOM      5  C   UNL     1      20.865  19.058  24.091  1.00  0.00     0.000 C 
BRANCH   5   6
ATOM      6  C   UNL     1      20.653  20.484  24.638  1.00  0.00     0.000 C 
BRANCH   6   7
ATOM      7  C   UNL     1      21.865  21.396  24.394  1.00  0.00     0.000 C 
BRANCH   7   8
ATOM      8  C   UNL     1      23.203  20.702  24.702  1.00  0.00     0.000 C 
BRANCH   8   9
ATOM      9  C   UNL     1      24.262  21.065  23.654  1.00  0.00     0.000 C 
BRANCH   9  10
ATOM     10  C   UNL     1      25.115  19.841  23.287  1.00  0.00     0.000 C 
BRANCH  10  11
ATOM     11  C   UNL     1      25.116  19.548  21.777  1.00  0.00     0.000 C 
BRANCH  11  12
ATOM     12  C   UNL     1      23.892  18.729  21.309  1.00  0.00     0.000 C 
BRANCH  12  13
ATOM     13  C   UNL     1      24.245  17.252  21.072  1.00  0.00     0.006 C 
BRANCH  13  14
ATOM     14  C   UNL     1      24.252  16.465  22.389  1.00  0.00     0.053 C 
BRANCH  14  15
ATOM     15  C   UNL     1      25.637  16.380  22.957  1.00  0.00     0.041 C 
ATOM     16  O   UNL     1      26.512  15.663  22.401  1.00  0.00    -0.550 OA
ATOM     17  O   UNL     1      25.958  17.085  24.110  1.00  0.00    -0.550 OA
ENDBRANCH  14  15
ENDBRANCH  13  14
ENDBRANCH  12  13
ENDBRANCH  11  12
ENDBRANCH  10  11
ENDBRANCH   9  10
ENDBRANCH   8   9
ENDBRANCH   7   8
ENDBRANCH   6   7
ENDBRANCH   5   6
ENDBRANCH   4   5
ENDBRANCH   3   4
ENDBRANCH   2   3
ENDBRANCH   1   2
BRANCH   1  18
ATOM     18  C   UNL     1      17.859  17.096  18.879  1.00  0.00     0.000 C 
BRANCH  18  19
ATOM     19  C   UNL     1      16.536  17.857  18.695  1.00  0.00     0.000 C 
BRANCH  19  20
ATOM     20  C   UNL     1      15.344  17.146  19.359  1.00  0.00     0.000 C 
BRANCH  20  21
ATOM     21  C   UNL     1      15.780  16.024  20.321  1.00  0.00     0.000 C 
BRANCH  21  22
ATOM     22  C   UNL     1      15.600  14.595  19.778  1.00  0.00     0.000 C 
BRANCH  22  23
ATOM     23  C   UNL     1      14.817  13.687  20.741  1.00  0.00     0.000 C 
BRANCH  23  24
ATOM     24  C   UNL     1      13.921  12.677  20.004  1.00  0.00    -0.000 C 
BRANCH  24  25
ATOM     25  C   UNL     1      14.724  11.545  19.342  1.00  0.00    -0.000 C 
BRANCH  25  26
ATOM     26  C   UNL     1      15.514  10.746  20.390  1.00  0.00    -0.000 C 
BRANCH  26  27
ATOM     27  C   UNL     1      15.775   9.294  19.958  1.00  0.00    -0.000 C 
BRANCH  27  28
ATOM     28  C   UNL     1      17.068   9.080  19.150  1.00  0.00    -0.000 C 
BRANCH  28  29
ATOM     29  C   UNL     1      18.358   9.255  19.980  1.00  0.00    -0.000 C 
BRANCH  29  30
ATOM     30  C   UNL     1      19.601   9.430  19.089  1.00  0.00    -0.000 C 
BRANCH  30  31
ATOM     31  C   UNL     1      20.620  10.418  19.678  1.00  0.00    -0.003 C 
ATOM     32  C   UNL     1      20.094  11.150  20.913  1.00  0.00     0.004 C 
ENDBRANCH  30  31
ENDBRANCH  29  30
ENDBRANCH  28  29
ENDBRANCH  27  28
ENDBRANCH  26  27
ENDBRANCH  25  26
ENDBRANCH  24  25
ENDBRANCH  23  24
ENDBRANCH  22  23
ENDBRANCH  21  22
ENDBRANCH  20  21
ENDBRANCH  19  20
ENDBRANCH  18  19
ENDBRANCH   1  18
TORSDOF 28
ENDMDL
