MODEL 1
REMARK VINA RESULT:    -4.233      0.000      0.000
REMARK INTER + INTRA:          -7.285
REMARK INTER:                  -6.707
REMARK INTRA:                  -0.578
REMARK UNBOUND:                -0.578
REMARK SMILES CCCCCCCCCCCC(=O)[O-]
REMARK SMILES IDX 7 1 8 2 9 3 10 4 11 5 12 6 13 7 14 8 6 9 5 10 4 11 3 12 2 13
REMARK SMILES IDX 1 14
REMARK H PARENT
REMARK Flexibility Score: inf
ROOT
ATOM      1  C   UNL     1      18.811  27.082  -0.313  1.00  0.00     0.000 C 
ENDROOT
BRANCH   1   2
ATOM      2  C   UNL     1      18.600  27.024   1.210  1.00  0.00     0.000 C 
BRANCH   2   3
ATOM      3  C   UNL     1      18.842  25.625   1.794  1.00  0.00     0.000 C 
BRANCH   3   4
ATOM      4  C   UNL     1      19.295  25.712   3.259  1.00  0.00     0.006 C 
BRANCH   4   5
ATOM      5  C   UNL     1      19.801  24.365   3.791  1.00  0.00     0.053 C 
BRANCH   5   6
ATOM      6  C   UNL     1      21.173  24.046   3.279  1.00  0.00     0.041 C 
ATOM      7  O   UNL     1      22.184  24.272   3.992  1.00  0.00    -0.550 OA
ATOM      8  O   UNL     1      21.330  23.468   2.025  1.00  0.00    -0.550 OA
ENDBRANCH   5   6
ENDBRANCH   4   5
ENDBRANCH   3   4
ENDBRANCH   2   3
ENDBRANCH   1   2
BRANCH   1   9
ATOM      9  C   UNL     1      19.299  25.768  -0.957  1.00  0.00     0.000 C 
BRANCH   9  10
ATOM     10  C   UNL     1      18.218  24.963  -1.700  1.00  0.00    -0.000 C 
BRANCH  10  11
ATOM     11  C   UNL     1      16.870  25.696  -1.772  1.00  0.00    -0.000 C 
BRANCH  11  12
ATOM     12  C   UNL     1      15.735  24.814  -1.232  1.00  0.00    -0.000 C 
BRANCH  12  13
ATOM     13  C   UNL     1      14.503  24.810  -2.149  1.00  0.00    -0.003 C 
ATOM     14  C   UNL     1      14.781  25.437  -3.516  1.00  0.00     0.004 C 
ENDBRANCH  12  13
ENDBRANCH  11  12
ENDBRANCH  10  11
ENDBRANCH   9  10
ENDBRANCH   1   9
TORSDOF 10
ENDMDL
MODEL 2
REMARK VINA RESULT:    -4.121      3.401      6.591
REMARK INTER + INTRA:          -7.108
REMARK INTER:                  -6.928
REMARK INTRA:                  -0.180
REMARK UNBOUND:                -0.578
REMARK SMILES CCCCCCCCCCCC(=O)[O-]
REMARK SMILES IDX 7 1 8 2 9 3 10 4 11 5 12 6 13 7 14 8 6 9 5 10 4 11 3 12 2 13
REMARK SMILES IDX 1 14
REMARK H PARENT
REMARK Flexibility Score: inf
ROOT
ATOM      1  C   UNL     1      18.911  27.115   1.066  1.00  0.00     0.000 C 
ENDROOT
BRANCH   1   2
ATOM      2  C   UNL     1      18.487  26.986  -0.408  1.00  0.00     0.000 C 
BRANCH   2   3
ATOM      3  C   UNL     1      18.862  25.628  -1.020  1.00  0.00     0.000 C 
BRANCH   3   4
ATOM      4  C   UNL     1      17.609  24.864  -1.471  1.00  0.00     0.006 C 
BRANCH   4   5
ATOM      5  C   UNL     1      16.325  25.679  -1.264  1.00  0.00     0.053 C 
BRANCH   5   6
ATOM      6  C   UNL     1      15.191  25.143  -2.083  1.00  0.00     0.041 C 
ATOM      7  O   UNL     1      14.320  24.404  -1.554  1.00  0.00    -0.550 OA
ATOM      8  O   UNL     1      15.078  25.488  -3.424  1.00  0.00    -0.550 OA
ENDBRANCH   5   6
ENDBRANCH   4   5
ENDBRANCH   3   4
ENDBRANCH   2   3
ENDBRANCH   1   2
BRANCH   1   9
ATOM      9  C   UNL     1      18.924  25.794   1.862  1.00  0.00     0.000 C 
BRANCH   9  10
ATOM     10  C   UNL     1      19.279  25.933   3.353  1.00  0.00    -0.000 C 
BRANCH  10  11
ATOM     11  C   UNL     1      19.075  24.630   4.140  1.00  0.00    -0.000 C 
BRANCH  11  12
ATOM     12  C   UNL     1      19.815  23.462   3.471  1.00  0.00    -0.000 C 
BRANCH  12  13
ATOM     13  C   UNL     1      21.145  23.893   2.835  1.00  0.00    -0.003 C 
ATOM     14  C   UNL     1      22.254  24.102   3.867  1.00  0.00     0.004 C 
ENDBRANCH  12  13
ENDBRANCH  11  12
ENDBRANCH  10  11
ENDBRANCH   9  10
ENDBRANCH   1   9
TORSDOF 10
ENDMDL
MODEL 3
REMARK VINA RESULT:    -4.017      3.428      6.441
REMARK INTER + INTRA:          -6.944
REMARK INTER:                  -6.413
REMARK INTRA:                  -0.531
REMARK UNBOUND:                -0.578
REMARK SMILES CCCCCCCCCCCC(=O)[O-]
REMARK SMILES IDX 7 1 8 2 9 3 10 4 11 5 12 6 13 7 14 8 6 9 5 10 4 11 3 12 2 13
REMARK SMILES IDX 1 14
REMARK H PARENT
REMARK Flexibility Score: inf
ROOT
ATOM      1  C   UNL     1      18.861  26.283   1.456  1.00  0.00     0.000 C 
ENDROOT
BRANCH   1   2
ATOM      2  C   UNL     1      18.476  26.769   0.048  1.00  0.00     0.000 C 
BRANCH   2   3
ATOM      3  C   UNL     1      18.924  25.803  -1.060  1.00  0.00     0.000 C 
BRANCH   3   4
ATOM      4  C   UNL     1      17.727  25.029  -1.631  1.00  0.00     0.006 C 
BRANCH   4   5
ATOM      5  C   UNL     1      16.385  25.602  -1.156  1.00  0.00     0.053 C 
BRANCH   5   6
ATOM      6  C   UNL     1      15.246  25.120  -2.003  1.00  0.00     0.041 C 
ATOM      7  O   UNL     1      14.323  24.433  -1.492  1.00  0.00    -0.550 OA
ATOM      8  O   UNL     1      15.189  25.457  -3.349  1.00  0.00    -0.550 OA
ENDBRANCH   5   6
ENDBRANCH   4   5
ENDBRANCH   3   4
ENDBRANCH   2   3
ENDBRANCH   1   2
BRANCH   1   9
ATOM      9  C   UNL     1      19.385  24.834   1.529  1.00  0.00     0.000 C 
BRANCH   9  10
ATOM     10  C   UNL     1      20.336  24.542   2.704  1.00  0.00    -0.000 C 
BRANCH  10  11
ATOM     11  C   UNL     1      19.636  24.603   4.069  1.00  0.00    -0.000 C 
BRANCH  11  12
ATOM     12  C   UNL     1      18.549  23.524   4.179  1.00  0.00    -0.000 C 
BRANCH  12  13
ATOM     13  C   UNL     1      17.757  23.615   5.491  1.00  0.00    -0.003 C 
ATOM     14  C   UNL     1      16.574  22.647   5.538  1.00  0.00     0.004 C 
ENDBRANCH  12  13
ENDBRANCH  11  12
ENDBRANCH  10  11
ENDBRANCH   9  10
ENDBRANCH   1   9
TORSDOF 10
ENDMDL
MODEL 4
REMARK VINA RESULT:    -3.820      3.835      6.482
REMARK INTER + INTRA:          -6.631
REMARK INTER:                  -6.258
REMARK INTRA:                  -0.372
REMARK UNBOUND:                -0.578
REMARK SMILES CCCCCCCCCCCC(=O)[O-]
REMARK SMILES IDX 7 1 8 2 9 3 10 4 11 5 12 6 13 7 14 8 6 9 5 10 4 11 3 12 2 13
REMARK SMILES IDX 1 14
REMARK H PARENT
REMARK Flexibility Score: inf
ROOT
ATOM      1  C   UNL     1      19.230  25.718   2.434  1.00  0.00     0.000 C 
ENDROOT
BRANCH   1   2
ATOM      2  C   UNL     1      18.840  25.491   0.963  1.00  0.00     0.000 C 
BRANCH   2   3
ATOM      3  C   UNL     1      18.444  26.788   0.243  1.00  0.00     0.000 C 
BRANCH   3   4
ATOM      4  C   UNL     1      17.607  26.489  -1.010  1.00  0.00     0.006 C 
BRANCH   4   5
ATOM      5  C   UNL     1      16.899  25.131  -0.923  1.00  0.00     0.053 C 
BRANCH   5   6
ATOM      6  C   UNL     1      15.677  25.087  -1.790  1.00  0.00     0.041 C 
ATOM      7  O   UNL     1      15.697  25.599  -2.940  1.00  0.00    -0.550 OA
ATOM      8  O   UNL     1      14.527  24.452  -1.339  1.00  0.00    -0.550 OA
ENDBRANCH   5   6
ENDBRANCH   4   5
ENDBRANCH   3   4
ENDBRANCH   2   3
ENDBRANCH   1   2
BRANCH   1   9
ATOM      9  C   UNL     1      19.631  24.446   3.209  1.00  0.00     0.000 C 
BRANCH   9  10
ATOM     10  C   UNL     1      18.847  24.198   4.509  1.00  0.00    -0.000 C 
BRANCH  10  11
ATOM     11  C   UNL     1      17.946  22.957   4.438  1.00  0.00    -0.000 C 
BRANCH  11  12
ATOM     12  C   UNL     1      16.852  23.009   5.514  1.00  0.00    -0.000 C 
BRANCH  12  13
ATOM     13  C   UNL     1      15.856  21.845   5.401  1.00  0.00    -0.003 C 
ATOM     14  C   UNL     1      14.402  22.313   5.336  1.00  0.00     0.004 C 
ENDBRANCH  12  13
ENDBRANCH  11  12
ENDBRANCH  10  11
ENDBRANCH   9  10
ENDBRANCH   1   9
TORSDOF 10
ENDMDL
MODEL 5
REMARK VINA RESULT:    -3.634     16.304     17.997
REMARK INTER + INTRA:          -6.337
REMARK INTER:                  -4.783
REMARK INTRA:                  -1.554
REMARK UNBOUND:                -0.578
REMARK SMILES CCCCCCCCCCCC(=O)[O-]
REMARK SMILES IDX 7 1 8 2 9 3 10 4 11 5 12 6 13 7 14 8 6 9 5 10 4 11 3 12 2 13
REMARK SMILES IDX 1 14
REMARK H PARENT
REMARK Flexibility Score: inf
ROOT
ATOM      1  C   UNL     1      26.532  33.740  12.748  1.00  0.00     0.000 C 
ENDROOT
BRANCH   1   2
ATOM      2  C   UNL     1      26.621  33.858  14.280  1.00  0.00     0.000 C 
BRANCH   2   3
ATOM      3  C   UNL     1      25.410  33.243  14.997  1.00  0.00     0.000 C 
BRANCH   3   4
ATOM      4  C   UNL     1      24.335  32.810  13.989  1.00  0.00     0.006 C 
BRANCH   4   5
ATOM      5  C   UNL     1      22.933  32.783  14.611  1.00  0.00     0.053 C 
BRANCH   5   6
ATOM      6  C   UNL     1      21.945  33.550  13.785  1.00  0.00     0.041 C 
ATOM      7  O   UNL     1      20.807  33.821  14.249  1.00  0.00    -0.550 OA
ATOM      8  O   UNL     1      22.296  33.994  12.517  1.00  0.00    -0.550 OA
ENDBRANCH   5   6
ENDBRANCH   4   5
ENDBRANCH   3   4
ENDBRANCH   2   3
ENDBRANCH   1   2
BRANCH   1   9
ATOM      9  C   UNL     1      26.639  35.074  11.981  1.00  0.00     0.000 C 
BRANCH   9  10
ATOM     10  C   UNL     1      25.560  36.115  12.328  1.00  0.00    -0.000 C 
BRANCH  10  11
ATOM     11  C   UNL     1      26.099  37.275  13.179  1.00  0.00    -0.000 C 
BRANCH  11  12
ATOM     12  C   UNL     1      25.183  37.546  14.382  1.00  0.00    -0.000 C 
BRANCH  12  13
ATOM     13  C   UNL     1      23.961  36.616  14.414  1.00  0.00    -0.003 C 
ATOM     14  C   UNL     1      23.466  36.339  15.834  1.00  0.00     0.004 C 
ENDBRANCH  12  13
ENDBRANCH  11  12
ENDBRANCH  10  11
ENDBRANCH   9  10
ENDBRANCH   1   9
TORSDOF 10
ENDMDL
MODEL 6
REMARK VINA RESULT:    -3.608     15.513     17.476
REMARK INTER + INTRA:          -6.296
REMARK INTER:                  -5.052
REMARK INTRA:                  -1.244
REMARK UNBOUND:                -0.578
REMARK SMILES CCCCCCCCCCCC(=O)[O-]
REMARK SMILES IDX 7 1 8 2 9 3 10 4 11 5 12 6 13 7 14 8 6 9 5 10 4 11 3 12 2 13
REMARK SMILES IDX 1 14
REMARK H PARENT
REMARK Flexibility Score: inf
ROOT
ATOM      1  C   UNL     1      24.468  36.039  14.380  1.00  0.00     0.000 C 
ENDROOT
BRANCH   1   2
ATOM      2  C   UNL     1      25.124  35.055  15.364  1.00  0.00     0.000 C 
BRANCH   2   3
ATOM      3  C   UNL     1      24.835  33.586  15.023  1.00  0.00     0.000 C 
BRANCH   3   4
ATOM      4  C   UNL     1      23.383  33.219  15.361  1.00  0.00     0.006 C 
BRANCH   4   5
ATOM      5  C   UNL     1      22.533  32.995  14.104  1.00  0.00     0.053 C 
BRANCH   5   6
ATOM      6  C   UNL     1      21.312  33.864  14.099  1.00  0.00     0.041 C 
ATOM      7  O   UNL     1      20.702  34.106  15.174  1.00  0.00    -0.550 OA
ATOM      8  O   UNL     1      20.867  34.432  12.913  1.00  0.00    -0.550 OA
ENDBRANCH   5   6
ENDBRANCH   4   5
ENDBRANCH   3   4
ENDBRANCH   2   3
ENDBRANCH   1   2
BRANCH   1   9
ATOM      9  C   UNL     1      24.785  35.786  12.892  1.00  0.00     0.000 C 
BRANCH   9  10
ATOM     10  C   UNL     1      25.990  36.566  12.337  1.00  0.00    -0.000 C 
BRANCH  10  11
ATOM     11  C   UNL     1      26.972  35.677  11.560  1.00  0.00    -0.000 C 
BRANCH  11  12
ATOM     12  C   UNL     1      27.078  34.285  12.201  1.00  0.00    -0.000 C 
BRANCH  12  13
ATOM     13  C   UNL     1      26.752  33.155  11.214  1.00  0.00    -0.003 C 
ATOM     14  C   UNL     1      25.478  32.394  11.584  1.00  0.00     0.004 C 
ENDBRANCH  12  13
ENDBRANCH  11  12
ENDBRANCH  10  11
ENDBRANCH   9  10
ENDBRANCH   1   9
TORSDOF 10
ENDMDL
MODEL 7
REMARK VINA RESULT:    -3.591     15.858     17.540
REMARK INTER + INTRA:          -6.269
REMARK INTER:                  -5.208
REMARK INTRA:                  -1.061
REMARK UNBOUND:                -0.578
REMARK SMILES CCCCCCCCCCCC(=O)[O-]
REMARK SMILES IDX 7 1 8 2 9 3 10 4 11 5 12 6 13 7 14 8 6 9 5 10 4 11 3 12 2 13
REMARK SMILES IDX 1 14
REMARK H PARENT
REMARK Flexibility Score: inf
ROOT
ATOM      1  C   UNL     1      24.964  33.453  12.831  1.00  0.00     0.000 C 
ENDROOT
BRANCH   1   2
ATOM      2  C   UNL     1      26.357  33.594  12.193  1.00  0.00     0.000 C 
BRANCH   2   3
ATOM      3  C   UNL     1      26.772  35.058  11.984  1.00  0.00     0.000 C 
BRANCH   3   4
ATOM      4  C   UNL     1      25.594  36.007  12.251  1.00  0.00     0.006 C 
BRANCH   4   5
ATOM      5  C   UNL     1      25.899  37.010  13.371  1.00  0.00     0.053 C 
BRANCH   5   6
ATOM      6  C   UNL     1      25.023  36.789  14.566  1.00  0.00     0.041 C 
ATOM      7  O   UNL     1      25.532  36.640  15.707  1.00  0.00    -0.550 OA
ATOM      8  O   UNL     1      23.641  36.781  14.423  1.00  0.00    -0.550 OA
ENDBRANCH   5   6
ENDBRANCH   4   5
ENDBRANCH   3   4
ENDBRANCH   2   3
ENDBRANCH   1   2
BRANCH   1   9
ATOM      9  C   UNL     1      24.963  33.177  14.349  1.00  0.00     0.000 C 
BRANCH   9  10
ATOM     10  C   UNL     1      23.570  33.082  14.995  1.00  0.00    -0.000 C 
BRANCH  10  11
ATOM     11  C   UNL     1      22.460  32.769  13.981  1.00  0.00    -0.000 C 
BRANCH  11  12
ATOM     12  C   UNL     1      21.176  33.542  14.316  1.00  0.00    -0.000 C 
BRANCH  12  13
ATOM     13  C   UNL     1      20.960  34.753  13.395  1.00  0.00    -0.003 C 
ATOM     14  C   UNL     1      21.395  34.486  11.954  1.00  0.00     0.004 C 
ENDBRANCH  12  13
ENDBRANCH  11  12
ENDBRANCH  10  11
ENDBRANCH   9  10
ENDBRANCH   1   9
TORSDOF 10
ENDMDL
MODEL 8
REMARK VINA RESULT:    -3.501     15.527     17.589
REMARK INTER + INTRA:          -6.126
REMARK INTER:                  -4.848
REMARK INTRA:                  -1.278
REMARK UNBOUND:                -0.578
REMARK SMILES CCCCCCCCCCCC(=O)[O-]
REMARK SMILES IDX 7 1 8 2 9 3 10 4 11 5 12 6 13 7 14 8 6 9 5 10 4 11 3 12 2 13
REMARK SMILES IDX 1 14
REMARK H PARENT
REMARK Flexibility Score: inf
ROOT
ATOM      1  C   UNL     1      23.320  36.610  14.854  1.00  0.00     0.000 C 
ENDROOT
BRANCH   1   2
ATOM      2  C   UNL     1      24.587  37.475  14.726  1.00  0.00     0.000 C 
BRANCH   2   3
ATOM      3  C   UNL     1      25.645  36.852  13.803  1.00  0.00     0.000 C 
BRANCH   3   4
ATOM      4  C   UNL     1      25.035  35.736  12.943  1.00  0.00     0.006 C 
BRANCH   4   5
ATOM      5  C   UNL     1      25.853  34.439  13.010  1.00  0.00     0.053 C 
BRANCH   5   6
ATOM      6  C   UNL     1      26.532  34.144  11.708  1.00  0.00     0.041 C 
ATOM      7  O   UNL     1      27.125  35.060  11.080  1.00  0.00    -0.550 OA
ATOM      8  O   UNL     1      26.539  32.850  11.204  1.00  0.00    -0.550 OA
ENDBRANCH   5   6
ENDBRANCH   4   5
ENDBRANCH   3   4
ENDBRANCH   2   3
ENDBRANCH   1   2
BRANCH   1   9
ATOM      9  C   UNL     1      23.300  35.654  16.064  1.00  0.00     0.000 C 
BRANCH   9  10
ATOM     10  C   UNL     1      22.230  34.549  16.006  1.00  0.00    -0.000 C 
BRANCH  10  11
ATOM     11  C   UNL     1      22.754  33.241  15.395  1.00  0.00    -0.000 C 
BRANCH  11  12
ATOM     12  C   UNL     1      22.414  33.158  13.899  1.00  0.00    -0.000 C 
BRANCH  12  13
ATOM     13  C   UNL     1      21.135  33.930  13.542  1.00  0.00    -0.003 C 
ATOM     14  C   UNL     1      21.256  34.701  12.227  1.00  0.00     0.004 C 
ENDBRANCH  12  13
ENDBRANCH  11  12
ENDBRANCH  10  11
ENDBRANCH   9  10
ENDBRANCH   1   9
TORSDOF 10
ENDMDL
MODEL 9
REMARK VINA RESULT:    -3.426     16.186     18.516
REMARK INTER + INTRA:          -6.007
REMARK INTER:                  -4.575
REMARK INTRA:                  -1.433
REMARK UNBOUND:                -0.578
REMARK SMILES CCCCCCCCCCCC(=O)[O-]
REMARK SMILES IDX 7 1 8 2 9 3 10 4 11 5 12 6 13 7 14 8 6 9 5 10 4 11 3 12 2 13
REMARK SMILES IDX 1 14
REMARK H PARENT
REMARK Flexibility Score: inf
ROOT
ATOM      1  C   UNL     1      26.018  35.755  12.046  1.00  0.00     0.000 C 
ENDROOT
BRANCH   1   2
ATOM      2  C   UNL     1      26.598  34.329  12.078  1.00  0.00     0.000 C 
BRANCH   2   3
ATOM      3  C   UNL     1      25.562  33.273  12.489  1.00  0.00     0.000 C 
BRANCH   3   4
ATOM      4  C   UNL     1      24.320  33.931  13.107  1.00  0.00     0.006 C 
BRANCH   4   5
ATOM      5  C   UNL     1      23.189  32.924  13.350  1.00  0.00     0.053 C 
BRANCH   5   6
ATOM      6  C   UNL     1      22.344  33.312  14.525  1.00  0.00     0.041 C 
ATOM      7  O   UNL     1      22.020  32.451  15.385  1.00  0.00    -0.550 OA
ATOM      8  O   UNL     1      21.943  34.632  14.688  1.00  0.00    -0.550 OA
ENDBRANCH   5   6
ENDBRANCH   4   5
ENDBRANCH   3   4
ENDBRANCH   2   3
ENDBRANCH   1   2
BRANCH   1   9
ATOM      9  C   UNL     1      27.009  36.873  12.429  1.00  0.00     0.000 C 
BRANCH   9  10
ATOM     10  C   UNL     1      27.025  37.249  13.921  1.00  0.00    -0.000 C 
BRANCH  10  11
ATOM     11  C   UNL     1      25.698  36.941  14.630  1.00  0.00    -0.000 C 
BRANCH  11  12
ATOM     12  C   UNL     1      25.928  36.059  15.866  1.00  0.00    -0.000 C 
BRANCH  12  13
ATOM     13  C   UNL     1      27.125  35.111  15.701  1.00  0.00    -0.003 C 
ATOM     14  C   UNL     1      26.761  33.647  15.954  1.00  0.00     0.004 C 
ENDBRANCH  12  13
ENDBRANCH  11  12
ENDBRANCH  10  11
ENDBRANCH   9  10
ENDBRANCH   1   9
TORSDOF 10
ENDMDL
