MODEL 1
REMARK VINA RESULT:    -7.359      0.000      0.000
REMARK INTER + INTRA:          -9.141
REMARK INTER:                  -8.865
REMARK INTRA:                  -0.277
REMARK UNBOUND:                -0.277
REMARK SMILES Oc1cc(O)c2cc(O)c(-c3ccc(O)c(O)c3)[o+]c2c1
REMARK SMILES IDX 10 1 19 2 20 3 21 4 2 5 3 6 4 7 6 8 7 9 8 10 11 11 12 12
REMARK SMILES IDX 13 13 14 14 18 15 16 16 15 17 17 19 9 21 1 23 5 25
REMARK H PARENT 15 18 17 20 9 22 1 24 5 26
REMARK Flexibility Score: inf
ROOT
ATOM      1  C   UNL     1       4.944 -35.981  43.719  1.00  0.00     0.402 A 
ATOM      2  O   UNL     1       5.086 -34.725  44.136  1.00  0.00    -0.202 OA
ATOM      3  C   UNL     1       6.197 -34.265  44.701  1.00  0.00     0.368 A 
ATOM      4  C   UNL     1       6.250 -32.930  45.109  1.00  0.00     0.162 A 
ATOM      5  C   UNL     1       7.402 -32.420  45.708  1.00  0.00     0.128 A 
ATOM      6  C   UNL     1       8.511 -33.250  45.903  1.00  0.00     0.093 A 
ATOM      7  C   UNL     1       8.484 -34.592  45.503  1.00  0.00     0.136 A 
ATOM      8  C   UNL     1       7.315 -35.113  44.891  1.00  0.00     0.125 A 
ATOM      9  C   UNL     1       7.202 -36.441  44.447  1.00  0.00     0.078 A 
ATOM     10  C   UNL     1       6.018 -36.882  43.848  1.00  0.00     0.223 A 
ENDROOT
BRANCH   1  11
ATOM     11  C   UNL     1       3.652 -36.375  43.114  1.00  0.00     0.087 A 
ATOM     12  C   UNL     1       3.525 -36.586  41.729  1.00  0.00     0.022 A 
ATOM     13  C   UNL     1       2.301 -36.980  41.183  1.00  0.00     0.051 A 
ATOM     14  C   UNL     1       1.189 -37.181  42.012  1.00  0.00     0.157 A 
ATOM     15  C   UNL     1       2.540 -36.598  43.942  1.00  0.00     0.068 A 
ATOM     16  C   UNL     1       1.311 -36.992  43.399  1.00  0.00     0.158 A 
BRANCH  14  17
ATOM     17  O   UNL     1      -0.031 -37.573  41.465  1.00  0.00    -0.504 OA
ATOM     18  H   UNL     1      -0.226 -38.543  41.241  1.00  0.00     0.293 HD
ENDBRANCH  14  17
BRANCH  16  19
ATOM     19  O   UNL     1       0.227 -37.192  44.251  1.00  0.00    -0.504 OA
ATOM     20  H   UNL     1      -0.666 -36.737  44.103  1.00  0.00     0.293 HD
ENDBRANCH  16  19
ENDBRANCH   1  11
BRANCH  10  21
ATOM     21  O   UNL     1       5.922 -38.185  43.362  1.00  0.00    -0.500 OA
ATOM     22  H   UNL     1       5.040 -38.574  43.049  1.00  0.00     0.294 HD
ENDBRANCH  10  21
BRANCH   5  23
ATOM     23  O   UNL     1       7.435 -31.086  46.108  1.00  0.00    -0.507 OA
ATOM     24  H   UNL     1       6.626 -30.636  46.518  1.00  0.00     0.293 HD
ENDBRANCH   5  23
BRANCH   7  25
ATOM     25  O   UNL     1       9.631 -35.357  45.735  1.00  0.00    -0.507 OA
ATOM     26  H   UNL     1       9.691 -36.355  45.592  1.00  0.00     0.293 HD
ENDBRANCH   7  25
TORSDOF 6
ENDMDL
MODEL 2
REMARK VINA RESULT:    -7.355      1.764      7.368
REMARK INTER + INTRA:          -9.136
REMARK INTER:                  -8.787
REMARK INTRA:                  -0.349
REMARK UNBOUND:                -0.277
REMARK SMILES Oc1cc(O)c2cc(O)c(-c3ccc(O)c(O)c3)[o+]c2c1
REMARK SMILES IDX 10 1 19 2 20 3 21 4 2 5 3 6 4 7 6 8 7 9 8 10 11 11 12 12
REMARK SMILES IDX 13 13 14 14 18 15 16 16 15 17 17 19 9 21 1 23 5 25
REMARK H PARENT 15 18 17 20 9 22 1 24 5 26
REMARK Flexibility Score: inf
ROOT
ATOM      1  C   UNL     1       3.459 -36.463  43.374  1.00  0.00     0.402 A 
ATOM      2  O   UNL     1       3.321 -36.484  42.051  1.00  0.00    -0.202 OA
ATOM      3  C   UNL     1       2.192 -36.829  41.440  1.00  0.00     0.368 A 
ATOM      4  C   UNL     1       2.146 -36.822  40.043  1.00  0.00     0.162 A 
ATOM      5  C   UNL     1       0.975 -37.182  39.375  1.00  0.00     0.128 A 
ATOM      6  C   UNL     1      -0.158 -37.553  40.106  1.00  0.00     0.093 A 
ATOM      7  C   UNL     1      -0.138 -37.568  41.506  1.00  0.00     0.136 A 
ATOM      8  C   UNL     1       1.050 -37.200  42.189  1.00  0.00     0.125 A 
ATOM      9  C   UNL     1       1.159 -37.172  43.589  1.00  0.00     0.078 A 
ATOM     10  C   UNL     1       2.362 -36.794  44.192  1.00  0.00     0.223 A 
ENDROOT
BRANCH   1  11
ATOM     11  C   UNL     1       4.771 -36.071  43.934  1.00  0.00     0.087 A 
ATOM     12  C   UNL     1       5.063 -34.732  44.250  1.00  0.00     0.022 A 
ATOM     13  C   UNL     1       6.301 -34.388  44.799  1.00  0.00     0.051 A 
ATOM     14  C   UNL     1       7.260 -35.377  45.054  1.00  0.00     0.157 A 
ATOM     15  C   UNL     1       5.729 -37.060  44.211  1.00  0.00     0.068 A 
ATOM     16  C   UNL     1       6.970 -36.720  44.761  1.00  0.00     0.158 A 
BRANCH  14  17
ATOM     17  O   UNL     1       8.494 -35.031  45.601  1.00  0.00    -0.504 OA
ATOM     18  H   UNL     1       8.586 -34.751  46.571  1.00  0.00     0.293 HD
ENDBRANCH  14  17
BRANCH  16  19
ATOM     19  O   UNL     1       7.900 -37.729  45.010  1.00  0.00    -0.504 OA
ATOM     20  H   UNL     1       8.645 -37.619  45.687  1.00  0.00     0.293 HD
ENDBRANCH  16  19
ENDBRANCH   1  11
BRANCH  10  21
ATOM     21  O   UNL     1       2.456 -36.719  45.582  1.00  0.00    -0.500 OA
ATOM     22  H   UNL     1       2.279 -37.524  46.172  1.00  0.00     0.294 HD
ENDBRANCH  10  21
BRANCH   5  23
ATOM     23  O   UNL     1       0.949 -37.169  37.982  1.00  0.00    -0.507 OA
ATOM     24  H   UNL     1       0.654 -36.349  37.465  1.00  0.00     0.293 HD
ENDBRANCH   5  23
BRANCH   7  25
ATOM     25  O   UNL     1      -1.310 -37.953  42.164  1.00  0.00    -0.507 OA
ATOM     26  H   UNL     1      -1.751 -37.424  42.902  1.00  0.00     0.293 HD
ENDBRANCH   7  25
TORSDOF 6
ENDMDL
MODEL 3
REMARK VINA RESULT:    -7.194      2.103      6.914
REMARK INTER + INTRA:          -8.942
REMARK INTER:                  -8.754
REMARK INTRA:                  -0.188
REMARK UNBOUND:                -0.277
REMARK SMILES Oc1cc(O)c2cc(O)c(-c3ccc(O)c(O)c3)[o+]c2c1
REMARK SMILES IDX 10 1 19 2 20 3 21 4 2 5 3 6 4 7 6 8 7 9 8 10 11 11 12 12
REMARK SMILES IDX 13 13 14 14 18 15 16 16 15 17 17 19 9 21 1 23 5 25
REMARK H PARENT 15 18 17 20 9 22 1 24 5 26
REMARK Flexibility Score: inf
ROOT
ATOM      1  C   UNL     1       7.450 -33.980  44.911  1.00  0.00     0.402 A 
ATOM      2  O   UNL     1       6.125 -34.103  44.887  1.00  0.00    -0.202 OA
ATOM      3  C   UNL     1       5.501 -35.276  44.905  1.00  0.00     0.368 A 
ATOM      4  C   UNL     1       4.104 -35.303  44.873  1.00  0.00     0.162 A 
ATOM      5  C   UNL     1       3.422 -36.520  44.889  1.00  0.00     0.128 A 
ATOM      6  C   UNL     1       4.139 -37.720  44.934  1.00  0.00     0.093 A 
ATOM      7  C   UNL     1       5.539 -37.721  44.966  1.00  0.00     0.136 A 
ATOM      8  C   UNL     1       6.237 -36.485  44.953  1.00  0.00     0.125 A 
ATOM      9  C   UNL     1       7.637 -36.388  44.997  1.00  0.00     0.078 A 
ATOM     10  C   UNL     1       8.254 -35.133  44.986  1.00  0.00     0.223 A 
ENDROOT
BRANCH   1  11
ATOM     11  C   UNL     1       8.027 -32.618  44.877  1.00  0.00     0.087 A 
ATOM     12  C   UNL     1       8.886 -32.211  43.840  1.00  0.00     0.022 A 
ATOM     13  C   UNL     1       9.400 -30.912  43.816  1.00  0.00     0.051 A 
ATOM     14  C   UNL     1       9.055 -29.997  44.819  1.00  0.00     0.157 A 
ATOM     15  C   UNL     1       7.668 -31.690  45.868  1.00  0.00     0.068 A 
ATOM     16  C   UNL     1       8.182 -30.387  45.848  1.00  0.00     0.158 A 
BRANCH  14  17
ATOM     17  O   UNL     1       9.570 -28.702  44.794  1.00  0.00    -0.504 OA
ATOM     18  H   UNL     1      10.232 -28.408  44.084  1.00  0.00     0.293 HD
ENDBRANCH  14  17
BRANCH  16  19
ATOM     19  O   UNL     1       7.812 -29.498  46.856  1.00  0.00    -0.504 OA
ATOM     20  H   UNL     1       8.039 -29.663  47.829  1.00  0.00     0.293 HD
ENDBRANCH  16  19
ENDBRANCH   1  11
BRANCH  10  21
ATOM     21  O   UNL     1       9.642 -35.035  45.079  1.00  0.00    -0.500 OA
ATOM     22  H   UNL     1      10.244 -35.836  44.925  1.00  0.00     0.294 HD
ENDBRANCH  10  21
BRANCH   5  23
ATOM     23  O   UNL     1       2.029 -36.526  44.857  1.00  0.00    -0.507 OA
ATOM     24  H   UNL     1       1.511 -37.310  44.477  1.00  0.00     0.293 HD
ENDBRANCH   5  23
BRANCH   7  25
ATOM     25  O   UNL     1       6.183 -38.961  45.007  1.00  0.00    -0.507 OA
ATOM     26  H   UNL     1       6.098 -39.624  45.764  1.00  0.00     0.293 HD
ENDBRANCH   7  25
TORSDOF 6
ENDMDL
MODEL 4
REMARK VINA RESULT:    -6.551      2.247      6.807
REMARK INTER + INTRA:          -8.168
REMARK INTER:                  -7.819
REMARK INTRA:                  -0.349
REMARK UNBOUND:                -0.277
REMARK SMILES Oc1cc(O)c2cc(O)c(-c3ccc(O)c(O)c3)[o+]c2c1
REMARK SMILES IDX 10 1 19 2 20 3 21 4 2 5 3 6 4 7 6 8 7 9 8 10 11 11 12 12
REMARK SMILES IDX 13 13 14 14 18 15 16 16 15 17 17 19 9 21 1 23 5 25
REMARK H PARENT 15 18 17 20 9 22 1 24 5 26
REMARK Flexibility Score: inf
ROOT
ATOM      1  C   UNL     1       6.218 -34.997  43.755  1.00  0.00     0.402 A 
ATOM      2  O   UNL     1       6.451 -36.122  44.427  1.00  0.00    -0.202 OA
ATOM      3  C   UNL     1       5.798 -37.256  44.198  1.00  0.00     0.368 A 
ATOM      4  C   UNL     1       6.112 -38.386  44.958  1.00  0.00     0.162 A 
ATOM      5  C   UNL     1       5.441 -39.590  44.742  1.00  0.00     0.128 A 
ATOM      6  C   UNL     1       4.448 -39.668  43.759  1.00  0.00     0.093 A 
ATOM      7  C   UNL     1       4.115 -38.550  42.984  1.00  0.00     0.136 A 
ATOM      8  C   UNL     1       4.797 -37.324  43.200  1.00  0.00     0.125 A 
ATOM      9  C   UNL     1       4.539 -36.158  42.462  1.00  0.00     0.078 A 
ATOM     10  C   UNL     1       5.256 -34.987  42.728  1.00  0.00     0.223 A 
ENDROOT
BRANCH   1  11
ATOM     11  C   UNL     1       7.005 -33.795  44.110  1.00  0.00     0.087 A 
ATOM     12  C   UNL     1       8.217 -33.494  43.464  1.00  0.00     0.022 A 
ATOM     13  C   UNL     1       8.932 -32.341  43.800  1.00  0.00     0.051 A 
ATOM     14  C   UNL     1       8.440 -31.465  44.777  1.00  0.00     0.157 A 
ATOM     15  C   UNL     1       6.508 -32.903  45.074  1.00  0.00     0.068 A 
ATOM     16  C   UNL     1       7.221 -31.746  45.414  1.00  0.00     0.158 A 
BRANCH  14  17
ATOM     17  O   UNL     1       9.156 -30.317  45.111  1.00  0.00    -0.504 OA
ATOM     18  H   UNL     1       8.715 -29.535  45.583  1.00  0.00     0.293 HD
ENDBRANCH  14  17
BRANCH  16  19
ATOM     19  O   UNL     1       6.701 -30.891  46.385  1.00  0.00    -0.504 OA
ATOM     20  H   UNL     1       7.043 -30.887  47.337  1.00  0.00     0.293 HD
ENDBRANCH  16  19
ENDBRANCH   1  11
BRANCH  10  21
ATOM     21  O   UNL     1       5.035 -33.842  41.963  1.00  0.00    -0.500 OA
ATOM     22  H   UNL     1       5.687 -33.066  41.966  1.00  0.00     0.294 HD
ENDBRANCH  10  21
BRANCH   5  23
ATOM     23  O   UNL     1       5.768 -40.706  45.510  1.00  0.00    -0.507 OA
ATOM     24  H   UNL     1       6.347 -41.452  45.142  1.00  0.00     0.293 HD
ENDBRANCH   5  23
BRANCH   7  25
ATOM     25  O   UNL     1       3.110 -38.707  42.025  1.00  0.00    -0.507 OA
ATOM     26  H   UNL     1       2.766 -39.598  41.699  1.00  0.00     0.293 HD
ENDBRANCH   7  25
TORSDOF 6
ENDMDL
MODEL 5
REMARK VINA RESULT:    -6.534      2.826      3.848
REMARK INTER + INTRA:          -8.148
REMARK INTER:                  -8.135
REMARK INTRA:                  -0.013
REMARK UNBOUND:                -0.277
REMARK SMILES Oc1cc(O)c2cc(O)c(-c3ccc(O)c(O)c3)[o+]c2c1
REMARK SMILES IDX 10 1 19 2 20 3 21 4 2 5 3 6 4 7 6 8 7 9 8 10 11 11 12 12
REMARK SMILES IDX 13 13 14 14 18 15 16 16 15 17 17 19 9 21 1 23 5 25
REMARK H PARENT 15 18 17 20 9 22 1 24 5 26
REMARK Flexibility Score: inf
ROOT
ATOM      1  C   UNL     1       7.218 -34.565  44.286  1.00  0.00     0.402 A 
ATOM      2  O   UNL     1       7.095 -33.568  45.158  1.00  0.00    -0.202 OA
ATOM      3  C   UNL     1       7.695 -32.392  45.011  1.00  0.00     0.368 A 
ATOM      4  C   UNL     1       7.507 -31.406  45.984  1.00  0.00     0.162 A 
ATOM      5  C   UNL     1       8.126 -30.163  45.857  1.00  0.00     0.128 A 
ATOM      6  C   UNL     1       8.941 -29.900  44.751  1.00  0.00     0.093 A 
ATOM      7  C   UNL     1       9.146 -30.870  43.762  1.00  0.00     0.136 A 
ATOM      8  C   UNL     1       8.515 -32.135  43.886  1.00  0.00     0.125 A 
ATOM      9  C   UNL     1       8.652 -33.162  42.938  1.00  0.00     0.078 A 
ATOM     10  C   UNL     1       7.995 -34.383  43.126  1.00  0.00     0.223 A 
ENDROOT
BRANCH   1  11
ATOM     11  C   UNL     1       6.507 -35.833  44.567  1.00  0.00     0.087 A 
ATOM     12  C   UNL     1       7.144 -37.078  44.423  1.00  0.00     0.022 A 
ATOM     13  C   UNL     1       6.460 -38.261  44.716  1.00  0.00     0.051 A 
ATOM     14  C   UNL     1       5.136 -38.217  45.170  1.00  0.00     0.157 A 
ATOM     15  C   UNL     1       5.186 -35.794  45.042  1.00  0.00     0.068 A 
ATOM     16  C   UNL     1       4.497 -36.977  45.337  1.00  0.00     0.158 A 
BRANCH  14  17
ATOM     17  O   UNL     1       4.455 -39.398  45.461  1.00  0.00    -0.504 OA
ATOM     18  H   UNL     1       4.804 -40.300  45.156  1.00  0.00     0.293 HD
ENDBRANCH  14  17
BRANCH  16  19
ATOM     19  O   UNL     1       3.183 -36.899  45.794  1.00  0.00    -0.504 OA
ATOM     20  H   UNL     1       2.957 -36.858  46.780  1.00  0.00     0.293 HD
ENDBRANCH  16  19
ENDBRANCH   1  11
BRANCH  10  21
ATOM     21  O   UNL     1       8.091 -35.385  42.161  1.00  0.00    -0.500 OA
ATOM     22  H   UNL     1       8.987 -35.731  41.840  1.00  0.00     0.294 HD
ENDBRANCH  10  21
BRANCH   5  23
ATOM     23  O   UNL     1       7.927 -29.193  46.838  1.00  0.00    -0.507 OA
ATOM     24  H   UNL     1       7.236 -28.461  46.726  1.00  0.00     0.293 HD
ENDBRANCH   5  23
BRANCH   7  25
ATOM     25  O   UNL     1       9.976 -30.532  42.689  1.00  0.00    -0.507 OA
ATOM     26  H   UNL     1      10.536 -29.693  42.643  1.00  0.00     0.293 HD
ENDBRANCH   7  25
TORSDOF 6
ENDMDL
MODEL 6
REMARK VINA RESULT:    -6.494      1.539      6.621
REMARK INTER + INTRA:          -8.099
REMARK INTER:                  -7.873
REMARK INTRA:                  -0.226
REMARK UNBOUND:                -0.277
REMARK SMILES Oc1cc(O)c2cc(O)c(-c3ccc(O)c(O)c3)[o+]c2c1
REMARK SMILES IDX 10 1 19 2 20 3 21 4 2 5 3 6 4 7 6 8 7 9 8 10 11 11 12 12
REMARK SMILES IDX 13 13 14 14 18 15 16 16 15 17 17 19 9 21 1 23 5 25
REMARK H PARENT 15 18 17 20 9 22 1 24 5 26
REMARK Flexibility Score: inf
ROOT
ATOM      1  C   UNL     1       6.268 -35.445  44.198  1.00  0.00     0.402 A 
ATOM      2  O   UNL     1       5.026 -35.386  43.725  1.00  0.00    -0.202 OA
ATOM      3  C   UNL     1       4.276 -36.462  43.509  1.00  0.00     0.368 A 
ATOM      4  C   UNL     1       2.982 -36.299  43.007  1.00  0.00     0.162 A 
ATOM      5  C   UNL     1       2.173 -37.410  42.768  1.00  0.00     0.128 A 
ATOM      6  C   UNL     1       2.660 -38.695  43.030  1.00  0.00     0.093 A 
ATOM      7  C   UNL     1       3.953 -38.886  43.532  1.00  0.00     0.136 A 
ATOM      8  C   UNL     1       4.778 -37.758  43.779  1.00  0.00     0.125 A 
ATOM      9  C   UNL     1       6.080 -37.852  44.295  1.00  0.00     0.078 A 
ATOM     10  C   UNL     1       6.833 -36.695  44.517  1.00  0.00     0.223 A 
ENDROOT
BRANCH   1  11
ATOM     11  C   UNL     1       7.006 -34.175  44.386  1.00  0.00     0.087 A 
ATOM     12  C   UNL     1       8.169 -33.887  43.650  1.00  0.00     0.022 A 
ATOM     13  C   UNL     1       8.836 -32.672  43.828  1.00  0.00     0.051 A 
ATOM     14  C   UNL     1       8.345 -31.723  44.733  1.00  0.00     0.157 A 
ATOM     15  C   UNL     1       6.507 -33.212  45.277  1.00  0.00     0.068 A 
ATOM     16  C   UNL     1       7.173 -31.993  45.459  1.00  0.00     0.158 A 
BRANCH  14  17
ATOM     17  O   UNL     1       9.013 -30.512  44.910  1.00  0.00    -0.504 OA
ATOM     18  H   UNL     1       9.987 -30.401  44.653  1.00  0.00     0.293 HD
ENDBRANCH  14  17
BRANCH  16  19
ATOM     19  O   UNL     1       6.654 -31.066  46.362  1.00  0.00    -0.504 OA
ATOM     20  H   UNL     1       6.267 -30.180  46.061  1.00  0.00     0.293 HD
ENDBRANCH  16  19
ENDBRANCH   1  11
BRANCH  10  21
ATOM     21  O   UNL     1       8.108 -36.784  45.075  1.00  0.00    -0.500 OA
ATOM     22  H   UNL     1       8.641 -35.958  45.320  1.00  0.00     0.294 HD
ENDBRANCH  10  21
BRANCH   5  23
ATOM     23  O   UNL     1       0.886 -37.226  42.268  1.00  0.00    -0.507 OA
ATOM     24  H   UNL     1       0.505 -37.832  41.550  1.00  0.00     0.293 HD
ENDBRANCH   5  23
BRANCH   7  25
ATOM     25  O   UNL     1       4.366 -40.201  43.765  1.00  0.00    -0.507 OA
ATOM     26  H   UNL     1       4.628 -40.854  43.041  1.00  0.00     0.293 HD
ENDBRANCH   7  25
TORSDOF 6
ENDMDL
MODEL 7
REMARK VINA RESULT:    -6.475      1.488      7.055
REMARK INTER + INTRA:          -8.076
REMARK INTER:                  -7.745
REMARK INTRA:                  -0.331
REMARK UNBOUND:                -0.277
REMARK SMILES Oc1cc(O)c2cc(O)c(-c3ccc(O)c(O)c3)[o+]c2c1
REMARK SMILES IDX 10 1 19 2 20 3 21 4 2 5 3 6 4 7 6 8 7 9 8 10 11 11 12 12
REMARK SMILES IDX 13 13 14 14 18 15 16 16 15 17 17 19 9 21 1 23 5 25
REMARK H PARENT 15 18 17 20 9 22 1 24 5 26
REMARK Flexibility Score: inf
ROOT
ATOM      1  C   UNL     1       4.809 -35.541  43.050  1.00  0.00     0.402 A 
ATOM      2  O   UNL     1       3.764 -36.188  43.559  1.00  0.00    -0.202 OA
ATOM      3  C   UNL     1       2.776 -36.676  42.816  1.00  0.00     0.368 A 
ATOM      4  C   UNL     1       1.717 -37.339  43.443  1.00  0.00     0.162 A 
ATOM      5  C   UNL     1       0.665 -37.859  42.688  1.00  0.00     0.128 A 
ATOM      6  C   UNL     1       0.668 -37.715  41.297  1.00  0.00     0.093 A 
ATOM      7  C   UNL     1       1.716 -37.055  40.645  1.00  0.00     0.136 A 
ATOM      8  C   UNL     1       2.790 -36.527  41.408  1.00  0.00     0.125 A 
ATOM      9  C   UNL     1       3.889 -35.863  40.839  1.00  0.00     0.078 A 
ATOM     10  C   UNL     1       4.912 -35.373  41.656  1.00  0.00     0.223 A 
ENDROOT
BRANCH   1  11
ATOM     11  C   UNL     1       5.841 -35.036  43.984  1.00  0.00     0.087 A 
ATOM     12  C   UNL     1       7.024 -35.755  44.229  1.00  0.00     0.022 A 
ATOM     13  C   UNL     1       7.994 -35.247  45.097  1.00  0.00     0.051 A 
ATOM     14  C   UNL     1       7.803 -34.008  45.723  1.00  0.00     0.157 A 
ATOM     15  C   UNL     1       5.664 -33.785  44.599  1.00  0.00     0.068 A 
ATOM     16  C   UNL     1       6.633 -33.273  45.469  1.00  0.00     0.158 A 
BRANCH  14  17
ATOM     17  O   UNL     1       8.771 -33.505  46.589  1.00  0.00    -0.504 OA
ATOM     18  H   UNL     1       8.600 -33.420  47.585  1.00  0.00     0.293 HD
ENDBRANCH  14  17
BRANCH  16  19
ATOM     19  O   UNL     1       6.416 -32.034  46.071  1.00  0.00    -0.504 OA
ATOM     20  H   UNL     1       6.475 -31.905  47.073  1.00  0.00     0.293 HD
ENDBRANCH  16  19
ENDBRANCH   1  11
BRANCH  10  21
ATOM     21  O   UNL     1       6.027 -34.757  41.089  1.00  0.00    -0.500 OA
ATOM     22  H   UNL     1       6.148 -34.695  40.084  1.00  0.00     0.294 HD
ENDBRANCH  10  21
BRANCH   5  23
ATOM     23  O   UNL     1      -0.381 -38.517  43.332  1.00  0.00    -0.507 OA
ATOM     24  H   UNL     1      -1.168 -38.892  42.816  1.00  0.00     0.293 HD
ENDBRANCH   5  23
BRANCH   7  25
ATOM     25  O   UNL     1       1.645 -36.950  39.252  1.00  0.00    -0.507 OA
ATOM     26  H   UNL     1       0.960 -36.399  38.756  1.00  0.00     0.293 HD
ENDBRANCH   7  25
TORSDOF 6
ENDMDL
MODEL 8
REMARK VINA RESULT:    -6.474      1.690      2.430
REMARK INTER + INTRA:          -8.075
REMARK INTER:                  -7.779
REMARK INTRA:                  -0.297
REMARK UNBOUND:                -0.277
REMARK SMILES Oc1cc(O)c2cc(O)c(-c3ccc(O)c(O)c3)[o+]c2c1
REMARK SMILES IDX 10 1 19 2 20 3 21 4 2 5 3 6 4 7 6 8 7 9 8 10 11 11 12 12
REMARK SMILES IDX 13 13 14 14 18 15 16 16 15 17 17 19 9 21 1 23 5 25
REMARK H PARENT 15 18 17 20 9 22 1 24 5 26
REMARK Flexibility Score: inf
ROOT
ATOM      1  C   UNL     1       3.891 -37.369  43.422  1.00  0.00     0.402 A 
ATOM      2  O   UNL     1       4.444 -36.167  43.561  1.00  0.00    -0.202 OA
ATOM      3  C   UNL     1       5.665 -35.978  44.051  1.00  0.00     0.368 A 
ATOM      4  C   UNL     1       6.159 -34.676  44.162  1.00  0.00     0.162 A 
ATOM      5  C   UNL     1       7.437 -34.447  44.674  1.00  0.00     0.128 A 
ATOM      6  C   UNL     1       8.228 -35.527  45.080  1.00  0.00     0.093 A 
ATOM      7  C   UNL     1       7.756 -36.842  44.980  1.00  0.00     0.136 A 
ATOM      8  C   UNL     1       6.459 -37.079  44.457  1.00  0.00     0.125 A 
ATOM      9  C   UNL     1       5.909 -38.362  44.306  1.00  0.00     0.078 A 
ATOM     10  C   UNL     1       4.624 -38.518  43.778  1.00  0.00     0.223 A 
ENDROOT
BRANCH   1  11
ATOM     11  C   UNL     1       2.519 -37.448  42.874  1.00  0.00     0.087 A 
ATOM     12  C   UNL     1       1.421 -37.772  43.690  1.00  0.00     0.022 A 
ATOM     13  C   UNL     1       0.131 -37.818  43.156  1.00  0.00     0.051 A 
ATOM     14  C   UNL     1      -0.084 -37.530  41.802  1.00  0.00     0.157 A 
ATOM     15  C   UNL     1       2.295 -37.141  41.522  1.00  0.00     0.068 A 
ATOM     16  C   UNL     1       1.004 -37.186  40.982  1.00  0.00     0.158 A 
BRANCH  14  17
ATOM     17  O   UNL     1      -1.372 -37.578  41.270  1.00  0.00    -0.504 OA
ATOM     18  H   UNL     1      -1.560 -38.013  40.374  1.00  0.00     0.293 HD
ENDBRANCH  14  17
BRANCH  16  19
ATOM     19  O   UNL     1       0.823 -36.887  39.633  1.00  0.00    -0.504 OA
ATOM     20  H   UNL     1       0.132 -37.360  39.064  1.00  0.00     0.293 HD
ENDBRANCH  16  19
ENDBRANCH   1  11
BRANCH  10  21
ATOM     21  O   UNL     1       4.097 -39.794  43.583  1.00  0.00    -0.500 OA
ATOM     22  H   UNL     1       3.102 -39.976  43.652  1.00  0.00     0.294 HD
ENDBRANCH  10  21
BRANCH   5  23
ATOM     23  O   UNL     1       7.911 -33.141  44.776  1.00  0.00    -0.507 OA
ATOM     24  H   UNL     1       8.681 -32.811  44.206  1.00  0.00     0.293 HD
ENDBRANCH   5  23
BRANCH   7  25
ATOM     25  O   UNL     1       8.606 -37.866  45.410  1.00  0.00    -0.507 OA
ATOM     26  H   UNL     1       8.408 -38.851  45.311  1.00  0.00     0.293 HD
ENDBRANCH   7  25
TORSDOF 6
ENDMDL
MODEL 9
REMARK VINA RESULT:    -6.426      1.911      7.369
REMARK INTER + INTRA:          -8.017
REMARK INTER:                  -7.678
REMARK INTRA:                  -0.339
REMARK UNBOUND:                -0.277
REMARK SMILES Oc1cc(O)c2cc(O)c(-c3ccc(O)c(O)c3)[o+]c2c1
REMARK SMILES IDX 10 1 19 2 20 3 21 4 2 5 3 6 4 7 6 8 7 9 8 10 11 11 12 12
REMARK SMILES IDX 13 13 14 14 18 15 16 16 15 17 17 19 9 21 1 23 5 25
REMARK H PARENT 15 18 17 20 9 22 1 24 5 26
REMARK Flexibility Score: inf
ROOT
ATOM      1  C   UNL     1       4.095 -36.246  42.085  1.00  0.00     0.402 A 
ATOM      2  O   UNL     1       2.961 -36.726  42.586  1.00  0.00    -0.202 OA
ATOM      3  C   UNL     1       1.906 -37.036  41.838  1.00  0.00     0.368 A 
ATOM      4  C   UNL     1       0.756 -37.533  42.457  1.00  0.00     0.162 A 
ATOM      5  C   UNL     1      -0.366 -37.864  41.698  1.00  0.00     0.128 A 
ATOM      6  C   UNL     1      -0.342 -37.697  40.309  1.00  0.00     0.093 A 
ATOM      7  C   UNL     1       0.798 -37.201  39.665  1.00  0.00     0.136 A 
ATOM      8  C   UNL     1       1.943 -36.866  40.433  1.00  0.00     0.125 A 
ATOM      9  C   UNL     1       3.133 -36.376  39.872  1.00  0.00     0.078 A 
ATOM     10  C   UNL     1       4.223 -36.071  40.694  1.00  0.00     0.223 A 
ENDROOT
BRANCH   1  11
ATOM     11  C   UNL     1       5.195 -35.928  43.024  1.00  0.00     0.087 A 
ATOM     12  C   UNL     1       5.445 -34.609  43.441  1.00  0.00     0.022 A 
ATOM     13  C   UNL     1       6.475 -34.336  44.345  1.00  0.00     0.051 A 
ATOM     14  C   UNL     1       7.261 -35.378  44.856  1.00  0.00     0.157 A 
ATOM     15  C   UNL     1       5.973 -36.970  43.555  1.00  0.00     0.068 A 
ATOM     16  C   UNL     1       7.006 -36.701  44.461  1.00  0.00     0.158 A 
BRANCH  14  17
ATOM     17  O   UNL     1       8.288 -35.103  45.757  1.00  0.00    -0.504 OA
ATOM     18  H   UNL     1       9.259 -35.281  45.526  1.00  0.00     0.293 HD
ENDBRANCH  14  17
BRANCH  16  19
ATOM     19  O   UNL     1       7.765 -37.760  44.957  1.00  0.00    -0.504 OA
ATOM     20  H   UNL     1       7.511 -38.727  44.793  1.00  0.00     0.293 HD
ENDBRANCH  16  19
ENDBRANCH   1  11
BRANCH  10  21
ATOM     21  O   UNL     1       5.421 -35.631  40.133  1.00  0.00    -0.500 OA
ATOM     22  H   UNL     1       5.917 -36.178  39.439  1.00  0.00     0.294 HD
ENDBRANCH  10  21
BRANCH   5  23
ATOM     23  O   UNL     1      -1.504 -38.358  42.334  1.00  0.00    -0.507 OA
ATOM     24  H   UNL     1      -1.456 -39.147  42.968  1.00  0.00     0.293 HD
ENDBRANCH   5  23
BRANCH   7  25
ATOM     25  O   UNL     1       0.743 -37.061  38.275  1.00  0.00    -0.507 OA
ATOM     26  H   UNL     1       0.006 -37.430  37.692  1.00  0.00     0.293 HD
ENDBRANCH   7  25
TORSDOF 6
ENDMDL
