MODEL 1
REMARK VINA RESULT:    -3.632      0.000      0.000
REMARK INTER + INTRA:          -7.852
REMARK INTER:                  -6.180
REMARK INTRA:                  -1.672
REMARK UNBOUND:                -1.672
REMARK SMILES CCCCCCCCCCCCCC(=O)[O-]
REMARK SMILES IDX 8 1 9 2 10 3 11 4 12 5 13 6 14 7 15 8 16 9 7 10 6 11 5 12
REMARK SMILES IDX 4 13 3 14 2 15 1 16
REMARK H PARENT
REMARK Flexibility Score: inf
ROOT
ATOM      1  C   UNL     1       3.585  -2.408  -4.616  1.00  0.00     0.000 C 
ENDROOT
BRANCH   1   2
ATOM      2  C   UNL     1       3.099  -2.477  -6.077  1.00  0.00     0.000 C 
BRANCH   2   3
ATOM      3  C   UNL     1       4.191  -2.137  -7.113  1.00  0.00     0.000 C 
BRANCH   3   4
ATOM      4  C   UNL     1       3.757  -1.013  -8.068  1.00  0.00     0.000 C 
BRANCH   4   5
ATOM      5  C   UNL     1       2.230  -0.890  -8.184  1.00  0.00     0.006 C 
BRANCH   5   6
ATOM      6  C   UNL     1       1.781   0.513  -8.613  1.00  0.00     0.053 C 
BRANCH   6   7
ATOM      7  C   UNL     1       0.299   0.548  -8.812  1.00  0.00     0.041 C 
ATOM      8  O   UNL     1      -0.342  -0.521  -8.990  1.00  0.00    -0.550 OA
ATOM      9  O   UNL     1      -0.384   1.757  -8.751  1.00  0.00    -0.550 OA
ENDBRANCH   6   7
ENDBRANCH   5   6
ENDBRANCH   4   5
ENDBRANCH   3   4
ENDBRANCH   2   3
ENDBRANCH   1   2
BRANCH   1  10
ATOM     10  C   UNL     1       4.786  -1.476  -4.373  1.00  0.00     0.000 C 
BRANCH  10  11
ATOM     11  C   UNL     1       4.366  -0.086  -3.867  1.00  0.00    -0.000 C 
BRANCH  11  12
ATOM     12  C   UNL     1       2.851   0.155  -3.976  1.00  0.00    -0.000 C 
BRANCH  12  13
ATOM     13  C   UNL     1       2.462   1.171  -5.071  1.00  0.00    -0.000 C 
BRANCH  13  14
ATOM     14  C   UNL     1       3.695   1.840  -5.704  1.00  0.00    -0.000 C 
BRANCH  14  15
ATOM     15  C   UNL     1       3.544   3.365  -5.818  1.00  0.00    -0.003 C 
ATOM     16  C   UNL     1       2.149   3.786  -6.279  1.00  0.00     0.004 C 
ENDBRANCH  14  15
ENDBRANCH  13  14
ENDBRANCH  12  13
ENDBRANCH  11  12
ENDBRANCH  10  11
ENDBRANCH   1  10
TORSDOF 12
ENDMDL
MODEL 2
REMARK VINA RESULT:    -3.515      2.087      4.163
REMARK INTER + INTRA:          -7.653
REMARK INTER:                  -5.968
REMARK INTRA:                  -1.685
REMARK UNBOUND:                -1.672
REMARK SMILES CCCCCCCCCCCCCC(=O)[O-]
REMARK SMILES IDX 8 1 9 2 10 3 11 4 12 5 13 6 14 7 15 8 16 9 7 10 6 11 5 12
REMARK SMILES IDX 4 13 3 14 2 15 1 16
REMARK H PARENT
REMARK Flexibility Score: inf
ROOT
ATOM      1  C   UNL     1       2.838   0.119  -4.177  1.00  0.00     0.000 C 
ENDROOT
BRANCH   1   2
ATOM      2  C   UNL     1       2.501   1.196  -5.227  1.00  0.00     0.000 C 
BRANCH   2   3
ATOM      3  C   UNL     1       3.433   1.177  -6.457  1.00  0.00     0.000 C 
BRANCH   3   4
ATOM      4  C   UNL     1       2.715   1.643  -7.736  1.00  0.00     0.000 C 
BRANCH   4   5
ATOM      5  C   UNL     1       1.234   1.974  -7.497  1.00  0.00     0.006 C 
BRANCH   5   6
ATOM      6  C   UNL     1       0.893   3.432  -7.831  1.00  0.00     0.053 C 
BRANCH   6   7
ATOM      7  C   UNL     1       0.662   4.215  -6.577  1.00  0.00     0.041 C 
ATOM      8  O   UNL     1      -0.496   4.607  -6.279  1.00  0.00    -0.550 OA
ATOM      9  O   UNL     1       1.719   4.469  -5.711  1.00  0.00    -0.550 OA
ENDBRANCH   6   7
ENDBRANCH   5   6
ENDBRANCH   4   5
ENDBRANCH   3   4
ENDBRANCH   2   3
ENDBRANCH   1   2
BRANCH   1  10
ATOM     10  C   UNL     1       4.071  -0.743  -4.500  1.00  0.00     0.000 C 
BRANCH  10  11
ATOM     11  C   UNL     1       3.724  -2.228  -4.697  1.00  0.00    -0.000 C 
BRANCH  11  12
ATOM     12  C   UNL     1       2.884  -2.481  -5.960  1.00  0.00    -0.000 C 
BRANCH  12  13
ATOM     13  C   UNL     1       3.696  -2.413  -7.269  1.00  0.00    -0.000 C 
BRANCH  13  14
ATOM     14  C   UNL     1       2.835  -1.963  -8.463  1.00  0.00    -0.000 C 
BRANCH  14  15
ATOM     15  C   UNL     1       1.384  -2.460  -8.362  1.00  0.00    -0.003 C 
ATOM     16  C   UNL     1       0.379  -1.461  -8.936  1.00  0.00     0.004 C 
ENDBRANCH  14  15
ENDBRANCH  13  14
ENDBRANCH  12  13
ENDBRANCH  11  12
ENDBRANCH  10  11
ENDBRANCH   1  10
TORSDOF 12
ENDMDL
MODEL 3
REMARK VINA RESULT:    -3.512      1.394      3.743
REMARK INTER + INTRA:          -7.647
REMARK INTER:                  -5.856
REMARK INTRA:                  -1.791
REMARK UNBOUND:                -1.672
REMARK SMILES CCCCCCCCCCCCCC(=O)[O-]
REMARK SMILES IDX 8 1 9 2 10 3 11 4 12 5 13 6 14 7 15 8 16 9 7 10 6 11 5 12
REMARK SMILES IDX 4 13 3 14 2 15 1 16
REMARK H PARENT
REMARK Flexibility Score: inf
ROOT
ATOM      1  C   UNL     1       2.775   1.205  -5.059  1.00  0.00     0.000 C 
ENDROOT
BRANCH   1   2
ATOM      2  C   UNL     1       4.148   1.676  -5.575  1.00  0.00     0.000 C 
BRANCH   2   3
ATOM      3  C   UNL     1       4.183   1.946  -7.094  1.00  0.00     0.000 C 
BRANCH   3   4
ATOM      4  C   UNL     1       3.816   0.699  -7.915  1.00  0.00     0.000 C 
BRANCH   4   5
ATOM      5  C   UNL     1       2.712   0.973  -8.948  1.00  0.00     0.006 C 
BRANCH   5   6
ATOM      6  C   UNL     1       1.302   0.792  -8.369  1.00  0.00     0.053 C 
BRANCH   6   7
ATOM      7  C   UNL     1       0.538   2.075  -8.447  1.00  0.00     0.041 C 
ATOM      8  O   UNL     1      -0.721   2.062  -8.468  1.00  0.00    -0.550 OA
ATOM      9  O   UNL     1       1.213   3.289  -8.446  1.00  0.00    -0.550 OA
ENDBRANCH   6   7
ENDBRANCH   5   6
ENDBRANCH   4   5
ENDBRANCH   3   4
ENDBRANCH   2   3
ENDBRANCH   1   2
BRANCH   1  10
ATOM     10  C   UNL     1       2.824   0.073  -4.017  1.00  0.00     0.000 C 
BRANCH  10  11
ATOM     11  C   UNL     1       4.078  -0.806  -4.154  1.00  0.00    -0.000 C 
BRANCH  11  12
ATOM     12  C   UNL     1       3.753  -2.245  -4.589  1.00  0.00    -0.000 C 
BRANCH  12  13
ATOM     13  C   UNL     1       3.899  -2.483  -6.107  1.00  0.00    -0.000 C 
BRANCH  13  14
ATOM     14  C   UNL     1       2.542  -2.456  -6.831  1.00  0.00    -0.000 C 
BRANCH  14  15
ATOM     15  C   UNL     1       2.613  -3.064  -8.240  1.00  0.00    -0.003 C 
ATOM     16  C   UNL     1       1.304  -2.914  -9.013  1.00  0.00     0.004 C 
ENDBRANCH  14  15
ENDBRANCH  13  14
ENDBRANCH  12  13
ENDBRANCH  11  12
ENDBRANCH  10  11
ENDBRANCH   1  10
TORSDOF 12
ENDMDL
MODEL 4
REMARK VINA RESULT:    -3.397      2.026      4.239
REMARK INTER + INTRA:          -7.452
REMARK INTER:                  -5.593
REMARK INTRA:                  -1.859
REMARK UNBOUND:                -1.672
REMARK SMILES CCCCCCCCCCCCCC(=O)[O-]
REMARK SMILES IDX 8 1 9 2 10 3 11 4 12 5 13 6 14 7 15 8 16 9 7 10 6 11 5 12
REMARK SMILES IDX 4 13 3 14 2 15 1 16
REMARK H PARENT
REMARK Flexibility Score: inf
ROOT
ATOM      1  C   UNL     1       2.731   1.098  -5.086  1.00  0.00     0.000 C 
ENDROOT
BRANCH   1   2
ATOM      2  C   UNL     1       3.819   1.080  -6.179  1.00  0.00     0.000 C 
BRANCH   2   3
ATOM      3  C   UNL     1       3.278   1.346  -7.599  1.00  0.00     0.000 C 
BRANCH   3   4
ATOM      4  C   UNL     1       1.745   1.247  -7.666  1.00  0.00     0.000 C 
BRANCH   4   5
ATOM      5  C   UNL     1       1.093   2.515  -8.240  1.00  0.00     0.006 C 
BRANCH   5   6
ATOM      6  C   UNL     1       1.798   3.800  -7.785  1.00  0.00     0.053 C 
BRANCH   6   7
ATOM      7  C   UNL     1       1.236   4.268  -6.480  1.00  0.00     0.041 C 
ATOM      8  O   UNL     1       2.004   4.524  -5.515  1.00  0.00    -0.550 OA
ATOM      9  O   UNL     1      -0.132   4.471  -6.343  1.00  0.00    -0.550 OA
ENDBRANCH   6   7
ENDBRANCH   5   6
ENDBRANCH   4   5
ENDBRANCH   3   4
ENDBRANCH   2   3
ENDBRANCH   1   2
BRANCH   1  10
ATOM     10  C   UNL     1       2.935   0.081  -3.949  1.00  0.00     0.000 C 
BRANCH  10  11
ATOM     11  C   UNL     1       4.049  -0.934  -4.252  1.00  0.00    -0.000 C 
BRANCH  11  12
ATOM     12  C   UNL     1       3.506  -2.282  -4.755  1.00  0.00    -0.000 C 
BRANCH  12  13
ATOM     13  C   UNL     1       3.733  -2.519  -6.262  1.00  0.00    -0.000 C 
BRANCH  13  14
ATOM     14  C   UNL     1       2.427  -2.410  -7.069  1.00  0.00    -0.000 C 
BRANCH  14  15
ATOM     15  C   UNL     1       2.675  -2.316  -8.583  1.00  0.00    -0.003 C 
ATOM     16  C   UNL     1       4.140  -2.046  -8.923  1.00  0.00     0.004 C 
ENDBRANCH  14  15
ENDBRANCH  13  14
ENDBRANCH  12  13
ENDBRANCH  11  12
ENDBRANCH  10  11
ENDBRANCH   1  10
TORSDOF 12
ENDMDL
MODEL 5
REMARK VINA RESULT:    -3.385      2.054      4.480
REMARK INTER + INTRA:          -7.431
REMARK INTER:                  -5.940
REMARK INTRA:                  -1.491
REMARK UNBOUND:                -1.672
REMARK SMILES CCCCCCCCCCCCCC(=O)[O-]
REMARK SMILES IDX 8 1 9 2 10 3 11 4 12 5 13 6 14 7 15 8 16 9 7 10 6 11 5 12
REMARK SMILES IDX 4 13 3 14 2 15 1 16
REMARK H PARENT
REMARK Flexibility Score: inf
ROOT
ATOM      1  C   UNL     1       3.871  -0.969  -4.248  1.00  0.00     0.000 C 
ENDROOT
BRANCH   1   2
ATOM      2  C   UNL     1       2.931   0.212  -3.935  1.00  0.00     0.000 C 
BRANCH   2   3
ATOM      3  C   UNL     1       2.564   1.060  -5.171  1.00  0.00     0.000 C 
BRANCH   3   4
ATOM      4  C   UNL     1       3.656   2.087  -5.516  1.00  0.00     0.000 C 
BRANCH   4   5
ATOM      5  C   UNL     1       3.149   3.201  -6.446  1.00  0.00     0.006 C 
BRANCH   5   6
ATOM      6  C   UNL     1       1.620   3.315  -6.453  1.00  0.00     0.053 C 
BRANCH   6   7
ATOM      7  C   UNL     1       1.194   4.645  -5.917  1.00  0.00     0.041 C 
ATOM      8  O   UNL     1       0.067   5.120  -6.220  1.00  0.00    -0.550 OA
ATOM      9  O   UNL     1       2.020   5.341  -5.043  1.00  0.00    -0.550 OA
ENDBRANCH   6   7
ENDBRANCH   5   6
ENDBRANCH   4   5
ENDBRANCH   3   4
ENDBRANCH   2   3
ENDBRANCH   1   2
BRANCH   1  10
ATOM     10  C   UNL     1       3.225  -2.124  -5.033  1.00  0.00     0.000 C 
BRANCH  10  11
ATOM     11  C   UNL     1       4.024  -2.509  -6.290  1.00  0.00    -0.000 C 
BRANCH  11  12
ATOM     12  C   UNL     1       4.294  -1.309  -7.214  1.00  0.00    -0.000 C 
BRANCH  12  13
ATOM     13  C   UNL     1       3.452  -1.322  -8.507  1.00  0.00    -0.000 C 
BRANCH  13  14
ATOM     14  C   UNL     1       2.300  -0.303  -8.458  1.00  0.00    -0.000 C 
BRANCH  14  15
ATOM     15  C   UNL     1       0.929  -0.951  -8.709  1.00  0.00    -0.003 C 
ATOM     16  C   UNL     1       0.985  -2.477  -8.673  1.00  0.00     0.004 C 
ENDBRANCH  14  15
ENDBRANCH  13  14
ENDBRANCH  12  13
ENDBRANCH  11  12
ENDBRANCH  10  11
ENDBRANCH   1  10
TORSDOF 12
ENDMDL
MODEL 6
REMARK VINA RESULT:    -3.332      1.108      2.207
REMARK INTER + INTRA:          -7.341
REMARK INTER:                  -6.067
REMARK INTRA:                  -1.274
REMARK UNBOUND:                -1.672
REMARK SMILES CCCCCCCCCCCCCC(=O)[O-]
REMARK SMILES IDX 8 1 9 2 10 3 11 4 12 5 13 6 14 7 15 8 16 9 7 10 6 11 5 12
REMARK SMILES IDX 4 13 3 14 2 15 1 16
REMARK H PARENT
REMARK Flexibility Score: inf
ROOT
ATOM      1  C   UNL     1       3.024  -0.296  -4.403  1.00  0.00     0.000 C 
ENDROOT
BRANCH   1   2
ATOM      2  C   UNL     1       3.633  -1.695  -4.620  1.00  0.00     0.000 C 
BRANCH   2   3
ATOM      3  C   UNL     1       3.141  -2.396  -5.904  1.00  0.00     0.000 C 
BRANCH   3   4
ATOM      4  C   UNL     1       3.349  -1.528  -7.156  1.00  0.00     0.000 C 
BRANCH   4   5
ATOM      5  C   UNL     1       2.138  -1.552  -8.102  1.00  0.00     0.006 C 
BRANCH   5   6
ATOM      6  C   UNL     1       1.814  -0.169  -8.683  1.00  0.00     0.053 C 
BRANCH   6   7
ATOM      7  C   UNL     1       0.335   0.001  -8.827  1.00  0.00     0.041 C 
ATOM      8  O   UNL     1      -0.181   1.148  -8.753  1.00  0.00    -0.550 OA
ATOM      9  O   UNL     1      -0.471  -1.099  -9.094  1.00  0.00    -0.550 OA
ENDBRANCH   6   7
ENDBRANCH   5   6
ENDBRANCH   4   5
ENDBRANCH   3   4
ENDBRANCH   2   3
ENDBRANCH   1   2
BRANCH   1  10
ATOM     10  C   UNL     1       4.024   0.870  -4.495  1.00  0.00     0.000 C 
BRANCH  10  11
ATOM     11  C   UNL     1       3.671   1.869  -5.610  1.00  0.00    -0.000 C 
BRANCH  11  12
ATOM     12  C   UNL     1       2.156   2.000  -5.835  1.00  0.00    -0.000 C 
BRANCH  12  13
ATOM     13  C   UNL     1       1.747   3.294  -6.570  1.00  0.00    -0.000 C 
BRANCH  13  14
ATOM     14  C   UNL     1       2.425   4.539  -5.970  1.00  0.00    -0.000 C 
BRANCH  14  15
ATOM     15  C   UNL     1       1.412   5.606  -5.528  1.00  0.00    -0.003 C 
ATOM     16  C   UNL     1       0.055   5.449  -6.214  1.00  0.00     0.004 C 
ENDBRANCH  14  15
ENDBRANCH  13  14
ENDBRANCH  12  13
ENDBRANCH  11  12
ENDBRANCH  10  11
ENDBRANCH   1  10
TORSDOF 12
ENDMDL
MODEL 7
REMARK VINA RESULT:    -3.325      2.035      3.868
REMARK INTER + INTRA:          -7.331
REMARK INTER:                  -5.778
REMARK INTRA:                  -1.552
REMARK UNBOUND:                -1.672
REMARK SMILES CCCCCCCCCCCCCC(=O)[O-]
REMARK SMILES IDX 8 1 9 2 10 3 11 4 12 5 13 6 14 7 15 8 16 9 7 10 6 11 5 12
REMARK SMILES IDX 4 13 3 14 2 15 1 16
REMARK H PARENT
REMARK Flexibility Score: inf
ROOT
ATOM      1  C   UNL     1       1.963  -1.270  -8.237  1.00  0.00     0.000 C 
ENDROOT
BRANCH   1   2
ATOM      2  C   UNL     1       3.001  -0.145  -8.418  1.00  0.00     0.000 C 
BRANCH   2   3
ATOM      3  C   UNL     1       2.379   1.262  -8.544  1.00  0.00     0.000 C 
BRANCH   3   4
ATOM      4  C   UNL     1       0.960   1.324  -7.956  1.00  0.00     0.000 C 
BRANCH   4   5
ATOM      5  C   UNL     1       0.400   2.755  -7.907  1.00  0.00     0.006 C 
BRANCH   5   6
ATOM      6  C   UNL     1       1.451   3.786  -7.476  1.00  0.00     0.053 C 
BRANCH   6   7
ATOM      7  C   UNL     1       0.998   4.510  -6.249  1.00  0.00     0.041 C 
ATOM      8  O   UNL     1       1.837   4.881  -5.385  1.00  0.00    -0.550 OA
ATOM      9  O   UNL     1      -0.346   4.822  -6.080  1.00  0.00    -0.550 OA
ENDBRANCH   6   7
ENDBRANCH   5   6
ENDBRANCH   4   5
ENDBRANCH   3   4
ENDBRANCH   2   3
ENDBRANCH   1   2
BRANCH   1  10
ATOM     10  C   UNL     1       2.473  -2.510  -7.482  1.00  0.00     0.000 C 
BRANCH  10  11
ATOM     11  C   UNL     1       3.646  -2.192  -6.540  1.00  0.00    -0.000 C 
BRANCH  11  12
ATOM     12  C   UNL     1       3.201  -1.985  -5.083  1.00  0.00    -0.000 C 
BRANCH  12  13
ATOM     13  C   UNL     1       4.278  -1.331  -4.192  1.00  0.00    -0.000 C 
BRANCH  13  14
ATOM     14  C   UNL     1       3.865   0.075  -3.721  1.00  0.00    -0.000 C 
BRANCH  14  15
ATOM     15  C   UNL     1       3.126   0.867  -4.811  1.00  0.00    -0.003 C 
ATOM     16  C   UNL     1       3.964   2.013  -5.377  1.00  0.00     0.004 C 
ENDBRANCH  14  15
ENDBRANCH  13  14
ENDBRANCH  12  13
ENDBRANCH  11  12
ENDBRANCH  10  11
ENDBRANCH   1  10
TORSDOF 12
ENDMDL
MODEL 8
REMARK VINA RESULT:    -3.292     21.370     22.950
REMARK INTER + INTRA:          -7.274
REMARK INTER:                  -5.451
REMARK INTRA:                  -1.823
REMARK UNBOUND:                -1.672
REMARK SMILES CCCCCCCCCCCCCC(=O)[O-]
REMARK SMILES IDX 8 1 9 2 10 3 11 4 12 5 13 6 14 7 15 8 16 9 7 10 6 11 5 12
REMARK SMILES IDX 4 13 3 14 2 15 1 16
REMARK H PARENT
REMARK Flexibility Score: inf
ROOT
ATOM      1  C   UNL     1     -11.530 -11.739   5.439  1.00  0.00     0.000 C 
ENDROOT
BRANCH   1   2
ATOM      2  C   UNL     1     -11.516 -10.378   4.715  1.00  0.00     0.000 C 
BRANCH   2   3
ATOM      3  C   UNL     1     -12.914  -9.746   4.550  1.00  0.00     0.000 C 
BRANCH   3   4
ATOM      4  C   UNL     1     -13.972 -10.442   5.422  1.00  0.00     0.000 C 
BRANCH   4   5
ATOM      5  C   UNL     1     -14.383  -9.602   6.641  1.00  0.00     0.006 C 
BRANCH   5   6
ATOM      6  C   UNL     1     -13.787 -10.131   7.952  1.00  0.00     0.053 C 
BRANCH   6   7
ATOM      7  C   UNL     1     -12.527  -9.398   8.285  1.00  0.00     0.041 C 
ATOM      8  O   UNL     1     -12.555  -8.159   8.512  1.00  0.00    -0.550 OA
ATOM      9  O   UNL     1     -11.327 -10.089   8.395  1.00  0.00    -0.550 OA
ENDBRANCH   6   7
ENDBRANCH   5   6
ENDBRANCH   4   5
ENDBRANCH   3   4
ENDBRANCH   2   3
ENDBRANCH   1   2
BRANCH   1  10
ATOM     10  C   UNL     1     -11.267 -12.958   4.537  1.00  0.00     0.000 C 
BRANCH  10  11
ATOM     11  C   UNL     1     -12.501 -13.863   4.387  1.00  0.00    -0.000 C 
BRANCH  11  12
ATOM     12  C   UNL     1     -13.042 -13.898   2.948  1.00  0.00    -0.000 C 
BRANCH  12  13
ATOM     13  C   UNL     1     -14.470 -13.330   2.807  1.00  0.00    -0.000 C 
BRANCH  13  14
ATOM     14  C   UNL     1     -14.486 -11.983   2.062  1.00  0.00    -0.000 C 
BRANCH  14  15
ATOM     15  C   UNL     1     -13.141 -11.665   1.390  1.00  0.00    -0.003 C 
ATOM     16  C   UNL     1     -13.218 -11.717  -0.135  1.00  0.00     0.004 C 
ENDBRANCH  14  15
ENDBRANCH  13  14
ENDBRANCH  12  13
ENDBRANCH  11  12
ENDBRANCH  10  11
ENDBRANCH   1  10
TORSDOF 12
ENDMDL
MODEL 9
REMARK VINA RESULT:    -3.220      1.809      3.675
REMARK INTER + INTRA:          -7.151
REMARK INTER:                  -5.524
REMARK INTRA:                  -1.627
REMARK UNBOUND:                -1.672
REMARK SMILES CCCCCCCCCCCCCC(=O)[O-]
REMARK SMILES IDX 8 1 9 2 10 3 11 4 12 5 13 6 14 7 15 8 16 9 7 10 6 11 5 12
REMARK SMILES IDX 4 13 3 14 2 15 1 16
REMARK H PARENT
REMARK Flexibility Score: inf
ROOT
ATOM      1  C   UNL     1       2.460   1.039  -5.012  1.00  0.00     0.000 C 
ENDROOT
BRANCH   1   2
ATOM      2  C   UNL     1       2.958   0.125  -3.875  1.00  0.00     0.000 C 
BRANCH   2   3
ATOM      3  C   UNL     1       3.952  -0.961  -4.339  1.00  0.00     0.000 C 
BRANCH   3   4
ATOM      4  C   UNL     1       3.250  -2.110  -5.082  1.00  0.00     0.000 C 
BRANCH   4   5
ATOM      5  C   UNL     1       3.968  -2.500  -6.384  1.00  0.00     0.006 C 
BRANCH   5   6
ATOM      6  C   UNL     1       3.311  -1.886  -7.627  1.00  0.00     0.053 C 
BRANCH   6   7
ATOM      7  C   UNL     1       2.293  -2.823  -8.195  1.00  0.00     0.041 C 
ATOM      8  O   UNL     1       1.076  -2.500  -8.214  1.00  0.00    -0.550 OA
ATOM      9  O   UNL     1       2.692  -4.033  -8.750  1.00  0.00    -0.550 OA
ENDBRANCH   6   7
ENDBRANCH   5   6
ENDBRANCH   4   5
ENDBRANCH   3   4
ENDBRANCH   2   3
ENDBRANCH   1   2
BRANCH   1  10
ATOM     10  C   UNL     1       3.554   1.537  -5.973  1.00  0.00     0.000 C 
BRANCH  10  11
ATOM     11  C   UNL     1       3.045   1.709  -7.414  1.00  0.00    -0.000 C 
BRANCH  11  12
ATOM     12  C   UNL     1       1.573   1.295  -7.580  1.00  0.00    -0.000 C 
BRANCH  12  13
ATOM     13  C   UNL     1       0.704   2.362  -8.278  1.00  0.00    -0.000 C 
BRANCH  13  14
ATOM     14  C   UNL     1       1.153   3.793  -7.930  1.00  0.00    -0.000 C 
BRANCH  14  15
ATOM     15  C   UNL     1       0.636   4.256  -6.560  1.00  0.00    -0.003 C 
ATOM     16  C   UNL     1       1.698   5.000  -5.751  1.00  0.00     0.004 C 
ENDBRANCH  14  15
ENDBRANCH  13  14
ENDBRANCH  12  13
ENDBRANCH  11  12
ENDBRANCH  10  11
ENDBRANCH   1  10
TORSDOF 12
ENDMDL
