MODEL 1
REMARK VINA RESULT:    -4.955      0.000      0.000
REMARK INTER + INTRA:         -15.209
REMARK INTER:                 -11.328
REMARK INTRA:                  -3.881
REMARK UNBOUND:                -3.881
REMARK SMILES CCCCCCCCCCCCCCCCCCCCCCCC(=O)[O-]
REMARK SMILES IDX 13 1 14 2 15 3 16 4 17 5 18 6 19 7 20 8 21 9 22 10 23 11
REMARK SMILES IDX 24 12 25 13 26 14 12 15 11 16 10 17 9 18 8 19 7 20 6 21 5 22
REMARK SMILES IDX 4 23 3 24 2 25 1 26
REMARK H PARENT
REMARK Flexibility Score: inf
ROOT
ATOM      1  C   UNL     1      46.041  50.051  11.356  1.00  0.00     0.000 C 
ENDROOT
BRANCH   1   2
ATOM      2  C   UNL     1      46.285  49.079  10.189  1.00  0.00     0.000 C 
BRANCH   2   3
ATOM      3  C   UNL     1      47.229  47.925  10.569  1.00  0.00     0.000 C 
BRANCH   3   4
ATOM      4  C   UNL     1      46.804  46.576   9.959  1.00  0.00     0.000 C 
BRANCH   4   5
ATOM      5  C   UNL     1      45.826  45.750  10.814  1.00  0.00     0.000 C 
BRANCH   5   6
ATOM      6  C   UNL     1      44.355  45.989  10.442  1.00  0.00     0.000 C 
BRANCH   6   7
ATOM      7  C   UNL     1      43.527  46.369  11.677  1.00  0.00     0.000 C 
BRANCH   7   8
ATOM      8  C   UNL     1      43.084  47.843  11.669  1.00  0.00     0.000 C 
BRANCH   8   9
ATOM      9  C   UNL     1      42.740  48.394  13.070  1.00  0.00     0.000 C 
BRANCH   9  10
ATOM     10  C   UNL     1      42.144  49.812  13.008  1.00  0.00     0.006 C 
BRANCH  10  11
ATOM     11  C   UNL     1      40.630  49.794  12.763  1.00  0.00     0.053 C 
BRANCH  11  12
ATOM     12  C   UNL     1      39.937  50.893  13.509  1.00  0.00     0.041 C 
ATOM     13  O   UNL     1      40.153  51.060  14.738  1.00  0.00    -0.550 OA
ATOM     14  O   UNL     1      39.029  51.717  12.853  1.00  0.00    -0.550 OA
ENDBRANCH  11  12
ENDBRANCH  10  11
ENDBRANCH   9  10
ENDBRANCH   8   9
ENDBRANCH   7   8
ENDBRANCH   6   7
ENDBRANCH   5   6
ENDBRANCH   4   5
ENDBRANCH   3   4
ENDBRANCH   2   3
ENDBRANCH   1   2
BRANCH   1  15
ATOM     15  C   UNL     1      45.017  51.145  11.013  1.00  0.00     0.000 C 
BRANCH  15  16
ATOM     16  C   UNL     1      44.441  50.939   9.606  1.00  0.00     0.000 C 
BRANCH  16  17
ATOM     17  C   UNL     1      42.921  51.157   9.601  1.00  0.00     0.000 C 
BRANCH  17  18
ATOM     18  C   UNL     1      42.148  49.922   9.110  1.00  0.00    -0.000 C 
BRANCH  18  19
ATOM     19  C   UNL     1      41.269  50.221   7.885  1.00  0.00    -0.000 C 
BRANCH  19  20
ATOM     20  C   UNL     1      41.166  49.028   6.919  1.00  0.00    -0.000 C 
BRANCH  20  21
ATOM     21  C   UNL     1      42.215  47.926   7.183  1.00  0.00    -0.000 C 
BRANCH  21  22
ATOM     22  C   UNL     1      41.620  46.512   7.057  1.00  0.00    -0.000 C 
BRANCH  22  23
ATOM     23  C   UNL     1      40.364  46.313   7.925  1.00  0.00    -0.000 C 
BRANCH  23  24
ATOM     24  C   UNL     1      40.635  45.789   9.348  1.00  0.00    -0.000 C 
BRANCH  24  25
ATOM     25  C   UNL     1      39.380  45.791  10.233  1.00  0.00    -0.003 C 
ATOM     26  C   UNL     1      39.689  46.331  11.627  1.00  0.00     0.004 C 
ENDBRANCH  24  25
ENDBRANCH  23  24
ENDBRANCH  22  23
ENDBRANCH  21  22
ENDBRANCH  20  21
ENDBRANCH  19  20
ENDBRANCH  18  19
ENDBRANCH  17  18
ENDBRANCH  16  17
ENDBRANCH  15  16
ENDBRANCH   1  15
TORSDOF 22
ENDMDL
MODEL 2
REMARK VINA RESULT:    -4.949      2.756      5.457
REMARK INTER + INTRA:         -15.196
REMARK INTER:                 -11.211
REMARK INTRA:                  -3.985
REMARK UNBOUND:                -3.881
REMARK SMILES CCCCCCCCCCCCCCCCCCCCCCCC(=O)[O-]
REMARK SMILES IDX 13 1 14 2 15 3 16 4 17 5 18 6 19 7 20 8 21 9 22 10 23 11
REMARK SMILES IDX 24 12 25 13 26 14 12 15 11 16 10 17 9 18 8 19 7 20 6 21 5 22
REMARK SMILES IDX 4 23 3 24 2 25 1 26
REMARK H PARENT
REMARK Flexibility Score: inf
ROOT
ATOM      1  C   UNL     1      42.906  47.363  12.844  1.00  0.00     0.000 C 
ENDROOT
BRANCH   1   2
ATOM      2  C   UNL     1      42.430  48.825  12.886  1.00  0.00     0.000 C 
BRANCH   2   3
ATOM      3  C   UNL     1      43.527  49.816  12.461  1.00  0.00     0.000 C 
BRANCH   3   4
ATOM      4  C   UNL     1      43.411  50.243  10.986  1.00  0.00     0.000 C 
BRANCH   4   5
ATOM      5  C   UNL     1      42.085  49.871  10.298  1.00  0.00     0.000 C 
BRANCH   5   6
ATOM      6  C   UNL     1      42.262  48.849   9.164  1.00  0.00     0.000 C 
BRANCH   6   7
ATOM      7  C   UNL     1      43.739  48.706   8.774  1.00  0.00     0.000 C 
BRANCH   7   8
ATOM      8  C   UNL     1      44.274  47.276   8.969  1.00  0.00     0.000 C 
BRANCH   8   9
ATOM      9  C   UNL     1      45.333  47.158  10.086  1.00  0.00     0.000 C 
BRANCH   9  10
ATOM     10  C   UNL     1      46.714  47.665   9.634  1.00  0.00     0.006 C 
BRANCH  10  11
ATOM     11  C   UNL     1      47.386  48.543  10.698  1.00  0.00     0.053 C 
BRANCH  11  12
ATOM     12  C   UNL     1      47.092  49.996  10.481  1.00  0.00     0.041 C 
ATOM     13  O   UNL     1      46.934  50.766  11.465  1.00  0.00    -0.550 OA
ATOM     14  O   UNL     1      46.964  50.496   9.190  1.00  0.00    -0.550 OA
ENDBRANCH  11  12
ENDBRANCH  10  11
ENDBRANCH   9  10
ENDBRANCH   8   9
ENDBRANCH   7   8
ENDBRANCH   6   7
ENDBRANCH   5   6
ENDBRANCH   4   5
ENDBRANCH   3   4
ENDBRANCH   2   3
ENDBRANCH   1   2
BRANCH   1  15
ATOM     15  C   UNL     1      41.988  46.464  12.001  1.00  0.00     0.000 C 
BRANCH  15  16
ATOM     16  C   UNL     1      40.526  46.916  12.107  1.00  0.00     0.000 C 
BRANCH  16  17
ATOM     17  C   UNL     1      39.602  45.969  11.326  1.00  0.00     0.000 C 
BRANCH  17  18
ATOM     18  C   UNL     1      39.754  46.116   9.804  1.00  0.00    -0.000 C 
BRANCH  18  19
ATOM     19  C   UNL     1      38.724  45.286   9.022  1.00  0.00    -0.000 C 
BRANCH  19  20
ATOM     20  C   UNL     1      39.368  44.152   8.205  1.00  0.00    -0.000 C 
BRANCH  20  21
ATOM     21  C   UNL     1      39.714  44.553   6.755  1.00  0.00    -0.000 C 
BRANCH  21  22
ATOM     22  C   UNL     1      38.616  45.418   6.112  1.00  0.00    -0.000 C 
BRANCH  22  23
ATOM     23  C   UNL     1      39.104  46.832   5.747  1.00  0.00    -0.000 C 
BRANCH  23  24
ATOM     24  C   UNL     1      40.470  47.220   6.343  1.00  0.00    -0.000 C 
BRANCH  24  25
ATOM     25  C   UNL     1      41.566  47.365   5.277  1.00  0.00    -0.003 C 
ATOM     26  C   UNL     1      42.813  46.572   5.657  1.00  0.00     0.004 C 
ENDBRANCH  24  25
ENDBRANCH  23  24
ENDBRANCH  22  23
ENDBRANCH  21  22
ENDBRANCH  20  21
ENDBRANCH  19  20
ENDBRANCH  18  19
ENDBRANCH  17  18
ENDBRANCH  16  17
ENDBRANCH  15  16
ENDBRANCH   1  15
TORSDOF 22
ENDMDL
MODEL 3
REMARK VINA RESULT:    -4.914      1.919      5.651
REMARK INTER + INTRA:         -15.115
REMARK INTER:                 -12.049
REMARK INTRA:                  -3.065
REMARK UNBOUND:                -3.881
REMARK SMILES CCCCCCCCCCCCCCCCCCCCCCCC(=O)[O-]
REMARK SMILES IDX 13 1 14 2 15 3 16 4 17 5 18 6 19 7 20 8 21 9 22 10 23 11
REMARK SMILES IDX 24 12 25 13 26 14 12 15 11 16 10 17 9 18 8 19 7 20 6 21 5 22
REMARK SMILES IDX 4 23 3 24 2 25 1 26
REMARK H PARENT
REMARK Flexibility Score: inf
ROOT
ATOM      1  C   UNL     1      42.143  49.084   9.597  1.00  0.00     0.000 C 
ENDROOT
BRANCH   1   2
ATOM      2  C   UNL     1      43.058  48.712   8.418  1.00  0.00     0.000 C 
BRANCH   2   3
ATOM      3  C   UNL     1      42.436  49.062   7.055  1.00  0.00     0.000 C 
BRANCH   3   4
ATOM      4  C   UNL     1      40.954  48.658   6.950  1.00  0.00     0.000 C 
BRANCH   4   5
ATOM      5  C   UNL     1      40.700  47.194   6.549  1.00  0.00     0.000 C 
BRANCH   5   6
ATOM      6  C   UNL     1      39.217  46.799   6.620  1.00  0.00     0.000 C 
BRANCH   6   7
ATOM      7  C   UNL     1      39.049  45.274   6.627  1.00  0.00     0.000 C 
BRANCH   7   8
ATOM      8  C   UNL     1      39.275  44.653   8.017  1.00  0.00     0.000 C 
BRANCH   8   9
ATOM      9  C   UNL     1      38.913  45.597   9.184  1.00  0.00     0.000 C 
BRANCH   9  10
ATOM     10  C   UNL     1      40.132  45.928  10.064  1.00  0.00     0.006 C 
BRANCH  10  11
ATOM     11  C   UNL     1      39.747  46.129  11.535  1.00  0.00     0.053 C 
BRANCH  11  12
ATOM     12  C   UNL     1      40.670  47.090  12.221  1.00  0.00     0.041 C 
ATOM     13  O   UNL     1      40.278  48.253  12.506  1.00  0.00    -0.550 OA
ATOM     14  O   UNL     1      41.973  46.711  12.521  1.00  0.00    -0.550 OA
ENDBRANCH  11  12
ENDBRANCH  10  11
ENDBRANCH   9  10
ENDBRANCH   8   9
ENDBRANCH   7   8
ENDBRANCH   6   7
ENDBRANCH   5   6
ENDBRANCH   4   5
ENDBRANCH   3   4
ENDBRANCH   2   3
ENDBRANCH   1   2
BRANCH   1  15
ATOM     15  C   UNL     1      42.722  50.213  10.465  1.00  0.00     0.000 C 
BRANCH  15  16
ATOM     16  C   UNL     1      43.714  49.661  11.497  1.00  0.00     0.000 C 
BRANCH  16  17
ATOM     17  C   UNL     1      44.866  50.649  11.731  1.00  0.00     0.000 C 
BRANCH  17  18
ATOM     18  C   UNL     1      45.276  51.394  10.451  1.00  0.00    -0.000 C 
BRANCH  18  19
ATOM     19  C   UNL     1      46.460  50.730   9.731  1.00  0.00    -0.000 C 
BRANCH  19  20
ATOM     20  C   UNL     1      47.469  50.094  10.704  1.00  0.00    -0.000 C 
BRANCH  20  21
ATOM     21  C   UNL     1      47.562  48.558  10.582  1.00  0.00    -0.000 C 
BRANCH  21  22
ATOM     22  C   UNL     1      46.500  47.984   9.627  1.00  0.00    -0.000 C 
BRANCH  22  23
ATOM     23  C   UNL     1      45.756  46.772  10.219  1.00  0.00    -0.000 C 
BRANCH  23  24
ATOM     24  C   UNL     1      46.591  45.482  10.314  1.00  0.00    -0.000 C 
BRANCH  24  25
ATOM     25  C   UNL     1      46.497  44.617   9.049  1.00  0.00    -0.003 C 
ATOM     26  C   UNL     1      47.643  44.921   8.087  1.00  0.00     0.004 C 
ENDBRANCH  24  25
ENDBRANCH  23  24
ENDBRANCH  22  23
ENDBRANCH  21  22
ENDBRANCH  20  21
ENDBRANCH  19  20
ENDBRANCH  18  19
ENDBRANCH  17  18
ENDBRANCH  16  17
ENDBRANCH  15  16
ENDBRANCH   1  15
TORSDOF 22
ENDMDL
MODEL 4
REMARK VINA RESULT:    -4.906      1.956      6.140
REMARK INTER + INTRA:         -15.098
REMARK INTER:                 -11.275
REMARK INTRA:                  -3.823
REMARK UNBOUND:                -3.881
REMARK SMILES CCCCCCCCCCCCCCCCCCCCCCCC(=O)[O-]
REMARK SMILES IDX 13 1 14 2 15 3 16 4 17 5 18 6 19 7 20 8 21 9 22 10 23 11
REMARK SMILES IDX 24 12 25 13 26 14 12 15 11 16 10 17 9 18 8 19 7 20 6 21 5 22
REMARK SMILES IDX 4 23 3 24 2 25 1 26
REMARK H PARENT
REMARK Flexibility Score: inf
ROOT
ATOM      1  C   UNL     1      42.805  46.115   7.571  1.00  0.00     0.000 C 
ENDROOT
BRANCH   1   2
ATOM      2  C   UNL     1      42.384  47.588   7.436  1.00  0.00     0.000 C 
BRANCH   2   3
ATOM      3  C   UNL     1      41.463  47.832   6.228  1.00  0.00     0.000 C 
BRANCH   3   4
ATOM      4  C   UNL     1      39.974  47.616   6.556  1.00  0.00     0.000 C 
BRANCH   4   5
ATOM      5  C   UNL     1      39.225  46.662   5.608  1.00  0.00     0.000 C 
BRANCH   5   6
ATOM      6  C   UNL     1      38.489  45.534   6.347  1.00  0.00     0.000 C 
BRANCH   6   7
ATOM      7  C   UNL     1      39.467  44.453   6.824  1.00  0.00     0.000 C 
BRANCH   7   8
ATOM      8  C   UNL     1      39.564  44.367   8.357  1.00  0.00     0.000 C 
BRANCH   8   9
ATOM      9  C   UNL     1      38.694  45.409   9.092  1.00  0.00     0.000 C 
BRANCH   9  10
ATOM     10  C   UNL     1      39.209  45.699  10.514  1.00  0.00     0.006 C 
BRANCH  10  11
ATOM     11  C   UNL     1      40.541  46.461  10.504  1.00  0.00     0.053 C 
BRANCH  11  12
ATOM     12  C   UNL     1      40.890  46.979  11.866  1.00  0.00     0.041 C 
ATOM     13  O   UNL     1      40.143  47.818  12.436  1.00  0.00    -0.550 OA
ATOM     14  O   UNL     1      42.057  46.558  12.494  1.00  0.00    -0.550 OA
ENDBRANCH  11  12
ENDBRANCH  10  11
ENDBRANCH   9  10
ENDBRANCH   8   9
ENDBRANCH   7   8
ENDBRANCH   6   7
ENDBRANCH   5   6
ENDBRANCH   4   5
ENDBRANCH   3   4
ENDBRANCH   2   3
ENDBRANCH   1   2
BRANCH   1  15
ATOM     15  C   UNL     1      44.092  45.938   8.392  1.00  0.00     0.000 C 
BRANCH  15  16
ATOM     16  C   UNL     1      44.044  46.772   9.678  1.00  0.00     0.000 C 
BRANCH  16  17
ATOM     17  C   UNL     1      45.167  46.357  10.641  1.00  0.00     0.000 C 
BRANCH  17  18
ATOM     18  C   UNL     1      46.565  46.518  10.025  1.00  0.00    -0.000 C 
BRANCH  18  19
ATOM     19  C   UNL     1      47.203  47.878  10.349  1.00  0.00    -0.000 C 
BRANCH  19  20
ATOM     20  C   UNL     1      46.887  48.952   9.292  1.00  0.00    -0.000 C 
BRANCH  20  21
ATOM     21  C   UNL     1      46.785  50.379   9.873  1.00  0.00    -0.000 C 
BRANCH  21  22
ATOM     22  C   UNL     1      46.489  50.374  11.383  1.00  0.00    -0.000 C 
BRANCH  22  23
ATOM     23  C   UNL     1      45.066  50.857  11.716  1.00  0.00    -0.000 C 
BRANCH  23  24
ATOM     24  C   UNL     1      44.039  49.735  11.954  1.00  0.00    -0.000 C 
BRANCH  24  25
ATOM     25  C   UNL     1      42.742  49.936  11.156  1.00  0.00    -0.003 C 
ATOM     26  C   UNL     1      43.037  50.395   9.731  1.00  0.00     0.004 C 
ENDBRANCH  24  25
ENDBRANCH  23  24
ENDBRANCH  22  23
ENDBRANCH  21  22
ENDBRANCH  20  21
ENDBRANCH  19  20
ENDBRANCH  18  19
ENDBRANCH  17  18
ENDBRANCH  16  17
ENDBRANCH  15  16
ENDBRANCH   1  15
TORSDOF 22
ENDMDL
MODEL 5
REMARK VINA RESULT:    -4.887      1.979      4.301
REMARK INTER + INTRA:         -15.052
REMARK INTER:                 -11.551
REMARK INTRA:                  -3.502
REMARK UNBOUND:                -3.881
REMARK SMILES CCCCCCCCCCCCCCCCCCCCCCCC(=O)[O-]
REMARK SMILES IDX 13 1 14 2 15 3 16 4 17 5 18 6 19 7 20 8 21 9 22 10 23 11
REMARK SMILES IDX 24 12 25 13 26 14 12 15 11 16 10 17 9 18 8 19 7 20 6 21 5 22
REMARK SMILES IDX 4 23 3 24 2 25 1 26
REMARK H PARENT
REMARK Flexibility Score: inf
ROOT
ATOM      1  C   UNL     1      46.936  45.056  10.005  1.00  0.00     0.000 C 
ENDROOT
BRANCH   1   2
ATOM      2  C   UNL     1      46.135  46.294  10.443  1.00  0.00     0.000 C 
BRANCH   2   3
ATOM      3  C   UNL     1      46.585  47.575   9.720  1.00  0.00     0.000 C 
BRANCH   3   4
ATOM      4  C   UNL     1      47.458  48.487  10.601  1.00  0.00     0.000 C 
BRANCH   4   5
ATOM      5  C   UNL     1      47.478  49.971  10.192  1.00  0.00     0.000 C 
BRANCH   5   6
ATOM      6  C   UNL     1      46.963  50.906  11.296  1.00  0.00     0.000 C 
BRANCH   6   7
ATOM      7  C   UNL     1      45.544  50.521  11.732  1.00  0.00     0.000 C 
BRANCH   7   8
ATOM      8  C   UNL     1      44.496  50.747  10.626  1.00  0.00     0.000 C 
BRANCH   8   9
ATOM      9  C   UNL     1      43.407  49.655  10.573  1.00  0.00     0.000 C 
BRANCH   9  10
ATOM     10  C   UNL     1      43.567  48.617  11.699  1.00  0.00     0.006 C 
BRANCH  10  11
ATOM     11  C   UNL     1      42.259  48.390  12.467  1.00  0.00     0.053 C 
BRANCH  11  12
ATOM     12  C   UNL     1      41.775  49.650  13.117  1.00  0.00     0.041 C 
ATOM     13  O   UNL     1      40.623  50.092  12.864  1.00  0.00    -0.550 OA
ATOM     14  O   UNL     1      42.606  50.353  13.982  1.00  0.00    -0.550 OA
ENDBRANCH  11  12
ENDBRANCH  10  11
ENDBRANCH   9  10
ENDBRANCH   8   9
ENDBRANCH   7   8
ENDBRANCH   6   7
ENDBRANCH   5   6
ENDBRANCH   4   5
ENDBRANCH   3   4
ENDBRANCH   2   3
ENDBRANCH   1   2
BRANCH   1  15
ATOM     15  C   UNL     1      47.445  45.159   8.559  1.00  0.00     0.000 C 
BRANCH  15  16
ATOM     16  C   UNL     1      46.835  44.060   7.680  1.00  0.00     0.000 C 
BRANCH  16  17
ATOM     17  C   UNL     1      45.696  44.621   6.815  1.00  0.00     0.000 C 
BRANCH  17  18
ATOM     18  C   UNL     1      44.325  44.516   7.502  1.00  0.00    -0.000 C 
BRANCH  18  19
ATOM     19  C   UNL     1      43.654  45.885   7.697  1.00  0.00    -0.000 C 
BRANCH  19  20
ATOM     20  C   UNL     1      42.765  45.941   8.952  1.00  0.00    -0.000 C 
BRANCH  20  21
ATOM     21  C   UNL     1      41.628  46.981   8.859  1.00  0.00    -0.000 C 
BRANCH  21  22
ATOM     22  C   UNL     1      41.448  47.521   7.429  1.00  0.00    -0.000 C 
BRANCH  22  23
ATOM     23  C   UNL     1      39.999  47.401   6.922  1.00  0.00    -0.000 C 
BRANCH  23  24
ATOM     24  C   UNL     1      39.165  46.297   7.596  1.00  0.00    -0.000 C 
BRANCH  24  25
ATOM     25  C   UNL     1      38.465  45.377   6.585  1.00  0.00    -0.003 C 
ATOM     26  C   UNL     1      38.653  45.884   5.157  1.00  0.00     0.004 C 
ENDBRANCH  24  25
ENDBRANCH  23  24
ENDBRANCH  22  23
ENDBRANCH  21  22
ENDBRANCH  20  21
ENDBRANCH  19  20
ENDBRANCH  18  19
ENDBRANCH  17  18
ENDBRANCH  16  17
ENDBRANCH  15  16
ENDBRANCH   1  15
TORSDOF 22
ENDMDL
MODEL 6
REMARK VINA RESULT:    -4.873      1.401      3.167
REMARK INTER + INTRA:         -15.021
REMARK INTER:                 -11.617
REMARK INTRA:                  -3.403
REMARK UNBOUND:                -3.881
REMARK SMILES CCCCCCCCCCCCCCCCCCCCCCCC(=O)[O-]
REMARK SMILES IDX 13 1 14 2 15 3 16 4 17 5 18 6 19 7 20 8 21 9 22 10 23 11
REMARK SMILES IDX 24 12 25 13 26 14 12 15 11 16 10 17 9 18 8 19 7 20 6 21 5 22
REMARK SMILES IDX 4 23 3 24 2 25 1 26
REMARK H PARENT
REMARK Flexibility Score: inf
ROOT
ATOM      1  C   UNL     1      44.837  45.514  10.605  1.00  0.00     0.000 C 
ENDROOT
BRANCH   1   2
ATOM      2  C   UNL     1      46.333  45.865  10.662  1.00  0.00     0.000 C 
BRANCH   2   3
ATOM      3  C   UNL     1      46.863  46.416   9.327  1.00  0.00     0.000 C 
BRANCH   3   4
ATOM      4  C   UNL     1      46.972  47.952   9.313  1.00  0.00     0.000 C 
BRANCH   4   5
ATOM      5  C   UNL     1      47.389  48.592  10.649  1.00  0.00     0.000 C 
BRANCH   5   6
ATOM      6  C   UNL     1      47.085  50.096  10.717  1.00  0.00     0.000 C 
BRANCH   6   7
ATOM      7  C   UNL     1      45.892  50.460   9.823  1.00  0.00     0.000 C 
BRANCH   7   8
ATOM      8  C   UNL     1      44.655  50.902  10.625  1.00  0.00     0.000 C 
BRANCH   8   9
ATOM      9  C   UNL     1      44.494  50.165  11.971  1.00  0.00     0.000 C 
BRANCH   9  10
ATOM     10  C   UNL     1      43.641  48.890  11.839  1.00  0.00     0.006 C 
BRANCH  10  11
ATOM     11  C   UNL     1      42.730  48.673  13.053  1.00  0.00     0.053 C 
BRANCH  11  12
ATOM     12  C   UNL     1      41.823  49.844  13.278  1.00  0.00     0.041 C 
ATOM     13  O   UNL     1      41.852  50.468  14.372  1.00  0.00    -0.550 OA
ATOM     14  O   UNL     1      40.925  50.231  12.290  1.00  0.00    -0.550 OA
ENDBRANCH  11  12
ENDBRANCH  10  11
ENDBRANCH   9  10
ENDBRANCH   8   9
ENDBRANCH   7   8
ENDBRANCH   6   7
ENDBRANCH   5   6
ENDBRANCH   4   5
ENDBRANCH   3   4
ENDBRANCH   2   3
ENDBRANCH   1   2
BRANCH   1  15
ATOM     15  C   UNL     1      44.288  45.489   9.169  1.00  0.00     0.000 C 
BRANCH  15  16
ATOM     16  C   UNL     1      43.060  46.399   9.033  1.00  0.00     0.000 C 
BRANCH  16  17
ATOM     17  C   UNL     1      43.441  47.737   8.382  1.00  0.00     0.000 C 
BRANCH  17  18
ATOM     18  C   UNL     1      42.395  48.220   7.365  1.00  0.00    -0.000 C 
BRANCH  18  19
ATOM     19  C   UNL     1      42.352  47.348   6.100  1.00  0.00    -0.000 C 
BRANCH  19  20
ATOM     20  C   UNL     1      40.920  47.105   5.591  1.00  0.00    -0.000 C 
BRANCH  20  21
ATOM     21  C   UNL     1      39.842  47.244   6.687  1.00  0.00    -0.000 C 
BRANCH  21  22
ATOM     22  C   UNL     1      38.791  46.121   6.617  1.00  0.00    -0.000 C 
BRANCH  22  23
ATOM     23  C   UNL     1      39.011  45.028   7.679  1.00  0.00    -0.000 C 
BRANCH  23  24
ATOM     24  C   UNL     1      39.857  45.462   8.890  1.00  0.00    -0.000 C 
BRANCH  24  25
ATOM     25  C   UNL     1      39.008  45.753  10.137  1.00  0.00    -0.003 C 
ATOM     26  C   UNL     1      39.888  45.955  11.368  1.00  0.00     0.004 C 
ENDBRANCH  24  25
ENDBRANCH  23  24
ENDBRANCH  22  23
ENDBRANCH  21  22
ENDBRANCH  20  21
ENDBRANCH  19  20
ENDBRANCH  18  19
ENDBRANCH  17  18
ENDBRANCH  16  17
ENDBRANCH  15  16
ENDBRANCH   1  15
TORSDOF 22
ENDMDL
MODEL 7
REMARK VINA RESULT:    -4.859      1.391      5.039
REMARK INTER + INTRA:         -14.990
REMARK INTER:                 -10.879
REMARK INTRA:                  -4.111
REMARK UNBOUND:                -3.881
REMARK SMILES CCCCCCCCCCCCCCCCCCCCCCCC(=O)[O-]
REMARK SMILES IDX 13 1 14 2 15 3 16 4 17 5 18 6 19 7 20 8 21 9 22 10 23 11
REMARK SMILES IDX 24 12 25 13 26 14 12 15 11 16 10 17 9 18 8 19 7 20 6 21 5 22
REMARK SMILES IDX 4 23 3 24 2 25 1 26
REMARK H PARENT
REMARK Flexibility Score: inf
ROOT
ATOM      1  C   UNL     1      42.176  49.266   8.499  1.00  0.00     0.000 C 
ENDROOT
BRANCH   1   2
ATOM      2  C   UNL     1      41.228  49.293   7.288  1.00  0.00     0.000 C 
BRANCH   2   3
ATOM      3  C   UNL     1      41.035  47.903   6.657  1.00  0.00     0.000 C 
BRANCH   3   4
ATOM      4  C   UNL     1      40.021  47.033   7.422  1.00  0.00     0.000 C 
BRANCH   4   5
ATOM      5  C   UNL     1      40.358  45.532   7.480  1.00  0.00     0.000 C 
BRANCH   5   6
ATOM      6  C   UNL     1      39.908  44.864   8.788  1.00  0.00     0.000 C 
BRANCH   6   7
ATOM      7  C   UNL     1      39.083  45.830   9.647  1.00  0.00     0.000 C 
BRANCH   7   8
ATOM      8  C   UNL     1      39.714  46.094  11.026  1.00  0.00     0.000 C 
BRANCH   8   9
ATOM      9  C   UNL     1      41.102  46.764  10.954  1.00  0.00     0.000 C 
BRANCH   9  10
ATOM     10  C   UNL     1      41.701  47.017  12.350  1.00  0.00     0.006 C 
BRANCH  10  11
ATOM     11  C   UNL     1      42.595  48.262  12.380  1.00  0.00     0.053 C 
BRANCH  11  12
ATOM     12  C   UNL     1      41.901  49.425  13.020  1.00  0.00     0.041 C 
ATOM     13  O   UNL     1      40.678  49.633  12.801  1.00  0.00    -0.550 OA
ATOM     14  O   UNL     1      42.611  50.297  13.838  1.00  0.00    -0.550 OA
ENDBRANCH  11  12
ENDBRANCH  10  11
ENDBRANCH   9  10
ENDBRANCH   8   9
ENDBRANCH   7   8
ENDBRANCH   6   7
ENDBRANCH   5   6
ENDBRANCH   4   5
ENDBRANCH   3   4
ENDBRANCH   2   3
ENDBRANCH   1   2
BRANCH   1  15
ATOM     15  C   UNL     1      41.997  50.483   9.420  1.00  0.00     0.000 C 
BRANCH  15  16
ATOM     16  C   UNL     1      43.352  51.000   9.920  1.00  0.00     0.000 C 
BRANCH  16  17
ATOM     17  C   UNL     1      44.276  51.339   8.740  1.00  0.00     0.000 C 
BRANCH  17  18
ATOM     18  C   UNL     1      45.676  51.781   9.195  1.00  0.00    -0.000 C 
BRANCH  18  19
ATOM     19  C   UNL     1      45.746  52.072  10.702  1.00  0.00    -0.000 C 
BRANCH  19  20
ATOM     20  C   UNL     1      46.581  51.034  11.473  1.00  0.00    -0.000 C 
BRANCH  20  21
ATOM     21  C   UNL     1      47.600  50.282  10.590  1.00  0.00    -0.000 C 
BRANCH  21  22
ATOM     22  C   UNL     1      47.404  48.757  10.645  1.00  0.00    -0.000 C 
BRANCH  22  23
ATOM     23  C   UNL     1      45.921  48.342  10.633  1.00  0.00    -0.000 C 
BRANCH  23  24
ATOM     24  C   UNL     1      45.450  47.654   9.340  1.00  0.00    -0.000 C 
BRANCH  24  25
ATOM     25  C   UNL     1      44.457  46.512   9.600  1.00  0.00    -0.003 C 
ATOM     26  C   UNL     1      43.898  45.958   8.291  1.00  0.00     0.004 C 
ENDBRANCH  24  25
ENDBRANCH  23  24
ENDBRANCH  22  23
ENDBRANCH  21  22
ENDBRANCH  20  21
ENDBRANCH  19  20
ENDBRANCH  18  19
ENDBRANCH  17  18
ENDBRANCH  16  17
ENDBRANCH  15  16
ENDBRANCH   1  15
TORSDOF 22
ENDMDL
MODEL 8
REMARK VINA RESULT:    -4.859      3.026      5.287
REMARK INTER + INTRA:         -14.990
REMARK INTER:                 -11.401
REMARK INTRA:                  -3.588
REMARK UNBOUND:                -3.881
REMARK SMILES CCCCCCCCCCCCCCCCCCCCCCCC(=O)[O-]
REMARK SMILES IDX 13 1 14 2 15 3 16 4 17 5 18 6 19 7 20 8 21 9 22 10 23 11
REMARK SMILES IDX 24 12 25 13 26 14 12 15 11 16 10 17 9 18 8 19 7 20 6 21 5 22
REMARK SMILES IDX 4 23 3 24 2 25 1 26
REMARK H PARENT
REMARK Flexibility Score: inf
ROOT
ATOM      1  C   UNL     1      42.743  47.695  12.882  1.00  0.00     0.000 C 
ENDROOT
BRANCH   1   2
ATOM      2  C   UNL     1      42.039  49.053  13.044  1.00  0.00     0.000 C 
BRANCH   2   3
ATOM      3  C   UNL     1      42.916  50.232  12.588  1.00  0.00     0.000 C 
BRANCH   3   4
ATOM      4  C   UNL     1      44.301  49.789  12.083  1.00  0.00     0.000 C 
BRANCH   4   5
ATOM      5  C   UNL     1      45.247  50.933  11.676  1.00  0.00     0.000 C 
BRANCH   5   6
ATOM      6  C   UNL     1      45.321  51.141  10.156  1.00  0.00     0.000 C 
BRANCH   6   7
ATOM      7  C   UNL     1      46.363  50.213   9.519  1.00  0.00     0.000 C 
BRANCH   7   8
ATOM      8  C   UNL     1      47.514  49.858  10.478  1.00  0.00     0.000 C 
BRANCH   8   9
ATOM      9  C   UNL     1      47.717  48.340  10.666  1.00  0.00     0.000 C 
BRANCH   9  10
ATOM     10  C   UNL     1      46.452  47.535  10.315  1.00  0.00     0.006 C 
BRANCH  10  11
ATOM     11  C   UNL     1      46.777  46.259   9.529  1.00  0.00     0.053 C 
BRANCH  11  12
ATOM     12  C   UNL     1      45.645  45.278   9.576  1.00  0.00     0.041 C 
ATOM     13  O   UNL     1      45.193  44.884  10.684  1.00  0.00    -0.550 OA
ATOM     14  O   UNL     1      45.107  44.775   8.397  1.00  0.00    -0.550 OA
ENDBRANCH  11  12
ENDBRANCH  10  11
ENDBRANCH   9  10
ENDBRANCH   8   9
ENDBRANCH   7   8
ENDBRANCH   6   7
ENDBRANCH   5   6
ENDBRANCH   4   5
ENDBRANCH   3   4
ENDBRANCH   2   3
ENDBRANCH   1   2
BRANCH   1  15
ATOM     15  C   UNL     1      41.808  46.602  12.341  1.00  0.00     0.000 C 
BRANCH  15  16
ATOM     16  C   UNL     1      41.243  46.989  10.969  1.00  0.00     0.000 C 
BRANCH  16  17
ATOM     17  C   UNL     1      42.309  46.833   9.874  1.00  0.00     0.000 C 
BRANCH  17  18
ATOM     18  C   UNL     1      42.789  48.183   9.319  1.00  0.00    -0.000 C 
BRANCH  18  19
ATOM     19  C   UNL     1      43.498  48.049   7.962  1.00  0.00    -0.000 C 
BRANCH  19  20
ATOM     20  C   UNL     1      42.718  47.173   6.965  1.00  0.00    -0.000 C 
BRANCH  20  21
ATOM     21  C   UNL     1      41.573  47.921   6.249  1.00  0.00    -0.000 C 
BRANCH  21  22
ATOM     22  C   UNL     1      40.194  47.579   6.840  1.00  0.00    -0.000 C 
BRANCH  22  23
ATOM     23  C   UNL     1      39.329  46.731   5.889  1.00  0.00    -0.000 C 
BRANCH  23  24
ATOM     24  C   UNL     1      38.501  45.629   6.575  1.00  0.00    -0.000 C 
BRANCH  24  25
ATOM     25  C   UNL     1      38.573  45.696   8.108  1.00  0.00    -0.003 C 
ATOM     26  C   UNL     1      39.461  44.587   8.667  1.00  0.00     0.004 C 
ENDBRANCH  24  25
ENDBRANCH  23  24
ENDBRANCH  22  23
ENDBRANCH  21  22
ENDBRANCH  20  21
ENDBRANCH  19  20
ENDBRANCH  18  19
ENDBRANCH  17  18
ENDBRANCH  16  17
ENDBRANCH  15  16
ENDBRANCH   1  15
TORSDOF 22
ENDMDL
MODEL 9
REMARK VINA RESULT:    -4.834      2.674      6.216
REMARK INTER + INTRA:         -14.932
REMARK INTER:                 -11.023
REMARK INTRA:                  -3.909
REMARK UNBOUND:                -3.881
REMARK SMILES CCCCCCCCCCCCCCCCCCCCCCCC(=O)[O-]
REMARK SMILES IDX 13 1 14 2 15 3 16 4 17 5 18 6 19 7 20 8 21 9 22 10 23 11
REMARK SMILES IDX 24 12 25 13 26 14 12 15 11 16 10 17 9 18 8 19 7 20 6 21 5 22
REMARK SMILES IDX 4 23 3 24 2 25 1 26
REMARK H PARENT
REMARK Flexibility Score: inf
ROOT
ATOM      1  C   UNL     1      41.187  47.221   7.631  1.00  0.00     0.000 C 
ENDROOT
BRANCH   1   2
ATOM      2  C   UNL     1      41.451  48.731   7.509  1.00  0.00     0.000 C 
BRANCH   2   3
ATOM      3  C   UNL     1      42.515  49.227   8.504  1.00  0.00     0.000 C 
BRANCH   3   4
ATOM      4  C   UNL     1      42.202  50.625   9.070  1.00  0.00     0.000 C 
BRANCH   4   5
ATOM      5  C   UNL     1      43.367  51.309   9.807  1.00  0.00     0.000 C 
BRANCH   5   6
ATOM      6  C   UNL     1      44.682  50.520   9.716  1.00  0.00     0.000 C 
BRANCH   6   7
ATOM      7  C   UNL     1      45.545  50.736  10.966  1.00  0.00     0.000 C 
BRANCH   7   8
ATOM      8  C   UNL     1      46.758  49.791  11.027  1.00  0.00     0.000 C 
BRANCH   8   9
ATOM      9  C   UNL     1      46.813  48.777   9.865  1.00  0.00     0.000 C 
BRANCH   9  10
ATOM     10  C   UNL     1      46.198  47.418  10.247  1.00  0.00     0.006 C 
BRANCH  10  11
ATOM     11  C   UNL     1      45.204  46.915   9.193  1.00  0.00     0.053 C 
BRANCH  11  12
ATOM     12  C   UNL     1      44.667  45.561   9.544  1.00  0.00     0.041 C 
ATOM     13  O   UNL     1      43.862  44.978   8.770  1.00  0.00    -0.550 OA
ATOM     14  O   UNL     1      45.033  44.953  10.739  1.00  0.00    -0.550 OA
ENDBRANCH  11  12
ENDBRANCH  10  11
ENDBRANCH   9  10
ENDBRANCH   8   9
ENDBRANCH   7   8
ENDBRANCH   6   7
ENDBRANCH   5   6
ENDBRANCH   4   5
ENDBRANCH   3   4
ENDBRANCH   2   3
ENDBRANCH   1   2
BRANCH   1  15
ATOM     15  C   UNL     1      39.838  46.803   7.023  1.00  0.00     0.000 C 
BRANCH  15  16
ATOM     16  C   UNL     1      38.949  46.121   8.071  1.00  0.00     0.000 C 
BRANCH  16  17
ATOM     17  C   UNL     1      39.796  45.562   9.225  1.00  0.00     0.000 C 
BRANCH  17  18
ATOM     18  C   UNL     1      39.121  45.741  10.594  1.00  0.00    -0.000 C 
BRANCH  18  19
ATOM     19  C   UNL     1      40.005  46.503  11.595  1.00  0.00    -0.000 C 
BRANCH  19  20
ATOM     20  C   UNL     1      41.481  46.561  11.164  1.00  0.00    -0.000 C 
BRANCH  20  21
ATOM     21  C   UNL     1      42.449  46.899  12.318  1.00  0.00    -0.000 C 
BRANCH  21  22
ATOM     22  C   UNL     1      43.041  48.313  12.188  1.00  0.00    -0.000 C 
BRANCH  22  23
ATOM     23  C   UNL     1      42.425  49.314  13.184  1.00  0.00    -0.000 C 
BRANCH  23  24
ATOM     24  C   UNL     1      41.362  50.253  12.586  1.00  0.00    -0.000 C 
BRANCH  24  25
ATOM     25  C   UNL     1      39.940  49.926  13.067  1.00  0.00    -0.003 C 
ATOM     26  C   UNL     1      39.104  51.195  13.218  1.00  0.00     0.004 C 
ENDBRANCH  24  25
ENDBRANCH  23  24
ENDBRANCH  22  23
ENDBRANCH  21  22
ENDBRANCH  20  21
ENDBRANCH  19  20
ENDBRANCH  18  19
ENDBRANCH  17  18
ENDBRANCH  16  17
ENDBRANCH  15  16
ENDBRANCH   1  15
TORSDOF 22
ENDMDL
