MODEL 1
REMARK VINA RESULT:    -4.054      0.000      0.000
REMARK INTER + INTRA:          -7.365
REMARK INTER:                  -6.898
REMARK INTRA:                  -0.467
REMARK UNBOUND:                -0.467
REMARK SMILES CCCCCCCCCCCCCC(=O)[O-]
REMARK SMILES IDX 8 1 9 2 10 3 11 4 12 5 13 6 14 7 15 8 16 9 7 10 6 11 5 12
REMARK SMILES IDX 4 13 3 14 2 15 1 16
REMARK H PARENT
REMARK Flexibility Score: inf
ROOT
ATOM      1  C   UNL     1      57.900  36.208  52.083  1.00  0.00     0.000 C 
ENDROOT
BRANCH   1   2
ATOM      2  C   UNL     1      58.983  35.143  51.868  1.00  0.00     0.000 C 
BRANCH   2   3
ATOM      3  C   UNL     1      59.275  34.950  50.373  1.00  0.00     0.000 C 
BRANCH   3   4
ATOM      4  C   UNL     1      58.539  35.966  49.481  1.00  0.00     0.000 C 
BRANCH   4   5
ATOM      5  C   UNL     1      59.106  36.114  48.054  1.00  0.00     0.006 C 
BRANCH   5   6
ATOM      6  C   UNL     1      59.812  37.452  47.783  1.00  0.00     0.053 C 
BRANCH   6   7
ATOM      7  C   UNL     1      61.294  37.354  47.974  1.00  0.00     0.041 C 
ATOM      8  O   UNL     1      61.968  38.385  48.231  1.00  0.00    -0.550 OA
ATOM      9  O   UNL     1      61.925  36.118  47.903  1.00  0.00    -0.550 OA
ENDBRANCH   6   7
ENDBRANCH   5   6
ENDBRANCH   4   5
ENDBRANCH   3   4
ENDBRANCH   2   3
ENDBRANCH   1   2
BRANCH   1  10
ATOM     10  C   UNL     1      57.386  36.186  53.530  1.00  0.00     0.000 C 
BRANCH  10  11
ATOM     11  C   UNL     1      58.499  36.425  54.568  1.00  0.00    -0.000 C 
BRANCH  11  12
ATOM     12  C   UNL     1      58.561  37.851  55.148  1.00  0.00    -0.000 C 
BRANCH  12  13
ATOM     13  C   UNL     1      59.690  38.031  56.177  1.00  0.00    -0.000 C 
BRANCH  13  14
ATOM     14  C   UNL     1      59.349  37.426  57.552  1.00  0.00    -0.000 C 
BRANCH  14  15
ATOM     15  C   UNL     1      58.675  38.394  58.541  1.00  0.00    -0.003 C 
ATOM     16  C   UNL     1      58.232  39.705  57.892  1.00  0.00     0.004 C 
ENDBRANCH  14  15
ENDBRANCH  13  14
ENDBRANCH  12  13
ENDBRANCH  11  12
ENDBRANCH  10  11
ENDBRANCH   1  10
TORSDOF 12
ENDMDL
MODEL 2
REMARK VINA RESULT:    -4.028      3.052      7.386
REMARK INTER + INTRA:          -7.320
REMARK INTER:                  -6.500
REMARK INTRA:                  -0.821
REMARK UNBOUND:                -0.467
REMARK SMILES CCCCCCCCCCCCCC(=O)[O-]
REMARK SMILES IDX 8 1 9 2 10 3 11 4 12 5 13 6 14 7 15 8 16 9 7 10 6 11 5 12
REMARK SMILES IDX 4 13 3 14 2 15 1 16
REMARK H PARENT
REMARK Flexibility Score: inf
ROOT
ATOM      1  C   UNL     1      57.410  36.394  52.506  1.00  0.00     0.000 C 
ENDROOT
BRANCH   1   2
ATOM      2  C   UNL     1      57.493  37.337  53.713  1.00  0.00     0.000 C 
BRANCH   2   3
ATOM      3  C   UNL     1      58.621  36.915  54.665  1.00  0.00     0.000 C 
BRANCH   3   4
ATOM      4  C   UNL     1      58.909  37.963  55.756  1.00  0.00     0.000 C 
BRANCH   4   5
ATOM      5  C   UNL     1      59.799  37.470  56.915  1.00  0.00     0.006 C 
BRANCH   5   6
ATOM      6  C   UNL     1      61.084  36.752  56.474  1.00  0.00     0.053 C 
BRANCH   6   7
ATOM      7  C   UNL     1      62.207  37.711  56.228  1.00  0.00     0.041 C 
ATOM      8  O   UNL     1      62.476  38.084  55.056  1.00  0.00    -0.550 OA
ATOM      9  O   UNL     1      62.934  38.220  57.297  1.00  0.00    -0.550 OA
ENDBRANCH   6   7
ENDBRANCH   5   6
ENDBRANCH   4   5
ENDBRANCH   3   4
ENDBRANCH   2   3
ENDBRANCH   1   2
BRANCH   1  10
ATOM     10  C   UNL     1      58.536  35.350  52.545  1.00  0.00     0.000 C 
BRANCH  10  11
ATOM     11  C   UNL     1      59.167  35.094  51.164  1.00  0.00    -0.000 C 
BRANCH  11  12
ATOM     12  C   UNL     1      58.583  35.929  50.009  1.00  0.00    -0.000 C 
BRANCH  12  13
ATOM     13  C   UNL     1      58.694  35.226  48.645  1.00  0.00    -0.000 C 
BRANCH  13  14
ATOM     14  C   UNL     1      59.921  35.682  47.834  1.00  0.00    -0.000 C 
BRANCH  14  15
ATOM     15  C   UNL     1      60.515  37.038  48.255  1.00  0.00    -0.003 C 
ATOM     16  C   UNL     1      61.976  36.943  48.694  1.00  0.00     0.004 C 
ENDBRANCH  14  15
ENDBRANCH  13  14
ENDBRANCH  12  13
ENDBRANCH  11  12
ENDBRANCH  10  11
ENDBRANCH   1  10
TORSDOF 12
ENDMDL
MODEL 3
REMARK VINA RESULT:    -3.800     14.505     17.113
REMARK INTER + INTRA:          -6.933
REMARK INTER:                  -6.251
REMARK INTRA:                  -0.682
REMARK UNBOUND:                -0.467
REMARK SMILES CCCCCCCCCCCCCC(=O)[O-]
REMARK SMILES IDX 8 1 9 2 10 3 11 4 12 5 13 6 14 7 15 8 16 9 7 10 6 11 5 12
REMARK SMILES IDX 4 13 3 14 2 15 1 16
REMARK H PARENT
REMARK Flexibility Score: inf
ROOT
ATOM      1  C   UNL     1      68.649  50.411  55.225  1.00  0.00     0.000 C 
ENDROOT
BRANCH   1   2
ATOM      2  C   UNL     1      68.741  49.368  56.346  1.00  0.00     0.000 C 
BRANCH   2   3
ATOM      3  C   UNL     1      67.716  49.656  57.452  1.00  0.00     0.000 C 
BRANCH   3   4
ATOM      4  C   UNL     1      67.290  48.391  58.221  1.00  0.00     0.000 C 
BRANCH   4   5
ATOM      5  C   UNL     1      66.120  47.608  57.592  1.00  0.00     0.006 C 
BRANCH   5   6
ATOM      6  C   UNL     1      65.734  46.324  58.345  1.00  0.00     0.053 C 
BRANCH   6   7
ATOM      7  C   UNL     1      65.520  45.171  57.414  1.00  0.00     0.041 C 
ATOM      8  O   UNL     1      65.857  45.263  56.204  1.00  0.00    -0.550 OA
ATOM      9  O   UNL     1      64.981  43.983  57.891  1.00  0.00    -0.550 OA
ENDBRANCH   6   7
ENDBRANCH   5   6
ENDBRANCH   4   5
ENDBRANCH   3   4
ENDBRANCH   2   3
ENDBRANCH   1   2
BRANCH   1  10
ATOM     10  C   UNL     1      70.026  51.021  54.926  1.00  0.00     0.000 C 
BRANCH  10  11
ATOM     11  C   UNL     1      69.940  52.358  54.167  1.00  0.00    -0.000 C 
BRANCH  11  12
ATOM     12  C   UNL     1      70.908  52.503  52.978  1.00  0.00    -0.000 C 
BRANCH  12  13
ATOM     13  C   UNL     1      70.756  51.376  51.940  1.00  0.00    -0.000 C 
BRANCH  13  14
ATOM     14  C   UNL     1      70.228  51.878  50.584  1.00  0.00    -0.000 C 
BRANCH  14  15
ATOM     15  C   UNL     1      68.814  51.395  50.215  1.00  0.00    -0.003 C 
ATOM     16  C   UNL     1      68.347  50.206  51.055  1.00  0.00     0.004 C 
ENDBRANCH  14  15
ENDBRANCH  13  14
ENDBRANCH  12  13
ENDBRANCH  11  12
ENDBRANCH  10  11
ENDBRANCH   1  10
TORSDOF 12
ENDMDL
MODEL 4
REMARK VINA RESULT:    -3.749     15.814     18.473
REMARK INTER + INTRA:          -6.846
REMARK INTER:                  -6.039
REMARK INTRA:                  -0.807
REMARK UNBOUND:                -0.467
REMARK SMILES CCCCCCCCCCCCCC(=O)[O-]
REMARK SMILES IDX 8 1 9 2 10 3 11 4 12 5 13 6 14 7 15 8 16 9 7 10 6 11 5 12
REMARK SMILES IDX 4 13 3 14 2 15 1 16
REMARK H PARENT
REMARK Flexibility Score: inf
ROOT
ATOM      1  C   UNL     1      60.968  50.676  40.101  1.00  0.00     0.000 C 
ENDROOT
BRANCH   1   2
ATOM      2  C   UNL     1      61.914  50.600  38.896  1.00  0.00     0.000 C 
BRANCH   2   3
ATOM      3  C   UNL     1      62.925  49.457  39.062  1.00  0.00     0.000 C 
BRANCH   3   4
ATOM      4  C   UNL     1      62.437  48.359  40.025  1.00  0.00     0.000 C 
BRANCH   4   5
ATOM      5  C   UNL     1      62.869  46.925  39.653  1.00  0.00     0.006 C 
BRANCH   5   6
ATOM      6  C   UNL     1      64.367  46.640  39.843  1.00  0.00     0.053 C 
BRANCH   6   7
ATOM      7  C   UNL     1      64.605  45.433  40.696  1.00  0.00     0.041 C 
ATOM      8  O   UNL     1      64.296  45.449  41.916  1.00  0.00    -0.550 OA
ATOM      9  O   UNL     1      65.135  44.278  40.135  1.00  0.00    -0.550 OA
ENDBRANCH   6   7
ENDBRANCH   5   6
ENDBRANCH   4   5
ENDBRANCH   3   4
ENDBRANCH   2   3
ENDBRANCH   1   2
BRANCH   1  10
ATOM     10  C   UNL     1      60.537  52.125  40.373  1.00  0.00     0.000 C 
BRANCH  10  11
ATOM     11  C   UNL     1      61.489  53.163  39.751  1.00  0.00    -0.000 C 
BRANCH  11  12
ATOM     12  C   UNL     1      61.226  54.625  40.159  1.00  0.00    -0.000 C 
BRANCH  12  13
ATOM     13  C   UNL     1      60.908  54.783  41.656  1.00  0.00    -0.000 C 
BRANCH  13  14
ATOM     14  C   UNL     1      62.161  54.692  42.547  1.00  0.00    -0.000 C 
BRANCH  14  15
ATOM     15  C   UNL     1      61.903  54.221  43.989  1.00  0.00    -0.003 C 
ATOM     16  C   UNL     1      60.549  53.533  44.164  1.00  0.00     0.004 C 
ENDBRANCH  14  15
ENDBRANCH  13  14
ENDBRANCH  12  13
ENDBRANCH  11  12
ENDBRANCH  10  11
ENDBRANCH   1  10
TORSDOF 12
ENDMDL
MODEL 5
REMARK VINA RESULT:    -3.745     16.646     17.942
REMARK INTER + INTRA:          -6.838
REMARK INTER:                  -5.237
REMARK INTRA:                  -1.601
REMARK UNBOUND:                -0.467
REMARK SMILES CCCCCCCCCCCCCC(=O)[O-]
REMARK SMILES IDX 8 1 9 2 10 3 11 4 12 5 13 6 14 7 15 8 16 9 7 10 6 11 5 12
REMARK SMILES IDX 4 13 3 14 2 15 1 16
REMARK H PARENT
REMARK Flexibility Score: inf
ROOT
ATOM      1  C   UNL     1      68.079  51.016  55.732  1.00  0.00     0.000 C 
ENDROOT
BRANCH   1   2
ATOM      2  C   UNL     1      69.028  50.624  54.592  1.00  0.00     0.000 C 
BRANCH   2   3
ATOM      3  C   UNL     1      70.005  51.764  54.273  1.00  0.00     0.000 C 
BRANCH   3   4
ATOM      4  C   UNL     1      70.933  51.445  53.086  1.00  0.00     0.000 C 
BRANCH   4   5
ATOM      5  C   UNL     1      70.782  52.381  51.870  1.00  0.00     0.006 C 
BRANCH   5   6
ATOM      6  C   UNL     1      70.456  51.665  50.549  1.00  0.00     0.053 C 
BRANCH   6   7
ATOM      7  C   UNL     1      68.992  51.381  50.411  1.00  0.00     0.041 C 
ATOM      8  O   UNL     1      68.244  52.193  49.808  1.00  0.00    -0.550 OA
ATOM      9  O   UNL     1      68.462  50.202  50.920  1.00  0.00    -0.550 OA
ENDBRANCH   6   7
ENDBRANCH   5   6
ENDBRANCH   4   5
ENDBRANCH   3   4
ENDBRANCH   2   3
ENDBRANCH   1   2
BRANCH   1  10
ATOM     10  C   UNL     1      68.492  50.342  57.048  1.00  0.00     0.000 C 
BRANCH  10  11
ATOM     11  C   UNL     1      69.429  49.138  56.841  1.00  0.00    -0.000 C 
BRANCH  11  12
ATOM     12  C   UNL     1      70.298  48.764  58.057  1.00  0.00    -0.000 C 
BRANCH  12  13
ATOM     13  C   UNL     1      71.804  48.762  57.741  1.00  0.00    -0.000 C 
BRANCH  13  14
ATOM     14  C   UNL     1      72.144  49.513  56.441  1.00  0.00    -0.000 C 
BRANCH  14  15
ATOM     15  C   UNL     1      72.889  50.846  56.633  1.00  0.00    -0.003 C 
ATOM     16  C   UNL     1      72.044  51.910  57.335  1.00  0.00     0.004 C 
ENDBRANCH  14  15
ENDBRANCH  13  14
ENDBRANCH  12  13
ENDBRANCH  11  12
ENDBRANCH  10  11
ENDBRANCH   1  10
TORSDOF 12
ENDMDL
MODEL 6
REMARK VINA RESULT:    -3.744     13.760     15.624
REMARK INTER + INTRA:          -6.837
REMARK INTER:                  -6.372
REMARK INTRA:                  -0.465
REMARK UNBOUND:                -0.467
REMARK SMILES CCCCCCCCCCCCCC(=O)[O-]
REMARK SMILES IDX 8 1 9 2 10 3 11 4 12 5 13 6 14 7 15 8 16 9 7 10 6 11 5 12
REMARK SMILES IDX 4 13 3 14 2 15 1 16
REMARK H PARENT
REMARK Flexibility Score: inf
ROOT
ATOM      1  C   UNL     1      68.863  48.992  56.878  1.00  0.00     0.000 C 
ENDROOT
BRANCH   1   2
ATOM      2  C   UNL     1      68.682  49.961  55.703  1.00  0.00     0.000 C 
BRANCH   2   3
ATOM      3  C   UNL     1      69.886  50.906  55.579  1.00  0.00     0.000 C 
BRANCH   3   4
ATOM      4  C   UNL     1      69.861  51.744  54.287  1.00  0.00     0.000 C 
BRANCH   4   5
ATOM      5  C   UNL     1      70.258  50.982  53.007  1.00  0.00     0.006 C 
BRANCH   5   6
ATOM      6  C   UNL     1      69.179  50.967  51.912  1.00  0.00     0.053 C 
BRANCH   6   7
ATOM      7  C   UNL     1      69.676  51.551  50.626  1.00  0.00     0.041 C 
ATOM      8  O   UNL     1      70.803  52.109  50.578  1.00  0.00    -0.550 OA
ATOM      9  O   UNL     1      68.909  51.446  49.472  1.00  0.00    -0.550 OA
ENDBRANCH   6   7
ENDBRANCH   5   6
ENDBRANCH   4   5
ENDBRANCH   3   4
ENDBRANCH   2   3
ENDBRANCH   1   2
BRANCH   1  10
ATOM     10  C   UNL     1      67.571  48.875  57.700  1.00  0.00     0.000 C 
BRANCH  10  11
ATOM     11  C   UNL     1      66.697  47.679  57.283  1.00  0.00    -0.000 C 
BRANCH  11  12
ATOM     12  C   UNL     1      65.595  47.288  58.286  1.00  0.00    -0.000 C 
BRANCH  12  13
ATOM     13  C   UNL     1      65.092  45.847  58.093  1.00  0.00    -0.000 C 
BRANCH  13  14
ATOM     14  C   UNL     1      65.888  45.072  57.027  1.00  0.00    -0.000 C 
BRANCH  14  15
ATOM     15  C   UNL     1      65.488  43.595  56.857  1.00  0.00    -0.003 C 
ATOM     16  C   UNL     1      66.575  42.622  57.313  1.00  0.00     0.004 C 
ENDBRANCH  14  15
ENDBRANCH  13  14
ENDBRANCH  12  13
ENDBRANCH  11  12
ENDBRANCH  10  11
ENDBRANCH   1  10
TORSDOF 12
ENDMDL
MODEL 7
REMARK VINA RESULT:    -3.674     18.276     20.470
REMARK INTER + INTRA:          -6.719
REMARK INTER:                  -5.019
REMARK INTRA:                  -1.700
REMARK UNBOUND:                -0.467
REMARK SMILES CCCCCCCCCCCCCC(=O)[O-]
REMARK SMILES IDX 8 1 9 2 10 3 11 4 12 5 13 6 14 7 15 8 16 9 7 10 6 11 5 12
REMARK SMILES IDX 4 13 3 14 2 15 1 16
REMARK H PARENT
REMARK Flexibility Score: inf
ROOT
ATOM      1  C   UNL     1      72.172  54.102  49.605  1.00  0.00     0.000 C 
ENDROOT
BRANCH   1   2
ATOM      2  C   UNL     1      72.043  53.603  51.050  1.00  0.00     0.000 C 
BRANCH   2   3
ATOM      3  C   UNL     1      70.857  54.271  51.759  1.00  0.00     0.000 C 
BRANCH   3   4
ATOM      4  C   UNL     1      70.409  53.515  53.023  1.00  0.00     0.000 C 
BRANCH   4   5
ATOM      5  C   UNL     1      70.853  52.039  53.093  1.00  0.00     0.006 C 
BRANCH   5   6
ATOM      6  C   UNL     1      69.878  51.114  53.838  1.00  0.00     0.053 C 
BRANCH   6   7
ATOM      7  C   UNL     1      70.263  50.933  55.274  1.00  0.00     0.041 C 
ATOM      8  O   UNL     1      71.462  51.071  55.630  1.00  0.00    -0.550 OA
ATOM      9  O   UNL     1      69.290  50.646  56.224  1.00  0.00    -0.550 OA
ENDBRANCH   6   7
ENDBRANCH   5   6
ENDBRANCH   4   5
ENDBRANCH   3   4
ENDBRANCH   2   3
ENDBRANCH   1   2
BRANCH   1  10
ATOM     10  C   UNL     1      71.070  55.118  49.272  1.00  0.00     0.000 C 
BRANCH  10  11
ATOM     11  C   UNL     1      70.437  54.889  47.888  1.00  0.00    -0.000 C 
BRANCH  11  12
ATOM     12  C   UNL     1      68.898  54.827  47.870  1.00  0.00    -0.000 C 
BRANCH  12  13
ATOM     13  C   UNL     1      68.288  54.661  49.273  1.00  0.00    -0.000 C 
BRANCH  13  14
ATOM     14  C   UNL     1      67.796  53.228  49.546  1.00  0.00    -0.000 C 
BRANCH  14  15
ATOM     15  C   UNL     1      68.867  52.131  49.399  1.00  0.00    -0.003 C 
ATOM     16  C   UNL     1      68.667  50.964  50.366  1.00  0.00     0.004 C 
ENDBRANCH  14  15
ENDBRANCH  13  14
ENDBRANCH  12  13
ENDBRANCH  11  12
ENDBRANCH  10  11
ENDBRANCH   1  10
TORSDOF 12
ENDMDL
MODEL 8
REMARK VINA RESULT:    -3.657     16.683     17.991
REMARK INTER + INTRA:          -6.689
REMARK INTER:                  -5.374
REMARK INTRA:                  -1.315
REMARK UNBOUND:                -0.467
REMARK SMILES CCCCCCCCCCCCCC(=O)[O-]
REMARK SMILES IDX 8 1 9 2 10 3 11 4 12 5 13 6 14 7 15 8 16 9 7 10 6 11 5 12
REMARK SMILES IDX 4 13 3 14 2 15 1 16
REMARK H PARENT
REMARK Flexibility Score: inf
ROOT
ATOM      1  C   UNL     1      71.131  51.150  54.308  1.00  0.00     0.000 C 
ENDROOT
BRANCH   1   2
ATOM      2  C   UNL     1      71.348  51.343  52.802  1.00  0.00     0.000 C 
BRANCH   2   3
ATOM      3  C   UNL     1      70.113  51.974  52.145  1.00  0.00     0.000 C 
BRANCH   3   4
ATOM      4  C   UNL     1      69.119  50.928  51.607  1.00  0.00     0.000 C 
BRANCH   4   5
ATOM      5  C   UNL     1      68.573  51.213  50.193  1.00  0.00     0.006 C 
BRANCH   5   6
ATOM      6  C   UNL     1      69.388  52.237  49.388  1.00  0.00     0.053 C 
BRANCH   6   7
ATOM      7  C   UNL     1      68.564  53.422  48.990  1.00  0.00     0.041 C 
ATOM      8  O   UNL     1      67.604  53.796  49.712  1.00  0.00    -0.550 OA
ATOM      9  O   UNL     1      68.880  54.134  47.839  1.00  0.00    -0.550 OA
ENDBRANCH   6   7
ENDBRANCH   5   6
ENDBRANCH   4   5
ENDBRANCH   3   4
ENDBRANCH   2   3
ENDBRANCH   1   2
BRANCH   1  10
ATOM     10  C   UNL     1      70.320  52.311  54.902  1.00  0.00     0.000 C 
BRANCH  10  11
ATOM     11  C   UNL     1      69.256  51.847  55.913  1.00  0.00    -0.000 C 
BRANCH  11  12
ATOM     12  C   UNL     1      68.456  50.597  55.499  1.00  0.00    -0.000 C 
BRANCH  12  13
ATOM     13  C   UNL     1      68.673  49.404  56.446  1.00  0.00    -0.000 C 
BRANCH  13  14
ATOM     14  C   UNL     1      69.183  49.828  57.836  1.00  0.00    -0.000 C 
BRANCH  14  15
ATOM     15  C   UNL     1      70.534  49.219  58.249  1.00  0.00    -0.003 C 
ATOM     16  C   UNL     1      71.342  48.689  57.064  1.00  0.00     0.004 C 
ENDBRANCH  14  15
ENDBRANCH  13  14
ENDBRANCH  12  13
ENDBRANCH  11  12
ENDBRANCH  10  11
ENDBRANCH   1  10
TORSDOF 12
ENDMDL
MODEL 9
REMARK VINA RESULT:    -3.614     17.755     19.864
REMARK INTER + INTRA:          -6.616
REMARK INTER:                  -4.970
REMARK INTRA:                  -1.646
REMARK UNBOUND:                -0.467
REMARK SMILES CCCCCCCCCCCCCC(=O)[O-]
REMARK SMILES IDX 8 1 9 2 10 3 11 4 12 5 13 6 14 7 15 8 16 9 7 10 6 11 5 12
REMARK SMILES IDX 4 13 3 14 2 15 1 16
REMARK H PARENT
REMARK Flexibility Score: inf
ROOT
ATOM      1  C   UNL     1      70.745  51.318  51.290  1.00  0.00     0.000 C 
ENDROOT
BRANCH   1   2
ATOM      2  C   UNL     1      71.040  51.468  52.788  1.00  0.00     0.000 C 
BRANCH   2   3
ATOM      3  C   UNL     1      70.326  52.696  53.370  1.00  0.00     0.000 C 
BRANCH   3   4
ATOM      4  C   UNL     1      69.695  52.427  54.749  1.00  0.00     0.000 C 
BRANCH   4   5
ATOM      5  C   UNL     1      69.571  50.938  55.131  1.00  0.00     0.006 C 
BRANCH   5   6
ATOM      6  C   UNL     1      70.136  50.584  56.515  1.00  0.00     0.053 C 
BRANCH   6   7
ATOM      7  C   UNL     1      71.439  49.851  56.419  1.00  0.00     0.041 C 
ATOM      8  O   UNL     1      72.429  50.391  55.861  1.00  0.00    -0.550 OA
ATOM      9  O   UNL     1      71.568  48.585  56.977  1.00  0.00    -0.550 OA
ENDBRANCH   6   7
ENDBRANCH   5   6
ENDBRANCH   4   5
ENDBRANCH   3   4
ENDBRANCH   2   3
ENDBRANCH   1   2
BRANCH   1  10
ATOM     10  C   UNL     1      69.232  51.306  51.026  1.00  0.00     0.000 C 
BRANCH  10  11
ATOM     11  C   UNL     1      68.860  51.850  49.634  1.00  0.00    -0.000 C 
BRANCH  11  12
ATOM     12  C   UNL     1      68.060  53.166  49.635  1.00  0.00    -0.000 C 
BRANCH  12  13
ATOM     13  C   UNL     1      68.797  54.317  50.341  1.00  0.00    -0.000 C 
BRANCH  13  14
ATOM     14  C   UNL     1      70.139  54.667  49.672  1.00  0.00    -0.000 C 
BRANCH  14  15
ATOM     15  C   UNL     1      71.294  54.971  50.643  1.00  0.00    -0.003 C 
ATOM     16  C   UNL     1      72.591  54.250  50.278  1.00  0.00     0.004 C 
ENDBRANCH  14  15
ENDBRANCH  13  14
ENDBRANCH  12  13
ENDBRANCH  11  12
ENDBRANCH  10  11
ENDBRANCH   1  10
TORSDOF 12
ENDMDL
