MODEL 1
REMARK VINA RESULT:    -3.535      0.000      0.000
REMARK INTER + INTRA:          -9.507
REMARK INTER:                  -6.634
REMARK INTRA:                  -2.873
REMARK UNBOUND:                -2.873
REMARK SMILES CCCCCCCCC=CCCCCCCCC(=O)[O-]
REMARK SMILES IDX 10 1 9 2 11 3 12 4 13 5 14 6 15 7 16 8 17 9 18 10 19 11
REMARK SMILES IDX 20 12 8 13 7 14 6 15 5 16 4 17 3 18 2 19 1 20
REMARK H PARENT
REMARK Flexibility Score: inf
ROOT
ATOM      1  C   UNL     1      -1.273 -18.283  -5.960  1.00  0.00    -0.031 C 
ATOM      2  C   UNL     1      -2.006 -17.364  -5.313  1.00  0.00    -0.031 C 
ENDROOT
BRANCH   1   3
ATOM      3  C   UNL     1       0.206 -18.418  -5.725  1.00  0.00     0.027 C 
BRANCH   3   4
ATOM      4  C   UNL     1       0.999 -17.480  -6.648  1.00  0.00     0.004 C 
BRANCH   4   5
ATOM      5  C   UNL     1       0.484 -17.496  -8.095  1.00  0.00     0.000 C 
BRANCH   5   6
ATOM      6  C   UNL     1      -0.261 -16.206  -8.472  1.00  0.00     0.000 C 
BRANCH   6   7
ATOM      7  C   UNL     1       0.373 -14.988  -7.785  1.00  0.00     0.000 C 
BRANCH   7   8
ATOM      8  C   UNL     1      -0.604 -14.258  -6.850  1.00  0.00     0.006 C 
BRANCH   8   9
ATOM      9  C   UNL     1      -0.071 -14.133  -5.416  1.00  0.00     0.053 C 
BRANCH   9  10
ATOM     10  C   UNL     1      -0.680 -12.949  -4.734  1.00  0.00     0.041 C 
ATOM     11  O   UNL     1      -1.932 -12.873  -4.592  1.00  0.00    -0.550 OA
ATOM     12  O   UNL     1       0.128 -11.901  -4.308  1.00  0.00    -0.550 OA
ENDBRANCH   9  10
ENDBRANCH   8   9
ENDBRANCH   7   8
ENDBRANCH   6   7
ENDBRANCH   5   6
ENDBRANCH   4   5
ENDBRANCH   3   4
ENDBRANCH   1   3
BRANCH   2  13
ATOM     13  C   UNL     1      -3.483 -17.218  -5.559  1.00  0.00     0.027 C 
BRANCH  13  14
ATOM     14  C   UNL     1      -3.753 -16.470  -6.873  1.00  0.00     0.004 C 
BRANCH  14  15
ATOM     15  C   UNL     1      -5.123 -16.815  -7.479  1.00  0.00     0.000 C 
BRANCH  15  16
ATOM     16  C   UNL     1      -5.005 -17.633  -8.774  1.00  0.00     0.000 C 
BRANCH  16  17
ATOM     17  C   UNL     1      -3.818 -17.151  -9.621  1.00  0.00    -0.000 C 
BRANCH  17  18
ATOM     18  C   UNL     1      -2.819 -18.276  -9.951  1.00  0.00    -0.000 C 
BRANCH  18  19
ATOM     19  C   UNL     1      -2.922 -19.518  -9.048  1.00  0.00    -0.003 C 
ATOM     20  C   UNL     1      -1.671 -20.396  -9.089  1.00  0.00     0.004 C 
ENDBRANCH  18  19
ENDBRANCH  17  18
ENDBRANCH  16  17
ENDBRANCH  15  16
ENDBRANCH  14  15
ENDBRANCH  13  14
ENDBRANCH   2  13
TORSDOF 15
ENDMDL
MODEL 2
REMARK VINA RESULT:    -3.522     12.267     14.674
REMARK INTER + INTRA:          -9.484
REMARK INTER:                  -6.849
REMARK INTRA:                  -2.634
REMARK UNBOUND:                -2.873
REMARK SMILES CCCCCCCCC=CCCCCCCCC(=O)[O-]
REMARK SMILES IDX 10 1 9 2 11 3 12 4 13 5 14 6 15 7 16 8 17 9 18 10 19 11
REMARK SMILES IDX 20 12 8 13 7 14 6 15 5 16 4 17 3 18 2 19 1 20
REMARK H PARENT
REMARK Flexibility Score: inf
ROOT
ATOM      1  C   UNL     1      12.851 -17.103  -7.684  1.00  0.00    -0.031 C 
ATOM      2  C   UNL     1      12.476 -18.171  -6.961  1.00  0.00    -0.031 C 
ENDROOT
BRANCH   1   3
ATOM      3  C   UNL     1      13.694 -17.247  -8.920  1.00  0.00     0.027 C 
BRANCH   3   4
ATOM      4  C   UNL     1      12.818 -17.385 -10.174  1.00  0.00     0.004 C 
BRANCH   4   5
ATOM      5  C   UNL     1      12.967 -18.754 -10.854  1.00  0.00     0.000 C 
BRANCH   5   6
ATOM      6  C   UNL     1      11.893 -19.757 -10.406  1.00  0.00     0.000 C 
BRANCH   6   7
ATOM      7  C   UNL     1      10.622 -19.030  -9.943  1.00  0.00     0.000 C 
BRANCH   7   8
ATOM      8  C   UNL     1       9.795 -19.854  -8.944  1.00  0.00     0.006 C 
BRANCH   8   9
ATOM      9  C   UNL     1      10.615 -20.961  -8.267  1.00  0.00     0.053 C 
BRANCH   9  10
ATOM     10  C   UNL     1       9.962 -21.387  -6.991  1.00  0.00     0.041 C 
ATOM     11  O   UNL     1      10.622 -21.406  -5.915  1.00  0.00    -0.550 OA
ATOM     12  O   UNL     1       8.640 -21.819  -6.997  1.00  0.00    -0.550 OA
ENDBRANCH   9  10
ENDBRANCH   8   9
ENDBRANCH   7   8
ENDBRANCH   6   7
ENDBRANCH   5   6
ENDBRANCH   4   5
ENDBRANCH   3   4
ENDBRANCH   1   3
BRANCH   2  13
ATOM     13  C   UNL     1      11.646 -18.027  -5.715  1.00  0.00     0.027 C 
BRANCH  13  14
ATOM     14  C   UNL     1      10.332 -17.287  -6.009  1.00  0.00     0.004 C 
BRANCH  14  15
ATOM     15  C   UNL     1      10.146 -16.042  -5.128  1.00  0.00     0.000 C 
BRANCH  15  16
ATOM     16  C   UNL     1      11.359 -15.773  -4.223  1.00  0.00     0.000 C 
BRANCH  16  17
ATOM     17  C   UNL     1      11.974 -14.398  -4.524  1.00  0.00    -0.000 C 
BRANCH  17  18
ATOM     18  C   UNL     1      13.376 -14.492  -5.155  1.00  0.00    -0.000 C 
BRANCH  18  19
ATOM     19  C   UNL     1      13.535 -13.749  -6.494  1.00  0.00    -0.003 C 
ATOM     20  C   UNL     1      14.936 -13.878  -7.091  1.00  0.00     0.004 C 
ENDBRANCH  18  19
ENDBRANCH  17  18
ENDBRANCH  16  17
ENDBRANCH  15  16
ENDBRANCH  14  15
ENDBRANCH  13  14
ENDBRANCH   2  13
TORSDOF 15
ENDMDL
MODEL 3
REMARK VINA RESULT:    -3.481      2.633      5.505
REMARK INTER + INTRA:          -9.406
REMARK INTER:                  -6.675
REMARK INTRA:                  -2.731
REMARK UNBOUND:                -2.873
REMARK SMILES CCCCCCCCC=CCCCCCCCC(=O)[O-]
REMARK SMILES IDX 10 1 9 2 11 3 12 4 13 5 14 6 15 7 16 8 17 9 18 10 19 11
REMARK SMILES IDX 20 12 8 13 7 14 6 15 5 16 4 17 3 18 2 19 1 20
REMARK H PARENT
REMARK Flexibility Score: inf
ROOT
ATOM      1  C   UNL     1      -0.935 -13.368  -6.021  1.00  0.00    -0.031 C 
ATOM      2  C   UNL     1      -0.230 -13.252  -4.884  1.00  0.00    -0.031 C 
ENDROOT
BRANCH   1   3
ATOM      3  C   UNL     1      -0.680 -14.486  -6.994  1.00  0.00     0.027 C 
BRANCH   3   4
ATOM      4  C   UNL     1       0.554 -15.304  -6.584  1.00  0.00     0.004 C 
BRANCH   4   5
ATOM      5  C   UNL     1       0.432 -16.789  -6.958  1.00  0.00     0.000 C 
BRANCH   5   6
ATOM      6  C   UNL     1       0.294 -17.008  -8.473  1.00  0.00     0.000 C 
BRANCH   6   7
ATOM      7  C   UNL     1      -0.760 -18.083  -8.777  1.00  0.00     0.000 C 
BRANCH   7   8
ATOM      8  C   UNL     1      -1.907 -18.096  -7.753  1.00  0.00     0.006 C 
BRANCH   8   9
ATOM      9  C   UNL     1      -3.290 -18.184  -8.413  1.00  0.00     0.053 C 
BRANCH   9  10
ATOM     10  C   UNL     1      -3.642 -16.883  -9.061  1.00  0.00     0.041 C 
ATOM     11  O   UNL     1      -3.295 -15.794  -8.526  1.00  0.00    -0.550 OA
ATOM     12  O   UNL     1      -4.403 -16.870 -10.225  1.00  0.00    -0.550 OA
ENDBRANCH   9  10
ENDBRANCH   8   9
ENDBRANCH   7   8
ENDBRANCH   6   7
ENDBRANCH   5   6
ENDBRANCH   4   5
ENDBRANCH   3   4
ENDBRANCH   1   3
BRANCH   2  13
ATOM     13  C   UNL     1      -0.474 -12.125  -3.918  1.00  0.00     0.027 C 
BRANCH  13  14
ATOM     14  C   UNL     1      -1.966 -11.765  -3.854  1.00  0.00     0.004 C 
BRANCH  14  15
ATOM     15  C   UNL     1      -2.746 -12.657  -2.875  1.00  0.00     0.000 C 
BRANCH  15  16
ATOM     16  C   UNL     1      -3.876 -13.438  -3.563  1.00  0.00     0.000 C 
BRANCH  16  17
ATOM     17  C   UNL     1      -3.729 -14.947  -3.315  1.00  0.00    -0.000 C 
BRANCH  17  18
ATOM     18  C   UNL     1      -3.265 -15.719  -4.565  1.00  0.00    -0.000 C 
BRANCH  18  19
ATOM     19  C   UNL     1      -2.234 -16.830  -4.295  1.00  0.00    -0.003 C 
ATOM     20  C   UNL     1      -1.103 -16.387  -3.368  1.00  0.00     0.004 C 
ENDBRANCH  18  19
ENDBRANCH  17  18
ENDBRANCH  16  17
ENDBRANCH  15  16
ENDBRANCH  14  15
ENDBRANCH  13  14
ENDBRANCH   2  13
TORSDOF 15
ENDMDL
MODEL 4
REMARK VINA RESULT:    -3.437      1.684      3.806
REMARK INTER + INTRA:          -9.324
REMARK INTER:                  -7.079
REMARK INTRA:                  -2.245
REMARK UNBOUND:                -2.873
REMARK SMILES CCCCCCCCC=CCCCCCCCC(=O)[O-]
REMARK SMILES IDX 10 1 9 2 11 3 12 4 13 5 14 6 15 7 16 8 17 9 18 10 19 11
REMARK SMILES IDX 20 12 8 13 7 14 6 15 5 16 4 17 3 18 2 19 1 20
REMARK H PARENT
REMARK Flexibility Score: inf
ROOT
ATOM      1  C   UNL     1       1.367 -19.982  -8.070  1.00  0.00    -0.031 C 
ATOM      2  C   UNL     1       1.242 -21.319  -8.088  1.00  0.00    -0.031 C 
ENDROOT
BRANCH   1   3
ATOM      3  C   UNL     1       1.239 -19.196  -6.795  1.00  0.00     0.027 C 
BRANCH   3   4
ATOM      4  C   UNL     1       0.359 -17.954  -6.997  1.00  0.00     0.004 C 
BRANCH   4   5
ATOM      5  C   UNL     1       0.367 -17.451  -8.448  1.00  0.00     0.000 C 
BRANCH   5   6
ATOM      6  C   UNL     1      -0.048 -15.976  -8.565  1.00  0.00     0.000 C 
BRANCH   6   7
ATOM      7  C   UNL     1      -1.204 -15.654  -7.607  1.00  0.00     0.000 C 
BRANCH   7   8
ATOM      8  C   UNL     1      -1.140 -14.220  -7.058  1.00  0.00     0.006 C 
BRANCH   8   9
ATOM      9  C   UNL     1      -0.210 -14.090  -5.845  1.00  0.00     0.053 C 
BRANCH   9  10
ATOM     10  C   UNL     1      -0.703 -13.022  -4.921  1.00  0.00     0.041 C 
ATOM     11  O   UNL     1      -1.934 -12.932  -4.657  1.00  0.00    -0.550 OA
ATOM     12  O   UNL     1       0.186 -12.090  -4.398  1.00  0.00    -0.550 OA
ENDBRANCH   9  10
ENDBRANCH   8   9
ENDBRANCH   7   8
ENDBRANCH   6   7
ENDBRANCH   5   6
ENDBRANCH   4   5
ENDBRANCH   3   4
ENDBRANCH   1   3
BRANCH   2  13
ATOM     13  C   UNL     1       1.354 -22.104  -9.366  1.00  0.00     0.027 C 
BRANCH  13  14
ATOM     14  C   UNL     1       0.050 -22.859  -9.667  1.00  0.00     0.004 C 
BRANCH  14  15
ATOM     15  C   UNL     1      -0.888 -22.071 -10.594  1.00  0.00     0.000 C 
BRANCH  15  16
ATOM     16  C   UNL     1      -2.121 -21.523  -9.858  1.00  0.00     0.000 C 
BRANCH  16  17
ATOM     17  C   UNL     1      -1.970 -20.020  -9.581  1.00  0.00    -0.000 C 
BRANCH  17  18
ATOM     18  C   UNL     1      -2.764 -19.554  -8.345  1.00  0.00    -0.000 C 
BRANCH  18  19
ATOM     19  C   UNL     1      -3.615 -18.290  -8.561  1.00  0.00    -0.003 C 
ATOM     20  C   UNL     1      -3.522 -17.738  -9.983  1.00  0.00     0.004 C 
ENDBRANCH  18  19
ENDBRANCH  17  18
ENDBRANCH  16  17
ENDBRANCH  15  16
ENDBRANCH  14  15
ENDBRANCH  13  14
ENDBRANCH   2  13
TORSDOF 15
ENDMDL
MODEL 5
REMARK VINA RESULT:    -3.433      2.215      4.583
REMARK INTER + INTRA:          -9.317
REMARK INTER:                  -7.007
REMARK INTRA:                  -2.310
REMARK UNBOUND:                -2.873
REMARK SMILES CCCCCCCCC=CCCCCCCCC(=O)[O-]
REMARK SMILES IDX 10 1 9 2 11 3 12 4 13 5 14 6 15 7 16 8 17 9 18 10 19 11
REMARK SMILES IDX 20 12 8 13 7 14 6 15 5 16 4 17 3 18 2 19 1 20
REMARK H PARENT
REMARK Flexibility Score: inf
ROOT
ATOM      1  C   UNL     1      -1.414 -18.884  -8.655  1.00  0.00    -0.031 C 
ATOM      2  C   UNL     1      -0.135 -18.519  -8.470  1.00  0.00    -0.031 C 
ENDROOT
BRANCH   1   3
ATOM      3  C   UNL     1      -2.154 -18.544  -9.918  1.00  0.00     0.027 C 
BRANCH   3   4
ATOM      4  C   UNL     1      -3.425 -17.737  -9.614  1.00  0.00     0.004 C 
BRANCH   4   5
ATOM      5  C   UNL     1      -3.695 -17.601  -8.108  1.00  0.00     0.000 C 
BRANCH   5   6
ATOM      6  C   UNL     1      -3.715 -16.138  -7.640  1.00  0.00     0.000 C 
BRANCH   6   7
ATOM      7  C   UNL     1      -2.379 -15.755  -6.983  1.00  0.00     0.000 C 
BRANCH   7   8
ATOM      8  C   UNL     1      -1.440 -15.006  -7.941  1.00  0.00     0.006 C 
BRANCH   8   9
ATOM      9  C   UNL     1       0.018 -15.004  -7.462  1.00  0.00     0.053 C 
BRANCH   9  10
ATOM     10  C   UNL     1       0.081 -14.772  -5.986  1.00  0.00     0.041 C 
ATOM     11  O   UNL     1       0.451 -15.699  -5.213  1.00  0.00    -0.550 OA
ATOM     12  O   UNL     1      -0.324 -13.552  -5.456  1.00  0.00    -0.550 OA
ENDBRANCH   9  10
ENDBRANCH   8   9
ENDBRANCH   7   8
ENDBRANCH   6   7
ENDBRANCH   5   6
ENDBRANCH   4   5
ENDBRANCH   3   4
ENDBRANCH   1   3
BRANCH   2  13
ATOM     13  C   UNL     1       0.602 -18.845  -7.200  1.00  0.00     0.027 C 
BRANCH  13  14
ATOM     14  C   UNL     1       1.674 -19.918  -7.442  1.00  0.00     0.004 C 
BRANCH  14  15
ATOM     15  C   UNL     1       1.074 -21.323  -7.614  1.00  0.00     0.000 C 
BRANCH  15  16
ATOM     16  C   UNL     1       1.668 -22.073  -8.817  1.00  0.00     0.000 C 
BRANCH  16  17
ATOM     17  C   UNL     1       0.667 -22.122  -9.981  1.00  0.00    -0.000 C 
BRANCH  17  18
ATOM     18  C   UNL     1      -0.790 -22.294  -9.512  1.00  0.00    -0.000 C 
BRANCH  18  19
ATOM     19  C   UNL     1      -1.848 -22.153 -10.622  1.00  0.00    -0.003 C 
ATOM     20  C   UNL     1      -1.327 -22.549 -12.003  1.00  0.00     0.004 C 
ENDBRANCH  18  19
ENDBRANCH  17  18
ENDBRANCH  16  17
ENDBRANCH  15  16
ENDBRANCH  14  15
ENDBRANCH  13  14
ENDBRANCH   2  13
TORSDOF 15
ENDMDL
MODEL 6
REMARK VINA RESULT:    -3.420      2.427      4.505
REMARK INTER + INTRA:          -9.291
REMARK INTER:                  -6.049
REMARK INTRA:                  -3.241
REMARK UNBOUND:                -2.873
REMARK SMILES CCCCCCCCC=CCCCCCCCC(=O)[O-]
REMARK SMILES IDX 10 1 9 2 11 3 12 4 13 5 14 6 15 7 16 8 17 9 18 10 19 11
REMARK SMILES IDX 20 12 8 13 7 14 6 15 5 16 4 17 3 18 2 19 1 20
REMARK H PARENT
REMARK Flexibility Score: inf
ROOT
ATOM      1  C   UNL     1      -2.483 -14.927  -7.706  1.00  0.00    -0.031 C 
ATOM      2  C   UNL     1      -2.459 -16.138  -8.287  1.00  0.00    -0.031 C 
ENDROOT
BRANCH   1   3
ATOM      3  C   UNL     1      -1.228 -14.269  -7.205  1.00  0.00     0.027 C 
BRANCH   3   4
ATOM      4  C   UNL     1       0.019 -15.052  -7.643  1.00  0.00     0.004 C 
BRANCH   4   5
ATOM      5  C   UNL     1       0.905 -15.466  -6.459  1.00  0.00     0.000 C 
BRANCH   5   6
ATOM      6  C   UNL     1       0.202 -15.293  -5.104  1.00  0.00     0.000 C 
BRANCH   6   7
ATOM      7  C   UNL     1      -0.172 -16.656  -4.503  1.00  0.00     0.000 C 
BRANCH   7   8
ATOM      8  C   UNL     1      -1.656 -17.004  -4.696  1.00  0.00     0.006 C 
BRANCH   8   9
ATOM      9  C   UNL     1      -1.863 -18.362  -5.381  1.00  0.00     0.053 C 
BRANCH   9  10
ATOM     10  C   UNL     1      -3.320 -18.614  -5.609  1.00  0.00     0.041 C 
ATOM     11  O   UNL     1      -3.696 -19.662  -6.202  1.00  0.00    -0.550 OA
ATOM     12  O   UNL     1      -4.259 -17.665  -5.220  1.00  0.00    -0.550 OA
ENDBRANCH   9  10
ENDBRANCH   8   9
ENDBRANCH   7   8
ENDBRANCH   6   7
ENDBRANCH   5   6
ENDBRANCH   4   5
ENDBRANCH   3   4
ENDBRANCH   1   3
BRANCH   2  13
ATOM     13  C   UNL     1      -3.716 -16.804  -8.773  1.00  0.00     0.027 C 
BRANCH  13  14
ATOM     14  C   UNL     1      -3.392 -17.997  -9.686  1.00  0.00     0.004 C 
BRANCH  14  15
ATOM     15  C   UNL     1      -1.912 -18.406  -9.620  1.00  0.00     0.000 C 
BRANCH  15  16
ATOM     16  C   UNL     1      -1.719 -19.839  -9.101  1.00  0.00     0.000 C 
BRANCH  16  17
ATOM     17  C   UNL     1      -0.299 -20.036  -8.550  1.00  0.00    -0.000 C 
BRANCH  17  18
ATOM     18  C   UNL     1       0.385 -18.710  -8.166  1.00  0.00    -0.000 C 
BRANCH  18  19
ATOM     19  C   UNL     1       1.840 -18.848  -7.683  1.00  0.00    -0.003 C 
ATOM     20  C   UNL     1       1.952 -19.117  -6.183  1.00  0.00     0.004 C 
ENDBRANCH  18  19
ENDBRANCH  17  18
ENDBRANCH  16  17
ENDBRANCH  15  16
ENDBRANCH  14  15
ENDBRANCH  13  14
ENDBRANCH   2  13
TORSDOF 15
ENDMDL
MODEL 7
REMARK VINA RESULT:    -3.419     12.647     14.884
REMARK INTER + INTRA:          -9.290
REMARK INTER:                  -6.769
REMARK INTRA:                  -2.521
REMARK UNBOUND:                -2.873
REMARK SMILES CCCCCCCCC=CCCCCCCCC(=O)[O-]
REMARK SMILES IDX 10 1 9 2 11 3 12 4 13 5 14 6 15 7 16 8 17 9 18 10 19 11
REMARK SMILES IDX 20 12 8 13 7 14 6 15 5 16 4 17 3 18 2 19 1 20
REMARK H PARENT
REMARK Flexibility Score: inf
ROOT
ATOM      1  C   UNL     1      14.393 -16.361  -7.282  1.00  0.00    -0.031 C 
ATOM      2  C   UNL     1      13.817 -15.165  -7.483  1.00  0.00    -0.031 C 
ENDROOT
BRANCH   1   3
ATOM      3  C   UNL     1      14.306 -17.459  -8.306  1.00  0.00     0.027 C 
BRANCH   3   4
ATOM      4  C   UNL     1      13.238 -17.144  -9.364  1.00  0.00     0.004 C 
BRANCH   4   5
ATOM      5  C   UNL     1      13.268 -18.123 -10.547  1.00  0.00     0.000 C 
BRANCH   5   6
ATOM      6  C   UNL     1      11.901 -18.771 -10.814  1.00  0.00     0.000 C 
BRANCH   6   7
ATOM      7  C   UNL     1      10.928 -18.491  -9.659  1.00  0.00     0.000 C 
BRANCH   7   8
ATOM      8  C   UNL     1       9.940 -19.645  -9.422  1.00  0.00     0.006 C 
BRANCH   8   9
ATOM      9  C   UNL     1      10.600 -20.865  -8.767  1.00  0.00     0.053 C 
BRANCH   9  10
ATOM     10  C   UNL     1      10.320 -22.100  -9.564  1.00  0.00     0.041 C 
ATOM     11  O   UNL     1       9.794 -23.105  -9.012  1.00  0.00    -0.550 OA
ATOM     12  O   UNL     1      10.693 -22.162 -10.902  1.00  0.00    -0.550 OA
ENDBRANCH   9  10
ENDBRANCH   8   9
ENDBRANCH   7   8
ENDBRANCH   6   7
ENDBRANCH   5   6
ENDBRANCH   4   5
ENDBRANCH   3   4
ENDBRANCH   1   3
BRANCH   2  13
ATOM     13  C   UNL     1      13.890 -14.072  -6.452  1.00  0.00     0.027 C 
BRANCH  13  14
ATOM     14  C   UNL     1      13.562 -14.611  -5.051  1.00  0.00     0.004 C 
BRANCH  14  15
ATOM     15  C   UNL     1      12.071 -14.479  -4.702  1.00  0.00     0.000 C 
BRANCH  15  16
ATOM     16  C   UNL     1      11.463 -15.801  -4.209  1.00  0.00     0.000 C 
BRANCH  16  17
ATOM     17  C   UNL     1      10.291 -16.232  -5.104  1.00  0.00    -0.000 C 
BRANCH  17  18
ATOM     18  C   UNL     1      10.731 -17.124  -6.281  1.00  0.00    -0.000 C 
BRANCH  18  19
ATOM     19  C   UNL     1      11.563 -18.357  -5.885  1.00  0.00    -0.003 C 
ATOM     20  C   UNL     1      10.715 -19.500  -5.327  1.00  0.00     0.004 C 
ENDBRANCH  18  19
ENDBRANCH  17  18
ENDBRANCH  16  17
ENDBRANCH  15  16
ENDBRANCH  14  15
ENDBRANCH  13  14
ENDBRANCH   2  13
TORSDOF 15
ENDMDL
MODEL 8
REMARK VINA RESULT:    -3.414      3.220      5.436
REMARK INTER + INTRA:          -9.281
REMARK INTER:                  -7.640
REMARK INTRA:                  -1.641
REMARK UNBOUND:                -2.873
REMARK SMILES CCCCCCCCC=CCCCCCCCC(=O)[O-]
REMARK SMILES IDX 10 1 9 2 11 3 12 4 13 5 14 6 15 7 16 8 17 9 18 10 19 11
REMARK SMILES IDX 20 12 8 13 7 14 6 15 5 16 4 17 3 18 2 19 1 20
REMARK H PARENT
REMARK Flexibility Score: inf
ROOT
ATOM      1  C   UNL     1       0.731 -17.499  -6.627  1.00  0.00    -0.031 C 
ATOM      2  C   UNL     1       0.544 -17.900  -7.895  1.00  0.00    -0.031 C 
ENDROOT
BRANCH   1   3
ATOM      3  C   UNL     1       0.962 -16.054  -6.285  1.00  0.00     0.027 C 
BRANCH   3   4
ATOM      4  C   UNL     1       0.459 -15.133  -7.406  1.00  0.00     0.004 C 
BRANCH   4   5
ATOM      5  C   UNL     1      -0.782 -14.324  -6.999  1.00  0.00     0.000 C 
BRANCH   5   6
ATOM      6  C   UNL     1      -2.065 -14.827  -7.676  1.00  0.00     0.000 C 
BRANCH   6   7
ATOM      7  C   UNL     1      -2.880 -15.710  -6.719  1.00  0.00     0.000 C 
BRANCH   7   8
ATOM      8  C   UNL     1      -3.822 -16.674  -7.458  1.00  0.00     0.006 C 
BRANCH   8   9
ATOM      9  C   UNL     1      -3.078 -17.845  -8.114  1.00  0.00     0.053 C 
BRANCH   9  10
ATOM     10  C   UNL     1      -3.231 -17.791  -9.601  1.00  0.00     0.041 C 
ATOM     11  O   UNL     1      -2.465 -18.466 -10.342  1.00  0.00    -0.550 OA
ATOM     12  O   UNL     1      -4.182 -16.953 -10.172  1.00  0.00    -0.550 OA
ENDBRANCH   9  10
ENDBRANCH   8   9
ENDBRANCH   7   8
ENDBRANCH   6   7
ENDBRANCH   5   6
ENDBRANCH   4   5
ENDBRANCH   3   4
ENDBRANCH   1   3
BRANCH   2  13
ATOM     13  C   UNL     1       0.329 -19.348  -8.239  1.00  0.00     0.027 C 
BRANCH  13  14
ATOM     14  C   UNL     1       1.575 -20.185  -7.913  1.00  0.00     0.004 C 
BRANCH  14  15
ATOM     15  C   UNL     1       1.426 -21.655  -8.338  1.00  0.00     0.000 C 
BRANCH  15  16
ATOM     16  C   UNL     1       0.663 -21.811  -9.662  1.00  0.00     0.000 C 
BRANCH  16  17
ATOM     17  C   UNL     1      -0.735 -22.402  -9.422  1.00  0.00    -0.000 C 
BRANCH  17  18
ATOM     18  C   UNL     1      -1.682 -22.208 -10.621  1.00  0.00    -0.000 C 
BRANCH  18  19
ATOM     19  C   UNL     1      -1.042 -22.455 -12.000  1.00  0.00    -0.003 C 
ATOM     20  C   UNL     1      -1.909 -23.314 -12.919  1.00  0.00     0.004 C 
ENDBRANCH  18  19
ENDBRANCH  17  18
ENDBRANCH  16  17
ENDBRANCH  15  16
ENDBRANCH  14  15
ENDBRANCH  13  14
ENDBRANCH   2  13
TORSDOF 15
ENDMDL
MODEL 9
REMARK VINA RESULT:    -3.376      3.061      5.079
REMARK INTER + INTRA:          -9.209
REMARK INTER:                  -6.744
REMARK INTRA:                  -2.465
REMARK UNBOUND:                -2.873
REMARK SMILES CCCCCCCCC=CCCCCCCCC(=O)[O-]
REMARK SMILES IDX 10 1 9 2 11 3 12 4 13 5 14 6 15 7 16 8 17 9 18 10 19 11
REMARK SMILES IDX 20 12 8 13 7 14 6 15 5 16 4 17 3 18 2 19 1 20
REMARK H PARENT
REMARK Flexibility Score: inf
ROOT
ATOM      1  C   UNL     1      -0.265 -18.626  -7.764  1.00  0.00    -0.031 C 
ATOM      2  C   UNL     1       0.848 -19.262  -8.163  1.00  0.00    -0.031 C 
ENDROOT
BRANCH   1   3
ATOM      3  C   UNL     1      -1.126 -17.863  -8.733  1.00  0.00     0.027 C 
BRANCH   3   4
ATOM      4  C   UNL     1      -1.428 -16.451  -8.210  1.00  0.00     0.004 C 
BRANCH   4   5
ATOM      5  C   UNL     1      -0.174 -15.566  -8.132  1.00  0.00     0.000 C 
BRANCH   5   6
ATOM      6  C   UNL     1      -0.261 -14.514  -7.015  1.00  0.00     0.000 C 
BRANCH   6   7
ATOM      7  C   UNL     1       0.359 -15.045  -5.714  1.00  0.00     0.000 C 
BRANCH   7   8
ATOM      8  C   UNL     1       1.594 -15.925  -5.960  1.00  0.00     0.006 C 
BRANCH   8   9
ATOM      9  C   UNL     1       1.796 -16.984  -4.867  1.00  0.00     0.053 C 
BRANCH   9  10
ATOM     10  C   UNL     1       3.226 -17.417  -4.818  1.00  0.00     0.041 C 
ATOM     11  O   UNL     1       4.141 -16.628  -5.184  1.00  0.00    -0.550 OA
ATOM     12  O   UNL     1       3.547 -18.712  -4.425  1.00  0.00    -0.550 OA
ENDBRANCH   9  10
ENDBRANCH   8   9
ENDBRANCH   7   8
ENDBRANCH   6   7
ENDBRANCH   5   6
ENDBRANCH   4   5
ENDBRANCH   3   4
ENDBRANCH   1   3
BRANCH   2  13
ATOM     13  C   UNL     1       1.717 -20.012  -7.191  1.00  0.00     0.027 C 
BRANCH  13  14
ATOM     14  C   UNL     1       1.629 -21.527  -7.426  1.00  0.00     0.004 C 
BRANCH  14  15
ATOM     15  C   UNL     1       1.636 -21.895  -8.918  1.00  0.00     0.000 C 
BRANCH  15  16
ATOM     16  C   UNL     1       0.644 -23.021  -9.253  1.00  0.00     0.000 C 
BRANCH  16  17
ATOM     17  C   UNL     1      -0.224 -22.646 -10.463  1.00  0.00    -0.000 C 
BRANCH  17  18
ATOM     18  C   UNL     1      -1.224 -21.515 -10.156  1.00  0.00    -0.000 C 
BRANCH  18  19
ATOM     19  C   UNL     1      -2.082 -21.733  -8.896  1.00  0.00    -0.003 C 
ATOM     20  C   UNL     1      -3.365 -20.902  -8.892  1.00  0.00     0.004 C 
ENDBRANCH  18  19
ENDBRANCH  17  18
ENDBRANCH  16  17
ENDBRANCH  15  16
ENDBRANCH  14  15
ENDBRANCH  13  14
ENDBRANCH   2  13
TORSDOF 15
ENDMDL
