MODEL 1
REMARK VINA RESULT:    15.073      0.000      0.000
REMARK INTER + INTRA:          26.831
REMARK INTER:                  27.409
REMARK INTRA:                  -0.577
REMARK UNBOUND:                -0.577
REMARK SMILES CCCCCCCCCCCCCCCC(=O)[O-]
REMARK SMILES IDX 9 1 10 2 11 3 12 4 13 5 14 6 15 7 16 8 17 9 18 10 8 11 7 12
REMARK SMILES IDX 6 13 5 14 4 15 3 16 2 17 1 18
REMARK H PARENT
REMARK Flexibility Score: inf
ROOT
ATOM      1  C   UNL     1      14.472   6.723   8.417  1.00  0.00     0.000 C 
ENDROOT
BRANCH   1   2
ATOM      2  C   UNL     1      13.550   7.430   7.409  1.00  0.00     0.000 C 
BRANCH   2   3
ATOM      3  C   UNL     1      12.057   7.215   7.714  1.00  0.00     0.000 C 
BRANCH   3   4
ATOM      4  C   UNL     1      11.329   6.246   6.759  1.00  0.00     0.000 C 
BRANCH   4   5
ATOM      5  C   UNL     1      10.694   5.017   7.436  1.00  0.00     0.000 C 
BRANCH   5   6
ATOM      6  C   UNL     1      10.424   5.233   8.934  1.00  0.00     0.006 C 
BRANCH   6   7
ATOM      7  C   UNL     1       9.748   4.015   9.580  1.00  0.00     0.053 C 
BRANCH   7   8
ATOM      8  C   UNL     1      10.534   2.761   9.351  1.00  0.00     0.041 C 
ATOM      9  O   UNL     1      11.202   2.251  10.289  1.00  0.00    -0.550 OA
ATOM     10  O   UNL     1      10.559   2.174   8.093  1.00  0.00    -0.550 OA
ENDBRANCH   7   8
ENDBRANCH   6   7
ENDBRANCH   5   6
ENDBRANCH   4   5
ENDBRANCH   3   4
ENDBRANCH   2   3
ENDBRANCH   1   2
BRANCH   1  11
ATOM     11  C   UNL     1      15.081   5.428   7.854  1.00  0.00     0.000 C 
BRANCH  11  12
ATOM     12  C   UNL     1      15.803   5.652   6.513  1.00  0.00    -0.000 C 
BRANCH  12  13
ATOM     13  C   UNL     1      17.085   4.814   6.386  1.00  0.00    -0.000 C 
BRANCH  13  14
ATOM     14  C   UNL     1      17.979   4.903   7.632  1.00  0.00    -0.000 C 
BRANCH  14  15
ATOM     15  C   UNL     1      18.124   6.357   8.099  1.00  0.00    -0.000 C 
BRANCH  15  16
ATOM     16  C   UNL     1      18.125   6.443   9.633  1.00  0.00    -0.000 C 
BRANCH  16  17
ATOM     17  C   UNL     1      17.121   7.478  10.165  1.00  0.00    -0.003 C 
ATOM     18  C   UNL     1      17.387   8.887   9.633  1.00  0.00     0.004 C 
ENDBRANCH  16  17
ENDBRANCH  15  16
ENDBRANCH  14  15
ENDBRANCH  13  14
ENDBRANCH  12  13
ENDBRANCH  11  12
ENDBRANCH   1  11
TORSDOF 14
ENDMDL
MODEL 2
REMARK VINA RESULT:    15.082      2.929      7.058
REMARK INTER + INTRA:          26.848
REMARK INTER:                  27.128
REMARK INTRA:                  -0.280
REMARK UNBOUND:                -0.577
REMARK SMILES CCCCCCCCCCCCCCCC(=O)[O-]
REMARK SMILES IDX 9 1 10 2 11 3 12 4 13 5 14 6 15 7 16 8 17 9 18 10 8 11 7 12
REMARK SMILES IDX 6 13 5 14 4 15 3 16 2 17 1 18
REMARK H PARENT
REMARK Flexibility Score: inf
ROOT
ATOM      1  C   UNL     1      14.417   6.210   8.397  1.00  0.00     0.000 C 
ENDROOT
BRANCH   1   2
ATOM      2  C   UNL     1      14.922   5.952   6.967  1.00  0.00     0.000 C 
BRANCH   2   3
ATOM      3  C   UNL     1      15.620   4.588   6.819  1.00  0.00     0.000 C 
BRANCH   3   4
ATOM      4  C   UNL     1      17.084   4.652   6.337  1.00  0.00     0.000 C 
BRANCH   4   5
ATOM      5  C   UNL     1      18.124   4.912   7.442  1.00  0.00     0.000 C 
BRANCH   5   6
ATOM      6  C   UNL     1      18.124   6.369   7.930  1.00  0.00     0.006 C 
BRANCH   6   7
ATOM      7  C   UNL     1      18.017   6.466   9.459  1.00  0.00     0.053 C 
BRANCH   7   8
ATOM      8  C   UNL     1      17.287   7.703   9.885  1.00  0.00     0.041 C 
ATOM      9  O   UNL     1      16.118   7.622  10.347  1.00  0.00    -0.550 OA
ATOM     10  O   UNL     1      17.882   8.949   9.738  1.00  0.00    -0.550 OA
ENDBRANCH   7   8
ENDBRANCH   6   7
ENDBRANCH   5   6
ENDBRANCH   4   5
ENDBRANCH   3   4
ENDBRANCH   2   3
ENDBRANCH   1   2
BRANCH   1  11
ATOM     11  C   UNL     1      13.267   7.229   8.444  1.00  0.00     0.000 C 
BRANCH  11  12
ATOM     12  C   UNL     1      12.010   6.731   7.709  1.00  0.00    -0.000 C 
BRANCH  12  13
ATOM     13  C   UNL     1      10.769   6.701   8.616  1.00  0.00    -0.000 C 
BRANCH  13  14
ATOM     14  C   UNL     1       9.949   5.412   8.459  1.00  0.00    -0.000 C 
BRANCH  14  15
ATOM     15  C   UNL     1      10.201   4.765   7.091  1.00  0.00    -0.000 C 
BRANCH  15  16
ATOM     16  C   UNL     1      10.999   3.460   7.239  1.00  0.00    -0.000 C 
BRANCH  16  17
ATOM     17  C   UNL     1      10.428   2.542   8.331  1.00  0.00    -0.003 C 
ATOM     18  C   UNL     1      11.030   2.817   9.710  1.00  0.00     0.004 C 
ENDBRANCH  16  17
ENDBRANCH  15  16
ENDBRANCH  14  15
ENDBRANCH  13  14
ENDBRANCH  12  13
ENDBRANCH  11  12
ENDBRANCH   1  11
TORSDOF 14
ENDMDL
MODEL 3
REMARK VINA RESULT:    15.744      3.120      6.979
REMARK INTER + INTRA:          28.052
REMARK INTER:                  29.000
REMARK INTRA:                  -0.948
REMARK UNBOUND:                -0.577
REMARK SMILES CCCCCCCCCCCCCCCC(=O)[O-]
REMARK SMILES IDX 9 1 10 2 11 3 12 4 13 5 14 6 15 7 16 8 17 9 18 10 8 11 7 12
REMARK SMILES IDX 6 13 5 14 4 15 3 16 2 17 1 18
REMARK H PARENT
REMARK Flexibility Score: inf
ROOT
ATOM      1  C   UNL     1      15.091   4.813   8.033  1.00  0.00     0.000 C 
ENDROOT
BRANCH   1   2
ATOM      2  C   UNL     1      15.604   5.188   6.632  1.00  0.00     0.000 C 
BRANCH   2   3
ATOM      3  C   UNL     1      17.005   4.623   6.339  1.00  0.00     0.000 C 
BRANCH   3   4
ATOM      4  C   UNL     1      18.106   5.059   7.328  1.00  0.00     0.000 C 
BRANCH   4   5
ATOM      5  C   UNL     1      17.835   6.384   8.064  1.00  0.00     0.000 C 
BRANCH   5   6
ATOM      6  C   UNL     1      18.125   6.299   9.572  1.00  0.00     0.006 C 
BRANCH   6   7
ATOM      7  C   UNL     1      17.181   7.190  10.392  1.00  0.00     0.053 C 
BRANCH   7   8
ATOM      8  C   UNL     1      17.038   8.551   9.783  1.00  0.00     0.041 C 
ATOM      9  O   UNL     1      15.941   8.906   9.276  1.00  0.00    -0.550 OA
ATOM     10  O   UNL     1      18.124   9.415   9.743  1.00  0.00    -0.550 OA
ENDBRANCH   7   8
ENDBRANCH   6   7
ENDBRANCH   5   6
ENDBRANCH   4   5
ENDBRANCH   3   4
ENDBRANCH   2   3
ENDBRANCH   1   2
BRANCH   1  11
ATOM     11  C   UNL     1      14.386   5.983   8.738  1.00  0.00     0.000 C 
BRANCH  11  12
ATOM     12  C   UNL     1      14.050   7.134   7.773  1.00  0.00    -0.000 C 
BRANCH  12  13
ATOM     13  C   UNL     1      12.567   7.535   7.827  1.00  0.00    -0.000 C 
BRANCH  13  14
ATOM     14  C   UNL     1      11.635   6.435   7.295  1.00  0.00    -0.000 C 
BRANCH  14  15
ATOM     15  C   UNL     1      10.444   6.222   8.238  1.00  0.00    -0.000 C 
BRANCH  15  16
ATOM     16  C   UNL     1       9.983   4.756   8.218  1.00  0.00    -0.000 C 
BRANCH  16  17
ATOM     17  C   UNL     1      11.130   3.774   8.504  1.00  0.00    -0.003 C 
ATOM     18  C   UNL     1      10.753   2.709   9.535  1.00  0.00     0.004 C 
ENDBRANCH  16  17
ENDBRANCH  15  16
ENDBRANCH  14  15
ENDBRANCH  13  14
ENDBRANCH  12  13
ENDBRANCH  11  12
ENDBRANCH   1  11
TORSDOF 14
ENDMDL
MODEL 4
REMARK VINA RESULT:    16.567      1.398      2.447
REMARK INTER + INTRA:          29.549
REMARK INTER:                  30.120
REMARK INTRA:                  -0.571
REMARK UNBOUND:                -0.577
REMARK SMILES CCCCCCCCCCCCCCCC(=O)[O-]
REMARK SMILES IDX 9 1 10 2 11 3 12 4 13 5 14 6 15 7 16 8 17 9 18 10 8 11 7 12
REMARK SMILES IDX 6 13 5 14 4 15 3 16 2 17 1 18
REMARK H PARENT
REMARK Flexibility Score: inf
ROOT
ATOM      1  C   UNL     1      14.481   5.813   7.681  1.00  0.00     0.000 C 
ENDROOT
BRANCH   1   2
ATOM      2  C   UNL     1      13.738   7.158   7.616  1.00  0.00     0.000 C 
BRANCH   2   3
ATOM      3  C   UNL     1      12.245   7.032   7.969  1.00  0.00     0.000 C 
BRANCH   3   4
ATOM      4  C   UNL     1      11.311   6.763   6.771  1.00  0.00     0.000 C 
BRANCH   4   5
ATOM      5  C   UNL     1      10.782   5.321   6.666  1.00  0.00     0.000 C 
BRANCH   5   6
ATOM      6  C   UNL     1      11.358   4.394   7.749  1.00  0.00     0.006 C 
BRANCH   6   7
ATOM      7  C   UNL     1      10.396   3.251   8.102  1.00  0.00     0.053 C 
BRANCH   7   8
ATOM      8  C   UNL     1      10.398   2.961   9.571  1.00  0.00     0.041 C 
ATOM      9  O   UNL     1       9.435   3.332  10.292  1.00  0.00    -0.550 OA
ATOM     10  O   UNL     1      11.481   2.313  10.153  1.00  0.00    -0.550 OA
ENDBRANCH   7   8
ENDBRANCH   6   7
ENDBRANCH   5   6
ENDBRANCH   4   5
ENDBRANCH   3   4
ENDBRANCH   2   3
ENDBRANCH   1   2
BRANCH   1  11
ATOM     11  C   UNL     1      15.911   5.899   7.125  1.00  0.00     0.000 C 
BRANCH  11  12
ATOM     12  C   UNL     1      16.967   6.038   8.236  1.00  0.00    -0.000 C 
BRANCH  12  13
ATOM     13  C   UNL     1      16.426   6.765   9.478  1.00  0.00    -0.000 C 
BRANCH  13  14
ATOM     14  C   UNL     1      17.481   7.658  10.149  1.00  0.00    -0.000 C 
BRANCH  14  15
ATOM     15  C   UNL     1      17.093   9.138  10.042  1.00  0.00    -0.000 C 
BRANCH  15  16
ATOM     16  C   UNL     1      18.125   9.918   9.212  1.00  0.00    -0.000 C 
BRANCH  16  17
ATOM     17  C   UNL     1      17.729  11.389   9.011  1.00  0.00    -0.003 C 
ATOM     18  C   UNL     1      18.125  11.926   7.635  1.00  0.00     0.004 C 
ENDBRANCH  16  17
ENDBRANCH  15  16
ENDBRANCH  14  15
ENDBRANCH  13  14
ENDBRANCH  12  13
ENDBRANCH  11  12
ENDBRANCH   1  11
TORSDOF 14
ENDMDL
