MODEL 1
REMARK VINA RESULT:    -3.311      0.000      0.000
REMARK INTER + INTRA:         -10.444
REMARK INTER:                  -7.181
REMARK INTRA:                  -3.263
REMARK UNBOUND:                -3.263
REMARK SMILES CCCCCCCCCCCCCCCCCCCCCC(=O)[O-]
REMARK SMILES IDX 12 1 11 2 10 3 9 4 8 5 7 6 6 7 5 8 4 9 3 10 2 11 1 12 13 13
REMARK SMILES IDX 14 14 15 15 16 16 17 17 18 18 19 19 20 20 21 21 22 22 23 23
REMARK SMILES IDX 24 24
REMARK H PARENT
REMARK Flexibility Score: inf
ROOT
ATOM      1  C   UNL     1     -42.145 -47.766  69.712  1.00  0.00     0.000 C 
ENDROOT
BRANCH   1   2
ATOM      2  C   UNL     1     -43.214 -47.644  70.814  1.00  0.00     0.000 C 
BRANCH   2   3
ATOM      3  C   UNL     1     -44.492 -46.886  70.403  1.00  0.00     0.000 C 
BRANCH   3   4
ATOM      4  C   UNL     1     -45.735 -47.191  71.258  1.00  0.00    -0.000 C 
BRANCH   4   5
ATOM      5  C   UNL     1     -47.050 -46.959  70.500  1.00  0.00    -0.000 C 
BRANCH   5   6
ATOM      6  C   UNL     1     -48.213 -47.697  71.183  1.00  0.00    -0.000 C 
BRANCH   6   7
ATOM      7  C   UNL     1     -48.586 -49.004  70.468  1.00  0.00    -0.000 C 
BRANCH   7   8
ATOM      8  C   UNL     1     -49.007 -48.782  69.004  1.00  0.00    -0.000 C 
BRANCH   8   9
ATOM      9  C   UNL     1     -48.148 -49.602  68.021  1.00  0.00    -0.000 C 
BRANCH   9  10
ATOM     10  C   UNL     1     -47.302 -48.743  67.061  1.00  0.00    -0.000 C 
BRANCH  10  11
ATOM     11  C   UNL     1     -45.793 -48.741  67.380  1.00  0.00    -0.003 C 
ATOM     12  C   UNL     1     -45.368 -49.929  68.242  1.00  0.00     0.004 C 
ENDBRANCH  10  11
ENDBRANCH   9  10
ENDBRANCH   8   9
ENDBRANCH   7   8
ENDBRANCH   6   7
ENDBRANCH   5   6
ENDBRANCH   4   5
ENDBRANCH   3   4
ENDBRANCH   2   3
ENDBRANCH   1   2
BRANCH   1  13
ATOM     13  C   UNL     1     -42.622 -47.228  68.357  1.00  0.00     0.000 C 
BRANCH  13  14
ATOM     14  C   UNL     1     -41.572 -46.294  67.736  1.00  0.00     0.000 C 
BRANCH  14  15
ATOM     15  C   UNL     1     -42.164 -44.946  67.289  1.00  0.00     0.000 C 
BRANCH  15  16
ATOM     16  C   UNL     1     -41.942 -43.782  68.274  1.00  0.00     0.000 C 
BRANCH  16  17
ATOM     17  C   UNL     1     -43.187 -43.431  69.118  1.00  0.00     0.000 C 
BRANCH  17  18
ATOM     18  C   UNL     1     -42.839 -43.158  70.592  1.00  0.00     0.000 C 
BRANCH  18  19
ATOM     19  C   UNL     1     -42.102 -44.332  71.256  1.00  0.00     0.000 C 
BRANCH  19  20
ATOM     20  C   UNL     1     -41.808 -44.079  72.745  1.00  0.00     0.006 C 
BRANCH  20  21
ATOM     21  C   UNL     1     -42.536 -45.076  73.655  1.00  0.00     0.053 C 
BRANCH  21  22
ATOM     22  C   UNL     1     -43.751 -44.469  74.289  1.00  0.00     0.041 C 
ATOM     23  O   UNL     1     -43.919 -43.220  74.268  1.00  0.00    -0.550 OA
ATOM     24  O   UNL     1     -44.682 -45.278  74.928  1.00  0.00    -0.550 OA
ENDBRANCH  21  22
ENDBRANCH  20  21
ENDBRANCH  19  20
ENDBRANCH  18  19
ENDBRANCH  17  18
ENDBRANCH  16  17
ENDBRANCH  15  16
ENDBRANCH  14  15
ENDBRANCH  13  14
ENDBRANCH   1  13
TORSDOF 20
ENDMDL
MODEL 2
REMARK VINA RESULT:    -3.277      3.888      7.731
REMARK INTER + INTRA:         -10.371
REMARK INTER:                  -7.699
REMARK INTRA:                  -2.672
REMARK UNBOUND:                -3.263
REMARK SMILES CCCCCCCCCCCCCCCCCCCCCC(=O)[O-]
REMARK SMILES IDX 12 1 11 2 10 3 9 4 8 5 7 6 6 7 5 8 4 9 3 10 2 11 1 12 13 13
REMARK SMILES IDX 14 14 15 15 16 16 17 17 18 18 19 19 20 20 21 21 22 22 23 23
REMARK SMILES IDX 24 24
REMARK H PARENT
REMARK Flexibility Score: inf
ROOT
ATOM      1  C   UNL     1     -45.114 -49.684  70.400  1.00  0.00     0.000 C 
ENDROOT
BRANCH   1   2
ATOM      2  C   UNL     1     -44.817 -50.328  69.033  1.00  0.00     0.000 C 
BRANCH   2   3
ATOM      3  C   UNL     1     -45.728 -49.861  67.879  1.00  0.00     0.000 C 
BRANCH   3   4
ATOM      4  C   UNL     1     -45.258 -48.589  67.152  1.00  0.00    -0.000 C 
BRANCH   4   5
ATOM      5  C   UNL     1     -44.122 -48.858  66.155  1.00  0.00    -0.000 C 
BRANCH   5   6
ATOM      6  C   UNL     1     -42.803 -48.246  66.651  1.00  0.00    -0.000 C 
BRANCH   6   7
ATOM      7  C   UNL     1     -43.015 -46.964  67.471  1.00  0.00    -0.000 C 
BRANCH   7   8
ATOM      8  C   UNL     1     -41.697 -46.234  67.785  1.00  0.00    -0.000 C 
BRANCH   8   9
ATOM      9  C   UNL     1     -41.854 -44.701  67.735  1.00  0.00    -0.000 C 
BRANCH   9  10
ATOM     10  C   UNL     1     -42.948 -44.153  68.672  1.00  0.00    -0.000 C 
BRANCH  10  11
ATOM     11  C   UNL     1     -42.631 -42.768  69.270  1.00  0.00    -0.003 C 
ATOM     12  C   UNL     1     -42.773 -42.732  70.792  1.00  0.00     0.004 C 
ENDBRANCH  10  11
ENDBRANCH   9  10
ENDBRANCH   8   9
ENDBRANCH   7   8
ENDBRANCH   6   7
ENDBRANCH   5   6
ENDBRANCH   4   5
ENDBRANCH   3   4
ENDBRANCH   2   3
ENDBRANCH   1   2
BRANCH   1  13
ATOM     13  C   UNL     1     -44.206 -48.485  70.705  1.00  0.00     0.000 C 
BRANCH  13  14
ATOM     14  C   UNL     1     -44.978 -47.163  70.575  1.00  0.00     0.000 C 
BRANCH  14  15
ATOM     15  C   UNL     1     -46.357 -47.211  71.255  1.00  0.00     0.000 C 
BRANCH  15  16
ATOM     16  C   UNL     1     -47.558 -47.074  70.299  1.00  0.00     0.000 C 
BRANCH  16  17
ATOM     17  C   UNL     1     -48.537 -48.267  70.350  1.00  0.00     0.000 C 
BRANCH  17  18
ATOM     18  C   UNL     1     -49.098 -48.626  68.962  1.00  0.00     0.000 C 
BRANCH  18  19
ATOM     19  C   UNL     1     -48.653 -47.643  67.868  1.00  0.00     0.000 C 
BRANCH  19  20
ATOM     20  C   UNL     1     -49.835 -47.083  67.059  1.00  0.00     0.006 C 
BRANCH  20  21
ATOM     21  C   UNL     1     -49.491 -46.914  65.574  1.00  0.00     0.053 C 
BRANCH  21  22
ATOM     22  C   UNL     1     -50.545 -46.141  64.841  1.00  0.00     0.041 C 
ATOM     23  O   UNL     1     -50.216 -45.307  63.954  1.00  0.00    -0.550 OA
ATOM     24  O   UNL     1     -51.886 -46.318  65.157  1.00  0.00    -0.550 OA
ENDBRANCH  21  22
ENDBRANCH  20  21
ENDBRANCH  19  20
ENDBRANCH  18  19
ENDBRANCH  17  18
ENDBRANCH  16  17
ENDBRANCH  15  16
ENDBRANCH  14  15
ENDBRANCH  13  14
ENDBRANCH   1  13
TORSDOF 20
ENDMDL
MODEL 3
REMARK VINA RESULT:    -3.248      1.170      2.645
REMARK INTER + INTRA:         -10.309
REMARK INTER:                  -7.509
REMARK INTRA:                  -2.799
REMARK UNBOUND:                -3.263
REMARK SMILES CCCCCCCCCCCCCCCCCCCCCC(=O)[O-]
REMARK SMILES IDX 12 1 11 2 10 3 9 4 8 5 7 6 6 7 5 8 4 9 3 10 2 11 1 12 13 13
REMARK SMILES IDX 14 14 15 15 16 16 17 17 18 18 19 19 20 20 21 21 22 22 23 23
REMARK SMILES IDX 24 24
REMARK H PARENT
REMARK Flexibility Score: inf
ROOT
ATOM      1  C   UNL     1     -42.108 -47.993  67.969  1.00  0.00     0.000 C 
ENDROOT
BRANCH   1   2
ATOM      2  C   UNL     1     -43.454 -47.983  67.221  1.00  0.00     0.000 C 
BRANCH   2   3
ATOM      3  C   UNL     1     -44.612 -48.697  67.949  1.00  0.00     0.000 C 
BRANCH   3   4
ATOM      4  C   UNL     1     -44.190 -49.576  69.139  1.00  0.00    -0.000 C 
BRANCH   4   5
ATOM      5  C   UNL     1     -44.761 -49.083  70.476  1.00  0.00    -0.000 C 
BRANCH   5   6
ATOM      6  C   UNL     1     -44.278 -47.658  70.786  1.00  0.00    -0.000 C 
BRANCH   6   7
ATOM      7  C   UNL     1     -45.435 -46.657  70.928  1.00  0.00    -0.000 C 
BRANCH   7   8
ATOM      8  C   UNL     1     -46.787 -47.346  71.188  1.00  0.00    -0.000 C 
BRANCH   8   9
ATOM      9  C   UNL     1     -47.777 -47.141  70.024  1.00  0.00    -0.000 C 
BRANCH   9  10
ATOM     10  C   UNL     1     -48.280 -48.453  69.391  1.00  0.00    -0.000 C 
BRANCH  10  11
ATOM     11  C   UNL     1     -48.449 -48.391  67.859  1.00  0.00    -0.003 C 
ATOM     12  C   UNL     1     -49.160 -47.121  67.392  1.00  0.00     0.004 C 
ENDBRANCH  10  11
ENDBRANCH   9  10
ENDBRANCH   8   9
ENDBRANCH   7   8
ENDBRANCH   6   7
ENDBRANCH   5   6
ENDBRANCH   4   5
ENDBRANCH   3   4
ENDBRANCH   2   3
ENDBRANCH   1   2
BRANCH   1  13
ATOM     13  C   UNL     1     -41.510 -46.590  68.139  1.00  0.00     0.000 C 
BRANCH  13  14
ATOM     14  C   UNL     1     -42.372 -45.535  67.431  1.00  0.00     0.000 C 
BRANCH  14  15
ATOM     15  C   UNL     1     -42.333 -44.166  68.132  1.00  0.00     0.000 C 
BRANCH  15  16
ATOM     16  C   UNL     1     -43.116 -44.092  69.457  1.00  0.00     0.000 C 
BRANCH  16  17
ATOM     17  C   UNL     1     -42.326 -44.607  70.680  1.00  0.00     0.000 C 
BRANCH  17  18
ATOM     18  C   UNL     1     -42.127 -43.519  71.750  1.00  0.00     0.000 C 
BRANCH  18  19
ATOM     19  C   UNL     1     -42.017 -44.095  73.171  1.00  0.00     0.000 C 
BRANCH  19  20
ATOM     20  C   UNL     1     -42.903 -45.336  73.375  1.00  0.00     0.006 C 
BRANCH  20  21
ATOM     21  C   UNL     1     -44.234 -44.991  74.053  1.00  0.00     0.053 C 
BRANCH  21  22
ATOM     22  C   UNL     1     -44.040 -44.106  75.247  1.00  0.00     0.041 C 
ATOM     23  O   UNL     1     -44.306 -42.876  75.174  1.00  0.00    -0.550 OA
ATOM     24  O   UNL     1     -43.539 -44.633  76.431  1.00  0.00    -0.550 OA
ENDBRANCH  21  22
ENDBRANCH  20  21
ENDBRANCH  19  20
ENDBRANCH  18  19
ENDBRANCH  17  18
ENDBRANCH  16  17
ENDBRANCH  15  16
ENDBRANCH  14  15
ENDBRANCH  13  14
ENDBRANCH   1  13
TORSDOF 20
ENDMDL
MODEL 4
REMARK VINA RESULT:    -3.212      4.571      7.323
REMARK INTER + INTRA:         -10.230
REMARK INTER:                  -6.796
REMARK INTRA:                  -3.435
REMARK UNBOUND:                -3.263
REMARK SMILES CCCCCCCCCCCCCCCCCCCCCC(=O)[O-]
REMARK SMILES IDX 12 1 11 2 10 3 9 4 8 5 7 6 6 7 5 8 4 9 3 10 2 11 1 12 13 13
REMARK SMILES IDX 14 14 15 15 16 16 17 17 18 18 19 19 20 20 21 21 22 22 23 23
REMARK SMILES IDX 24 24
REMARK H PARENT
REMARK Flexibility Score: inf
ROOT
ATOM      1  C   UNL     1     -44.793 -49.860  70.378  1.00  0.00     0.000 C 
ENDROOT
BRANCH   1   2
ATOM      2  C   UNL     1     -43.985 -48.581  70.660  1.00  0.00     0.000 C 
BRANCH   2   3
ATOM      3  C   UNL     1     -44.720 -47.261  70.347  1.00  0.00     0.000 C 
BRANCH   3   4
ATOM      4  C   UNL     1     -45.995 -47.013  71.173  1.00  0.00    -0.000 C 
BRANCH   4   5
ATOM      5  C   UNL     1     -47.274 -47.081  70.327  1.00  0.00    -0.000 C 
BRANCH   5   6
ATOM      6  C   UNL     1     -48.340 -47.947  71.016  1.00  0.00    -0.000 C 
BRANCH   6   7
ATOM      7  C   UNL     1     -48.444 -49.354  70.409  1.00  0.00    -0.000 C 
BRANCH   7   8
ATOM      8  C   UNL     1     -49.641 -50.151  70.957  1.00  0.00    -0.000 C 
BRANCH   8   9
ATOM      9  C   UNL     1     -50.872 -49.257  71.202  1.00  0.00    -0.000 C 
BRANCH   9  10
ATOM     10  C   UNL     1     -51.953 -49.365  70.108  1.00  0.00    -0.000 C 
BRANCH  10  11
ATOM     11  C   UNL     1     -52.093 -50.774  69.497  1.00  0.00    -0.003 C 
ATOM     12  C   UNL     1     -52.330 -50.743  67.987  1.00  0.00     0.004 C 
ENDBRANCH  10  11
ENDBRANCH   9  10
ENDBRANCH   8   9
ENDBRANCH   7   8
ENDBRANCH   6   7
ENDBRANCH   5   6
ENDBRANCH   4   5
ENDBRANCH   3   4
ENDBRANCH   2   3
ENDBRANCH   1   2
BRANCH   1  13
ATOM     13  C   UNL     1     -44.410 -50.527  69.050  1.00  0.00     0.000 C 
BRANCH  13  14
ATOM     14  C   UNL     1     -45.566 -50.450  68.042  1.00  0.00     0.000 C 
BRANCH  14  15
ATOM     15  C   UNL     1     -45.612 -49.109  67.291  1.00  0.00     0.000 C 
BRANCH  15  16
ATOM     16  C   UNL     1     -47.029 -48.589  66.977  1.00  0.00     0.000 C 
BRANCH  16  17
ATOM     17  C   UNL     1     -48.069 -49.707  66.749  1.00  0.00     0.000 C 
BRANCH  17  18
ATOM     18  C   UNL     1     -49.497 -49.156  66.585  1.00  0.00     0.000 C 
BRANCH  18  19
ATOM     19  C   UNL     1     -49.752 -47.904  67.437  1.00  0.00     0.000 C 
BRANCH  19  20
ATOM     20  C   UNL     1     -50.138 -46.679  66.588  1.00  0.00     0.006 C 
BRANCH  20  21
ATOM     21  C   UNL     1     -51.056 -47.053  65.419  1.00  0.00     0.053 C 
BRANCH  21  22
ATOM     22  C   UNL     1     -51.155 -45.949  64.410  1.00  0.00     0.041 C 
ATOM     23  O   UNL     1     -50.113 -45.361  64.012  1.00  0.00    -0.550 OA
ATOM     24  O   UNL     1     -52.396 -45.550  63.933  1.00  0.00    -0.550 OA
ENDBRANCH  21  22
ENDBRANCH  20  21
ENDBRANCH  19  20
ENDBRANCH  18  19
ENDBRANCH  17  18
ENDBRANCH  16  17
ENDBRANCH  15  16
ENDBRANCH  14  15
ENDBRANCH  13  14
ENDBRANCH   1  13
TORSDOF 20
ENDMDL
MODEL 5
REMARK VINA RESULT:    -3.184      4.532      7.479
REMARK INTER + INTRA:         -10.169
REMARK INTER:                  -6.902
REMARK INTRA:                  -3.267
REMARK UNBOUND:                -3.263
REMARK SMILES CCCCCCCCCCCCCCCCCCCCCC(=O)[O-]
REMARK SMILES IDX 12 1 11 2 10 3 9 4 8 5 7 6 6 7 5 8 4 9 3 10 2 11 1 12 13 13
REMARK SMILES IDX 14 14 15 15 16 16 17 17 18 18 19 19 20 20 21 21 22 22 23 23
REMARK SMILES IDX 24 24
REMARK H PARENT
REMARK Flexibility Score: inf
ROOT
ATOM      1  C   UNL     1     -45.428 -47.017  70.986  1.00  0.00     0.000 C 
ENDROOT
BRANCH   1   2
ATOM      2  C   UNL     1     -46.950 -47.114  70.777  1.00  0.00     0.000 C 
BRANCH   2   3
ATOM      3  C   UNL     1     -47.541 -48.532  70.923  1.00  0.00     0.000 C 
BRANCH   3   4
ATOM      4  C   UNL     1     -49.064 -48.627  70.726  1.00  0.00    -0.000 C 
BRANCH   4   5
ATOM      5  C   UNL     1     -49.544 -50.065  70.483  1.00  0.00    -0.000 C 
BRANCH   5   6
ATOM      6  C   UNL     1     -50.699 -50.093  69.471  1.00  0.00    -0.000 C 
BRANCH   6   7
ATOM      7  C   UNL     1     -51.904 -49.255  69.924  1.00  0.00    -0.000 C 
BRANCH   7   8
ATOM      8  C   UNL     1     -52.479 -49.723  71.273  1.00  0.00    -0.000 C 
BRANCH   8   9
ATOM      9  C   UNL     1     -53.472 -48.703  71.867  1.00  0.00    -0.000 C 
BRANCH   9  10
ATOM     10  C   UNL     1     -52.820 -47.664  72.800  1.00  0.00    -0.000 C 
BRANCH  10  11
ATOM     11  C   UNL     1     -51.559 -48.171  73.528  1.00  0.00    -0.003 C 
ATOM     12  C   UNL     1     -51.828 -48.548  74.985  1.00  0.00     0.004 C 
ENDBRANCH  10  11
ENDBRANCH   9  10
ENDBRANCH   8   9
ENDBRANCH   7   8
ENDBRANCH   6   7
ENDBRANCH   5   6
ENDBRANCH   4   5
ENDBRANCH   3   4
ENDBRANCH   2   3
ENDBRANCH   1   2
BRANCH   1  13
ATOM     13  C   UNL     1     -44.690 -48.308  70.607  1.00  0.00     0.000 C 
BRANCH  13  14
ATOM     14  C   UNL     1     -43.852 -48.110  69.335  1.00  0.00     0.000 C 
BRANCH  14  15
ATOM     15  C   UNL     1     -44.600 -48.528  68.058  1.00  0.00     0.000 C 
BRANCH  15  16
ATOM     16  C   UNL     1     -45.327 -49.885  68.146  1.00  0.00     0.000 C 
BRANCH  16  17
ATOM     17  C   UNL     1     -46.760 -49.864  67.570  1.00  0.00     0.000 C 
BRANCH  17  18
ATOM     18  C   UNL     1     -47.266 -48.434  67.308  1.00  0.00     0.000 C 
BRANCH  18  19
ATOM     19  C   UNL     1     -48.700 -48.403  66.755  1.00  0.00     0.000 C 
BRANCH  19  20
ATOM     20  C   UNL     1     -49.512 -47.209  67.286  1.00  0.00     0.006 C 
BRANCH  20  21
ATOM     21  C   UNL     1     -50.510 -46.682  66.247  1.00  0.00     0.053 C 
BRANCH  21  22
ATOM     22  C   UNL     1     -51.342 -47.783  65.662  1.00  0.00     0.041 C 
ATOM     23  O   UNL     1     -51.283 -48.034  64.429  1.00  0.00    -0.550 OA
ATOM     24  O   UNL     1     -52.204 -48.510  66.472  1.00  0.00    -0.550 OA
ENDBRANCH  21  22
ENDBRANCH  20  21
ENDBRANCH  19  20
ENDBRANCH  18  19
ENDBRANCH  17  18
ENDBRANCH  16  17
ENDBRANCH  15  16
ENDBRANCH  14  15
ENDBRANCH  13  14
ENDBRANCH   1  13
TORSDOF 20
ENDMDL
MODEL 6
REMARK VINA RESULT:    -3.177      3.122      7.178
REMARK INTER + INTRA:         -10.154
REMARK INTER:                  -6.957
REMARK INTRA:                  -3.196
REMARK UNBOUND:                -3.263
REMARK SMILES CCCCCCCCCCCCCCCCCCCCCC(=O)[O-]
REMARK SMILES IDX 12 1 11 2 10 3 9 4 8 5 7 6 6 7 5 8 4 9 3 10 2 11 1 12 13 13
REMARK SMILES IDX 14 14 15 15 16 16 17 17 18 18 19 19 20 20 21 21 22 22 23 23
REMARK SMILES IDX 24 24
REMARK H PARENT
REMARK Flexibility Score: inf
ROOT
ATOM      1  C   UNL     1     -41.966 -45.213  66.946  1.00  0.00     0.000 C 
ENDROOT
BRANCH   1   2
ATOM      2  C   UNL     1     -40.472 -45.215  67.319  1.00  0.00     0.000 C 
BRANCH   2   3
ATOM      3  C   UNL     1     -39.852 -43.821  67.541  1.00  0.00     0.000 C 
BRANCH   3   4
ATOM      4  C   UNL     1     -39.440 -43.514  68.992  1.00  0.00    -0.000 C 
BRANCH   4   5
ATOM      5  C   UNL     1     -39.807 -42.087  69.426  1.00  0.00    -0.000 C 
BRANCH   5   6
ATOM      6  C   UNL     1     -41.121 -41.636  68.769  1.00  0.00    -0.000 C 
BRANCH   6   7
ATOM      7  C   UNL     1     -42.062 -40.925  69.754  1.00  0.00    -0.000 C 
BRANCH   7   8
ATOM      8  C   UNL     1     -43.325 -41.747  70.067  1.00  0.00    -0.000 C 
BRANCH   8   9
ATOM      9  C   UNL     1     -43.395 -43.045  69.236  1.00  0.00    -0.000 C 
BRANCH   9  10
ATOM     10  C   UNL     1     -43.539 -44.324  70.084  1.00  0.00    -0.000 C 
BRANCH  10  11
ATOM     11  C   UNL     1     -42.318 -44.631  70.975  1.00  0.00    -0.003 C 
ATOM     12  C   UNL     1     -42.674 -45.480  72.196  1.00  0.00     0.004 C 
ENDBRANCH  10  11
ENDBRANCH   9  10
ENDBRANCH   8   9
ENDBRANCH   7   8
ENDBRANCH   6   7
ENDBRANCH   5   6
ENDBRANCH   4   5
ENDBRANCH   3   4
ENDBRANCH   2   3
ENDBRANCH   1   2
BRANCH   1  13
ATOM     13  C   UNL     1     -42.569 -46.624  66.892  1.00  0.00     0.000 C 
BRANCH  13  14
ATOM     14  C   UNL     1     -42.459 -47.321  68.256  1.00  0.00     0.000 C 
BRANCH  14  15
ATOM     15  C   UNL     1     -43.811 -47.852  68.763  1.00  0.00     0.000 C 
BRANCH  15  16
ATOM     16  C   UNL     1     -43.810 -48.343  70.224  1.00  0.00     0.000 C 
BRANCH  16  17
ATOM     17  C   UNL     1     -45.218 -48.450  70.849  1.00  0.00     0.000 C 
BRANCH  17  18
ATOM     18  C   UNL     1     -46.001 -47.127  70.760  1.00  0.00     0.000 C 
BRANCH  18  19
ATOM     19  C   UNL     1     -47.518 -47.324  70.906  1.00  0.00     0.000 C 
BRANCH  19  20
ATOM     20  C   UNL     1     -48.069 -48.400  69.954  1.00  0.00     0.006 C 
BRANCH  20  21
ATOM     21  C   UNL     1     -47.924 -47.998  68.482  1.00  0.00     0.053 C 
BRANCH  21  22
ATOM     22  C   UNL     1     -49.256 -47.856  67.808  1.00  0.00     0.041 C 
ATOM     23  O   UNL     1     -49.479 -46.875  67.048  1.00  0.00    -0.550 OA
ATOM     24  O   UNL     1     -50.258 -48.788  68.042  1.00  0.00    -0.550 OA
ENDBRANCH  21  22
ENDBRANCH  20  21
ENDBRANCH  19  20
ENDBRANCH  18  19
ENDBRANCH  17  18
ENDBRANCH  16  17
ENDBRANCH  15  16
ENDBRANCH  14  15
ENDBRANCH  13  14
ENDBRANCH   1  13
TORSDOF 20
ENDMDL
MODEL 7
REMARK VINA RESULT:    -3.164      2.453      4.108
REMARK INTER + INTRA:         -10.126
REMARK INTER:                  -6.609
REMARK INTRA:                  -3.517
REMARK UNBOUND:                -3.263
REMARK SMILES CCCCCCCCCCCCCCCCCCCCCC(=O)[O-]
REMARK SMILES IDX 12 1 11 2 10 3 9 4 8 5 7 6 6 7 5 8 4 9 3 10 2 11 1 12 13 13
REMARK SMILES IDX 14 14 15 15 16 16 17 17 18 18 19 19 20 20 21 21 22 22 23 23
REMARK SMILES IDX 24 24
REMARK H PARENT
REMARK Flexibility Score: inf
ROOT
ATOM      1  C   UNL     1     -45.198 -48.263  70.610  1.00  0.00     0.000 C 
ENDROOT
BRANCH   1   2
ATOM      2  C   UNL     1     -46.123 -47.151  71.140  1.00  0.00     0.000 C 
BRANCH   2   3
ATOM      3  C   UNL     1     -47.625 -47.362  70.859  1.00  0.00     0.000 C 
BRANCH   3   4
ATOM      4  C   UNL     1     -48.052 -48.826  70.659  1.00  0.00    -0.000 C 
BRANCH   4   5
ATOM      5  C   UNL     1     -48.762 -49.062  69.319  1.00  0.00    -0.000 C 
BRANCH   5   6
ATOM      6  C   UNL     1     -48.400 -47.963  68.307  1.00  0.00    -0.000 C 
BRANCH   6   7
ATOM      7  C   UNL     1     -47.682 -48.514  67.066  1.00  0.00    -0.000 C 
BRANCH   7   8
ATOM      8  C   UNL     1     -46.167 -48.682  67.281  1.00  0.00    -0.000 C 
BRANCH   8   9
ATOM      9  C   UNL     1     -45.658 -50.052  66.788  1.00  0.00    -0.000 C 
BRANCH   9  10
ATOM     10  C   UNL     1     -46.107 -51.239  67.662  1.00  0.00    -0.000 C 
BRANCH  10  11
ATOM     11  C   UNL     1     -45.200 -51.505  68.880  1.00  0.00    -0.003 C 
ATOM     12  C   UNL     1     -45.990 -51.845  70.144  1.00  0.00     0.004 C 
ENDBRANCH  10  11
ENDBRANCH   9  10
ENDBRANCH   8   9
ENDBRANCH   7   8
ENDBRANCH   6   7
ENDBRANCH   5   6
ENDBRANCH   4   5
ENDBRANCH   3   4
ENDBRANCH   2   3
ENDBRANCH   1   2
BRANCH   1  13
ATOM     13  C   UNL     1     -43.710 -47.949  70.815  1.00  0.00     0.000 C 
BRANCH  13  14
ATOM     14  C   UNL     1     -42.827 -49.023  70.162  1.00  0.00     0.000 C 
BRANCH  14  15
ATOM     15  C   UNL     1     -41.756 -48.429  69.232  1.00  0.00     0.000 C 
BRANCH  15  16
ATOM     16  C   UNL     1     -41.750 -48.999  67.800  1.00  0.00     0.000 C 
BRANCH  16  17
ATOM     17  C   UNL     1     -42.547 -48.149  66.786  1.00  0.00     0.000 C 
BRANCH  17  18
ATOM     18  C   UNL     1     -42.855 -46.737  67.317  1.00  0.00     0.000 C 
BRANCH  18  19
ATOM     19  C   UNL     1     -41.982 -45.654  66.666  1.00  0.00     0.000 C 
BRANCH  19  20
ATOM     20  C   UNL     1     -41.657 -44.498  67.628  1.00  0.00     0.006 C 
BRANCH  20  21
ATOM     21  C   UNL     1     -42.699 -44.367  68.746  1.00  0.00     0.053 C 
BRANCH  21  22
ATOM     22  C   UNL     1     -42.823 -42.954  69.231  1.00  0.00     0.041 C 
ATOM     23  O   UNL     1     -43.955 -42.404  69.294  1.00  0.00    -0.550 OA
ATOM     24  O   UNL     1     -41.687 -42.236  69.584  1.00  0.00    -0.550 OA
ENDBRANCH  21  22
ENDBRANCH  20  21
ENDBRANCH  19  20
ENDBRANCH  18  19
ENDBRANCH  17  18
ENDBRANCH  16  17
ENDBRANCH  15  16
ENDBRANCH  14  15
ENDBRANCH  13  14
ENDBRANCH   1  13
TORSDOF 20
ENDMDL
MODEL 8
REMARK VINA RESULT:    -3.152      1.595      2.975
REMARK INTER + INTRA:         -10.100
REMARK INTER:                  -7.526
REMARK INTRA:                  -2.574
REMARK UNBOUND:                -3.263
REMARK SMILES CCCCCCCCCCCCCCCCCCCCCC(=O)[O-]
REMARK SMILES IDX 12 1 11 2 10 3 9 4 8 5 7 6 6 7 5 8 4 9 3 10 2 11 1 12 13 13
REMARK SMILES IDX 14 14 15 15 16 16 17 17 18 18 19 19 20 20 21 21 22 22 23 23
REMARK SMILES IDX 24 24
REMARK H PARENT
REMARK Flexibility Score: inf
ROOT
ATOM      1  C   UNL     1     -42.198 -44.668  70.242  1.00  0.00     0.000 C 
ENDROOT
BRANCH   1   2
ATOM      2  C   UNL     1     -43.199 -45.253  71.256  1.00  0.00     0.000 C 
BRANCH   2   3
ATOM      3  C   UNL     1     -42.958 -46.729  71.634  1.00  0.00     0.000 C 
BRANCH   3   4
ATOM      4  C   UNL     1     -43.033 -47.723  70.461  1.00  0.00    -0.000 C 
BRANCH   4   5
ATOM      5  C   UNL     1     -44.411 -47.740  69.783  1.00  0.00    -0.000 C 
BRANCH   5   6
ATOM      6  C   UNL     1     -45.495 -48.223  70.759  1.00  0.00    -0.000 C 
BRANCH   6   7
ATOM      7  C   UNL     1     -46.479 -47.109  71.149  1.00  0.00    -0.000 C 
BRANCH   7   8
ATOM      8  C   UNL     1     -47.947 -47.569  71.097  1.00  0.00    -0.000 C 
BRANCH   8   9
ATOM      9  C   UNL     1     -48.101 -48.949  70.426  1.00  0.00    -0.000 C 
BRANCH   9  10
ATOM     10  C   UNL     1     -48.873 -48.914  69.093  1.00  0.00    -0.000 C 
BRANCH  10  11
ATOM     11  C   UNL     1     -48.278 -47.953  68.044  1.00  0.00    -0.003 C 
ATOM     12  C   UNL     1     -47.422 -48.671  67.001  1.00  0.00     0.004 C 
ENDBRANCH  10  11
ENDBRANCH   9  10
ENDBRANCH   8   9
ENDBRANCH   7   8
ENDBRANCH   6   7
ENDBRANCH   5   6
ENDBRANCH   4   5
ENDBRANCH   3   4
ENDBRANCH   2   3
ENDBRANCH   1   2
BRANCH   1  13
ATOM     13  C   UNL     1     -42.885 -43.984  69.052  1.00  0.00     0.000 C 
BRANCH  13  14
ATOM     14  C   UNL     1     -43.407 -42.593  69.443  1.00  0.00     0.000 C 
BRANCH  14  15
ATOM     15  C   UNL     1     -42.337 -41.497  69.308  1.00  0.00     0.000 C 
BRANCH  15  16
ATOM     16  C   UNL     1     -42.554 -40.263  70.207  1.00  0.00     0.000 C 
BRANCH  16  17
ATOM     17  C   UNL     1     -42.970 -40.610  71.653  1.00  0.00     0.000 C 
BRANCH  17  18
ATOM     18  C   UNL     1     -41.825 -41.255  72.454  1.00  0.00     0.000 C 
BRANCH  18  19
ATOM     19  C   UNL     1     -42.300 -42.421  73.336  1.00  0.00     0.000 C 
BRANCH  19  20
ATOM     20  C   UNL     1     -43.817 -42.388  73.592  1.00  0.00     0.006 C 
BRANCH  20  21
ATOM     21  C   UNL     1     -44.163 -42.699  75.054  1.00  0.00     0.053 C 
BRANCH  21  22
ATOM     22  C   UNL     1     -43.669 -44.051  75.470  1.00  0.00     0.041 C 
ATOM     23  O   UNL     1     -44.342 -45.082  75.197  1.00  0.00    -0.550 OA
ATOM     24  O   UNL     1     -42.484 -44.171  76.183  1.00  0.00    -0.550 OA
ENDBRANCH  21  22
ENDBRANCH  20  21
ENDBRANCH  19  20
ENDBRANCH  18  19
ENDBRANCH  17  18
ENDBRANCH  16  17
ENDBRANCH  15  16
ENDBRANCH  14  15
ENDBRANCH  13  14
ENDBRANCH   1  13
TORSDOF 20
ENDMDL
MODEL 9
REMARK VINA RESULT:    -3.142      3.015      6.920
REMARK INTER + INTRA:         -10.078
REMARK INTER:                  -6.723
REMARK INTRA:                  -3.355
REMARK UNBOUND:                -3.263
REMARK SMILES CCCCCCCCCCCCCCCCCCCCCC(=O)[O-]
REMARK SMILES IDX 12 1 11 2 10 3 9 4 8 5 7 6 6 7 5 8 4 9 3 10 2 11 1 12 13 13
REMARK SMILES IDX 14 14 15 15 16 16 17 17 18 18 19 19 20 20 21 21 22 22 23 23
REMARK SMILES IDX 24 24
REMARK H PARENT
REMARK Flexibility Score: inf
ROOT
ATOM      1  C   UNL     1     -47.623 -47.119  70.309  1.00  0.00     0.000 C 
ENDROOT
BRANCH   1   2
ATOM      2  C   UNL     1     -46.403 -47.180  71.245  1.00  0.00     0.000 C 
BRANCH   2   3
ATOM      3  C   UNL     1     -45.183 -46.357  70.784  1.00  0.00     0.000 C 
BRANCH   3   4
ATOM      4  C   UNL     1     -44.088 -46.161  71.848  1.00  0.00    -0.000 C 
BRANCH   4   5
ATOM      5  C   UNL     1     -42.717 -46.681  71.394  1.00  0.00    -0.000 C 
BRANCH   5   6
ATOM      6  C   UNL     1     -41.683 -45.545  71.364  1.00  0.00    -0.000 C 
BRANCH   6   7
ATOM      7  C   UNL     1     -41.074 -45.335  69.969  1.00  0.00    -0.000 C 
BRANCH   7   8
ATOM      8  C   UNL     1     -42.133 -45.347  68.851  1.00  0.00    -0.000 C 
BRANCH   8   9
ATOM      9  C   UNL     1     -42.490 -43.925  68.373  1.00  0.00    -0.000 C 
BRANCH   9  10
ATOM     10  C   UNL     1     -43.552 -43.221  69.240  1.00  0.00    -0.000 C 
BRANCH  10  11
ATOM     11  C   UNL     1     -42.995 -42.089  70.125  1.00  0.00    -0.003 C 
ATOM     12  C   UNL     1     -42.199 -41.052  69.331  1.00  0.00     0.004 C 
ENDBRANCH  10  11
ENDBRANCH   9  10
ENDBRANCH   8   9
ENDBRANCH   7   8
ENDBRANCH   6   7
ENDBRANCH   5   6
ENDBRANCH   4   5
ENDBRANCH   3   4
ENDBRANCH   2   3
ENDBRANCH   1   2
BRANCH   1  13
ATOM     13  C   UNL     1     -47.696 -48.311  69.345  1.00  0.00     0.000 C 
BRANCH  13  14
ATOM     14  C   UNL     1     -48.632 -48.009  68.166  1.00  0.00     0.000 C 
BRANCH  14  15
ATOM     15  C   UNL     1     -48.001 -48.344  66.804  1.00  0.00     0.000 C 
BRANCH  15  16
ATOM     16  C   UNL     1     -46.760 -49.256  66.869  1.00  0.00     0.000 C 
BRANCH  16  17
ATOM     17  C   UNL     1     -45.663 -48.893  65.845  1.00  0.00     0.000 C 
BRANCH  17  18
ATOM     18  C   UNL     1     -44.258 -48.864  66.475  1.00  0.00     0.000 C 
BRANCH  18  19
ATOM     19  C   UNL     1     -44.259 -48.301  67.905  1.00  0.00     0.000 C 
BRANCH  19  20
ATOM     20  C   UNL     1     -43.451 -49.171  68.883  1.00  0.00     0.006 C 
BRANCH  20  21
ATOM     21  C   UNL     1     -44.354 -49.916  69.875  1.00  0.00     0.053 C 
BRANCH  21  22
ATOM     22  C   UNL     1     -44.390 -51.389  69.599  1.00  0.00     0.041 C 
ATOM     23  O   UNL     1     -44.887 -51.819  68.524  1.00  0.00    -0.550 OA
ATOM     24  O   UNL     1     -43.905 -52.286  70.542  1.00  0.00    -0.550 OA
ENDBRANCH  21  22
ENDBRANCH  20  21
ENDBRANCH  19  20
ENDBRANCH  18  19
ENDBRANCH  17  18
ENDBRANCH  16  17
ENDBRANCH  15  16
ENDBRANCH  14  15
ENDBRANCH  13  14
ENDBRANCH   1  13
TORSDOF 20
ENDMDL
