MODEL 1
REMARK VINA RESULT:    -5.088      0.000      0.000
REMARK INTER + INTRA:         -11.077
REMARK INTER:                  -9.251
REMARK INTRA:                  -1.826
REMARK UNBOUND:                -1.826
REMARK SMILES CCCCCCCCCCCCCCCC(=O)[O-]
REMARK SMILES IDX 9 1 10 2 11 3 12 4 13 5 14 6 15 7 16 8 17 9 18 10 8 11 7 12
REMARK SMILES IDX 6 13 5 14 4 15 3 16 2 17 1 18
REMARK H PARENT
REMARK Flexibility Score: inf
ROOT
ATOM      1  C   UNL     1     163.424 166.037 158.640  1.00  0.00     0.000 C 
ENDROOT
BRANCH   1   2
ATOM      2  C   UNL     1     162.622 164.724 158.676  1.00  0.00     0.000 C 
BRANCH   2   3
ATOM      3  C   UNL     1     163.439 163.521 158.178  1.00  0.00     0.000 C 
BRANCH   3   4
ATOM      4  C   UNL     1     162.642 162.205 158.230  1.00  0.00     0.000 C 
BRANCH   4   5
ATOM      5  C   UNL     1     161.601 162.190 159.361  1.00  0.00     0.000 C 
BRANCH   5   6
ATOM      6  C   UNL     1     160.159 162.083 158.842  1.00  0.00     0.006 C 
BRANCH   6   7
ATOM      7  C   UNL     1     159.324 163.286 159.291  1.00  0.00     0.053 C 
BRANCH   7   8
ATOM      8  C   UNL     1     157.881 163.076 158.958  1.00  0.00     0.041 C 
ATOM      9  O   UNL     1     157.545 162.190 158.128  1.00  0.00    -0.550 OA
ATOM     10  O   UNL     1     156.903 163.826 159.599  1.00  0.00    -0.550 OA
ENDBRANCH   7   8
ENDBRANCH   6   7
ENDBRANCH   5   6
ENDBRANCH   4   5
ENDBRANCH   3   4
ENDBRANCH   2   3
ENDBRANCH   1   2
BRANCH   1  11
ATOM     11  C   UNL     1     163.294 166.843 159.943  1.00  0.00     0.000 C 
BRANCH  11  12
ATOM     12  C   UNL     1     162.380 168.072 159.793  1.00  0.00    -0.000 C 
BRANCH  12  13
ATOM     13  C   UNL     1     161.160 168.016 160.726  1.00  0.00    -0.000 C 
BRANCH  13  14
ATOM     14  C   UNL     1     160.031 167.131 160.169  1.00  0.00    -0.000 C 
BRANCH  14  15
ATOM     15  C   UNL     1     159.434 166.198 161.233  1.00  0.00    -0.000 C 
BRANCH  15  16
ATOM     16  C   UNL     1     160.391 165.962 162.415  1.00  0.00    -0.000 C 
BRANCH  16  17
ATOM     17  C   UNL     1     161.280 164.724 162.214  1.00  0.00    -0.003 C 
ATOM     18  C   UNL     1     161.510 163.947 163.510  1.00  0.00     0.004 C 
ENDBRANCH  16  17
ENDBRANCH  15  16
ENDBRANCH  14  15
ENDBRANCH  13  14
ENDBRANCH  12  13
ENDBRANCH  11  12
ENDBRANCH   1  11
TORSDOF 14
ENDMDL
MODEL 2
REMARK VINA RESULT:    -4.971      2.633      4.794
REMARK INTER + INTRA:         -10.864
REMARK INTER:                  -9.055
REMARK INTRA:                  -1.810
REMARK UNBOUND:                -1.826
REMARK SMILES CCCCCCCCCCCCCCCC(=O)[O-]
REMARK SMILES IDX 9 1 10 2 11 3 12 4 13 5 14 6 15 7 16 8 17 9 18 10 8 11 7 12
REMARK SMILES IDX 6 13 5 14 4 15 3 16 2 17 1 18
REMARK H PARENT
REMARK Flexibility Score: inf
ROOT
ATOM      1  C   UNL     1     158.477 166.106 160.480  1.00  0.00     0.000 C 
ENDROOT
BRANCH   1   2
ATOM      2  C   UNL     1     158.697 164.594 160.666  1.00  0.00     0.000 C 
BRANCH   2   3
ATOM      3  C   UNL     1     157.720 163.750 159.831  1.00  0.00     0.000 C 
BRANCH   3   4
ATOM      4  C   UNL     1     158.414 163.034 158.658  1.00  0.00     0.000 C 
BRANCH   4   5
ATOM      5  C   UNL     1     159.916 163.354 158.576  1.00  0.00     0.000 C 
BRANCH   5   6
ATOM      6  C   UNL     1     160.780 162.105 158.345  1.00  0.00     0.006 C 
BRANCH   6   7
ATOM      7  C   UNL     1     162.000 162.103 159.271  1.00  0.00     0.053 C 
BRANCH   7   8
ATOM      8  C   UNL     1     163.245 161.805 158.497  1.00  0.00     0.041 C 
ATOM      9  O   UNL     1     163.646 160.618 158.376  1.00  0.00    -0.550 OA
ATOM     10  O   UNL     1     163.935 162.834 157.869  1.00  0.00    -0.550 OA
ENDBRANCH   7   8
ENDBRANCH   6   7
ENDBRANCH   5   6
ENDBRANCH   4   5
ENDBRANCH   3   4
ENDBRANCH   2   3
ENDBRANCH   1   2
BRANCH   1  11
ATOM     11  C   UNL     1     159.794 166.898 160.487  1.00  0.00     0.000 C 
BRANCH  11  12
ATOM     12  C   UNL     1     160.823 166.333 161.483  1.00  0.00    -0.000 C 
BRANCH  12  13
ATOM     13  C   UNL     1     162.018 165.667 160.782  1.00  0.00    -0.000 C 
BRANCH  13  14
ATOM     14  C   UNL     1     163.035 166.692 160.250  1.00  0.00    -0.000 C 
BRANCH  14  15
ATOM     15  C   UNL     1     163.898 166.128 159.111  1.00  0.00    -0.000 C 
BRANCH  15  16
ATOM     16  C   UNL     1     163.412 166.578 157.723  1.00  0.00    -0.000 C 
BRANCH  16  17
ATOM     17  C   UNL     1     162.314 165.664 157.158  1.00  0.00    -0.003 C 
ATOM     18  C   UNL     1     161.140 166.446 156.569  1.00  0.00     0.004 C 
ENDBRANCH  16  17
ENDBRANCH  15  16
ENDBRANCH  14  15
ENDBRANCH  13  14
ENDBRANCH  12  13
ENDBRANCH  11  12
ENDBRANCH   1  11
TORSDOF 14
ENDMDL
MODEL 3
REMARK VINA RESULT:    -4.874      2.706      5.173
REMARK INTER + INTRA:         -10.689
REMARK INTER:                  -8.729
REMARK INTRA:                  -1.960
REMARK UNBOUND:                -1.826
REMARK SMILES CCCCCCCCCCCCCCCC(=O)[O-]
REMARK SMILES IDX 9 1 10 2 11 3 12 4 13 5 14 6 15 7 16 8 17 9 18 10 8 11 7 12
REMARK SMILES IDX 6 13 5 14 4 15 3 16 2 17 1 18
REMARK H PARENT
REMARK Flexibility Score: inf
ROOT
ATOM      1  C   UNL     1     162.310 168.005 159.750  1.00  0.00     0.000 C 
ENDROOT
BRANCH   1   2
ATOM      2  C   UNL     1     161.250 167.488 160.739  1.00  0.00     0.000 C 
BRANCH   2   3
ATOM      3  C   UNL     1     160.226 166.556 160.071  1.00  0.00     0.000 C 
BRANCH   3   4
ATOM      4  C   UNL     1     159.777 165.413 160.999  1.00  0.00     0.000 C 
BRANCH   4   5
ATOM      5  C   UNL     1     160.960 164.612 161.565  1.00  0.00     0.000 C 
BRANCH   5   6
ATOM      6  C   UNL     1     161.102 164.754 163.088  1.00  0.00     0.006 C 
BRANCH   6   7
ATOM      7  C   UNL     1     161.818 163.541 163.688  1.00  0.00     0.053 C 
BRANCH   7   8
ATOM      8  C   UNL     1     161.511 163.419 165.147  1.00  0.00     0.041 C 
ATOM      9  O   UNL     1     162.401 163.037 165.952  1.00  0.00    -0.550 OA
ATOM     10  O   UNL     1     160.256 163.774 165.625  1.00  0.00    -0.550 OA
ENDBRANCH   7   8
ENDBRANCH   6   7
ENDBRANCH   5   6
ENDBRANCH   4   5
ENDBRANCH   3   4
ENDBRANCH   2   3
ENDBRANCH   1   2
BRANCH   1  11
ATOM     11  C   UNL     1     162.624 166.990 158.639  1.00  0.00     0.000 C 
BRANCH  11  12
ATOM     12  C   UNL     1     163.753 166.017 159.026  1.00  0.00    -0.000 C 
BRANCH  12  13
ATOM     13  C   UNL     1     163.695 164.703 158.232  1.00  0.00    -0.000 C 
BRANCH  13  14
ATOM     14  C   UNL     1     162.276 164.112 158.174  1.00  0.00    -0.000 C 
BRANCH  14  15
ATOM     15  C   UNL     1     162.241 162.624 158.557  1.00  0.00    -0.000 C 
BRANCH  15  16
ATOM     16  C   UNL     1     160.815 162.047 158.550  1.00  0.00    -0.000 C 
BRANCH  16  17
ATOM     17  C   UNL     1     159.776 163.050 158.025  1.00  0.00    -0.003 C 
ATOM     18  C   UNL     1     158.427 162.929 158.735  1.00  0.00     0.004 C 
ENDBRANCH  16  17
ENDBRANCH  15  16
ENDBRANCH  14  15
ENDBRANCH  13  14
ENDBRANCH  12  13
ENDBRANCH  11  12
ENDBRANCH   1  11
TORSDOF 14
ENDMDL
MODEL 4
REMARK VINA RESULT:    -4.840      3.452      4.885
REMARK INTER + INTRA:         -10.627
REMARK INTER:                  -8.655
REMARK INTRA:                  -1.972
REMARK UNBOUND:                -1.826
REMARK SMILES CCCCCCCCCCCCCCCC(=O)[O-]
REMARK SMILES IDX 9 1 10 2 11 3 12 4 13 5 14 6 15 7 16 8 17 9 18 10 8 11 7 12
REMARK SMILES IDX 6 13 5 14 4 15 3 16 2 17 1 18
REMARK H PARENT
REMARK Flexibility Score: inf
ROOT
ATOM      1  C   UNL     1     162.860 162.901 158.717  1.00  0.00     0.000 C 
ENDROOT
BRANCH   1   2
ATOM      2  C   UNL     1     162.854 164.183 157.866  1.00  0.00     0.000 C 
BRANCH   2   3
ATOM      3  C   UNL     1     163.286 165.424 158.666  1.00  0.00     0.000 C 
BRANCH   3   4
ATOM      4  C   UNL     1     162.716 166.729 158.083  1.00  0.00     0.000 C 
BRANCH   4   5
ATOM      5  C   UNL     1     161.467 166.493 157.218  1.00  0.00     0.000 C 
BRANCH   5   6
ATOM      6  C   UNL     1     161.686 166.862 155.743  1.00  0.00     0.006 C 
BRANCH   6   7
ATOM      7  C   UNL     1     160.508 166.399 154.881  1.00  0.00     0.053 C 
BRANCH   7   8
ATOM      8  C   UNL     1     160.663 166.886 153.475  1.00  0.00     0.041 C 
ATOM      9  O   UNL     1     159.849 167.723 153.002  1.00  0.00    -0.550 OA
ATOM     10  O   UNL     1     161.734 166.454 152.704  1.00  0.00    -0.550 OA
ENDBRANCH   7   8
ENDBRANCH   6   7
ENDBRANCH   5   6
ENDBRANCH   4   5
ENDBRANCH   3   4
ENDBRANCH   2   3
ENDBRANCH   1   2
BRANCH   1  11
ATOM     11  C   UNL     1     161.513 162.161 158.678  1.00  0.00     0.000 C 
BRANCH  11  12
ATOM     12  C   UNL     1     160.355 163.060 158.210  1.00  0.00    -0.000 C 
BRANCH  12  13
ATOM     13  C   UNL     1     159.025 162.714 158.899  1.00  0.00    -0.000 C 
BRANCH  13  14
ATOM     14  C   UNL     1     158.482 163.876 159.749  1.00  0.00    -0.000 C 
BRANCH  14  15
ATOM     15  C   UNL     1     159.514 164.998 159.942  1.00  0.00    -0.000 C 
BRANCH  15  16
ATOM     16  C   UNL     1     159.972 165.134 161.404  1.00  0.00    -0.000 C 
BRANCH  16  17
ATOM     17  C   UNL     1     161.251 164.333 161.697  1.00  0.00    -0.003 C 
ATOM     18  C   UNL     1     161.565 164.249 163.191  1.00  0.00     0.004 C 
ENDBRANCH  16  17
ENDBRANCH  15  16
ENDBRANCH  14  15
ENDBRANCH  13  14
ENDBRANCH  12  13
ENDBRANCH  11  12
ENDBRANCH   1  11
TORSDOF 14
ENDMDL
MODEL 5
REMARK VINA RESULT:    -4.717      1.914      4.964
REMARK INTER + INTRA:         -10.402
REMARK INTER:                  -8.252
REMARK INTRA:                  -2.151
REMARK UNBOUND:                -1.826
REMARK SMILES CCCCCCCCCCCCCCCC(=O)[O-]
REMARK SMILES IDX 9 1 10 2 11 3 12 4 13 5 14 6 15 7 16 8 17 9 18 10 8 11 7 12
REMARK SMILES IDX 6 13 5 14 4 15 3 16 2 17 1 18
REMARK H PARENT
REMARK Flexibility Score: inf
ROOT
ATOM      1  C   UNL     1     161.429 166.419 157.124  1.00  0.00     0.000 C 
ENDROOT
BRANCH   1   2
ATOM      2  C   UNL     1     162.703 167.162 157.567  1.00  0.00     0.000 C 
BRANCH   2   3
ATOM      3  C   UNL     1     163.568 166.327 158.526  1.00  0.00     0.000 C 
BRANCH   3   4
ATOM      4  C   UNL     1     163.377 166.736 159.997  1.00  0.00     0.000 C 
BRANCH   4   5
ATOM      5  C   UNL     1     162.400 167.911 160.162  1.00  0.00     0.000 C 
BRANCH   5   6
ATOM      6  C   UNL     1     161.049 167.483 160.756  1.00  0.00     0.006 C 
BRANCH   6   7
ATOM      7  C   UNL     1     161.120 166.056 161.308  1.00  0.00     0.053 C 
BRANCH   7   8
ATOM      8  C   UNL     1     159.831 165.685 161.971  1.00  0.00     0.041 C 
ATOM      9  O   UNL     1     158.898 165.172 161.300  1.00  0.00    -0.550 OA
ATOM     10  O   UNL     1     159.679 165.862 163.341  1.00  0.00    -0.550 OA
ENDBRANCH   7   8
ENDBRANCH   6   7
ENDBRANCH   5   6
ENDBRANCH   4   5
ENDBRANCH   3   4
ENDBRANCH   2   3
ENDBRANCH   1   2
BRANCH   1  11
ATOM     11  C   UNL     1     161.480 164.918 157.449  1.00  0.00     0.000 C 
BRANCH  11  12
ATOM     12  C   UNL     1     160.269 164.447 158.275  1.00  0.00    -0.000 C 
BRANCH  12  13
ATOM     13  C   UNL     1     160.529 163.114 158.994  1.00  0.00    -0.000 C 
BRANCH  13  14
ATOM     14  C   UNL     1     162.022 162.886 159.290  1.00  0.00    -0.000 C 
BRANCH  14  15
ATOM     15  C   UNL     1     162.492 161.476 158.897  1.00  0.00    -0.000 C 
BRANCH  15  16
ATOM     16  C   UNL     1     163.942 161.460 158.384  1.00  0.00    -0.000 C 
BRANCH  16  17
ATOM     17  C   UNL     1     164.434 162.853 157.963  1.00  0.00    -0.003 C 
ATOM     18  C   UNL     1     165.919 163.068 158.255  1.00  0.00     0.004 C 
ENDBRANCH  16  17
ENDBRANCH  15  16
ENDBRANCH  14  15
ENDBRANCH  13  14
ENDBRANCH  12  13
ENDBRANCH  11  12
ENDBRANCH   1  11
TORSDOF 14
ENDMDL
MODEL 6
REMARK VINA RESULT:    -4.692      3.516      4.922
REMARK INTER + INTRA:         -10.359
REMARK INTER:                  -8.589
REMARK INTRA:                  -1.770
REMARK UNBOUND:                -1.826
REMARK SMILES CCCCCCCCCCCCCCCC(=O)[O-]
REMARK SMILES IDX 9 1 10 2 11 3 12 4 13 5 14 6 15 7 16 8 17 9 18 10 8 11 7 12
REMARK SMILES IDX 6 13 5 14 4 15 3 16 2 17 1 18
REMARK H PARENT
REMARK Flexibility Score: inf
ROOT
ATOM      1  C   UNL     1     162.517 167.699 159.826  1.00  0.00     0.000 C 
ENDROOT
BRANCH   1   2
ATOM      2  C   UNL     1     163.200 166.349 159.542  1.00  0.00     0.000 C 
BRANCH   2   3
ATOM      3  C   UNL     1     163.759 166.261 158.112  1.00  0.00     0.000 C 
BRANCH   3   4
ATOM      4  C   UNL     1     162.808 166.874 157.070  1.00  0.00     0.000 C 
BRANCH   4   5
ATOM      5  C   UNL     1     161.593 165.978 156.779  1.00  0.00     0.000 C 
BRANCH   5   6
ATOM      6  C   UNL     1     160.810 166.422 155.534  1.00  0.00     0.006 C 
BRANCH   6   7
ATOM      7  C   UNL     1     161.760 166.871 154.419  1.00  0.00     0.053 C 
BRANCH   7   8
ATOM      8  C   UNL     1     161.080 166.797 153.089  1.00  0.00     0.041 C 
ATOM      9  O   UNL     1     161.414 165.915 152.255  1.00  0.00    -0.550 OA
ATOM     10  O   UNL     1     160.044 167.672 152.789  1.00  0.00    -0.550 OA
ENDBRANCH   7   8
ENDBRANCH   6   7
ENDBRANCH   5   6
ENDBRANCH   4   5
ENDBRANCH   3   4
ENDBRANCH   2   3
ENDBRANCH   1   2
BRANCH   1  11
ATOM     11  C   UNL     1     161.014 167.551 160.111  1.00  0.00     0.000 C 
BRANCH  11  12
ATOM     12  C   UNL     1     160.693 166.326 160.987  1.00  0.00    -0.000 C 
BRANCH  12  13
ATOM     13  C   UNL     1     159.202 165.957 160.959  1.00  0.00    -0.000 C 
BRANCH  13  14
ATOM     14  C   UNL     1     158.923 164.693 160.127  1.00  0.00    -0.000 C 
BRANCH  14  15
ATOM     15  C   UNL     1     160.203 163.907 159.802  1.00  0.00    -0.000 C 
BRANCH  15  16
ATOM     16  C   UNL     1     160.079 163.085 158.507  1.00  0.00    -0.000 C 
BRANCH  16  17
ATOM     17  C   UNL     1     161.244 162.100 158.321  1.00  0.00    -0.003 C 
ATOM     18  C   UNL     1     162.611 162.769 158.466  1.00  0.00     0.004 C 
ENDBRANCH  16  17
ENDBRANCH  15  16
ENDBRANCH  14  15
ENDBRANCH  13  14
ENDBRANCH  12  13
ENDBRANCH  11  12
ENDBRANCH   1  11
TORSDOF 14
ENDMDL
MODEL 7
REMARK VINA RESULT:    -4.660      2.553      4.861
REMARK INTER + INTRA:         -10.300
REMARK INTER:                  -8.208
REMARK INTRA:                  -2.092
REMARK UNBOUND:                -1.826
REMARK SMILES CCCCCCCCCCCCCCCC(=O)[O-]
REMARK SMILES IDX 9 1 10 2 11 3 12 4 13 5 14 6 15 7 16 8 17 9 18 10 8 11 7 12
REMARK SMILES IDX 6 13 5 14 4 15 3 16 2 17 1 18
REMARK H PARENT
REMARK Flexibility Score: inf
ROOT
ATOM      1  C   UNL     1     160.122 165.312 162.303  1.00  0.00     0.000 C 
ENDROOT
BRANCH   1   2
ATOM      2  C   UNL     1     159.495 166.398 161.412  1.00  0.00     0.000 C 
BRANCH   2   3
ATOM      3  C   UNL     1     158.358 165.853 160.532  1.00  0.00     0.000 C 
BRANCH   3   4
ATOM      4  C   UNL     1     158.303 164.315 160.526  1.00  0.00     0.000 C 
BRANCH   4   5
ATOM      5  C   UNL     1     158.709 163.715 159.171  1.00  0.00     0.000 C 
BRANCH   5   6
ATOM      6  C   UNL     1     159.765 162.607 159.303  1.00  0.00     0.006 C 
BRANCH   6   7
ATOM      7  C   UNL     1     160.592 162.482 158.019  1.00  0.00     0.053 C 
BRANCH   7   8
ATOM      8  C   UNL     1     162.037 162.275 158.344  1.00  0.00     0.041 C 
ATOM      9  O   UNL     1     162.402 161.258 158.992  1.00  0.00    -0.550 OA
ATOM     10  O   UNL     1     162.989 163.179 157.890  1.00  0.00    -0.550 OA
ENDBRANCH   7   8
ENDBRANCH   6   7
ENDBRANCH   5   6
ENDBRANCH   4   5
ENDBRANCH   3   4
ENDBRANCH   2   3
ENDBRANCH   1   2
BRANCH   1  11
ATOM     11  C   UNL     1     161.610 165.081 161.992  1.00  0.00     0.000 C 
BRANCH  11  12
ATOM     12  C   UNL     1     161.914 165.115 160.483  1.00  0.00    -0.000 C 
BRANCH  12  13
ATOM     13  C   UNL     1     162.771 166.325 160.082  1.00  0.00    -0.000 C 
BRANCH  13  14
ATOM     14  C   UNL     1     162.475 166.810 158.652  1.00  0.00    -0.000 C 
BRANCH  14  15
ATOM     15  C   UNL     1     161.057 166.442 158.188  1.00  0.00    -0.000 C 
BRANCH  15  16
ATOM     16  C   UNL     1     161.024 165.939 156.734  1.00  0.00    -0.000 C 
BRANCH  16  17
ATOM     17  C   UNL     1     161.921 166.770 155.803  1.00  0.00    -0.003 C 
ATOM     18  C   UNL     1     161.429 166.770 154.355  1.00  0.00     0.004 C 
ENDBRANCH  16  17
ENDBRANCH  15  16
ENDBRANCH  14  15
ENDBRANCH  13  14
ENDBRANCH  12  13
ENDBRANCH  11  12
ENDBRANCH   1  11
TORSDOF 14
ENDMDL
MODEL 8
REMARK VINA RESULT:    -4.645      2.977      5.285
REMARK INTER + INTRA:         -10.273
REMARK INTER:                  -8.706
REMARK INTRA:                  -1.567
REMARK UNBOUND:                -1.826
REMARK SMILES CCCCCCCCCCCCCCCC(=O)[O-]
REMARK SMILES IDX 9 1 10 2 11 3 12 4 13 5 14 6 15 7 16 8 17 9 18 10 8 11 7 12
REMARK SMILES IDX 6 13 5 14 4 15 3 16 2 17 1 18
REMARK H PARENT
REMARK Flexibility Score: inf
ROOT
ATOM      1  C   UNL     1     163.286 166.865 160.327  1.00  0.00     0.000 C 
ENDROOT
BRANCH   1   2
ATOM      2  C   UNL     1     162.300 168.014 160.053  1.00  0.00     0.000 C 
BRANCH   2   3
ATOM      3  C   UNL     1     160.986 167.861 160.838  1.00  0.00     0.000 C 
BRANCH   3   4
ATOM      4  C   UNL     1     160.601 166.388 161.059  1.00  0.00     0.000 C 
BRANCH   4   5
ATOM      5  C   UNL     1     159.674 165.847 159.958  1.00  0.00     0.000 C 
BRANCH   5   6
ATOM      6  C   UNL     1     160.002 164.400 159.562  1.00  0.00     0.006 C 
BRANCH   6   7
ATOM      7  C   UNL     1     158.771 163.499 159.708  1.00  0.00     0.053 C 
BRANCH   7   8
ATOM      8  C   UNL     1     158.461 162.820 158.412  1.00  0.00     0.041 C 
ATOM      9  O   UNL     1     157.329 162.301 158.223  1.00  0.00    -0.550 OA
ATOM     10  O   UNL     1     159.405 162.803 157.392  1.00  0.00    -0.550 OA
ENDBRANCH   7   8
ENDBRANCH   6   7
ENDBRANCH   5   6
ENDBRANCH   4   5
ENDBRANCH   3   4
ENDBRANCH   2   3
ENDBRANCH   1   2
BRANCH   1  11
ATOM     11  C   UNL     1     163.693 166.119 159.046  1.00  0.00     0.000 C 
BRANCH  11  12
ATOM     12  C   UNL     1     163.404 166.930 157.769  1.00  0.00    -0.000 C 
BRANCH  12  13
ATOM     13  C   UNL     1     162.633 166.117 156.718  1.00  0.00    -0.000 C 
BRANCH  13  14
ATOM     14  C   UNL     1     161.144 166.500 156.652  1.00  0.00    -0.000 C 
BRANCH  14  15
ATOM     15  C   UNL     1     160.583 166.446 155.223  1.00  0.00    -0.000 C 
BRANCH  15  16
ATOM     16  C   UNL     1     161.623 166.859 154.166  1.00  0.00    -0.000 C 
BRANCH  16  17
ATOM     17  C   UNL     1     161.069 166.784 152.734  1.00  0.00    -0.003 C 
ATOM     18  C   UNL     1     161.994 166.024 151.783  1.00  0.00     0.004 C 
ENDBRANCH  16  17
ENDBRANCH  15  16
ENDBRANCH  14  15
ENDBRANCH  13  14
ENDBRANCH  12  13
ENDBRANCH  11  12
ENDBRANCH   1  11
TORSDOF 14
ENDMDL
MODEL 9
REMARK VINA RESULT:    -4.543      2.290      4.543
REMARK INTER + INTRA:         -10.087
REMARK INTER:                  -7.918
REMARK INTRA:                  -2.169
REMARK UNBOUND:                -1.826
REMARK SMILES CCCCCCCCCCCCCCCC(=O)[O-]
REMARK SMILES IDX 9 1 10 2 11 3 12 4 13 5 14 6 15 7 16 8 17 9 18 10 8 11 7 12
REMARK SMILES IDX 6 13 5 14 4 15 3 16 2 17 1 18
REMARK H PARENT
REMARK Flexibility Score: inf
ROOT
ATOM      1  C   UNL     1     157.682 164.279 160.664  1.00  0.00     0.000 C 
ENDROOT
BRANCH   1   2
ATOM      2  C   UNL     1     156.915 164.030 159.353  1.00  0.00     0.000 C 
BRANCH   2   3
ATOM      3  C   UNL     1     157.390 162.762 158.624  1.00  0.00     0.000 C 
BRANCH   3   4
ATOM      4  C   UNL     1     158.909 162.549 158.743  1.00  0.00     0.000 C 
BRANCH   4   5
ATOM      5  C   UNL     1     159.697 163.286 157.648  1.00  0.00     0.000 C 
BRANCH   5   6
ATOM      6  C   UNL     1     160.840 164.144 158.211  1.00  0.00     0.006 C 
BRANCH   6   7
ATOM      7  C   UNL     1     161.590 163.399 159.320  1.00  0.00     0.053 C 
BRANCH   7   8
ATOM      8  C   UNL     1     162.576 162.440 158.733  1.00  0.00     0.041 C 
ATOM      9  O   UNL     1     163.460 162.849 157.935  1.00  0.00    -0.550 OA
ATOM     10  O   UNL     1     162.549 161.102 159.106  1.00  0.00    -0.550 OA
ENDBRANCH   7   8
ENDBRANCH   6   7
ENDBRANCH   5   6
ENDBRANCH   4   5
ENDBRANCH   3   4
ENDBRANCH   2   3
ENDBRANCH   1   2
BRANCH   1  11
ATOM     11  C   UNL     1     158.595 165.513 160.587  1.00  0.00     0.000 C 
BRANCH  11  12
ATOM     12  C   UNL     1     159.608 165.577 161.744  1.00  0.00    -0.000 C 
BRANCH  12  13
ATOM     13  C   UNL     1     160.556 166.781 161.631  1.00  0.00    -0.000 C 
BRANCH  13  14
ATOM     14  C   UNL     1     160.574 167.386 160.217  1.00  0.00    -0.000 C 
BRANCH  14  15
ATOM     15  C   UNL     1     161.992 167.752 159.750  1.00  0.00    -0.000 C 
BRANCH  15  16
ATOM     16  C   UNL     1     163.056 166.770 160.270  1.00  0.00    -0.000 C 
BRANCH  16  17
ATOM     17  C   UNL     1     163.835 166.091 159.134  1.00  0.00    -0.003 C 
ATOM     18  C   UNL     1     163.471 166.644 157.756  1.00  0.00     0.004 C 
ENDBRANCH  16  17
ENDBRANCH  15  16
ENDBRANCH  14  15
ENDBRANCH  13  14
ENDBRANCH  12  13
ENDBRANCH  11  12
ENDBRANCH   1  11
TORSDOF 14
ENDMDL
