MODEL 1
REMARK VINA RESULT:    -4.169      0.000      0.000
REMARK INTER + INTRA:          -5.177
REMARK INTER:                  -4.900
REMARK INTRA:                  -0.277
REMARK UNBOUND:                -0.277
REMARK SMILES O=c1c(O)c(-c2ccc(O)cc2)oc2cc(O)cc(O)c12
REMARK SMILES IDX 5 1 3 2 2 3 1 4 21 5 19 6 18 7 16 8 15 9 14 10 13 11 6 12
REMARK SMILES IDX 7 13 8 14 9 15 12 16 11 17 10 18 4 20 20 22 17 24
REMARK H PARENT 10 19 4 21 20 23 17 25
REMARK Flexibility Score: inf
ROOT
ATOM      1  C   UNL     1     -31.184 -21.736 -34.116  1.00  0.00     0.180 A 
ATOM      2  C   UNL     1     -32.298 -21.023 -34.601  1.00  0.00     0.208 A 
ATOM      3  C   UNL     1     -32.928 -21.467 -35.774  1.00  0.00     0.238 A 
ATOM      4  O   UNL     1     -33.933 -20.842 -36.212  1.00  0.00    -0.285 OA
ATOM      5  C   UNL     1     -32.428 -22.598 -36.449  1.00  0.00     0.111 A 
ATOM      6  C   UNL     1     -33.002 -23.108 -37.638  1.00  0.00     0.134 A 
ATOM      7  C   UNL     1     -32.438 -24.234 -38.257  1.00  0.00     0.093 A 
ATOM      8  C   UNL     1     -31.315 -24.859 -37.711  1.00  0.00     0.123 A 
ATOM      9  C   UNL     1     -30.743 -24.360 -36.537  1.00  0.00     0.094 A 
ATOM     10  C   UNL     1     -31.290 -23.240 -35.904  1.00  0.00     0.146 A 
ATOM     11  O   UNL     1     -30.730 -22.790 -34.787  1.00  0.00    -0.452 OA
ENDROOT
BRANCH   1  12
ATOM     12  C   UNL     1     -30.477 -21.341 -32.875  1.00  0.00     0.021 A 
ATOM     13  C   UNL     1     -30.742 -21.975 -31.647  1.00  0.00     0.016 A 
ATOM     14  C   UNL     1     -30.044 -21.601 -30.494  1.00  0.00     0.047 A 
ATOM     15  C   UNL     1     -29.065 -20.605 -30.556  1.00  0.00     0.115 A 
ATOM     16  C   UNL     1     -29.479 -20.355 -32.933  1.00  0.00     0.016 A 
ATOM     17  C   UNL     1     -28.782 -19.984 -31.779  1.00  0.00     0.047 A 
BRANCH  15  18
ATOM     18  O   UNL     1     -28.378 -20.242 -29.400  1.00  0.00    -0.508 OA
ATOM     19  H   UNL     1     -27.599 -20.790 -29.052  1.00  0.00     0.293 HD
ENDBRANCH  15  18
ENDBRANCH   1  12
BRANCH   2  20
ATOM     20  O   UNL     1     -32.744 -19.875 -33.940  1.00  0.00    -0.502 OA
ATOM     21  H   UNL     1     -33.416 -19.239 -34.351  1.00  0.00     0.293 HD
ENDBRANCH   2  20
BRANCH   6  22
ATOM     22  O   UNL     1     -34.125 -22.506 -38.208  1.00  0.00    -0.507 OA
ATOM     23  H   UNL     1     -34.756 -23.020 -38.813  1.00  0.00     0.293 HD
ENDBRANCH   6  22
BRANCH   8  24
ATOM     24  O   UNL     1     -30.774 -25.975 -38.346  1.00  0.00    -0.508 OA
ATOM     25  H   UNL     1     -29.774 -26.136 -38.374  1.00  0.00     0.293 HD
ENDBRANCH   8  24
TORSDOF 5
ENDMDL
