MODEL 1
REMARK VINA RESULT:     1.771      0.000      0.000
REMARK INTER + INTRA:           1.875
REMARK INTER:                   1.875
REMARK INTRA:                   0.000
REMARK UNBOUND:                 0.000
REMARK SMILES O=c1ccc2cc(O)c(O)cc2o1
REMARK SMILES IDX 4 1 3 2 2 3 1 4 13 5 12 6 11 7 9 8 7 9 6 10 5 11 8 12 10 14
REMARK H PARENT 8 13 10 15
REMARK Flexibility Score: inf
ROOT
ATOM      1  C   UNL     1       0.759  -1.244   2.187  1.00  0.00     0.019 A 
ATOM      2  C   UNL     1       2.003  -0.688   2.484  1.00  0.00     0.094 A 
ATOM      3  C   UNL     1       2.934  -0.519   1.453  1.00  0.00     0.336 A 
ATOM      4  O   UNL     1       4.063  -0.020   1.701  1.00  0.00    -0.246 OA
ATOM      5  O   UNL     1       2.633  -0.882   0.208  1.00  0.00    -0.423 OA
ATOM      6  C   UNL     1       1.458  -1.415  -0.118  1.00  0.00     0.142 A 
ATOM      7  C   UNL     1       1.200  -1.778  -1.444  1.00  0.00     0.098 A 
ATOM      8  C   UNL     1      -0.038  -2.340  -1.792  1.00  0.00     0.161 A 
ATOM      9  C   UNL     1      -1.019  -2.540  -0.811  1.00  0.00     0.158 A 
ATOM     10  C   UNL     1      -0.766  -2.178   0.520  1.00  0.00     0.062 A 
ATOM     11  C   UNL     1       0.470  -1.616   0.870  1.00  0.00     0.022 A 
ENDROOT
BRANCH   9  12
ATOM     12  O   UNL     1      -2.246  -3.100  -1.167  1.00  0.00    -0.504 OA
ATOM     13  H   UNL     1      -2.301  -3.927  -1.748  1.00  0.00     0.293 HD
ENDBRANCH   9  12
BRANCH   8  14
ATOM     14  O   UNL     1      -0.299  -2.703  -3.113  1.00  0.00    -0.504 OA
ATOM     15  H   UNL     1      -1.060  -2.287  -3.636  1.00  0.00     0.293 HD
ENDBRANCH   8  14
TORSDOF 2
ENDMDL
MODEL 2
REMARK VINA RESULT:     4.231      1.140      2.263
REMARK INTER + INTRA:           4.478
REMARK INTER:                   4.478
REMARK INTRA:                   0.000
REMARK UNBOUND:                 0.000
REMARK SMILES O=c1ccc2cc(O)c(O)cc2o1
REMARK SMILES IDX 4 1 3 2 2 3 1 4 13 5 12 6 11 7 9 8 7 9 6 10 5 11 8 12 10 14
REMARK H PARENT 8 13 10 15
REMARK Flexibility Score: inf
ROOT
ATOM      1  C   UNL     1       2.837  -0.621  -0.256  1.00  0.00     0.019 A 
ATOM      2  C   UNL     1       3.447  -0.124   0.895  1.00  0.00     0.094 A 
ATOM      3  C   UNL     1       2.795  -0.270   2.124  1.00  0.00     0.336 A 
ATOM      4  O   UNL     1       3.329   0.172   3.176  1.00  0.00    -0.246 OA
ATOM      5  O   UNL     1       1.611  -0.874   2.191  1.00  0.00    -0.423 OA
ATOM      6  C   UNL     1       0.994  -1.362   1.117  1.00  0.00     0.142 A 
ATOM      7  C   UNL     1      -0.250  -1.986   1.250  1.00  0.00     0.098 A 
ATOM      8  C   UNL     1      -0.904  -2.502   0.120  1.00  0.00     0.161 A 
ATOM      9  C   UNL     1      -0.310  -2.392  -1.145  1.00  0.00     0.158 A 
ATOM     10  C   UNL     1       0.938  -1.767  -1.284  1.00  0.00     0.062 A 
ATOM     11  C   UNL     1       1.592  -1.251  -0.157  1.00  0.00     0.022 A 
ENDROOT
BRANCH   9  12
ATOM     12  O   UNL     1      -0.967  -2.907  -2.262  1.00  0.00    -0.504 OA
ATOM     13  H   UNL     1      -0.717  -2.624  -3.201  1.00  0.00     0.293 HD
ENDBRANCH   9  12
BRANCH   8  14
ATOM     14  O   UNL     1      -2.144  -3.125   0.249  1.00  0.00    -0.504 OA
ATOM     15  H   UNL     1      -2.708  -3.017   1.084  1.00  0.00     0.293 HD
ENDBRANCH   8  14
TORSDOF 2
ENDMDL
MODEL 3
REMARK VINA RESULT:     4.702      1.044      4.511
REMARK INTER + INTRA:           4.977
REMARK INTER:                   4.977
REMARK INTRA:                   0.000
REMARK UNBOUND:                 0.000
REMARK SMILES O=c1ccc2cc(O)c(O)cc2o1
REMARK SMILES IDX 4 1 3 2 2 3 1 4 13 5 12 6 11 7 9 8 7 9 6 10 5 11 8 12 10 14
REMARK H PARENT 8 13 10 15
REMARK Flexibility Score: inf
ROOT
ATOM      1  C   UNL     1      -0.999  -2.720   0.412  1.00  0.00     0.019 A 
ATOM      2  C   UNL     1      -1.407  -3.121  -0.860  1.00  0.00     0.094 A 
ATOM      3  C   UNL     1      -0.622  -2.772  -1.965  1.00  0.00     0.336 A 
ATOM      4  O   UNL     1      -0.973  -3.125  -3.122  1.00  0.00    -0.246 OA
ATOM      5  O   UNL     1       0.497  -2.070  -1.801  1.00  0.00    -0.423 OA
ATOM      6  C   UNL     1       0.921  -1.667  -0.606  1.00  0.00     0.142 A 
ATOM      7  C   UNL     1       2.105  -0.931  -0.497  1.00  0.00     0.098 A 
ATOM      8  C   UNL     1       2.556  -0.504   0.762  1.00  0.00     0.161 A 
ATOM      9  C   UNL     1       1.820  -0.816   1.914  1.00  0.00     0.158 A 
ATOM     10  C   UNL     1       0.633  -1.556   1.810  1.00  0.00     0.062 A 
ATOM     11  C   UNL     1       0.180  -1.982   0.554  1.00  0.00     0.022 A 
ENDROOT
BRANCH   9  12
ATOM     12  O   UNL     1       2.277  -0.388   3.160  1.00  0.00    -0.504 OA
ATOM     13  H   UNL     1       1.641  -0.027   3.861  1.00  0.00     0.293 HD
ENDBRANCH   9  12
BRANCH   8  14
ATOM     14  O   UNL     1       3.735   0.231   0.874  1.00  0.00    -0.504 OA
ATOM     15  H   UNL     1       4.143   0.445   1.777  1.00  0.00     0.293 HD
ENDBRANCH   8  14
TORSDOF 2
ENDMDL
