MODEL 1
REMARK VINA RESULT:    -4.375      0.000      0.000
REMARK INTER + INTRA:         -16.236
REMARK INTER:                 -11.025
REMARK INTRA:                  -5.211
REMARK UNBOUND:                -5.211
REMARK SMILES CCCCCCCCCCCCCCCCCCCCCCCCCCCC(=O)[O-]
REMARK SMILES IDX 15 1 16 2 17 3 18 4 19 5 20 6 21 7 22 8 23 9 24 10 25 11
REMARK SMILES IDX 26 12 27 13 28 14 29 15 30 16 14 17 13 18 12 19 11 20 10 21
REMARK SMILES IDX 9 22 8 23 7 24 6 25 5 26 4 27 3 28 2 29 1 30
REMARK H PARENT
REMARK Flexibility Score: inf
ROOT
ATOM      1  C   UNL     1     -14.189  -3.019  33.677  1.00  0.00     0.000 C 
ENDROOT
BRANCH   1   2
ATOM      2  C   UNL     1     -14.687  -4.137  34.604  1.00  0.00     0.000 C 
BRANCH   2   3
ATOM      3  C   UNL     1     -16.169  -4.493  34.377  1.00  0.00     0.000 C 
BRANCH   3   4
ATOM      4  C   UNL     1     -16.433  -5.560  33.299  1.00  0.00     0.000 C 
BRANCH   4   5
ATOM      5  C   UNL     1     -16.881  -4.962  31.955  1.00  0.00     0.000 C 
BRANCH   5   6
ATOM      6  C   UNL     1     -17.821  -3.754  32.121  1.00  0.00     0.000 C 
BRANCH   6   7
ATOM      7  C   UNL     1     -17.311  -2.433  31.513  1.00  0.00     0.000 C 
BRANCH   7   8
ATOM      8  C   UNL     1     -17.134  -1.280  32.515  1.00  0.00     0.000 C 
BRANCH   8   9
ATOM      9  C   UNL     1     -17.888  -1.512  33.831  1.00  0.00     0.000 C 
BRANCH   9  10
ATOM     10  C   UNL     1     -17.226  -0.745  34.987  1.00  0.00     0.000 C 
BRANCH  10  11
ATOM     11  C   UNL     1     -17.217  -1.541  36.301  1.00  0.00     0.000 C 
BRANCH  11  12
ATOM     12  C   UNL     1     -17.738  -0.724  37.495  1.00  0.00     0.006 C 
BRANCH  12  13
ATOM     13  C   UNL     1     -18.831   0.254  37.055  1.00  0.00     0.053 C 
BRANCH  13  14
ATOM     14  C   UNL     1     -18.401   1.669  37.290  1.00  0.00     0.041 C 
ATOM     15  O   UNL     1     -17.848   2.326  36.368  1.00  0.00    -0.550 OA
ATOM     16  O   UNL     1     -18.608   2.262  38.529  1.00  0.00    -0.550 OA
ENDBRANCH  13  14
ENDBRANCH  12  13
ENDBRANCH  11  12
ENDBRANCH  10  11
ENDBRANCH   9  10
ENDBRANCH   8   9
ENDBRANCH   7   8
ENDBRANCH   6   7
ENDBRANCH   5   6
ENDBRANCH   4   5
ENDBRANCH   3   4
ENDBRANCH   2   3
ENDBRANCH   1   2
BRANCH   1  17
ATOM     17  C   UNL     1     -13.455  -3.596  32.459  1.00  0.00     0.000 C 
BRANCH  17  18
ATOM     18  C   UNL     1     -12.611  -4.815  32.857  1.00  0.00     0.000 C 
BRANCH  18  19
ATOM     19  C   UNL     1     -13.035  -6.102  32.128  1.00  0.00     0.000 C 
BRANCH  19  20
ATOM     20  C   UNL     1     -13.036  -7.373  33.001  1.00  0.00     0.000 C 
BRANCH  20  21
ATOM     21  C   UNL     1     -12.617  -7.158  34.469  1.00  0.00     0.000 C 
BRANCH  21  22
ATOM     22  C   UNL     1     -13.493  -7.877  35.514  1.00  0.00    -0.000 C 
BRANCH  22  23
ATOM     23  C   UNL     1     -14.905  -8.258  35.034  1.00  0.00    -0.000 C 
BRANCH  23  24
ATOM     24  C   UNL     1     -15.989  -7.979  36.090  1.00  0.00    -0.000 C 
BRANCH  24  25
ATOM     25  C   UNL     1     -15.519  -8.315  37.515  1.00  0.00    -0.000 C 
BRANCH  25  26
ATOM     26  C   UNL     1     -15.831  -7.197  38.521  1.00  0.00    -0.000 C 
BRANCH  26  27
ATOM     27  C   UNL     1     -16.707  -6.110  37.881  1.00  0.00    -0.000 C 
BRANCH  27  28
ATOM     28  C   UNL     1     -16.092  -4.703  37.990  1.00  0.00    -0.000 C 
BRANCH  28  29
ATOM     29  C   UNL     1     -14.831  -4.617  38.868  1.00  0.00    -0.003 C 
ATOM     30  C   UNL     1     -13.537  -4.619  38.056  1.00  0.00     0.004 C 
ENDBRANCH  28  29
ENDBRANCH  27  28
ENDBRANCH  26  27
ENDBRANCH  25  26
ENDBRANCH  24  25
ENDBRANCH  23  24
ENDBRANCH  22  23
ENDBRANCH  21  22
ENDBRANCH  20  21
ENDBRANCH  19  20
ENDBRANCH  18  19
ENDBRANCH  17  18
ENDBRANCH   1  17
TORSDOF 26
ENDMDL
MODEL 2
REMARK VINA RESULT:    -4.313      2.377      4.806
REMARK INTER + INTRA:         -16.080
REMARK INTER:                 -11.799
REMARK INTRA:                  -4.281
REMARK UNBOUND:                -5.211
REMARK SMILES CCCCCCCCCCCCCCCCCCCCCCCCCCCC(=O)[O-]
REMARK SMILES IDX 15 1 16 2 17 3 18 4 19 5 20 6 21 7 22 8 23 9 24 10 25 11
REMARK SMILES IDX 26 12 27 13 28 14 29 15 30 16 14 17 13 18 12 19 11 20 10 21
REMARK SMILES IDX 9 22 8 23 7 24 6 25 5 26 4 27 3 28 2 29 1 30
REMARK H PARENT
REMARK Flexibility Score: inf
ROOT
ATOM      1  C   UNL     1     -15.839  -4.684  35.518  1.00  0.00     0.000 C 
ENDROOT
BRANCH   1   2
ATOM      2  C   UNL     1     -14.730  -3.873  36.202  1.00  0.00     0.000 C 
BRANCH   2   3
ATOM      3  C   UNL     1     -14.291  -2.643  35.386  1.00  0.00     0.000 C 
BRANCH   3   4
ATOM      4  C   UNL     1     -13.449  -2.950  34.132  1.00  0.00     0.000 C 
BRANCH   4   5
ATOM      5  C   UNL     1     -14.068  -2.394  32.840  1.00  0.00     0.000 C 
BRANCH   5   6
ATOM      6  C   UNL     1     -15.004  -3.399  32.143  1.00  0.00     0.000 C 
BRANCH   6   7
ATOM      7  C   UNL     1     -16.359  -2.828  31.681  1.00  0.00     0.000 C 
BRANCH   7   8
ATOM      8  C   UNL     1     -17.569  -3.254  32.529  1.00  0.00     0.000 C 
BRANCH   8   9
ATOM      9  C   UNL     1     -18.297  -2.065  33.170  1.00  0.00     0.000 C 
BRANCH   9  10
ATOM     10  C   UNL     1     -17.315  -1.177  33.950  1.00  0.00     0.000 C 
BRANCH  10  11
ATOM     11  C   UNL     1     -17.621  -1.131  35.456  1.00  0.00     0.000 C 
BRANCH  11  12
ATOM     12  C   UNL     1     -17.792   0.301  35.985  1.00  0.00     0.006 C 
BRANCH  12  13
ATOM     13  C   UNL     1     -18.360   0.296  37.408  1.00  0.00     0.053 C 
BRANCH  13  14
ATOM     14  C   UNL     1     -18.609   1.693  37.884  1.00  0.00     0.041 C 
ATOM     15  O   UNL     1     -17.907   2.646  37.453  1.00  0.00    -0.550 OA
ATOM     16  O   UNL     1     -19.615   1.943  38.808  1.00  0.00    -0.550 OA
ENDBRANCH  13  14
ENDBRANCH  12  13
ENDBRANCH  11  12
ENDBRANCH  10  11
ENDBRANCH   9  10
ENDBRANCH   8   9
ENDBRANCH   7   8
ENDBRANCH   6   7
ENDBRANCH   5   6
ENDBRANCH   4   5
ENDBRANCH   3   4
ENDBRANCH   2   3
ENDBRANCH   1   2
BRANCH   1  17
ATOM     17  C   UNL     1     -15.309  -6.031  35.012  1.00  0.00     0.000 C 
BRANCH  17  18
ATOM     18  C   UNL     1     -13.917  -6.323  35.592  1.00  0.00     0.000 C 
BRANCH  18  19
ATOM     19  C   UNL     1     -12.970  -6.981  34.574  1.00  0.00     0.000 C 
BRANCH  19  20
ATOM     20  C   UNL     1     -12.669  -6.131  33.323  1.00  0.00     0.000 C 
BRANCH  20  21
ATOM     21  C   UNL     1     -13.330  -6.626  32.022  1.00  0.00     0.000 C 
BRANCH  21  22
ATOM     22  C   UNL     1     -13.807  -8.092  32.044  1.00  0.00    -0.000 C 
BRANCH  22  23
ATOM     23  C   UNL     1     -15.333  -8.285  31.995  1.00  0.00    -0.000 C 
BRANCH  23  24
ATOM     24  C   UNL     1     -16.053  -7.158  31.236  1.00  0.00    -0.000 C 
BRANCH  24  25
ATOM     25  C   UNL     1     -17.282  -6.631  31.996  1.00  0.00    -0.000 C 
BRANCH  25  26
ATOM     26  C   UNL     1     -18.503  -7.553  31.859  1.00  0.00    -0.000 C 
BRANCH  26  27
ATOM     27  C   UNL     1     -18.852  -7.788  30.382  1.00  0.00    -0.000 C 
BRANCH  27  28
ATOM     28  C   UNL     1     -19.679  -9.067  30.158  1.00  0.00    -0.000 C 
BRANCH  28  29
ATOM     29  C   UNL     1     -21.079  -8.833  29.563  1.00  0.00    -0.003 C 
ATOM     30  C   UNL     1     -21.547  -7.384  29.688  1.00  0.00     0.004 C 
ENDBRANCH  28  29
ENDBRANCH  27  28
ENDBRANCH  26  27
ENDBRANCH  25  26
ENDBRANCH  24  25
ENDBRANCH  23  24
ENDBRANCH  22  23
ENDBRANCH  21  22
ENDBRANCH  20  21
ENDBRANCH  19  20
ENDBRANCH  18  19
ENDBRANCH  17  18
ENDBRANCH   1  17
TORSDOF 26
ENDMDL
MODEL 3
REMARK VINA RESULT:    -4.283     12.605     16.441
REMARK INTER + INTRA:         -16.005
REMARK INTER:                 -11.204
REMARK INTRA:                  -4.801
REMARK UNBOUND:                -5.211
REMARK SMILES CCCCCCCCCCCCCCCCCCCCCCCCCCCC(=O)[O-]
REMARK SMILES IDX 15 1 16 2 17 3 18 4 19 5 20 6 21 7 22 8 23 9 24 10 25 11
REMARK SMILES IDX 26 12 27 13 28 14 29 15 30 16 14 17 13 18 12 19 11 20 10 21
REMARK SMILES IDX 9 22 8 23 7 24 6 25 5 26 4 27 3 28 2 29 1 30
REMARK H PARENT
REMARK Flexibility Score: inf
ROOT
ATOM      1  C   UNL     1     -30.858  -2.036  26.280  1.00  0.00     0.000 C 
ENDROOT
BRANCH   1   2
ATOM      2  C   UNL     1     -29.699  -1.201  25.718  1.00  0.00     0.000 C 
BRANCH   2   3
ATOM      3  C   UNL     1     -28.338  -1.915  25.817  1.00  0.00     0.000 C 
BRANCH   3   4
ATOM      4  C   UNL     1     -27.225  -1.118  26.524  1.00  0.00     0.000 C 
BRANCH   4   5
ATOM      5  C   UNL     1     -26.598  -1.877  27.705  1.00  0.00     0.000 C 
BRANCH   5   6
ATOM      6  C   UNL     1     -25.065  -1.743  27.756  1.00  0.00     0.000 C 
BRANCH   6   7
ATOM      7  C   UNL     1     -24.279  -3.014  27.375  1.00  0.00     0.000 C 
BRANCH   7   8
ATOM      8  C   UNL     1     -24.677  -3.647  26.031  1.00  0.00     0.000 C 
BRANCH   8   9
ATOM      9  C   UNL     1     -23.945  -3.020  24.836  1.00  0.00     0.000 C 
BRANCH   9  10
ATOM     10  C   UNL     1     -24.905  -2.174  23.986  1.00  0.00     0.000 C 
BRANCH  10  11
ATOM     11  C   UNL     1     -24.496  -0.694  23.921  1.00  0.00     0.000 C 
BRANCH  11  12
ATOM     12  C   UNL     1     -23.162  -0.413  24.630  1.00  0.00     0.006 C 
BRANCH  12  13
ATOM     13  C   UNL     1     -22.240   0.434  23.749  1.00  0.00     0.053 C 
BRANCH  13  14
ATOM     14  C   UNL     1     -22.862   1.765  23.457  1.00  0.00     0.041 C 
ATOM     15  O   UNL     1     -23.069   2.588  24.388  1.00  0.00    -0.550 OA
ATOM     16  O   UNL     1     -23.219   2.094  22.155  1.00  0.00    -0.550 OA
ENDBRANCH  13  14
ENDBRANCH  12  13
ENDBRANCH  11  12
ENDBRANCH  10  11
ENDBRANCH   9  10
ENDBRANCH   8   9
ENDBRANCH   7   8
ENDBRANCH   6   7
ENDBRANCH   5   6
ENDBRANCH   4   5
ENDBRANCH   3   4
ENDBRANCH   2   3
ENDBRANCH   1   2
BRANCH   1  17
ATOM     17  C   UNL     1     -31.500  -2.900  25.188  1.00  0.00     0.000 C 
BRANCH  17  18
ATOM     18  C   UNL     1     -32.109  -4.176  25.787  1.00  0.00     0.000 C 
BRANCH  18  19
ATOM     19  C   UNL     1     -31.169  -4.880  26.781  1.00  0.00     0.000 C 
BRANCH  19  20
ATOM     20  C   UNL     1     -29.900  -5.491  26.153  1.00  0.00     0.000 C 
BRANCH  20  21
ATOM     21  C   UNL     1     -29.856  -7.032  26.137  1.00  0.00     0.000 C 
BRANCH  21  22
ATOM     22  C   UNL     1     -29.915  -7.676  24.738  1.00  0.00    -0.000 C 
BRANCH  22  23
ATOM     23  C   UNL     1     -30.725  -6.893  23.690  1.00  0.00    -0.000 C 
BRANCH  23  24
ATOM     24  C   UNL     1     -29.861  -6.392  22.520  1.00  0.00    -0.000 C 
BRANCH  24  25
ATOM     25  C   UNL     1     -29.560  -4.887  22.616  1.00  0.00    -0.000 C 
BRANCH  25  26
ATOM     26  C   UNL     1     -28.127  -4.599  23.088  1.00  0.00    -0.000 C 
BRANCH  26  27
ATOM     27  C   UNL     1     -27.181  -5.748  22.710  1.00  0.00    -0.000 C 
BRANCH  27  28
ATOM     28  C   UNL     1     -26.046  -5.951  23.729  1.00  0.00    -0.000 C 
BRANCH  28  29
ATOM     29  C   UNL     1     -26.300  -7.061  24.765  1.00  0.00    -0.003 C 
ATOM     30  C   UNL     1     -25.035  -7.478  25.515  1.00  0.00     0.004 C 
ENDBRANCH  28  29
ENDBRANCH  27  28
ENDBRANCH  26  27
ENDBRANCH  25  26
ENDBRANCH  24  25
ENDBRANCH  23  24
ENDBRANCH  22  23
ENDBRANCH  21  22
ENDBRANCH  20  21
ENDBRANCH  19  20
ENDBRANCH  18  19
ENDBRANCH  17  18
ENDBRANCH   1  17
TORSDOF 26
ENDMDL
MODEL 4
REMARK VINA RESULT:    -4.237      1.276      4.962
REMARK INTER + INTRA:         -15.887
REMARK INTER:                 -10.863
REMARK INTRA:                  -5.025
REMARK UNBOUND:                -5.211
REMARK SMILES CCCCCCCCCCCCCCCCCCCCCCCCCCCC(=O)[O-]
REMARK SMILES IDX 15 1 16 2 17 3 18 4 19 5 20 6 21 7 22 8 23 9 24 10 25 11
REMARK SMILES IDX 26 12 27 13 28 14 29 15 30 16 14 17 13 18 12 19 11 20 10 21
REMARK SMILES IDX 9 22 8 23 7 24 6 25 5 26 4 27 3 28 2 29 1 30
REMARK H PARENT
REMARK Flexibility Score: inf
ROOT
ATOM      1  C   UNL     1     -16.129  -6.561  37.484  1.00  0.00     0.000 C 
ENDROOT
BRANCH   1   2
ATOM      2  C   UNL     1     -16.371  -5.134  37.998  1.00  0.00     0.000 C 
BRANCH   2   3
ATOM      3  C   UNL     1     -15.251  -4.632  38.929  1.00  0.00     0.000 C 
BRANCH   3   4
ATOM      4  C   UNL     1     -13.990  -5.515  38.979  1.00  0.00     0.000 C 
BRANCH   4   5
ATOM      5  C   UNL     1     -12.717  -4.773  38.539  1.00  0.00     0.000 C 
BRANCH   5   6
ATOM      6  C   UNL     1     -12.466  -4.861  37.023  1.00  0.00     0.000 C 
BRANCH   6   7
ATOM      7  C   UNL     1     -12.784  -3.580  36.226  1.00  0.00     0.000 C 
BRANCH   7   8
ATOM      8  C   UNL     1     -14.085  -3.628  35.407  1.00  0.00     0.000 C 
BRANCH   8   9
ATOM      9  C   UNL     1     -14.881  -2.317  35.474  1.00  0.00     0.000 C 
BRANCH   9  10
ATOM     10  C   UNL     1     -16.383  -2.595  35.637  1.00  0.00     0.000 C 
BRANCH  10  11
ATOM     11  C   UNL     1     -17.197  -1.323  35.922  1.00  0.00     0.000 C 
BRANCH  11  12
ATOM     12  C   UNL     1     -17.616  -1.202  37.396  1.00  0.00     0.006 C 
BRANCH  12  13
ATOM     13  C   UNL     1     -17.773   0.265  37.803  1.00  0.00     0.053 C 
BRANCH  13  14
ATOM     14  C   UNL     1     -18.284   1.082  36.657  1.00  0.00     0.041 C 
ATOM     15  O   UNL     1     -17.583   2.010  36.174  1.00  0.00    -0.550 OA
ATOM     16  O   UNL     1     -19.540   0.820  36.124  1.00  0.00    -0.550 OA
ENDBRANCH  13  14
ENDBRANCH  12  13
ENDBRANCH  11  12
ENDBRANCH  10  11
ENDBRANCH   9  10
ENDBRANCH   8   9
ENDBRANCH   7   8
ENDBRANCH   6   7
ENDBRANCH   5   6
ENDBRANCH   4   5
ENDBRANCH   3   4
ENDBRANCH   2   3
ENDBRANCH   1   2
BRANCH   1  17
ATOM     17  C   UNL     1     -15.953  -6.578  35.960  1.00  0.00     0.000 C 
BRANCH  17  18
ATOM     18  C   UNL     1     -15.315  -7.897  35.499  1.00  0.00     0.000 C 
BRANCH  18  19
ATOM     19  C   UNL     1     -13.788  -7.921  35.681  1.00  0.00     0.000 C 
BRANCH  19  20
ATOM     20  C   UNL     1     -12.977  -7.879  34.370  1.00  0.00     0.000 C 
BRANCH  20  21
ATOM     21  C   UNL     1     -12.939  -6.508  33.668  1.00  0.00     0.000 C 
BRANCH  21  22
ATOM     22  C   UNL     1     -13.234  -6.537  32.155  1.00  0.00    -0.000 C 
BRANCH  22  23
ATOM     23  C   UNL     1     -14.401  -7.447  31.733  1.00  0.00    -0.000 C 
BRANCH  23  24
ATOM     24  C   UNL     1     -15.608  -6.659  31.195  1.00  0.00    -0.000 C 
BRANCH  24  25
ATOM     25  C   UNL     1     -16.584  -6.250  32.310  1.00  0.00    -0.000 C 
BRANCH  25  26
ATOM     26  C   UNL     1     -16.636  -4.730  32.525  1.00  0.00    -0.000 C 
BRANCH  26  27
ATOM     27  C   UNL     1     -15.699  -4.005  31.547  1.00  0.00    -0.000 C 
BRANCH  27  28
ATOM     28  C   UNL     1     -15.564  -2.501  31.850  1.00  0.00    -0.000 C 
BRANCH  28  29
ATOM     29  C   UNL     1     -16.896  -1.768  32.086  1.00  0.00    -0.003 C 
ATOM     30  C   UNL     1     -17.787  -1.733  30.845  1.00  0.00     0.004 C 
ENDBRANCH  28  29
ENDBRANCH  27  28
ENDBRANCH  26  27
ENDBRANCH  25  26
ENDBRANCH  24  25
ENDBRANCH  23  24
ENDBRANCH  22  23
ENDBRANCH  21  22
ENDBRANCH  20  21
ENDBRANCH  19  20
ENDBRANCH  18  19
ENDBRANCH  17  18
ENDBRANCH   1  17
TORSDOF 26
ENDMDL
MODEL 5
REMARK VINA RESULT:    -4.170      1.411      3.683
REMARK INTER + INTRA:         -15.720
REMARK INTER:                 -10.697
REMARK INTRA:                  -5.023
REMARK UNBOUND:                -5.211
REMARK SMILES CCCCCCCCCCCCCCCCCCCCCCCCCCCC(=O)[O-]
REMARK SMILES IDX 15 1 16 2 17 3 18 4 19 5 20 6 21 7 22 8 23 9 24 10 25 11
REMARK SMILES IDX 26 12 27 13 28 14 29 15 30 16 14 17 13 18 12 19 11 20 10 21
REMARK SMILES IDX 9 22 8 23 7 24 6 25 5 26 4 27 3 28 2 29 1 30
REMARK H PARENT
REMARK Flexibility Score: inf
ROOT
ATOM      1  C   UNL     1     -15.630  -2.179  32.480  1.00  0.00     0.000 C 
ENDROOT
BRANCH   1   2
ATOM      2  C   UNL     1     -14.119  -2.310  32.718  1.00  0.00     0.000 C 
BRANCH   2   3
ATOM      3  C   UNL     1     -13.511  -3.558  32.051  1.00  0.00     0.000 C 
BRANCH   3   4
ATOM      4  C   UNL     1     -12.787  -4.528  33.005  1.00  0.00     0.000 C 
BRANCH   4   5
ATOM      5  C   UNL     1     -13.664  -4.979  34.184  1.00  0.00     0.000 C 
BRANCH   5   6
ATOM      6  C   UNL     1     -13.107  -4.534  35.549  1.00  0.00     0.000 C 
BRANCH   6   7
ATOM      7  C   UNL     1     -13.721  -3.242  36.122  1.00  0.00     0.000 C 
BRANCH   7   8
ATOM      8  C   UNL     1     -15.082  -3.419  36.817  1.00  0.00     0.000 C 
BRANCH   8   9
ATOM      9  C   UNL     1     -16.268  -3.231  35.861  1.00  0.00     0.000 C 
BRANCH   9  10
ATOM     10  C   UNL     1     -16.868  -1.823  36.002  1.00  0.00     0.000 C 
BRANCH  10  11
ATOM     11  C   UNL     1     -17.019  -1.384  37.466  1.00  0.00     0.000 C 
BRANCH  11  12
ATOM     12  C   UNL     1     -18.286  -0.550  37.710  1.00  0.00     0.006 C 
BRANCH  12  13
ATOM     13  C   UNL     1     -18.626   0.304  36.485  1.00  0.00     0.053 C 
BRANCH  13  14
ATOM     14  C   UNL     1     -17.875   1.599  36.517  1.00  0.00     0.041 C 
ATOM     15  O   UNL     1     -17.130   1.925  35.555  1.00  0.00    -0.550 OA
ATOM     16  O   UNL     1     -17.994   2.444  37.613  1.00  0.00    -0.550 OA
ENDBRANCH  13  14
ENDBRANCH  12  13
ENDBRANCH  11  12
ENDBRANCH  10  11
ENDBRANCH   9  10
ENDBRANCH   8   9
ENDBRANCH   7   8
ENDBRANCH   6   7
ENDBRANCH   5   6
ENDBRANCH   4   5
ENDBRANCH   3   4
ENDBRANCH   2   3
ENDBRANCH   1   2
BRANCH   1  17
ATOM     17  C   UNL     1     -16.169  -3.365  31.671  1.00  0.00     0.000 C 
BRANCH  17  18
ATOM     18  C   UNL     1     -17.217  -4.146  32.478  1.00  0.00     0.000 C 
BRANCH  18  19
ATOM     19  C   UNL     1     -17.408  -5.588  31.976  1.00  0.00     0.000 C 
BRANCH  19  20
ATOM     20  C   UNL     1     -16.117  -6.428  31.908  1.00  0.00     0.000 C 
BRANCH  20  21
ATOM     21  C   UNL     1     -16.276  -7.905  32.319  1.00  0.00     0.000 C 
BRANCH  21  22
ATOM     22  C   UNL     1     -14.960  -8.702  32.425  1.00  0.00    -0.000 C 
BRANCH  22  23
ATOM     23  C   UNL     1     -13.702  -7.956  31.947  1.00  0.00    -0.000 C 
BRANCH  23  24
ATOM     24  C   UNL     1     -12.502  -8.144  32.891  1.00  0.00    -0.000 C 
BRANCH  24  25
ATOM     25  C   UNL     1     -12.819  -9.089  34.061  1.00  0.00    -0.000 C 
BRANCH  25  26
ATOM     26  C   UNL     1     -12.866  -8.363  35.414  1.00  0.00    -0.000 C 
BRANCH  26  27
ATOM     27  C   UNL     1     -13.741  -9.127  36.418  1.00  0.00    -0.000 C 
BRANCH  27  28
ATOM     28  C   UNL     1     -15.248  -8.968  36.142  1.00  0.00    -0.000 C 
BRANCH  28  29
ATOM     29  C   UNL     1     -15.709  -7.521  35.893  1.00  0.00    -0.003 C 
ATOM     30  C   UNL     1     -16.189  -6.820  37.163  1.00  0.00     0.004 C 
ENDBRANCH  28  29
ENDBRANCH  27  28
ENDBRANCH  26  27
ENDBRANCH  25  26
ENDBRANCH  24  25
ENDBRANCH  23  24
ENDBRANCH  22  23
ENDBRANCH  21  22
ENDBRANCH  20  21
ENDBRANCH  19  20
ENDBRANCH  18  19
ENDBRANCH  17  18
ENDBRANCH   1  17
TORSDOF 26
ENDMDL
MODEL 6
REMARK VINA RESULT:    -4.164      1.484      3.588
REMARK INTER + INTRA:         -15.705
REMARK INTER:                  -9.679
REMARK INTRA:                  -6.025
REMARK UNBOUND:                -5.211
REMARK SMILES CCCCCCCCCCCCCCCCCCCCCCCCCCCC(=O)[O-]
REMARK SMILES IDX 15 1 16 2 17 3 18 4 19 5 20 6 21 7 22 8 23 9 24 10 25 11
REMARK SMILES IDX 26 12 27 13 28 14 29 15 30 16 14 17 13 18 12 19 11 20 10 21
REMARK SMILES IDX 9 22 8 23 7 24 6 25 5 26 4 27 3 28 2 29 1 30
REMARK H PARENT
REMARK Flexibility Score: inf
ROOT
ATOM      1  C   UNL     1     -17.346  -3.977  32.503  1.00  0.00     0.000 C 
ENDROOT
BRANCH   1   2
ATOM      2  C   UNL     1     -16.182  -3.350  31.722  1.00  0.00     0.000 C 
BRANCH   2   3
ATOM      3  C   UNL     1     -15.536  -2.160  32.457  1.00  0.00     0.000 C 
BRANCH   3   4
ATOM      4  C   UNL     1     -14.015  -2.268  32.677  1.00  0.00     0.000 C 
BRANCH   4   5
ATOM      5  C   UNL     1     -13.361  -3.374  31.832  1.00  0.00     0.000 C 
BRANCH   5   6
ATOM      6  C   UNL     1     -12.714  -4.478  32.688  1.00  0.00     0.000 C 
BRANCH   6   7
ATOM      7  C   UNL     1     -13.526  -4.916  33.924  1.00  0.00     0.000 C 
BRANCH   7   8
ATOM      8  C   UNL     1     -12.874  -4.594  35.279  1.00  0.00     0.000 C 
BRANCH   8   9
ATOM      9  C   UNL     1     -13.875  -4.617  36.443  1.00  0.00     0.000 C 
BRANCH   9  10
ATOM     10  C   UNL     1     -15.309  -4.816  35.929  1.00  0.00     0.000 C 
BRANCH  10  11
ATOM     11  C   UNL     1     -16.289  -3.766  36.477  1.00  0.00     0.000 C 
BRANCH  11  12
ATOM     12  C   UNL     1     -15.875  -2.327  36.129  1.00  0.00     0.006 C 
BRANCH  12  13
ATOM     13  C   UNL     1     -17.075  -1.515  35.636  1.00  0.00     0.053 C 
BRANCH  13  14
ATOM     14  C   UNL     1     -17.413  -0.426  36.606  1.00  0.00     0.041 C 
ATOM     15  O   UNL     1     -17.463  -0.668  37.841  1.00  0.00    -0.550 OA
ATOM     16  O   UNL     1     -17.678   0.858  36.145  1.00  0.00    -0.550 OA
ENDBRANCH  13  14
ENDBRANCH  12  13
ENDBRANCH  11  12
ENDBRANCH  10  11
ENDBRANCH   9  10
ENDBRANCH   8   9
ENDBRANCH   7   8
ENDBRANCH   6   7
ENDBRANCH   5   6
ENDBRANCH   4   5
ENDBRANCH   3   4
ENDBRANCH   2   3
ENDBRANCH   1   2
BRANCH   1  17
ATOM     17  C   UNL     1     -17.115  -5.476  32.734  1.00  0.00     0.000 C 
BRANCH  17  18
ATOM     18  C   UNL     1     -16.198  -6.060  31.649  1.00  0.00     0.000 C 
BRANCH  18  19
ATOM     19  C   UNL     1     -15.671  -7.462  32.001  1.00  0.00     0.000 C 
BRANCH  19  20
ATOM     20  C   UNL     1     -14.179  -7.694  31.685  1.00  0.00     0.000 C 
BRANCH  20  21
ATOM     21  C   UNL     1     -13.494  -8.785  32.531  1.00  0.00     0.000 C 
BRANCH  21  22
ATOM     22  C   UNL     1     -12.233  -8.329  33.293  1.00  0.00    -0.000 C 
BRANCH  22  23
ATOM     23  C   UNL     1     -12.384  -8.252  34.822  1.00  0.00    -0.000 C 
BRANCH  23  24
ATOM     24  C   UNL     1     -13.515  -9.147  35.356  1.00  0.00    -0.000 C 
BRANCH  24  25
ATOM     25  C   UNL     1     -14.606  -8.343  36.081  1.00  0.00    -0.000 C 
BRANCH  25  26
ATOM     26  C   UNL     1     -15.991  -8.505  35.436  1.00  0.00    -0.000 C 
BRANCH  26  27
ATOM     27  C   UNL     1     -17.095  -8.537  36.503  1.00  0.00    -0.000 C 
BRANCH  27  28
ATOM     28  C   UNL     1     -16.595  -8.111  37.895  1.00  0.00    -0.000 C 
BRANCH  28  29
ATOM     29  C   UNL     1     -17.215  -6.809  38.432  1.00  0.00    -0.003 C 
ATOM     30  C   UNL     1     -16.338  -6.114  39.473  1.00  0.00     0.004 C 
ENDBRANCH  28  29
ENDBRANCH  27  28
ENDBRANCH  26  27
ENDBRANCH  25  26
ENDBRANCH  24  25
ENDBRANCH  23  24
ENDBRANCH  22  23
ENDBRANCH  21  22
ENDBRANCH  20  21
ENDBRANCH  19  20
ENDBRANCH  18  19
ENDBRANCH  17  18
ENDBRANCH   1  17
TORSDOF 26
ENDMDL
MODEL 7
REMARK VINA RESULT:    -4.151      2.445      6.112
REMARK INTER + INTRA:         -15.670
REMARK INTER:                 -11.037
REMARK INTRA:                  -4.634
REMARK UNBOUND:                -5.211
REMARK SMILES CCCCCCCCCCCCCCCCCCCCCCCCCCCC(=O)[O-]
REMARK SMILES IDX 15 1 16 2 17 3 18 4 19 5 20 6 21 7 22 8 23 9 24 10 25 11
REMARK SMILES IDX 26 12 27 13 28 14 29 15 30 16 14 17 13 18 12 19 11 20 10 21
REMARK SMILES IDX 9 22 8 23 7 24 6 25 5 26 4 27 3 28 2 29 1 30
REMARK H PARENT
REMARK Flexibility Score: inf
ROOT
ATOM      1  C   UNL     1     -17.106  -4.653  32.818  1.00  0.00     0.000 C 
ENDROOT
BRANCH   1   2
ATOM      2  C   UNL     1     -17.564  -5.828  31.941  1.00  0.00     0.000 C 
BRANCH   2   3
ATOM      3  C   UNL     1     -17.342  -7.199  32.607  1.00  0.00     0.000 C 
BRANCH   3   4
ATOM      4  C   UNL     1     -16.075  -7.951  32.160  1.00  0.00     0.000 C 
BRANCH   4   5
ATOM      5  C   UNL     1     -15.149  -7.100  31.276  1.00  0.00     0.000 C 
BRANCH   5   6
ATOM      6  C   UNL     1     -13.682  -7.130  31.742  1.00  0.00     0.000 C 
BRANCH   6   7
ATOM      7  C   UNL     1     -13.183  -8.493  32.262  1.00  0.00     0.000 C 
BRANCH   7   8
ATOM      8  C   UNL     1     -12.692  -8.494  33.720  1.00  0.00     0.000 C 
BRANCH   8   9
ATOM      9  C   UNL     1     -13.631  -9.258  34.664  1.00  0.00     0.000 C 
BRANCH   9  10
ATOM     10  C   UNL     1     -14.076  -8.367  35.834  1.00  0.00     0.000 C 
BRANCH  10  11
ATOM     11  C   UNL     1     -14.733  -7.057  35.369  1.00  0.00     0.000 C 
BRANCH  11  12
ATOM     12  C   UNL     1     -15.941  -6.658  36.231  1.00  0.00     0.006 C 
BRANCH  12  13
ATOM     13  C   UNL     1     -15.606  -6.755  37.723  1.00  0.00     0.053 C 
BRANCH  13  14
ATOM     14  C   UNL     1     -16.436  -5.792  38.515  1.00  0.00     0.041 C 
ATOM     15  O   UNL     1     -17.681  -5.956  38.612  1.00  0.00    -0.550 OA
ATOM     16  O   UNL     1     -15.833  -4.710  39.144  1.00  0.00    -0.550 OA
ENDBRANCH  13  14
ENDBRANCH  12  13
ENDBRANCH  11  12
ENDBRANCH  10  11
ENDBRANCH   9  10
ENDBRANCH   8   9
ENDBRANCH   7   8
ENDBRANCH   6   7
ENDBRANCH   5   6
ENDBRANCH   4   5
ENDBRANCH   3   4
ENDBRANCH   2   3
ENDBRANCH   1   2
BRANCH   1  17
ATOM     17  C   UNL     1     -17.740  -3.336  32.354  1.00  0.00     0.000 C 
BRANCH  17  18
ATOM     18  C   UNL     1     -16.666  -2.360  31.850  1.00  0.00     0.000 C 
BRANCH  18  19
ATOM     19  C   UNL     1     -15.395  -3.071  31.355  1.00  0.00     0.000 C 
BRANCH  19  20
ATOM     20  C   UNL     1     -14.103  -2.690  32.107  1.00  0.00     0.000 C 
BRANCH  20  21
ATOM     21  C   UNL     1     -13.343  -3.871  32.741  1.00  0.00     0.000 C 
BRANCH  21  22
ATOM     22  C   UNL     1     -13.459  -3.979  34.275  1.00  0.00    -0.000 C 
BRANCH  22  23
ATOM     23  C   UNL     1     -13.949  -2.704  34.986  1.00  0.00    -0.000 C 
BRANCH  23  24
ATOM     24  C   UNL     1     -14.763  -3.005  36.256  1.00  0.00    -0.000 C 
BRANCH  24  25
ATOM     25  C   UNL     1     -16.279  -2.947  36.008  1.00  0.00    -0.000 C 
BRANCH  25  26
ATOM     26  C   UNL     1     -16.741  -1.581  35.478  1.00  0.00    -0.000 C 
BRANCH  26  27
ATOM     27  C   UNL     1     -17.509  -0.804  36.558  1.00  0.00    -0.000 C 
BRANCH  27  28
ATOM     28  C   UNL     1     -18.242   0.430  36.001  1.00  0.00    -0.000 C 
BRANCH  28  29
ATOM     29  C   UNL     1     -17.823   1.769  36.636  1.00  0.00    -0.003 C 
ATOM     30  C   UNL     1     -18.412   1.978  38.030  1.00  0.00     0.004 C 
ENDBRANCH  28  29
ENDBRANCH  27  28
ENDBRANCH  26  27
ENDBRANCH  25  26
ENDBRANCH  24  25
ENDBRANCH  23  24
ENDBRANCH  22  23
ENDBRANCH  21  22
ENDBRANCH  20  21
ENDBRANCH  19  20
ENDBRANCH  18  19
ENDBRANCH  17  18
ENDBRANCH   1  17
TORSDOF 26
ENDMDL
MODEL 8
REMARK VINA RESULT:    -4.137      1.664      4.946
REMARK INTER + INTRA:         -15.636
REMARK INTER:                 -11.312
REMARK INTRA:                  -4.324
REMARK UNBOUND:                -5.211
REMARK SMILES CCCCCCCCCCCCCCCCCCCCCCCCCCCC(=O)[O-]
REMARK SMILES IDX 15 1 16 2 17 3 18 4 19 5 20 6 21 7 22 8 23 9 24 10 25 11
REMARK SMILES IDX 26 12 27 13 28 14 29 15 30 16 14 17 13 18 12 19 11 20 10 21
REMARK SMILES IDX 9 22 8 23 7 24 6 25 5 26 4 27 3 28 2 29 1 30
REMARK H PARENT
REMARK Flexibility Score: inf
ROOT
ATOM      1  C   UNL     1     -15.668  -7.982  35.521  1.00  0.00     0.000 C 
ENDROOT
BRANCH   1   2
ATOM      2  C   UNL     1     -14.840  -6.689  35.490  1.00  0.00     0.000 C 
BRANCH   2   3
ATOM      3  C   UNL     1     -13.520  -6.800  36.275  1.00  0.00     0.000 C 
BRANCH   3   4
ATOM      4  C   UNL     1     -12.260  -6.349  35.513  1.00  0.00     0.000 C 
BRANCH   4   5
ATOM      5  C   UNL     1     -12.419  -4.972  34.847  1.00  0.00     0.000 C 
BRANCH   5   6
ATOM      6  C   UNL     1     -12.677  -3.843  35.861  1.00  0.00     0.000 C 
BRANCH   6   7
ATOM      7  C   UNL     1     -13.487  -2.646  35.324  1.00  0.00     0.000 C 
BRANCH   7   8
ATOM      8  C   UNL     1     -15.010  -2.759  35.501  1.00  0.00     0.000 C 
BRANCH   8   9
ATOM      9  C   UNL     1     -15.408  -3.555  36.751  1.00  0.00     0.000 C 
BRANCH   9  10
ATOM     10  C   UNL     1     -16.373  -2.747  37.633  1.00  0.00     0.000 C 
BRANCH  10  11
ATOM     11  C   UNL     1     -17.143  -1.675  36.845  1.00  0.00     0.000 C 
BRANCH  11  12
ATOM     12  C   UNL     1     -17.823  -0.641  37.756  1.00  0.00     0.006 C 
BRANCH  12  13
ATOM     13  C   UNL     1     -18.659   0.346  36.937  1.00  0.00     0.053 C 
BRANCH  13  14
ATOM     14  C   UNL     1     -17.920   1.635  36.747  1.00  0.00     0.041 C 
ATOM     15  O   UNL     1     -17.197   1.809  35.730  1.00  0.00    -0.550 OA
ATOM     16  O   UNL     1     -18.027   2.643  37.696  1.00  0.00    -0.550 OA
ENDBRANCH  13  14
ENDBRANCH  12  13
ENDBRANCH  11  12
ENDBRANCH  10  11
ENDBRANCH   9  10
ENDBRANCH   8   9
ENDBRANCH   7   8
ENDBRANCH   6   7
ENDBRANCH   5   6
ENDBRANCH   4   5
ENDBRANCH   3   4
ENDBRANCH   2   3
ENDBRANCH   1   2
BRANCH   1  17
ATOM     17  C   UNL     1     -14.819  -9.193  35.115  1.00  0.00     0.000 C 
BRANCH  17  18
ATOM     18  C   UNL     1     -15.396  -9.871  33.863  1.00  0.00     0.000 C 
BRANCH  18  19
ATOM     19  C   UNL     1     -14.438  -9.822  32.660  1.00  0.00     0.000 C 
BRANCH  19  20
ATOM     20  C   UNL     1     -13.105  -9.091  32.921  1.00  0.00     0.000 C 
BRANCH  20  21
ATOM     21  C   UNL     1     -12.948  -7.740  32.195  1.00  0.00     0.000 C 
BRANCH  21  22
ATOM     22  C   UNL     1     -14.251  -7.149  31.619  1.00  0.00    -0.000 C 
BRANCH  22  23
ATOM     23  C   UNL     1     -14.644  -5.768  32.172  1.00  0.00    -0.000 C 
BRANCH  23  24
ATOM     24  C   UNL     1     -16.045  -5.321  31.720  1.00  0.00    -0.000 C 
BRANCH  24  25
ATOM     25  C   UNL     1     -16.540  -4.083  32.485  1.00  0.00    -0.000 C 
BRANCH  25  26
ATOM     26  C   UNL     1     -16.048  -2.766  31.865  1.00  0.00    -0.000 C 
BRANCH  26  27
ATOM     27  C   UNL     1     -16.810  -1.566  32.445  1.00  0.00    -0.000 C 
BRANCH  27  28
ATOM     28  C   UNL     1     -18.092  -1.976  33.194  1.00  0.00    -0.000 C 
BRANCH  28  29
ATOM     29  C   UNL     1     -19.403  -1.562  32.502  1.00  0.00    -0.003 C 
ATOM     30  C   UNL     1     -19.600  -2.236  31.145  1.00  0.00     0.004 C 
ENDBRANCH  28  29
ENDBRANCH  27  28
ENDBRANCH  26  27
ENDBRANCH  25  26
ENDBRANCH  24  25
ENDBRANCH  23  24
ENDBRANCH  22  23
ENDBRANCH  21  22
ENDBRANCH  20  21
ENDBRANCH  19  20
ENDBRANCH  18  19
ENDBRANCH  17  18
ENDBRANCH   1  17
TORSDOF 26
ENDMDL
MODEL 9
REMARK VINA RESULT:    -4.135     13.103     15.830
REMARK INTER + INTRA:         -15.631
REMARK INTER:                 -10.273
REMARK INTRA:                  -5.358
REMARK UNBOUND:                -5.211
REMARK SMILES CCCCCCCCCCCCCCCCCCCCCCCCCCCC(=O)[O-]
REMARK SMILES IDX 15 1 16 2 17 3 18 4 19 5 20 6 21 7 22 8 23 9 24 10 25 11
REMARK SMILES IDX 26 12 27 13 28 14 29 15 30 16 14 17 13 18 12 19 11 20 10 21
REMARK SMILES IDX 9 22 8 23 7 24 6 25 5 26 4 27 3 28 2 29 1 30
REMARK H PARENT
REMARK Flexibility Score: inf
ROOT
ATOM      1  C   UNL     1     -25.951  -1.923  27.165  1.00  0.00     0.000 C 
ENDROOT
BRANCH   1   2
ATOM      2  C   UNL     1     -27.372  -2.066  26.599  1.00  0.00     0.000 C 
BRANCH   2   3
ATOM      3  C   UNL     1     -27.980  -0.724  26.151  1.00  0.00     0.000 C 
BRANCH   3   4
ATOM      4  C   UNL     1     -29.486  -0.758  25.828  1.00  0.00     0.000 C 
BRANCH   4   5
ATOM      5  C   UNL     1     -29.794  -0.425  24.359  1.00  0.00     0.000 C 
BRANCH   5   6
ATOM      6  C   UNL     1     -29.975  -1.681  23.486  1.00  0.00     0.000 C 
BRANCH   6   7
ATOM      7  C   UNL     1     -28.956  -1.839  22.340  1.00  0.00     0.000 C 
BRANCH   7   8
ATOM      8  C   UNL     1     -27.560  -2.319  22.771  1.00  0.00     0.000 C 
BRANCH   8   9
ATOM      9  C   UNL     1     -26.432  -1.418  22.251  1.00  0.00     0.000 C 
BRANCH   9  10
ATOM     10  C   UNL     1     -25.765  -0.651  23.404  1.00  0.00     0.000 C 
BRANCH  10  11
ATOM     11  C   UNL     1     -24.241  -0.843  23.444  1.00  0.00     0.000 C 
BRANCH  11  12
ATOM     12  C   UNL     1     -23.541   0.145  24.390  1.00  0.00     0.006 C 
BRANCH  12  13
ATOM     13  C   UNL     1     -22.140   0.494  23.880  1.00  0.00     0.053 C 
BRANCH  13  14
ATOM     14  C   UNL     1     -22.212   1.521  22.793  1.00  0.00     0.041 C 
ATOM     15  O   UNL     1     -21.274   1.632  21.960  1.00  0.00    -0.550 OA
ATOM     16  O   UNL     1     -23.315   2.361  22.703  1.00  0.00    -0.550 OA
ENDBRANCH  13  14
ENDBRANCH  12  13
ENDBRANCH  11  12
ENDBRANCH  10  11
ENDBRANCH   9  10
ENDBRANCH   8   9
ENDBRANCH   7   8
ENDBRANCH   6   7
ENDBRANCH   5   6
ENDBRANCH   4   5
ENDBRANCH   3   4
ENDBRANCH   2   3
ENDBRANCH   1   2
BRANCH   1  17
ATOM     17  C   UNL     1     -24.970  -2.851  26.438  1.00  0.00     0.000 C 
BRANCH  17  18
ATOM     18  C   UNL     1     -25.714  -3.786  25.473  1.00  0.00     0.000 C 
BRANCH  18  19
ATOM     19  C   UNL     1     -24.789  -4.420  24.420  1.00  0.00     0.000 C 
BRANCH  19  20
ATOM     20  C   UNL     1     -23.629  -5.258  24.995  1.00  0.00     0.000 C 
BRANCH  20  21
ATOM     21  C   UNL     1     -24.058  -6.454  25.869  1.00  0.00     0.000 C 
BRANCH  21  22
ATOM     22  C   UNL     1     -24.795  -7.582  25.121  1.00  0.00    -0.000 C 
BRANCH  22  23
ATOM     23  C   UNL     1     -26.312  -7.652  25.373  1.00  0.00    -0.000 C 
BRANCH  23  24
ATOM     24  C   UNL     1     -27.118  -7.917  24.090  1.00  0.00    -0.000 C 
BRANCH  24  25
ATOM     25  C   UNL     1     -26.683  -7.011  22.926  1.00  0.00    -0.000 C 
BRANCH  25  26
ATOM     26  C   UNL     1     -27.797  -6.059  22.467  1.00  0.00    -0.000 C 
BRANCH  26  27
ATOM     27  C   UNL     1     -29.117  -6.368  23.189  1.00  0.00    -0.000 C 
BRANCH  27  28
ATOM     28  C   UNL     1     -29.598  -5.210  24.082  1.00  0.00    -0.000 C 
BRANCH  28  29
ATOM     29  C   UNL     1     -29.548  -5.498  25.593  1.00  0.00    -0.003 C 
ATOM     30  C   UNL     1     -30.129  -4.364  26.436  1.00  0.00     0.004 C 
ENDBRANCH  28  29
ENDBRANCH  27  28
ENDBRANCH  26  27
ENDBRANCH  25  26
ENDBRANCH  24  25
ENDBRANCH  23  24
ENDBRANCH  22  23
ENDBRANCH  21  22
ENDBRANCH  20  21
ENDBRANCH  19  20
ENDBRANCH  18  19
ENDBRANCH  17  18
ENDBRANCH   1  17
TORSDOF 26
ENDMDL
