MODEL 1
REMARK VINA RESULT:    -8.052      0.000      0.000
REMARK INTER + INTRA:         -10.022
REMARK INTER:                  -9.699
REMARK INTRA:                  -0.323
REMARK UNBOUND:                -0.323
REMARK SMILES O=c1c(O)c(-c2ccc(O)c(O)c2)oc2cc(O)cc(O)c12
REMARK SMILES IDX 5 1 3 2 2 3 1 4 22 5 20 6 19 7 17 8 16 9 15 10 14 11 6 12
REMARK SMILES IDX 7 13 8 14 9 15 13 16 11 17 10 18 12 20 4 22 21 24 18 26
REMARK H PARENT 10 19 12 21 4 23 21 25 18 27
REMARK Flexibility Score: inf
ROOT
ATOM      1  C   UNL     1      17.845 -59.731   5.790  1.00  0.00     0.180 A 
ATOM      2  C   UNL     1      18.606 -60.848   5.404  1.00  0.00     0.208 A 
ATOM      3  C   UNL     1      19.692 -60.663   4.532  1.00  0.00     0.238 A 
ATOM      4  O   UNL     1      20.337 -61.674   4.148  1.00  0.00    -0.285 OA
ATOM      5  C   UNL     1      20.013 -59.364   4.071  1.00  0.00     0.111 A 
ATOM      6  C   UNL     1      21.114 -59.056   3.218  1.00  0.00     0.134 A 
ATOM      7  C   UNL     1      21.258 -57.754   2.719  1.00  0.00     0.093 A 
ATOM      8  C   UNL     1      20.378 -56.737   3.096  1.00  0.00     0.123 A 
ATOM      9  C   UNL     1      19.335 -57.016   3.975  1.00  0.00     0.094 A 
ATOM     10  C   UNL     1      19.144 -58.311   4.460  1.00  0.00     0.146 A 
ATOM     11  O   UNL     1      18.130 -58.535   5.288  1.00  0.00    -0.452 OA
ENDROOT
BRANCH   1  12
ATOM     12  C   UNL     1      16.702 -59.842   6.724  1.00  0.00     0.025 A 
ATOM     13  C   UNL     1      16.925 -59.731   8.106  1.00  0.00     0.016 A 
ATOM     14  C   UNL     1      15.865 -59.853   9.006  1.00  0.00     0.051 A 
ATOM     15  C   UNL     1      14.569 -60.102   8.544  1.00  0.00     0.157 A 
ATOM     16  C   UNL     1      15.401 -60.112   6.262  1.00  0.00     0.062 A 
ATOM     17  C   UNL     1      14.336 -60.237   7.165  1.00  0.00     0.158 A 
BRANCH  15  18
ATOM     18  O   UNL     1      13.529 -60.216   9.467  1.00  0.00    -0.504 OA
ATOM     19  H   UNL     1      13.589 -59.820  10.396  1.00  0.00     0.293 HD
ENDBRANCH  15  18
BRANCH  17  20
ATOM     20  O   UNL     1      13.049 -60.499   6.697  1.00  0.00    -0.504 OA
ATOM     21  H   UNL     1      12.731 -61.444   6.516  1.00  0.00     0.293 HD
ENDBRANCH  17  20
ENDBRANCH   1  12
BRANCH   2  22
ATOM     22  O   UNL     1      18.260 -62.125   5.853  1.00  0.00    -0.502 OA
ATOM     23  H   UNL     1      17.305 -62.461   5.854  1.00  0.00     0.293 HD
ENDBRANCH   2  22
BRANCH   6  24
ATOM     24  O   UNL     1      22.103 -59.976   2.856  1.00  0.00    -0.507 OA
ATOM     25  H   UNL     1      23.038 -59.730   2.569  1.00  0.00     0.293 HD
ENDBRANCH   6  24
BRANCH   8  26
ATOM     26  O   UNL     1      20.538 -55.443   2.607  1.00  0.00    -0.508 OA
ATOM     27  H   UNL     1      20.289 -55.200   1.654  1.00  0.00     0.293 HD
ENDBRANCH   8  26
TORSDOF 6
ENDMDL
MODEL 2
REMARK VINA RESULT:    -7.612      2.888      8.383
REMARK INTER + INTRA:          -9.493
REMARK INTER:                  -9.186
REMARK INTRA:                  -0.306
REMARK UNBOUND:                -0.323
REMARK SMILES O=c1c(O)c(-c2ccc(O)c(O)c2)oc2cc(O)cc(O)c12
REMARK SMILES IDX 5 1 3 2 2 3 1 4 22 5 20 6 19 7 17 8 16 9 15 10 14 11 6 12
REMARK SMILES IDX 7 13 8 14 9 15 13 16 11 17 10 18 12 20 4 22 21 24 18 26
REMARK H PARENT 10 19 12 21 4 23 21 25 18 27
REMARK Flexibility Score: inf
ROOT
ATOM      1  C   UNL     1      14.759 -59.993   8.916  1.00  0.00     0.180 A 
ATOM      2  C   UNL     1      13.841 -61.052   9.027  1.00  0.00     0.208 A 
ATOM      3  C   UNL     1      12.902 -61.031  10.071  1.00  0.00     0.238 A 
ATOM      4  O   UNL     1      12.118 -62.008  10.197  1.00  0.00    -0.285 OA
ATOM      5  C   UNL     1      12.880 -59.946  10.979  1.00  0.00     0.111 A 
ATOM      6  C   UNL     1      11.946 -59.801  12.048  1.00  0.00     0.134 A 
ATOM      7  C   UNL     1      12.102 -58.753  12.964  1.00  0.00     0.093 A 
ATOM      8  C   UNL     1      13.118 -57.807  12.810  1.00  0.00     0.123 A 
ATOM      9  C   UNL     1      13.998 -57.905  11.735  1.00  0.00     0.094 A 
ATOM     10  C   UNL     1      13.891 -58.960  10.826  1.00  0.00     0.146 A 
ATOM     11  O   UNL     1      14.757 -59.022   9.822  1.00  0.00    -0.452 OA
ENDROOT
BRANCH   1  12
ATOM     12  C   UNL     1      15.763 -59.932   7.829  1.00  0.00     0.025 A 
ATOM     13  C   UNL     1      17.101 -60.252   8.105  1.00  0.00     0.016 A 
ATOM     14  C   UNL     1      18.068 -60.181   7.100  1.00  0.00     0.051 A 
ATOM     15  C   UNL     1      17.718 -59.775   5.809  1.00  0.00     0.157 A 
ATOM     16  C   UNL     1      15.415 -59.504   6.535  1.00  0.00     0.062 A 
ATOM     17  C   UNL     1      16.386 -59.431   5.525  1.00  0.00     0.158 A 
BRANCH  15  18
ATOM     18  O   UNL     1      18.704 -59.717   4.824  1.00  0.00    -0.504 OA
ATOM     19  H   UNL     1      19.182 -58.855   4.593  1.00  0.00     0.293 HD
ENDBRANCH  15  18
BRANCH  17  20
ATOM     20  O   UNL     1      16.031 -59.012   4.243  1.00  0.00    -0.504 OA
ATOM     21  H   UNL     1      15.496 -58.164   4.089  1.00  0.00     0.293 HD
ENDBRANCH  17  20
ENDBRANCH   1  12
BRANCH   2  22
ATOM     22  O   UNL     1      13.893 -62.125   8.134  1.00  0.00    -0.502 OA
ATOM     23  H   UNL     1      13.286 -62.931   8.215  1.00  0.00     0.293 HD
ENDBRANCH   2  22
BRANCH   6  24
ATOM     24  O   UNL     1      10.842 -60.637  12.238  1.00  0.00    -0.507 OA
ATOM     25  H   UNL     1      10.219 -60.941  11.505  1.00  0.00     0.293 HD
ENDBRANCH   6  24
BRANCH   8  26
ATOM     26  O   UNL     1      13.255 -56.758  13.717  1.00  0.00    -0.508 OA
ATOM     27  H   UNL     1      13.278 -55.791  13.412  1.00  0.00     0.293 HD
ENDBRANCH   8  26
TORSDOF 6
ENDMDL
MODEL 3
REMARK VINA RESULT:    -7.567      1.606      3.304
REMARK INTER + INTRA:          -9.438
REMARK INTER:                  -9.121
REMARK INTRA:                  -0.317
REMARK UNBOUND:                -0.323
REMARK SMILES O=c1c(O)c(-c2ccc(O)c(O)c2)oc2cc(O)cc(O)c12
REMARK SMILES IDX 5 1 3 2 2 3 1 4 22 5 20 6 19 7 17 8 16 9 15 10 14 11 6 12
REMARK SMILES IDX 7 13 8 14 9 15 13 16 11 17 10 18 12 20 4 22 21 24 18 26
REMARK H PARENT 10 19 12 21 4 23 21 25 18 27
REMARK Flexibility Score: inf
ROOT
ATOM      1  C   UNL     1      16.963 -59.658   6.413  1.00  0.00     0.180 A 
ATOM      2  C   UNL     1      16.973 -58.427   5.735  1.00  0.00     0.208 A 
ATOM      3  C   UNL     1      18.059 -58.120   4.898  1.00  0.00     0.238 A 
ATOM      4  O   UNL     1      18.088 -56.994   4.336  1.00  0.00    -0.285 OA
ATOM      5  C   UNL     1      19.110 -59.053   4.736  1.00  0.00     0.111 A 
ATOM      6  C   UNL     1      20.238 -58.863   3.883  1.00  0.00     0.134 A 
ATOM      7  C   UNL     1      21.283 -59.797   3.901  1.00  0.00     0.093 A 
ATOM      8  C   UNL     1      21.209 -60.945   4.694  1.00  0.00     0.123 A 
ATOM      9  C   UNL     1      20.085 -61.168   5.485  1.00  0.00     0.094 A 
ATOM     10  C   UNL     1      19.044 -60.238   5.515  1.00  0.00     0.146 A 
ATOM     11  O   UNL     1      17.996 -60.485   6.292  1.00  0.00    -0.452 OA
ENDROOT
BRANCH   1  12
ATOM     12  C   UNL     1      15.844 -60.064   7.293  1.00  0.00     0.025 A 
ATOM     13  C   UNL     1      14.780 -60.809   6.760  1.00  0.00     0.016 A 
ATOM     14  C   UNL     1      13.704 -61.185   7.566  1.00  0.00     0.051 A 
ATOM     15  C   UNL     1      13.664 -60.810   8.913  1.00  0.00     0.157 A 
ATOM     16  C   UNL     1      15.793 -59.670   8.642  1.00  0.00     0.062 A 
ATOM     17  C   UNL     1      14.712 -60.045   9.453  1.00  0.00     0.158 A 
BRANCH  15  18
ATOM     18  O   UNL     1      12.579 -61.202   9.695  1.00  0.00    -0.504 OA
ATOM     19  H   UNL     1      12.585 -62.060  10.232  1.00  0.00     0.293 HD
ENDBRANCH  15  18
BRANCH  17  20
ATOM     20  O   UNL     1      14.673 -59.656  10.791  1.00  0.00    -0.504 OA
ATOM     21  H   UNL     1      14.806 -60.323  11.544  1.00  0.00     0.293 HD
ENDBRANCH  17  20
ENDBRANCH   1  12
BRANCH   2  22
ATOM     22  O   UNL     1      15.936 -57.510   5.926  1.00  0.00    -0.502 OA
ATOM     23  H   UNL     1      15.715 -57.119   6.834  1.00  0.00     0.293 HD
ENDBRANCH   2  22
BRANCH   6  24
ATOM     24  O   UNL     1      20.368 -57.800   2.984  1.00  0.00    -0.507 OA
ATOM     25  H   UNL     1      21.245 -57.390   2.703  1.00  0.00     0.293 HD
ENDBRANCH   6  24
BRANCH   8  26
ATOM     26  O   UNL     1      22.246 -61.875   4.694  1.00  0.00    -0.508 OA
ATOM     27  H   UNL     1      22.471 -62.419   5.519  1.00  0.00     0.293 HD
ENDBRANCH   8  26
TORSDOF 6
ENDMDL
MODEL 4
REMARK VINA RESULT:    -7.457      3.157      6.772
REMARK INTER + INTRA:          -9.306
REMARK INTER:                  -9.090
REMARK INTRA:                  -0.216
REMARK UNBOUND:                -0.323
REMARK SMILES O=c1c(O)c(-c2ccc(O)c(O)c2)oc2cc(O)cc(O)c12
REMARK SMILES IDX 5 1 3 2 2 3 1 4 22 5 20 6 19 7 17 8 16 9 15 10 14 11 6 12
REMARK SMILES IDX 7 13 8 14 9 15 13 16 11 17 10 18 12 20 4 22 21 24 18 26
REMARK H PARENT 10 19 12 21 4 23 21 25 18 27
REMARK Flexibility Score: inf
ROOT
ATOM      1  C   UNL     1      20.510 -56.942   3.621  1.00  0.00     0.180 A 
ATOM      2  C   UNL     1      20.965 -57.846   2.647  1.00  0.00     0.208 A 
ATOM      3  C   UNL     1      20.941 -59.222   2.932  1.00  0.00     0.238 A 
ATOM      4  O   UNL     1      21.400 -60.023   2.076  1.00  0.00    -0.285 OA
ATOM      5  C   UNL     1      20.448 -59.675   4.178  1.00  0.00     0.111 A 
ATOM      6  C   UNL     1      20.341 -61.047   4.556  1.00  0.00     0.134 A 
ATOM      7  C   UNL     1      19.961 -61.375   5.865  1.00  0.00     0.093 A 
ATOM      8  C   UNL     1      19.623 -60.381   6.787  1.00  0.00     0.123 A 
ATOM      9  C   UNL     1      19.668 -59.042   6.408  1.00  0.00     0.094 A 
ATOM     10  C   UNL     1      20.077 -58.682   5.122  1.00  0.00     0.146 A 
ATOM     11  O   UNL     1      20.115 -57.393   4.806  1.00  0.00    -0.452 OA
ENDROOT
BRANCH   1  12
ATOM     12  C   UNL     1      20.481 -55.480   3.386  1.00  0.00     0.025 A 
ATOM     13  C   UNL     1      21.685 -54.761   3.354  1.00  0.00     0.016 A 
ATOM     14  C   UNL     1      21.680 -53.378   3.154  1.00  0.00     0.051 A 
ATOM     15  C   UNL     1      20.473 -52.691   2.999  1.00  0.00     0.157 A 
ATOM     16  C   UNL     1      19.266 -54.784   3.250  1.00  0.00     0.062 A 
ATOM     17  C   UNL     1      19.259 -53.396   3.052  1.00  0.00     0.158 A 
BRANCH  15  18
ATOM     18  O   UNL     1      20.498 -51.311   2.799  1.00  0.00    -0.504 OA
ATOM     19  H   UNL     1      21.255 -50.853   2.306  1.00  0.00     0.293 HD
ENDBRANCH  15  18
BRANCH  17  20
ATOM     20  O   UNL     1      18.050 -52.715   2.912  1.00  0.00    -0.504 OA
ATOM     21  H   UNL     1      17.895 -51.812   3.344  1.00  0.00     0.293 HD
ENDBRANCH  17  20
ENDBRANCH   1  12
BRANCH   2  22
ATOM     22  O   UNL     1      21.468 -57.377   1.431  1.00  0.00    -0.502 OA
ATOM     23  H   UNL     1      20.874 -57.185   0.633  1.00  0.00     0.293 HD
ENDBRANCH   2  22
BRANCH   6  24
ATOM     24  O   UNL     1      20.566 -62.117   3.686  1.00  0.00    -0.507 OA
ATOM     25  H   UNL     1      21.473 -62.399   3.345  1.00  0.00     0.293 HD
ENDBRANCH   6  24
BRANCH   8  26
ATOM     26  O   UNL     1      19.232 -60.717   8.081  1.00  0.00    -0.508 OA
ATOM     27  H   UNL     1      19.193 -61.682   8.390  1.00  0.00     0.293 HD
ENDBRANCH   8  26
TORSDOF 6
ENDMDL
MODEL 5
REMARK VINA RESULT:    -7.442      2.840      4.526
REMARK INTER + INTRA:          -9.288
REMARK INTER:                  -9.054
REMARK INTRA:                  -0.234
REMARK UNBOUND:                -0.323
REMARK SMILES O=c1c(O)c(-c2ccc(O)c(O)c2)oc2cc(O)cc(O)c12
REMARK SMILES IDX 5 1 3 2 2 3 1 4 22 5 20 6 19 7 17 8 16 9 15 10 14 11 6 12
REMARK SMILES IDX 7 13 8 14 9 15 13 16 11 17 10 18 12 20 4 22 21 24 18 26
REMARK H PARENT 10 19 12 21 4 23 21 25 18 27
REMARK Flexibility Score: inf
ROOT
ATOM      1  C   UNL     1      20.325 -58.047   3.991  1.00  0.00     0.180 A 
ATOM      2  C   UNL     1      20.871 -58.593   2.818  1.00  0.00     0.208 A 
ATOM      3  C   UNL     1      21.210 -57.733   1.760  1.00  0.00     0.238 A 
ATOM      4  O   UNL     1      21.649 -58.234   0.691  1.00  0.00    -0.285 OA
ATOM      5  C   UNL     1      21.013 -56.338   1.895  1.00  0.00     0.111 A 
ATOM      6  C   UNL     1      21.358 -55.371   0.904  1.00  0.00     0.134 A 
ATOM      7  C   UNL     1      20.997 -54.030   1.093  1.00  0.00     0.093 A 
ATOM      8  C   UNL     1      20.363 -53.613   2.266  1.00  0.00     0.123 A 
ATOM      9  C   UNL     1      20.077 -54.540   3.265  1.00  0.00     0.094 A 
ATOM     10  C   UNL     1      20.391 -55.889   3.090  1.00  0.00     0.146 A 
ATOM     11  O   UNL     1      20.091 -56.742   4.063  1.00  0.00    -0.452 OA
ENDROOT
BRANCH   1  12
ATOM     12  C   UNL     1      19.966 -58.886   5.158  1.00  0.00     0.025 A 
ATOM     13  C   UNL     1      18.824 -59.700   5.099  1.00  0.00     0.016 A 
ATOM     14  C   UNL     1      18.456 -60.483   6.195  1.00  0.00     0.051 A 
ATOM     15  C   UNL     1      19.212 -60.455   7.371  1.00  0.00     0.157 A 
ATOM     16  C   UNL     1      20.715 -58.843   6.348  1.00  0.00     0.062 A 
ATOM     17  C   UNL     1      20.345 -59.628   7.450  1.00  0.00     0.158 A 
BRANCH  15  18
ATOM     18  O   UNL     1      18.822 -61.250   8.448  1.00  0.00    -0.504 OA
ATOM     19  H   UNL     1      19.469 -61.526   9.175  1.00  0.00     0.293 HD
ENDBRANCH  15  18
BRANCH  17  20
ATOM     20  O   UNL     1      21.096 -59.584   8.624  1.00  0.00    -0.504 OA
ATOM     21  H   UNL     1      21.759 -60.314   8.859  1.00  0.00     0.293 HD
ENDBRANCH  17  20
ENDBRANCH   1  12
BRANCH   2  22
ATOM     22  O   UNL     1      21.037 -59.976   2.695  1.00  0.00    -0.502 OA
ATOM     23  H   UNL     1      21.786 -60.477   3.157  1.00  0.00     0.293 HD
ENDBRANCH   2  22
BRANCH   6  24
ATOM     24  O   UNL     1      22.072 -55.667  -0.260  1.00  0.00    -0.507 OA
ATOM     25  H   UNL     1      22.732 -55.045  -0.703  1.00  0.00     0.293 HD
ENDBRANCH   6  24
BRANCH   8  26
ATOM     26  O   UNL     1      20.023 -52.275   2.452  1.00  0.00    -0.508 OA
ATOM     27  H   UNL     1      20.412 -51.729   3.212  1.00  0.00     0.293 HD
ENDBRANCH   8  26
TORSDOF 6
ENDMDL
MODEL 6
REMARK VINA RESULT:    -7.283      2.664      7.578
REMARK INTER + INTRA:          -9.097
REMARK INTER:                  -8.788
REMARK INTRA:                  -0.308
REMARK UNBOUND:                -0.323
REMARK SMILES O=c1c(O)c(-c2ccc(O)c(O)c2)oc2cc(O)cc(O)c12
REMARK SMILES IDX 5 1 3 2 2 3 1 4 22 5 20 6 19 7 17 8 16 9 15 10 14 11 6 12
REMARK SMILES IDX 7 13 8 14 9 15 13 16 11 17 10 18 12 20 4 22 21 24 18 26
REMARK H PARENT 10 19 12 21 4 23 21 25 18 27
REMARK Flexibility Score: inf
ROOT
ATOM      1  C   UNL     1      19.873 -56.236   3.696  1.00  0.00     0.180 A 
ATOM      2  C   UNL     1      18.594 -56.124   4.266  1.00  0.00     0.208 A 
ATOM      3  C   UNL     1      17.980 -57.272   4.794  1.00  0.00     0.238 A 
ATOM      4  O   UNL     1      16.813 -57.175   5.255  1.00  0.00    -0.285 OA
ATOM      5  C   UNL     1      18.659 -58.513   4.759  1.00  0.00     0.111 A 
ATOM      6  C   UNL     1      18.150 -59.731   5.299  1.00  0.00     0.134 A 
ATOM      7  C   UNL     1      18.851 -60.926   5.091  1.00  0.00     0.093 A 
ATOM      8  C   UNL     1      20.076 -60.934   4.419  1.00  0.00     0.123 A 
ATOM      9  C   UNL     1      20.610 -59.741   3.940  1.00  0.00     0.094 A 
ATOM     10  C   UNL     1      19.917 -58.540   4.100  1.00  0.00     0.146 A 
ATOM     11  O   UNL     1      20.457 -57.426   3.618  1.00  0.00    -0.452 OA
ENDROOT
BRANCH   1  12
ATOM     12  C   UNL     1      20.594 -55.067   3.143  1.00  0.00     0.025 A 
ATOM     13  C   UNL     1      21.501 -54.367   3.953  1.00  0.00     0.016 A 
ATOM     14  C   UNL     1      22.177 -53.249   3.459  1.00  0.00     0.051 A 
ATOM     15  C   UNL     1      21.947 -52.804   2.153  1.00  0.00     0.157 A 
ATOM     16  C   UNL     1      20.349 -54.607   1.836  1.00  0.00     0.062 A 
ATOM     17  C   UNL     1      21.026 -53.484   1.338  1.00  0.00     0.158 A 
BRANCH  15  18
ATOM     18  O   UNL     1      22.639 -51.688   1.685  1.00  0.00    -0.504 OA
ATOM     19  H   UNL     1      23.551 -51.762   1.253  1.00  0.00     0.293 HD
ENDBRANCH  15  18
BRANCH  17  20
ATOM     20  O   UNL     1      20.782 -53.038   0.040  1.00  0.00    -0.504 OA
ATOM     21  H   UNL     1      21.380 -52.354  -0.409  1.00  0.00     0.293 HD
ENDBRANCH  17  20
ENDBRANCH   1  12
BRANCH   2  22
ATOM     22  O   UNL     1      17.931 -54.893   4.271  1.00  0.00    -0.502 OA
ATOM     23  H   UNL     1      16.925 -54.816   4.187  1.00  0.00     0.293 HD
ENDBRANCH   2  22
BRANCH   6  24
ATOM     24  O   UNL     1      16.984 -59.818   6.066  1.00  0.00    -0.507 OA
ATOM     25  H   UNL     1      16.958 -59.811   7.074  1.00  0.00     0.293 HD
ENDBRANCH   6  24
BRANCH   8  26
ATOM     26  O   UNL     1      20.774 -62.125   4.230  1.00  0.00    -0.508 OA
ATOM     27  H   UNL     1      20.926 -62.511   3.305  1.00  0.00     0.293 HD
ENDBRANCH   8  26
TORSDOF 6
ENDMDL
MODEL 7
REMARK VINA RESULT:    -7.166      3.333      7.267
REMARK INTER + INTRA:          -8.956
REMARK INTER:                  -8.957
REMARK INTRA:                   0.001
REMARK UNBOUND:                -0.323
REMARK SMILES O=c1c(O)c(-c2ccc(O)c(O)c2)oc2cc(O)cc(O)c12
REMARK SMILES IDX 5 1 3 2 2 3 1 4 22 5 20 6 19 7 17 8 16 9 15 10 14 11 6 12
REMARK SMILES IDX 7 13 8 14 9 15 13 16 11 17 10 18 12 20 4 22 21 24 18 26
REMARK H PARENT 10 19 12 21 4 23 21 25 18 27
REMARK Flexibility Score: inf
ROOT
ATOM      1  C   UNL     1      20.718 -56.973   3.287  1.00  0.00     0.180 A 
ATOM      2  C   UNL     1      21.052 -57.972   2.356  1.00  0.00     0.208 A 
ATOM      3  C   UNL     1      20.968 -59.320   2.745  1.00  0.00     0.238 A 
ATOM      4  O   UNL     1      21.319 -60.207   1.924  1.00  0.00    -0.285 OA
ATOM      5  C   UNL     1      20.537 -59.651   4.051  1.00  0.00     0.111 A 
ATOM      6  C   UNL     1      20.376 -60.982   4.538  1.00  0.00     0.134 A 
ATOM      7  C   UNL     1      20.070 -61.191   5.890  1.00  0.00     0.093 A 
ATOM      8  C   UNL     1      19.854 -60.115   6.754  1.00  0.00     0.123 A 
ATOM      9  C   UNL     1      19.949 -58.812   6.273  1.00  0.00     0.094 A 
ATOM     10  C   UNL     1      20.289 -58.571   4.940  1.00  0.00     0.146 A 
ATOM     11  O   UNL     1      20.381 -57.313   4.525  1.00  0.00    -0.452 OA
ENDROOT
BRANCH   1  12
ATOM     12  C   UNL     1      20.758 -55.533   2.944  1.00  0.00     0.025 A 
ATOM     13  C   UNL     1      19.619 -54.741   3.156  1.00  0.00     0.016 A 
ATOM     14  C   UNL     1      19.628 -53.385   2.822  1.00  0.00     0.051 A 
ATOM     15  C   UNL     1      20.766 -52.802   2.257  1.00  0.00     0.157 A 
ATOM     16  C   UNL     1      21.897 -54.951   2.358  1.00  0.00     0.062 A 
ATOM     17  C   UNL     1      21.906 -53.590   2.019  1.00  0.00     0.158 A 
BRANCH  15  18
ATOM     18  O   UNL     1      20.747 -51.446   1.935  1.00  0.00    -0.504 OA
ATOM     19  H   UNL     1      21.595 -50.898   1.865  1.00  0.00     0.293 HD
ENDBRANCH  15  18
BRANCH  17  20
ATOM     20  O   UNL     1      23.040 -53.020   1.444  1.00  0.00    -0.504 OA
ATOM     21  H   UNL     1      23.412 -52.133   1.766  1.00  0.00     0.293 HD
ENDBRANCH  17  20
ENDBRANCH   1  12
BRANCH   2  22
ATOM     22  O   UNL     1      21.497 -57.623   1.078  1.00  0.00    -0.502 OA
ATOM     23  H   UNL     1      22.383 -57.160   0.917  1.00  0.00     0.293 HD
ENDBRANCH   2  22
BRANCH   6  24
ATOM     24  O   UNL     1      20.478 -62.124   3.738  1.00  0.00    -0.507 OA
ATOM     25  H   UNL     1      19.854 -62.916   3.785  1.00  0.00     0.293 HD
ENDBRANCH   6  24
BRANCH   8  26
ATOM     26  O   UNL     1      19.534 -60.332   8.092  1.00  0.00    -0.508 OA
ATOM     27  H   UNL     1      20.068 -59.907   8.842  1.00  0.00     0.293 HD
ENDBRANCH   8  26
TORSDOF 6
ENDMDL
MODEL 8
REMARK VINA RESULT:    -7.126      2.465      4.047
REMARK INTER + INTRA:          -8.907
REMARK INTER:                  -8.594
REMARK INTRA:                  -0.312
REMARK UNBOUND:                -0.323
REMARK SMILES O=c1c(O)c(-c2ccc(O)c(O)c2)oc2cc(O)cc(O)c12
REMARK SMILES IDX 5 1 3 2 2 3 1 4 22 5 20 6 19 7 17 8 16 9 15 10 14 11 6 12
REMARK SMILES IDX 7 13 8 14 9 15 13 16 11 17 10 18 12 20 4 22 21 24 18 26
REMARK H PARENT 10 19 12 21 4 23 21 25 18 27
REMARK Flexibility Score: inf
ROOT
ATOM      1  C   UNL     1      20.202 -58.072   4.009  1.00  0.00     0.180 A 
ATOM      2  C   UNL     1      20.771 -58.638   2.855  1.00  0.00     0.208 A 
ATOM      3  C   UNL     1      21.147 -57.794   1.797  1.00  0.00     0.238 A 
ATOM      4  O   UNL     1      21.606 -58.312   0.745  1.00  0.00    -0.285 OA
ATOM      5  C   UNL     1      20.965 -56.395   1.912  1.00  0.00     0.111 A 
ATOM      6  C   UNL     1      21.346 -55.444   0.920  1.00  0.00     0.134 A 
ATOM      7  C   UNL     1      20.999 -54.096   1.085  1.00  0.00     0.093 A 
ATOM      8  C   UNL     1      20.342 -53.658   2.237  1.00  0.00     0.123 A 
ATOM      9  C   UNL     1      20.018 -54.570   3.238  1.00  0.00     0.094 A 
ATOM     10  C   UNL     1      20.319 -55.925   3.086  1.00  0.00     0.146 A 
ATOM     11  O   UNL     1      19.984 -56.763   4.061  1.00  0.00    -0.452 OA
ENDROOT
BRANCH   1  12
ATOM     12  C   UNL     1      19.804 -58.893   5.175  1.00  0.00     0.025 A 
ATOM     13  C   UNL     1      20.710 -59.081   6.230  1.00  0.00     0.016 A 
ATOM     14  C   UNL     1      20.363 -59.868   7.330  1.00  0.00     0.051 A 
ATOM     15  C   UNL     1      19.113 -60.492   7.388  1.00  0.00     0.157 A 
ATOM     16  C   UNL     1      18.554 -59.536   5.224  1.00  0.00     0.062 A 
ATOM     17  C   UNL     1      18.205 -60.329   6.328  1.00  0.00     0.158 A 
BRANCH  15  18
ATOM     18  O   UNL     1      18.793 -61.270   8.499  1.00  0.00    -0.504 OA
ATOM     19  H   UNL     1      18.644 -60.864   9.415  1.00  0.00     0.293 HD
ENDBRANCH  15  18
BRANCH  17  20
ATOM     20  O   UNL     1      16.962 -60.959   6.371  1.00  0.00    -0.504 OA
ATOM     21  H   UNL     1      16.811 -61.868   5.949  1.00  0.00     0.293 HD
ENDBRANCH  17  20
ENDBRANCH   1  12
BRANCH   2  22
ATOM     22  O   UNL     1      20.922 -60.023   2.752  1.00  0.00    -0.502 OA
ATOM     23  H   UNL     1      21.727 -60.513   3.124  1.00  0.00     0.293 HD
ENDBRANCH   2  22
BRANCH   6  24
ATOM     24  O   UNL     1      22.086 -55.761  -0.223  1.00  0.00    -0.507 OA
ATOM     25  H   UNL     1      22.350 -56.697  -0.495  1.00  0.00     0.293 HD
ENDBRANCH   6  24
BRANCH   8  26
ATOM     26  O   UNL     1      20.014 -52.314   2.400  1.00  0.00    -0.508 OA
ATOM     27  H   UNL     1      20.461 -51.588   1.850  1.00  0.00     0.293 HD
ENDBRANCH   8  26
TORSDOF 6
ENDMDL
MODEL 9
REMARK VINA RESULT:    -7.021      7.113     10.033
REMARK INTER + INTRA:          -8.780
REMARK INTER:                  -8.494
REMARK INTRA:                  -0.286
REMARK UNBOUND:                -0.323
REMARK SMILES O=c1c(O)c(-c2ccc(O)c(O)c2)oc2cc(O)cc(O)c12
REMARK SMILES IDX 5 1 3 2 2 3 1 4 22 5 20 6 19 7 17 8 16 9 15 10 14 11 6 12
REMARK SMILES IDX 7 13 8 14 9 15 13 16 11 17 10 18 12 20 4 22 21 24 18 26
REMARK H PARENT 10 19 12 21 4 23 21 25 18 27
REMARK Flexibility Score: inf
ROOT
ATOM      1  C   UNL     1      20.539 -52.254   3.435  1.00  0.00     0.180 A 
ATOM      2  C   UNL     1      19.224 -51.892   3.774  1.00  0.00     0.208 A 
ATOM      3  C   UNL     1      19.019 -50.800   4.634  1.00  0.00     0.238 A 
ATOM      4  O   UNL     1      17.842 -50.514   4.976  1.00  0.00    -0.285 OA
ATOM      5  C   UNL     1      20.128 -50.076   5.130  1.00  0.00     0.111 A 
ATOM      6  C   UNL     1      20.036 -48.929   5.975  1.00  0.00     0.134 A 
ATOM      7  C   UNL     1      21.203 -48.371   6.512  1.00  0.00     0.093 A 
ATOM      8  C   UNL     1      22.462 -48.878   6.181  1.00  0.00     0.123 A 
ATOM      9  C   UNL     1      22.565 -49.960   5.310  1.00  0.00     0.094 A 
ATOM     10  C   UNL     1      21.418 -50.560   4.787  1.00  0.00     0.146 A 
ATOM     11  O   UNL     1      21.561 -51.597   3.969  1.00  0.00    -0.452 OA
ENDROOT
BRANCH   1  12
ATOM     12  C   UNL     1      20.834 -53.377   2.516  1.00  0.00     0.025 A 
ATOM     13  C   UNL     1      21.349 -54.576   3.032  1.00  0.00     0.016 A 
ATOM     14  C   UNL     1      21.654 -55.640   2.181  1.00  0.00     0.051 A 
ATOM     15  C   UNL     1      21.465 -55.519   0.801  1.00  0.00     0.157 A 
ATOM     16  C   UNL     1      20.663 -53.249   1.125  1.00  0.00     0.062 A 
ATOM     17  C   UNL     1      20.972 -54.316   0.269  1.00  0.00     0.158 A 
BRANCH  15  18
ATOM     18  O   UNL     1      21.776 -56.599  -0.025  1.00  0.00    -0.504 OA
ATOM     19  H   UNL     1      21.090 -57.025  -0.635  1.00  0.00     0.293 HD
ENDBRANCH  15  18
BRANCH  17  20
ATOM     20  O   UNL     1      20.793 -54.182  -1.107  1.00  0.00    -0.504 OA
ATOM     21  H   UNL     1      20.513 -53.302  -1.525  1.00  0.00     0.293 HD
ENDBRANCH  17  20
ENDBRANCH   1  12
BRANCH   2  22
ATOM     22  O   UNL     1      18.143 -52.634   3.291  1.00  0.00    -0.502 OA
ATOM     23  H   UNL     1      17.617 -53.274   3.874  1.00  0.00     0.293 HD
ENDBRANCH   2  22
BRANCH   6  24
ATOM     24  O   UNL     1      18.835 -48.288   6.293  1.00  0.00    -0.507 OA
ATOM     25  H   UNL     1      18.438 -48.239   7.219  1.00  0.00     0.293 HD
ENDBRANCH   6  24
BRANCH   8  26
ATOM     26  O   UNL     1      23.619 -48.307   6.707  1.00  0.00    -0.508 OA
ATOM     27  H   UNL     1      24.515 -48.397   6.241  1.00  0.00     0.293 HD
ENDBRANCH   8  26
TORSDOF 6
ENDMDL
