MODEL 1
REMARK VINA RESULT:    -7.428      0.000      0.000
REMARK INTER + INTRA:          -9.266
REMARK INTER:                  -8.948
REMARK INTRA:                  -0.318
REMARK UNBOUND:                -0.318
REMARK SMILES Oc1cc(O)c2cc(O)c(-c3ccc(O)c(O)c3)[o+]c2c1.[Cl-]
REMARK SMILES IDX 10 1 19 2 20 3 21 4 2 5 3 6 4 7 6 8 7 9 8 10 11 11 12 12
REMARK SMILES IDX 13 13 14 14 18 15 16 16 15 17 17 19 9 21 1 23 5 25
REMARK H PARENT 15 18 17 20 9 22 1 24 5 26
REMARK Flexibility Score: inf
ROOT
ATOM      1  C   UNL     1      10.617  15.591 164.767  1.00  0.00     0.402 A 
ATOM      2  O   UNL     1      10.124  14.885 163.753  1.00  0.00    -0.202 OA
ATOM      3  C   UNL     1      10.847  14.026 163.043  1.00  0.00     0.368 A 
ATOM      4  C   UNL     1      10.242  13.332 161.991  1.00  0.00     0.162 A 
ATOM      5  C   UNL     1      10.980  12.424 161.227  1.00  0.00     0.128 A 
ATOM      6  C   UNL     1      12.330  12.210 161.515  1.00  0.00     0.093 A 
ATOM      7  C   UNL     1      12.961  12.892 162.563  1.00  0.00     0.136 A 
ATOM      8  C   UNL     1      12.215  13.812 163.343  1.00  0.00     0.125 A 
ATOM      9  C   UNL     1      12.760  14.530 164.420  1.00  0.00     0.078 A 
ATOM     10  C   UNL     1      11.961  15.418 165.147  1.00  0.00     0.223 A 
ENDROOT
BRANCH   1  11
ATOM     11  C   UNL     1       9.711  16.526 165.475  1.00  0.00     0.087 A 
ATOM     12  C   UNL     1       9.401  17.789 164.941  1.00  0.00     0.022 A 
ATOM     13  C   UNL     1       8.525  18.644 165.616  1.00  0.00     0.051 A 
ATOM     14  C   UNL     1       7.938  18.248 166.821  1.00  0.00     0.157 A 
ATOM     15  C   UNL     1       9.103  16.122 166.675  1.00  0.00     0.068 A 
ATOM     16  C   UNL     1       8.225  16.980 167.353  1.00  0.00     0.158 A 
BRANCH  14  17
ATOM     17  O   UNL     1       7.070  19.125 167.473  1.00  0.00    -0.504 OA
ATOM     18  H   UNL     1       6.066  19.089 167.336  1.00  0.00     0.293 HD
ENDBRANCH  14  17
BRANCH  16  19
ATOM     19  O   UNL     1       7.637  16.576 168.551  1.00  0.00    -0.504 OA
ATOM     20  H   UNL     1       6.742  16.942 168.853  1.00  0.00     0.293 HD
ENDBRANCH  16  19
ENDBRANCH   1  11
BRANCH  10  21
ATOM     21  O   UNL     1      12.488  16.094 166.248  1.00  0.00    -0.500 OA
ATOM     22  H   UNL     1      13.175  16.831 166.141  1.00  0.00     0.294 HD
ENDBRANCH  10  21
BRANCH   5  23
ATOM     23  O   UNL     1      10.382  11.729 160.178  1.00  0.00    -0.507 OA
ATOM     24  H   UNL     1      10.769  11.749 159.242  1.00  0.00     0.293 HD
ENDBRANCH   5  23
BRANCH   7  25
ATOM     25  O   UNL     1      14.314  12.622 162.783  1.00  0.00    -0.507 OA
ATOM     26  H   UNL     1      15.067  13.247 162.534  1.00  0.00     0.293 HD
ENDBRANCH   7  25
TORSDOF 6
ENDMDL
MODEL 2
REMARK VINA RESULT:    -6.822      1.940      2.116
REMARK INTER + INTRA:          -8.536
REMARK INTER:                  -8.815
REMARK INTRA:                   0.279
REMARK UNBOUND:                -0.318
REMARK SMILES Oc1cc(O)c2cc(O)c(-c3ccc(O)c(O)c3)[o+]c2c1.[Cl-]
REMARK SMILES IDX 10 1 19 2 20 3 21 4 2 5 3 6 4 7 6 8 7 9 8 10 11 11 12 12
REMARK SMILES IDX 13 13 14 14 18 15 16 16 15 17 17 19 9 21 1 23 5 25
REMARK H PARENT 15 18 17 20 9 22 1 24 5 26
REMARK Flexibility Score: inf
ROOT
ATOM      1  C   UNL     1       9.917  16.500 165.173  1.00  0.00     0.402 A 
ATOM      2  O   UNL     1       9.998  16.761 163.871  1.00  0.00    -0.202 OA
ATOM      3  C   UNL     1      10.905  16.209 163.071  1.00  0.00     0.368 A 
ATOM      4  C   UNL     1      10.913  16.549 161.715  1.00  0.00     0.162 A 
ATOM      5  C   UNL     1      11.858  15.986 160.853  1.00  0.00     0.128 A 
ATOM      6  C   UNL     1      12.798  15.080 161.348  1.00  0.00     0.093 A 
ATOM      7  C   UNL     1      12.811  14.723 162.702  1.00  0.00     0.136 A 
ATOM      8  C   UNL     1      11.853  15.289 163.581  1.00  0.00     0.125 A 
ATOM      9  C   UNL     1      11.782  14.980 164.949  1.00  0.00     0.078 A 
ATOM     10  C   UNL     1      10.807  15.576 165.753  1.00  0.00     0.223 A 
ENDROOT
BRANCH   1  11
ATOM     11  C   UNL     1       8.868  17.187 165.961  1.00  0.00     0.087 A 
ATOM     12  C   UNL     1       8.394  18.459 165.597  1.00  0.00     0.022 A 
ATOM     13  C   UNL     1       7.386  19.076 166.342  1.00  0.00     0.051 A 
ATOM     14  C   UNL     1       6.829  18.432 167.450  1.00  0.00     0.157 A 
ATOM     15  C   UNL     1       8.291  16.532 167.062  1.00  0.00     0.068 A 
ATOM     16  C   UNL     1       7.280  17.151 167.811  1.00  0.00     0.158 A 
BRANCH  14  17
ATOM     17  O   UNL     1       5.826  19.075 168.176  1.00  0.00    -0.504 OA
ATOM     18  H   UNL     1       4.916  19.273 167.778  1.00  0.00     0.293 HD
ENDBRANCH  14  17
BRANCH  16  19
ATOM     19  O   UNL     1       6.724  16.499 168.911  1.00  0.00    -0.504 OA
ATOM     20  H   UNL     1       6.324  15.572 168.831  1.00  0.00     0.293 HD
ENDBRANCH  16  19
ENDBRANCH   1  11
BRANCH  10  21
ATOM     21  O   UNL     1      10.704  15.231 167.101  1.00  0.00    -0.500 OA
ATOM     22  H   UNL     1      11.478  14.814 167.604  1.00  0.00     0.294 HD
ENDBRANCH  10  21
BRANCH   5  23
ATOM     23  O   UNL     1      11.872  16.320 159.500  1.00  0.00    -0.507 OA
ATOM     24  H   UNL     1      12.146  17.243 159.186  1.00  0.00     0.293 HD
ENDBRANCH   5  23
BRANCH   7  25
ATOM     25  O   UNL     1      13.787  13.812 163.118  1.00  0.00    -0.507 OA
ATOM     26  H   UNL     1      13.770  13.323 164.001  1.00  0.00     0.293 HD
ENDBRANCH   7  25
TORSDOF 6
ENDMDL
MODEL 3
REMARK VINA RESULT:    -6.064      1.949      6.985
REMARK INTER + INTRA:          -7.623
REMARK INTER:                  -7.621
REMARK INTRA:                  -0.002
REMARK UNBOUND:                -0.318
REMARK SMILES Oc1cc(O)c2cc(O)c(-c3ccc(O)c(O)c3)[o+]c2c1.[Cl-]
REMARK SMILES IDX 10 1 19 2 20 3 21 4 2 5 3 6 4 7 6 8 7 9 8 10 11 11 12 12
REMARK SMILES IDX 13 13 14 14 18 15 16 16 15 17 17 19 9 21 1 23 5 25
REMARK H PARENT 15 18 17 20 9 22 1 24 5 26
REMARK Flexibility Score: inf
ROOT
ATOM      1  C   UNL     1      10.618  16.631 164.884  1.00  0.00     0.402 A 
ATOM      2  O   UNL     1      10.119  15.993 165.940  1.00  0.00    -0.202 OA
ATOM      3  C   UNL     1       9.038  16.402 166.596  1.00  0.00     0.368 A 
ATOM      4  C   UNL     1       8.592  15.667 167.698  1.00  0.00     0.162 A 
ATOM      5  C   UNL     1       7.460  16.076 168.407  1.00  0.00     0.128 A 
ATOM      6  C   UNL     1       6.771  17.226 168.013  1.00  0.00     0.093 A 
ATOM      7  C   UNL     1       7.197  17.980 166.913  1.00  0.00     0.136 A 
ATOM      8  C   UNL     1       8.344  17.567 166.188  1.00  0.00     0.125 A 
ATOM      9  C   UNL     1       8.837  18.253 165.065  1.00  0.00     0.078 A 
ATOM     10  C   UNL     1       9.972  17.783 164.399  1.00  0.00     0.223 A 
ENDROOT
BRANCH   1  11
ATOM     11  C   UNL     1      11.836  16.081 164.245  1.00  0.00     0.087 A 
ATOM     12  C   UNL     1      12.901  16.914 163.863  1.00  0.00     0.022 A 
ATOM     13  C   UNL     1      14.050  16.369 163.283  1.00  0.00     0.051 A 
ATOM     14  C   UNL     1      14.158  14.989 163.088  1.00  0.00     0.157 A 
ATOM     15  C   UNL     1      11.956  14.692 164.068  1.00  0.00     0.068 A 
ATOM     16  C   UNL     1      13.108  14.144 163.485  1.00  0.00     0.158 A 
BRANCH  14  17
ATOM     17  O   UNL     1      15.317  14.475 162.505  1.00  0.00    -0.504 OA
ATOM     18  H   UNL     1      16.198  14.436 163.002  1.00  0.00     0.293 HD
ENDBRANCH  14  17
BRANCH  16  19
ATOM     19  O   UNL     1      13.212  12.766 163.301  1.00  0.00    -0.504 OA
ATOM     20  H   UNL     1      14.068  12.266 163.509  1.00  0.00     0.293 HD
ENDBRANCH  16  19
ENDBRANCH   1  11
BRANCH  10  21
ATOM     21  O   UNL     1      10.431  18.435 163.254  1.00  0.00    -0.500 OA
ATOM     22  H   UNL     1      10.172  18.125 162.325  1.00  0.00     0.294 HD
ENDBRANCH  10  21
BRANCH   5  23
ATOM     23  O   UNL     1       7.009  15.348 169.506  1.00  0.00    -0.507 OA
ATOM     24  H   UNL     1       7.651  14.989 170.202  1.00  0.00     0.293 HD
ENDBRANCH   5  23
BRANCH   7  25
ATOM     25  O   UNL     1       6.454  19.118 166.586  1.00  0.00    -0.507 OA
ATOM     26  H   UNL     1       5.693  19.480 167.142  1.00  0.00     0.293 HD
ENDBRANCH   7  25
TORSDOF 6
ENDMDL
MODEL 4
REMARK VINA RESULT:    -5.600      1.606      1.646
REMARK INTER + INTRA:          -7.064
REMARK INTER:                  -7.107
REMARK INTRA:                   0.043
REMARK UNBOUND:                -0.318
REMARK SMILES Oc1cc(O)c2cc(O)c(-c3ccc(O)c(O)c3)[o+]c2c1.[Cl-]
REMARK SMILES IDX 10 1 19 2 20 3 21 4 2 5 3 6 4 7 6 8 7 9 8 10 11 11 12 12
REMARK SMILES IDX 13 13 14 14 18 15 16 16 15 17 17 19 9 21 1 23 5 25
REMARK H PARENT 15 18 17 20 9 22 1 24 5 26
REMARK Flexibility Score: inf
ROOT
ATOM      1  C   UNL     1      10.346  16.521 163.976  1.00  0.00     0.402 A 
ATOM      2  O   UNL     1      10.109  15.236 163.724  1.00  0.00    -0.202 OA
ATOM      3  C   UNL     1      10.792  14.530 162.829  1.00  0.00     0.368 A 
ATOM      4  C   UNL     1      10.467  13.185 162.630  1.00  0.00     0.162 A 
ATOM      5  C   UNL     1      11.168  12.420 161.694  1.00  0.00     0.128 A 
ATOM      6  C   UNL     1      12.198  13.003 160.952  1.00  0.00     0.093 A 
ATOM      7  C   UNL     1      12.544  14.348 161.132  1.00  0.00     0.136 A 
ATOM      8  C   UNL     1      11.838  15.127 162.084  1.00  0.00     0.125 A 
ATOM      9  C   UNL     1      12.124  16.479 162.340  1.00  0.00     0.078 A 
ATOM     10  C   UNL     1      11.386  17.182 163.296  1.00  0.00     0.223 A 
ENDROOT
BRANCH   1  11
ATOM     11  C   UNL     1       9.508  17.201 164.990  1.00  0.00     0.087 A 
ATOM     12  C   UNL     1       9.041  18.512 164.793  1.00  0.00     0.022 A 
ATOM     13  C   UNL     1       8.232  19.125 165.753  1.00  0.00     0.051 A 
ATOM     14  C   UNL     1       7.867  18.438 166.915  1.00  0.00     0.157 A 
ATOM     15  C   UNL     1       9.123  16.505 166.148  1.00  0.00     0.068 A 
ATOM     16  C   UNL     1       8.311  17.119 167.113  1.00  0.00     0.158 A 
BRANCH  14  17
ATOM     17  O   UNL     1       7.060  19.077 167.856  1.00  0.00    -0.504 OA
ATOM     18  H   UNL     1       6.880  18.677 168.770  1.00  0.00     0.293 HD
ENDBRANCH  14  17
BRANCH  16  19
ATOM     19  O   UNL     1       7.945  16.425 168.265  1.00  0.00    -0.504 OA
ATOM     20  H   UNL     1       8.403  16.593 169.153  1.00  0.00     0.293 HD
ENDBRANCH  16  19
ENDBRANCH   1  11
BRANCH  10  21
ATOM     21  O   UNL     1      11.703  18.509 163.588  1.00  0.00    -0.500 OA
ATOM     22  H   UNL     1      11.942  19.172 162.859  1.00  0.00     0.294 HD
ENDBRANCH  10  21
BRANCH   5  23
ATOM     23  O   UNL     1      10.849  11.080 161.491  1.00  0.00    -0.507 OA
ATOM     24  H   UNL     1       9.976  10.803 161.057  1.00  0.00     0.293 HD
ENDBRANCH   5  23
BRANCH   7  25
ATOM     25  O   UNL     1      13.584  14.855 160.349  1.00  0.00    -0.507 OA
ATOM     26  H   UNL     1      14.439  15.245 160.719  1.00  0.00     0.293 HD
ENDBRANCH   7  25
TORSDOF 6
ENDMDL
MODEL 5
REMARK VINA RESULT:    -5.330      2.172      6.850
REMARK INTER + INTRA:          -6.739
REMARK INTER:                  -6.756
REMARK INTRA:                   0.017
REMARK UNBOUND:                -0.318
REMARK SMILES Oc1cc(O)c2cc(O)c(-c3ccc(O)c(O)c3)[o+]c2c1.[Cl-]
REMARK SMILES IDX 10 1 19 2 20 3 21 4 2 5 3 6 4 7 6 8 7 9 8 10 11 11 12 12
REMARK SMILES IDX 13 13 14 14 18 15 16 16 15 17 17 19 9 21 1 23 5 25
REMARK H PARENT 15 18 17 20 9 22 1 24 5 26
REMARK Flexibility Score: inf
ROOT
ATOM      1  C   UNL     1      10.254  15.972 164.735  1.00  0.00     0.402 A 
ATOM      2  O   UNL     1       9.250  16.846 164.752  1.00  0.00    -0.202 OA
ATOM      3  C   UNL     1       8.466  17.035 165.808  1.00  0.00     0.368 A 
ATOM      4  C   UNL     1       7.433  17.974 165.729  1.00  0.00     0.162 A 
ATOM      5  C   UNL     1       6.592  18.191 166.823  1.00  0.00     0.128 A 
ATOM      6  C   UNL     1       6.782  17.464 168.001  1.00  0.00     0.093 A 
ATOM      7  C   UNL     1       7.809  16.518 168.106  1.00  0.00     0.136 A 
ATOM      8  C   UNL     1       8.668  16.297 166.999  1.00  0.00     0.125 A 
ATOM      9  C   UNL     1       9.731  15.378 167.017  1.00  0.00     0.078 A 
ATOM     10  C   UNL     1      10.538  15.217 165.888  1.00  0.00     0.223 A 
ENDROOT
BRANCH   1  11
ATOM     11  C   UNL     1      11.051  15.846 163.493  1.00  0.00     0.087 A 
ATOM     12  C   UNL     1      12.456  15.840 163.522  1.00  0.00     0.022 A 
ATOM     13  C   UNL     1      13.186  15.695 162.339  1.00  0.00     0.051 A 
ATOM     14  C   UNL     1      12.528  15.542 161.116  1.00  0.00     0.157 A 
ATOM     15  C   UNL     1      10.392  15.671 162.264  1.00  0.00     0.068 A 
ATOM     16  C   UNL     1      11.123  15.526 161.076  1.00  0.00     0.158 A 
BRANCH  14  17
ATOM     17  O   UNL     1      13.284  15.403 159.951  1.00  0.00    -0.504 OA
ATOM     18  H   UNL     1      13.154  14.625 159.315  1.00  0.00     0.293 HD
ENDBRANCH  14  17
BRANCH  16  19
ATOM     19  O   UNL     1      10.461  15.367 159.860  1.00  0.00    -0.504 OA
ATOM     20  H   UNL     1      10.960  15.133 159.011  1.00  0.00     0.293 HD
ENDBRANCH  16  19
ENDBRANCH   1  11
BRANCH  10  21
ATOM     21  O   UNL     1      11.624  14.342 165.923  1.00  0.00    -0.500 OA
ATOM     22  H   UNL     1      12.428  14.516 166.514  1.00  0.00     0.294 HD
ENDBRANCH  10  21
BRANCH   5  23
ATOM     23  O   UNL     1       5.561  19.125 166.752  1.00  0.00    -0.507 OA
ATOM     24  H   UNL     1       5.709  20.096 166.999  1.00  0.00     0.293 HD
ENDBRANCH   5  23
BRANCH   7  25
ATOM     25  O   UNL     1       7.931  15.832 169.318  1.00  0.00    -0.507 OA
ATOM     26  H   UNL     1       7.152  15.467 169.846  1.00  0.00     0.293 HD
ENDBRANCH   7  25
TORSDOF 6
ENDMDL
MODEL 6
REMARK VINA RESULT:    -5.301      2.684      6.815
REMARK INTER + INTRA:          -6.704
REMARK INTER:                  -7.113
REMARK INTRA:                   0.410
REMARK UNBOUND:                -0.318
REMARK SMILES Oc1cc(O)c2cc(O)c(-c3ccc(O)c(O)c3)[o+]c2c1.[Cl-]
REMARK SMILES IDX 10 1 19 2 20 3 21 4 2 5 3 6 4 7 6 8 7 9 8 10 11 11 12 12
REMARK SMILES IDX 13 13 14 14 18 15 16 16 15 17 17 19 9 21 1 23 5 25
REMARK H PARENT 15 18 17 20 9 22 1 24 5 26
REMARK Flexibility Score: inf
ROOT
ATOM      1  C   UNL     1      11.388  15.551 163.324  1.00  0.00     0.402 A 
ATOM      2  O   UNL     1      10.504  16.502 163.615  1.00  0.00    -0.202 OA
ATOM      3  C   UNL     1       9.872  16.580 164.781  1.00  0.00     0.368 A 
ATOM      4  C   UNL     1       8.956  17.614 164.992  1.00  0.00     0.162 A 
ATOM      5  C   UNL     1       8.277  17.717 166.209  1.00  0.00     0.128 A 
ATOM      6  C   UNL     1       8.513  16.781 167.219  1.00  0.00     0.093 A 
ATOM      7  C   UNL     1       9.425  15.735 167.033  1.00  0.00     0.136 A 
ATOM      8  C   UNL     1      10.120  15.628 165.801  1.00  0.00     0.125 A 
ATOM      9  C   UNL     1      11.061  14.621 165.530  1.00  0.00     0.078 A 
ATOM     10  C   UNL     1      11.710  14.582 164.292  1.00  0.00     0.223 A 
ENDROOT
BRANCH   1  11
ATOM     11  C   UNL     1      12.017  15.567 161.983  1.00  0.00     0.087 A 
ATOM     12  C   UNL     1      13.052  14.676 161.651  1.00  0.00     0.022 A 
ATOM     13  C   UNL     1      13.614  14.693 160.371  1.00  0.00     0.051 A 
ATOM     14  C   UNL     1      13.146  15.587 159.404  1.00  0.00     0.157 A 
ATOM     15  C   UNL     1      11.534  16.450 161.003  1.00  0.00     0.068 A 
ATOM     16  C   UNL     1      12.097  16.469 159.719  1.00  0.00     0.158 A 
BRANCH  14  17
ATOM     17  O   UNL     1      13.729  15.583 158.137  1.00  0.00    -0.504 OA
ATOM     18  H   UNL     1      13.539  14.853 157.459  1.00  0.00     0.293 HD
ENDBRANCH  14  17
BRANCH  16  19
ATOM     19  O   UNL     1      11.621  17.358 158.758  1.00  0.00    -0.504 OA
ATOM     20  H   UNL     1      10.711  17.795 158.844  1.00  0.00     0.293 HD
ENDBRANCH  16  19
ENDBRANCH   1  11
BRANCH  10  21
ATOM     21  O   UNL     1      12.681  13.613 164.042  1.00  0.00    -0.500 OA
ATOM     22  H   UNL     1      12.525  12.635 164.254  1.00  0.00     0.294 HD
ENDBRANCH  10  21
BRANCH   5  23
ATOM     23  O   UNL     1       7.363  18.746 166.426  1.00  0.00    -0.507 OA
ATOM     24  H   UNL     1       6.364  18.582 166.396  1.00  0.00     0.293 HD
ENDBRANCH   5  23
BRANCH   7  25
ATOM     25  O   UNL     1       9.602  14.840 168.091  1.00  0.00    -0.507 OA
ATOM     26  H   UNL     1       8.890  14.207 168.427  1.00  0.00     0.293 HD
ENDBRANCH   7  25
TORSDOF 6
ENDMDL
MODEL 7
REMARK VINA RESULT:    -4.840      2.210      3.131
REMARK INTER + INTRA:          -6.148
REMARK INTER:                  -6.194
REMARK INTRA:                   0.046
REMARK UNBOUND:                -0.318
REMARK SMILES Oc1cc(O)c2cc(O)c(-c3ccc(O)c(O)c3)[o+]c2c1.[Cl-]
REMARK SMILES IDX 10 1 19 2 20 3 21 4 2 5 3 6 4 7 6 8 7 9 8 10 11 11 12 12
REMARK SMILES IDX 13 13 14 14 18 15 16 16 15 17 17 19 9 21 1 23 5 25
REMARK H PARENT 15 18 17 20 9 22 1 24 5 26
REMARK Flexibility Score: inf
ROOT
ATOM      1  C   UNL     1      11.144  16.601 163.701  1.00  0.00     0.402 A 
ATOM      2  O   UNL     1      12.144  15.941 164.280  1.00  0.00    -0.202 OA
ATOM      3  C   UNL     1      13.105  15.327 163.597  1.00  0.00     0.368 A 
ATOM      4  C   UNL     1      14.112  14.654 164.295  1.00  0.00     0.162 A 
ATOM      5  C   UNL     1      15.133  13.998 163.602  1.00  0.00     0.128 A 
ATOM      6  C   UNL     1      15.145  14.012 162.205  1.00  0.00     0.093 A 
ATOM      7  C   UNL     1      14.147  14.678 161.482  1.00  0.00     0.136 A 
ATOM      8  C   UNL     1      13.111  15.349 162.181  1.00  0.00     0.125 A 
ATOM      9  C   UNL     1      12.078  16.052 161.541  1.00  0.00     0.078 A 
ATOM     10  C   UNL     1      11.092  16.692 162.298  1.00  0.00     0.223 A 
ENDROOT
BRANCH   1  11
ATOM     11  C   UNL     1      10.128  17.236 164.572  1.00  0.00     0.087 A 
ATOM     12  C   UNL     1       9.677  18.546 164.335  1.00  0.00     0.022 A 
ATOM     13  C   UNL     1       8.700  19.115 165.156  1.00  0.00     0.051 A 
ATOM     14  C   UNL     1       8.150  18.384 166.213  1.00  0.00     0.157 A 
ATOM     15  C   UNL     1       9.559  16.496 165.622  1.00  0.00     0.068 A 
ATOM     16  C   UNL     1       8.578  17.066 166.447  1.00  0.00     0.158 A 
BRANCH  14  17
ATOM     17  O   UNL     1       7.178  18.980 167.017  1.00  0.00    -0.504 OA
ATOM     18  H   UNL     1       6.194  18.962 166.775  1.00  0.00     0.293 HD
ENDBRANCH  14  17
BRANCH  16  19
ATOM     19  O   UNL     1       8.029  16.329 167.495  1.00  0.00    -0.504 OA
ATOM     20  H   UNL     1       8.565  16.107 168.325  1.00  0.00     0.293 HD
ENDBRANCH  16  19
ENDBRANCH   1  11
BRANCH  10  21
ATOM     21  O   UNL     1      10.094  17.434 161.664  1.00  0.00    -0.500 OA
ATOM     22  H   UNL     1      10.165  18.438 161.556  1.00  0.00     0.294 HD
ENDBRANCH  10  21
BRANCH   5  23
ATOM     23  O   UNL     1      16.141  13.327 164.290  1.00  0.00    -0.507 OA
ATOM     24  H   UNL     1      16.189  13.339 165.302  1.00  0.00     0.293 HD
ENDBRANCH   5  23
BRANCH   7  25
ATOM     25  O   UNL     1      14.231  14.643 160.088  1.00  0.00    -0.507 OA
ATOM     26  H   UNL     1      14.557  13.848 159.556  1.00  0.00     0.293 HD
ENDBRANCH   7  25
TORSDOF 6
ENDMDL
