MODEL 1
REMARK VINA RESULT:    -3.603      0.000      0.000
REMARK INTER + INTRA:         -10.055
REMARK INTER:                  -7.815
REMARK INTRA:                  -2.239
REMARK UNBOUND:                -2.239
REMARK SMILES CCCCCCCCCCCCCCCCCCCCCC(=O)[O-]
REMARK SMILES IDX 12 1 11 2 10 3 9 4 8 5 7 6 6 7 5 8 4 9 3 10 2 11 1 12 13 13
REMARK SMILES IDX 14 14 15 15 16 16 17 17 18 18 19 19 20 20 21 21 22 22 23 23
REMARK SMILES IDX 24 24
REMARK H PARENT
REMARK Flexibility Score: inf
ROOT
ATOM      1  C   UNL     1      -7.497  25.377  22.921  1.00  0.00     0.000 C 
ENDROOT
BRANCH   1   2
ATOM      2  C   UNL     1      -7.758  24.753  21.535  1.00  0.00     0.000 C 
BRANCH   2   3
ATOM      3  C   UNL     1      -8.209  25.766  20.460  1.00  0.00     0.000 C 
BRANCH   3   4
ATOM      4  C   UNL     1      -9.536  25.371  19.785  1.00  0.00    -0.000 C 
BRANCH   4   5
ATOM      5  C   UNL     1      -9.385  25.112  18.277  1.00  0.00    -0.000 C 
BRANCH   5   6
ATOM      6  C   UNL     1     -10.427  24.122  17.734  1.00  0.00    -0.000 C 
BRANCH   6   7
ATOM      7  C   UNL     1     -11.125  23.376  18.882  1.00  0.00    -0.000 C 
BRANCH   7   8
ATOM      8  C   UNL     1     -10.621  21.930  19.055  1.00  0.00    -0.000 C 
BRANCH   8   9
ATOM      9  C   UNL     1     -10.818  21.330  20.461  1.00  0.00    -0.000 C 
BRANCH   9  10
ATOM     10  C   UNL     1      -9.611  21.463  21.411  1.00  0.00    -0.000 C 
BRANCH  10  11
ATOM     11  C   UNL     1      -9.781  22.550  22.494  1.00  0.00    -0.003 C 
ATOM     12  C   UNL     1     -11.099  23.315  22.367  1.00  0.00     0.004 C 
ENDBRANCH  10  11
ENDBRANCH   9  10
ENDBRANCH   8   9
ENDBRANCH   7   8
ENDBRANCH   6   7
ENDBRANCH   5   6
ENDBRANCH   4   5
ENDBRANCH   3   4
ENDBRANCH   2   3
ENDBRANCH   1   2
BRANCH   1  13
ATOM     13  C   UNL     1      -8.710  26.068  23.566  1.00  0.00     0.000 C 
BRANCH  13  14
ATOM     14  C   UNL     1      -9.062  25.494  24.947  1.00  0.00     0.000 C 
BRANCH  14  15
ATOM     15  C   UNL     1      -8.906  26.563  26.041  1.00  0.00     0.000 C 
BRANCH  15  16
ATOM     16  C   UNL     1     -10.160  26.698  26.921  1.00  0.00     0.000 C 
BRANCH  16  17
ATOM     17  C   UNL     1     -10.692  28.139  26.974  1.00  0.00     0.000 C 
BRANCH  17  18
ATOM     18  C   UNL     1     -11.125  28.668  25.594  1.00  0.00     0.000 C 
BRANCH  18  19
ATOM     19  C   UNL     1     -10.146  29.699  24.994  1.00  0.00     0.000 C 
BRANCH  19  20
ATOM     20  C   UNL     1      -9.531  29.210  23.670  1.00  0.00     0.006 C 
BRANCH  20  21
ATOM     21  C   UNL     1     -10.317  29.705  22.448  1.00  0.00     0.053 C 
BRANCH  21  22
ATOM     22  C   UNL     1     -10.658  28.578  21.519  1.00  0.00     0.041 C 
ATOM     23  O   UNL     1     -10.572  28.733  20.273  1.00  0.00    -0.550 OA
ATOM     24  O   UNL     1     -11.120  27.371  22.032  1.00  0.00    -0.550 OA
ENDBRANCH  21  22
ENDBRANCH  20  21
ENDBRANCH  19  20
ENDBRANCH  18  19
ENDBRANCH  17  18
ENDBRANCH  16  17
ENDBRANCH  15  16
ENDBRANCH  14  15
ENDBRANCH  13  14
ENDBRANCH   1  13
TORSDOF 20
ENDMDL
MODEL 2
REMARK VINA RESULT:    -3.418      1.606      3.602
REMARK INTER + INTRA:          -9.653
REMARK INTER:                  -7.697
REMARK INTRA:                  -1.956
REMARK UNBOUND:                -2.239
REMARK SMILES CCCCCCCCCCCCCCCCCCCCCC(=O)[O-]
REMARK SMILES IDX 12 1 11 2 10 3 9 4 8 5 7 6 6 7 5 8 4 9 3 10 2 11 1 12 13 13
REMARK SMILES IDX 14 14 15 15 16 16 17 17 18 18 19 19 20 20 21 21 22 22 23 23
REMARK SMILES IDX 24 24
REMARK H PARENT
REMARK Flexibility Score: inf
ROOT
ATOM      1  C   UNL     1      -8.833  25.055  23.517  1.00  0.00     0.000 C 
ENDROOT
BRANCH   1   2
ATOM      2  C   UNL     1      -8.361  24.164  22.349  1.00  0.00     0.000 C 
BRANCH   2   3
ATOM      3  C   UNL     1      -8.702  22.668  22.517  1.00  0.00     0.000 C 
BRANCH   3   4
ATOM      4  C   UNL     1     -10.140  22.328  22.083  1.00  0.00    -0.000 C 
BRANCH   4   5
ATOM      5  C   UNL     1     -10.192  21.297  20.945  1.00  0.00    -0.000 C 
BRANCH   5   6
ATOM      6  C   UNL     1     -11.112  21.727  19.791  1.00  0.00    -0.000 C 
BRANCH   6   7
ATOM      7  C   UNL     1     -11.043  23.246  19.573  1.00  0.00    -0.000 C 
BRANCH   7   8
ATOM      8  C   UNL     1     -11.046  23.641  18.083  1.00  0.00    -0.000 C 
BRANCH   8   9
ATOM      9  C   UNL     1      -9.789  24.389  17.600  1.00  0.00    -0.000 C 
BRANCH   9  10
ATOM     10  C   UNL     1     -10.036  25.480  16.539  1.00  0.00    -0.000 C 
BRANCH  10  11
ATOM     11  C   UNL     1      -9.096  25.392  15.318  1.00  0.00    -0.003 C 
ATOM     12  C   UNL     1      -9.833  25.049  14.023  1.00  0.00     0.004 C 
ENDBRANCH  10  11
ENDBRANCH   9  10
ENDBRANCH   8   9
ENDBRANCH   7   8
ENDBRANCH   6   7
ENDBRANCH   5   6
ENDBRANCH   4   5
ENDBRANCH   3   4
ENDBRANCH   2   3
ENDBRANCH   1   2
BRANCH   1  13
ATOM     13  C   UNL     1     -10.334  25.389  23.519  1.00  0.00     0.000 C 
BRANCH  13  14
ATOM     14  C   UNL     1     -10.903  25.580  24.933  1.00  0.00     0.000 C 
BRANCH  14  15
ATOM     15  C   UNL     1      -9.865  26.233  25.859  1.00  0.00     0.000 C 
BRANCH  15  16
ATOM     16  C   UNL     1      -9.906  27.770  25.806  1.00  0.00     0.000 C 
BRANCH  16  17
ATOM     17  C   UNL     1      -8.737  28.365  25.006  1.00  0.00     0.000 C 
BRANCH  17  18
ATOM     18  C   UNL     1      -9.178  29.487  24.048  1.00  0.00     0.000 C 
BRANCH  18  19
ATOM     19  C   UNL     1     -10.668  29.408  23.650  1.00  0.00     0.000 C 
BRANCH  19  20
ATOM     20  C   UNL     1     -10.861  29.439  22.124  1.00  0.00     0.006 C 
BRANCH  20  21
ATOM     21  C   UNL     1     -11.125  28.043  21.544  1.00  0.00     0.053 C 
BRANCH  21  22
ATOM     22  C   UNL     1      -9.923  27.508  20.824  1.00  0.00     0.041 C 
ATOM     23  O   UNL     1     -10.062  26.760  19.822  1.00  0.00    -0.550 OA
ATOM     24  O   UNL     1      -8.647  27.798  21.295  1.00  0.00    -0.550 OA
ENDBRANCH  21  22
ENDBRANCH  20  21
ENDBRANCH  19  20
ENDBRANCH  18  19
ENDBRANCH  17  18
ENDBRANCH  16  17
ENDBRANCH  15  16
ENDBRANCH  14  15
ENDBRANCH  13  14
ENDBRANCH   1  13
TORSDOF 20
ENDMDL
MODEL 3
REMARK VINA RESULT:    -3.237     15.670     17.869
REMARK INTER + INTRA:          -9.261
REMARK INTER:                  -7.641
REMARK INTRA:                  -1.619
REMARK UNBOUND:                -2.239
REMARK SMILES CCCCCCCCCCCCCCCCCCCCCC(=O)[O-]
REMARK SMILES IDX 12 1 11 2 10 3 9 4 8 5 7 6 6 7 5 8 4 9 3 10 2 11 1 12 13 13
REMARK SMILES IDX 14 14 15 15 16 16 17 17 18 18 19 19 20 20 21 21 22 22 23 23
REMARK SMILES IDX 24 24
REMARK H PARENT
REMARK Flexibility Score: inf
ROOT
ATOM      1  C   UNL     1       7.928  24.963  29.582  1.00  0.00     0.000 C 
ENDROOT
BRANCH   1   2
ATOM      2  C   UNL     1       8.612  25.081  28.205  1.00  0.00     0.000 C 
BRANCH   2   3
ATOM      3  C   UNL     1       8.810  23.732  27.479  1.00  0.00     0.000 C 
BRANCH   3   4
ATOM      4  C   UNL     1       8.685  23.852  25.949  1.00  0.00    -0.000 C 
BRANCH   4   5
ATOM      5  C   UNL     1       8.784  25.304  25.454  1.00  0.00    -0.000 C 
BRANCH   5   6
ATOM      6  C   UNL     1       7.667  25.675  24.465  1.00  0.00    -0.000 C 
BRANCH   6   7
ATOM      7  C   UNL     1       6.963  24.415  23.936  1.00  0.00    -0.000 C 
BRANCH   7   8
ATOM      8  C   UNL     1       5.691  24.732  23.126  1.00  0.00    -0.000 C 
BRANCH   8   9
ATOM      9  C   UNL     1       4.419  24.964  23.963  1.00  0.00    -0.000 C 
BRANCH   9  10
ATOM     10  C   UNL     1       4.472  26.168  24.924  1.00  0.00    -0.000 C 
BRANCH  10  11
ATOM     11  C   UNL     1       4.189  25.808  26.398  1.00  0.00    -0.003 C 
ATOM     12  C   UNL     1       4.990  26.660  27.383  1.00  0.00     0.004 C 
ENDBRANCH  10  11
ENDBRANCH   9  10
ENDBRANCH   8   9
ENDBRANCH   7   8
ENDBRANCH   6   7
ENDBRANCH   5   6
ENDBRANCH   4   5
ENDBRANCH   3   4
ENDBRANCH   2   3
ENDBRANCH   1   2
BRANCH   1  13
ATOM     13  C   UNL     1       8.853  25.179  30.791  1.00  0.00     0.000 C 
BRANCH  13  14
ATOM     14  C   UNL     1       9.080  23.897  31.608  1.00  0.00     0.000 C 
BRANCH  14  15
ATOM     15  C   UNL     1       8.589  24.073  33.054  1.00  0.00     0.000 C 
BRANCH  15  16
ATOM     16  C   UNL     1       7.152  24.614  33.130  1.00  0.00     0.000 C 
BRANCH  16  17
ATOM     17  C   UNL     1       6.098  23.536  32.833  1.00  0.00     0.000 C 
BRANCH  17  18
ATOM     18  C   UNL     1       4.872  23.628  33.760  1.00  0.00     0.000 C 
BRANCH  18  19
ATOM     19  C   UNL     1       4.266  22.255  34.120  1.00  0.00     0.000 C 
BRANCH  19  20
ATOM     20  C   UNL     1       2.963  21.977  33.348  1.00  0.00     0.006 C 
BRANCH  20  21
ATOM     21  C   UNL     1       2.399  23.242  32.688  1.00  0.00     0.053 C 
BRANCH  21  22
ATOM     22  C   UNL     1       2.255  23.072  31.205  1.00  0.00     0.041 C 
ATOM     23  O   UNL     1       2.021  24.067  30.471  1.00  0.00    -0.550 OA
ATOM     24  O   UNL     1       2.328  21.803  30.642  1.00  0.00    -0.550 OA
ENDBRANCH  21  22
ENDBRANCH  20  21
ENDBRANCH  19  20
ENDBRANCH  18  19
ENDBRANCH  17  18
ENDBRANCH  16  17
ENDBRANCH  15  16
ENDBRANCH  14  15
ENDBRANCH  13  14
ENDBRANCH   1  13
TORSDOF 20
ENDMDL
MODEL 4
REMARK VINA RESULT:    -3.188     15.507     17.738
REMARK INTER + INTRA:          -9.154
REMARK INTER:                  -7.591
REMARK INTRA:                  -1.562
REMARK UNBOUND:                -2.239
REMARK SMILES CCCCCCCCCCCCCCCCCCCCCC(=O)[O-]
REMARK SMILES IDX 12 1 11 2 10 3 9 4 8 5 7 6 6 7 5 8 4 9 3 10 2 11 1 12 13 13
REMARK SMILES IDX 14 14 15 15 16 16 17 17 18 18 19 19 20 20 21 21 22 22 23 23
REMARK SMILES IDX 24 24
REMARK H PARENT
REMARK Flexibility Score: inf
ROOT
ATOM      1  C   UNL     1       8.263  25.628  29.088  1.00  0.00     0.000 C 
ENDROOT
BRANCH   1   2
ATOM      2  C   UNL     1       8.775  26.661  28.062  1.00  0.00     0.000 C 
BRANCH   2   3
ATOM      3  C   UNL     1       7.660  27.348  27.246  1.00  0.00     0.000 C 
BRANCH   3   4
ATOM      4  C   UNL     1       6.621  26.353  26.695  1.00  0.00    -0.000 C 
BRANCH   4   5
ATOM      5  C   UNL     1       5.201  26.623  27.217  1.00  0.00    -0.000 C 
BRANCH   5   6
ATOM      6  C   UNL     1       4.112  25.962  26.357  1.00  0.00    -0.000 C 
BRANCH   6   7
ATOM      7  C   UNL     1       4.418  26.132  24.861  1.00  0.00    -0.000 C 
BRANCH   7   8
ATOM      8  C   UNL     1       4.719  24.797  24.151  1.00  0.00    -0.000 C 
BRANCH   8   9
ATOM      9  C   UNL     1       5.638  24.901  22.920  1.00  0.00    -0.000 C 
BRANCH   9  10
ATOM     10  C   UNL     1       7.146  24.989  23.226  1.00  0.00    -0.000 C 
BRANCH  10  11
ATOM     11  C   UNL     1       7.589  24.154  24.446  1.00  0.00    -0.003 C 
ATOM     12  C   UNL     1       9.062  23.749  24.387  1.00  0.00     0.004 C 
ENDBRANCH  10  11
ENDBRANCH   9  10
ENDBRANCH   8   9
ENDBRANCH   7   8
ENDBRANCH   6   7
ENDBRANCH   5   6
ENDBRANCH   4   5
ENDBRANCH   3   4
ENDBRANCH   2   3
ENDBRANCH   1   2
BRANCH   1  13
ATOM     13  C   UNL     1       9.125  24.362  29.226  1.00  0.00     0.000 C 
BRANCH  13  14
ATOM     14  C   UNL     1       8.972  23.680  30.594  1.00  0.00     0.000 C 
BRANCH  14  15
ATOM     15  C   UNL     1       8.060  24.501  31.519  1.00  0.00     0.000 C 
BRANCH  15  16
ATOM     16  C   UNL     1       7.501  23.674  32.688  1.00  0.00     0.000 C 
BRANCH  16  17
ATOM     17  C   UNL     1       6.640  24.512  33.647  1.00  0.00     0.000 C 
BRANCH  17  18
ATOM     18  C   UNL     1       5.380  23.767  34.124  1.00  0.00     0.000 C 
BRANCH  18  19
ATOM     19  C   UNL     1       4.542  23.172  32.973  1.00  0.00     0.000 C 
BRANCH  19  20
ATOM     20  C   UNL     1       3.121  22.792  33.429  1.00  0.00     0.006 C 
BRANCH  20  21
ATOM     21  C   UNL     1       2.040  23.411  32.532  1.00  0.00     0.053 C 
BRANCH  21  22
ATOM     22  C   UNL     1       2.172  22.951  31.111  1.00  0.00     0.041 C 
ATOM     23  O   UNL     1       2.198  23.788  30.172  1.00  0.00    -0.550 OA
ATOM     24  O   UNL     1       2.216  21.591  30.823  1.00  0.00    -0.550 OA
ENDBRANCH  21  22
ENDBRANCH  20  21
ENDBRANCH  19  20
ENDBRANCH  18  19
ENDBRANCH  17  18
ENDBRANCH  16  17
ENDBRANCH  15  16
ENDBRANCH  14  15
ENDBRANCH  13  14
ENDBRANCH   1  13
TORSDOF 20
ENDMDL
MODEL 5
REMARK VINA RESULT:    -3.049      0.941      2.703
REMARK INTER + INTRA:          -8.853
REMARK INTER:                  -6.560
REMARK INTRA:                  -2.293
REMARK UNBOUND:                -2.239
REMARK SMILES CCCCCCCCCCCCCCCCCCCCCC(=O)[O-]
REMARK SMILES IDX 12 1 11 2 10 3 9 4 8 5 7 6 6 7 5 8 4 9 3 10 2 11 1 12 13 13
REMARK SMILES IDX 14 14 15 15 16 16 17 17 18 18 19 19 20 20 21 21 22 22 23 23
REMARK SMILES IDX 24 24
REMARK H PARENT
REMARK Flexibility Score: inf
ROOT
ATOM      1  C   UNL     1      -7.483  25.267  22.206  1.00  0.00     0.000 C 
ENDROOT
BRANCH   1   2
ATOM      2  C   UNL     1      -8.246  23.931  22.092  1.00  0.00     0.000 C 
BRANCH   2   3
ATOM      3  C   UNL     1      -9.547  23.872  22.921  1.00  0.00     0.000 C 
BRANCH   3   4
ATOM      4  C   UNL     1     -10.717  23.227  22.154  1.00  0.00    -0.000 C 
BRANCH   4   5
ATOM      5  C   UNL     1     -10.612  21.695  22.086  1.00  0.00    -0.000 C 
BRANCH   5   6
ATOM      6  C   UNL     1     -11.047  21.127  20.726  1.00  0.00    -0.000 C 
BRANCH   6   7
ATOM      7  C   UNL     1     -10.242  21.764  19.583  1.00  0.00    -0.000 C 
BRANCH   7   8
ATOM      8  C   UNL     1     -11.124  22.224  18.406  1.00  0.00    -0.000 C 
BRANCH   8   9
ATOM      9  C   UNL     1     -11.103  23.737  18.122  1.00  0.00    -0.000 C 
BRANCH   9  10
ATOM     10  C   UNL     1     -10.819  24.635  19.342  1.00  0.00    -0.000 C 
BRANCH  10  11
ATOM     11  C   UNL     1     -10.043  25.926  19.005  1.00  0.00    -0.003 C 
ATOM     12  C   UNL     1      -9.261  25.825  17.695  1.00  0.00     0.004 C 
ENDBRANCH  10  11
ENDBRANCH   9  10
ENDBRANCH   8   9
ENDBRANCH   7   8
ENDBRANCH   6   7
ENDBRANCH   5   6
ENDBRANCH   4   5
ENDBRANCH   3   4
ENDBRANCH   2   3
ENDBRANCH   1   2
BRANCH   1  13
ATOM     13  C   UNL     1      -8.258  26.406  22.889  1.00  0.00     0.000 C 
BRANCH  13  14
ATOM     14  C   UNL     1      -7.615  26.863  24.207  1.00  0.00     0.000 C 
BRANCH  14  15
ATOM     15  C   UNL     1      -7.760  25.784  25.292  1.00  0.00     0.000 C 
BRANCH  15  16
ATOM     16  C   UNL     1      -9.216  25.599  25.753  1.00  0.00     0.000 C 
BRANCH  16  17
ATOM     17  C   UNL     1      -9.796  26.867  26.401  1.00  0.00     0.000 C 
BRANCH  17  18
ATOM     18  C   UNL     1     -10.728  27.647  25.456  1.00  0.00     0.000 C 
BRANCH  18  19
ATOM     19  C   UNL     1     -10.368  29.143  25.331  1.00  0.00     0.000 C 
BRANCH  19  20
ATOM     20  C   UNL     1      -9.930  29.515  23.903  1.00  0.00     0.006 C 
BRANCH  20  21
ATOM     21  C   UNL     1     -11.123  29.647  22.947  1.00  0.00     0.053 C 
BRANCH  21  22
ATOM     22  C   UNL     1     -10.927  28.830  21.705  1.00  0.00     0.041 C 
ATOM     23  O   UNL     1     -10.632  29.388  20.616  1.00  0.00    -0.550 OA
ATOM     24  O   UNL     1     -11.123  27.454  21.742  1.00  0.00    -0.550 OA
ENDBRANCH  21  22
ENDBRANCH  20  21
ENDBRANCH  19  20
ENDBRANCH  18  19
ENDBRANCH  17  18
ENDBRANCH  16  17
ENDBRANCH  15  16
ENDBRANCH  14  15
ENDBRANCH  13  14
ENDBRANCH   1  13
TORSDOF 20
ENDMDL
MODEL 6
REMARK VINA RESULT:    -2.961      1.539      6.577
REMARK INTER + INTRA:          -8.663
REMARK INTER:                  -7.225
REMARK INTRA:                  -1.438
REMARK UNBOUND:                -2.239
REMARK SMILES CCCCCCCCCCCCCCCCCCCCCC(=O)[O-]
REMARK SMILES IDX 12 1 11 2 10 3 9 4 8 5 7 6 6 7 5 8 4 9 3 10 2 11 1 12 13 13
REMARK SMILES IDX 14 14 15 15 16 16 17 17 18 18 19 19 20 20 21 21 22 22 23 23
REMARK SMILES IDX 24 24
REMARK H PARENT
REMARK Flexibility Score: inf
ROOT
ATOM      1  C   UNL     1      -7.076  25.704  22.649  1.00  0.00     0.000 C 
ENDROOT
BRANCH   1   2
ATOM      2  C   UNL     1      -8.285  26.580  23.038  1.00  0.00     0.000 C 
BRANCH   2   3
ATOM      3  C   UNL     1      -8.731  27.567  21.938  1.00  0.00     0.000 C 
BRANCH   3   4
ATOM      4  C   UNL     1     -10.183  28.048  22.119  1.00  0.00    -0.000 C 
BRANCH   4   5
ATOM      5  C   UNL     1     -10.276  29.539  22.484  1.00  0.00    -0.000 C 
BRANCH   5   6
ATOM      6  C   UNL     1      -9.363  29.924  23.659  1.00  0.00    -0.000 C 
BRANCH   6   7
ATOM      7  C   UNL     1     -10.167  30.604  24.778  1.00  0.00    -0.000 C 
BRANCH   7   8
ATOM      8  C   UNL     1     -11.117  29.636  25.510  1.00  0.00    -0.000 C 
BRANCH   8   9
ATOM      9  C   UNL     1     -10.610  28.187  25.634  1.00  0.00    -0.000 C 
BRANCH   9  10
ATOM     10  C   UNL     1     -10.519  27.639  27.073  1.00  0.00    -0.000 C 
BRANCH  10  11
ATOM     11  C   UNL     1     -10.024  26.180  27.159  1.00  0.00    -0.003 C 
ATOM     12  C   UNL     1      -9.819  25.539  25.786  1.00  0.00     0.004 C 
ENDBRANCH  10  11
ENDBRANCH   9  10
ENDBRANCH   8   9
ENDBRANCH   7   8
ENDBRANCH   6   7
ENDBRANCH   5   6
ENDBRANCH   4   5
ENDBRANCH   3   4
ENDBRANCH   2   3
ENDBRANCH   1   2
BRANCH   1  13
ATOM     13  C   UNL     1      -7.413  24.464  21.804  1.00  0.00     0.000 C 
BRANCH  13  14
ATOM     14  C   UNL     1      -8.768  24.577  21.088  1.00  0.00     0.000 C 
BRANCH  14  15
ATOM     15  C   UNL     1      -9.912  24.107  22.000  1.00  0.00     0.000 C 
BRANCH  15  16
ATOM     16  C   UNL     1      -9.525  22.888  22.855  1.00  0.00     0.000 C 
BRANCH  16  17
ATOM     17  C   UNL     1      -9.456  21.589  22.036  1.00  0.00     0.000 C 
BRANCH  17  18
ATOM     18  C   UNL     1     -10.684  21.390  21.128  1.00  0.00     0.000 C 
BRANCH  18  19
ATOM     19  C   UNL     1     -10.368  21.527  19.624  1.00  0.00     0.000 C 
BRANCH  19  20
ATOM     20  C   UNL     1     -11.123  22.703  18.978  1.00  0.00     0.006 C 
BRANCH  20  21
ATOM     21  C   UNL     1     -10.277  23.425  17.921  1.00  0.00     0.053 C 
BRANCH  21  22
ATOM     22  C   UNL     1     -10.702  24.853  17.756  1.00  0.00     0.041 C 
ATOM     23  O   UNL     1     -11.077  25.524  18.753  1.00  0.00    -0.550 OA
ATOM     24  O   UNL     1     -10.734  25.426  16.489  1.00  0.00    -0.550 OA
ENDBRANCH  21  22
ENDBRANCH  20  21
ENDBRANCH  19  20
ENDBRANCH  18  19
ENDBRANCH  17  18
ENDBRANCH  16  17
ENDBRANCH  15  16
ENDBRANCH  14  15
ENDBRANCH  13  14
ENDBRANCH   1  13
TORSDOF 20
ENDMDL
MODEL 7
REMARK VINA RESULT:    -2.538     16.417     18.447
REMARK INTER + INTRA:          -7.745
REMARK INTER:                  -6.534
REMARK INTRA:                  -1.211
REMARK UNBOUND:                -2.239
REMARK SMILES CCCCCCCCCCCCCCCCCCCCCC(=O)[O-]
REMARK SMILES IDX 12 1 11 2 10 3 9 4 8 5 7 6 6 7 5 8 4 9 3 10 2 11 1 12 13 13
REMARK SMILES IDX 14 14 15 15 16 16 17 17 18 18 19 19 20 20 21 21 22 22 23 23
REMARK SMILES IDX 24 24
REMARK H PARENT
REMARK Flexibility Score: inf
ROOT
ATOM      1  C   UNL     1       9.074  25.222  21.729  1.00  0.00     0.000 C 
ENDROOT
BRANCH   1   2
ATOM      2  C   UNL     1       9.114  26.571  20.984  1.00  0.00     0.000 C 
BRANCH   2   3
ATOM      3  C   UNL     1       8.725  26.482  19.492  1.00  0.00     0.000 C 
BRANCH   3   4
ATOM      4  C   UNL     1       8.424  27.858  18.869  1.00  0.00    -0.000 C 
BRANCH   4   5
ATOM      5  C   UNL     1       8.796  27.931  17.379  1.00  0.00    -0.000 C 
BRANCH   5   6
ATOM      6  C   UNL     1       8.666  29.349  16.800  1.00  0.00    -0.000 C 
BRANCH   6   7
ATOM      7  C   UNL     1       7.215  29.642  16.389  1.00  0.00    -0.000 C 
BRANCH   7   8
ATOM      8  C   UNL     1       6.388  28.364  16.146  1.00  0.00    -0.000 C 
BRANCH   8   9
ATOM      9  C   UNL     1       4.887  28.481  16.474  1.00  0.00    -0.000 C 
BRANCH   9  10
ATOM     10  C   UNL     1       4.555  29.181  17.806  1.00  0.00    -0.000 C 
BRANCH  10  11
ATOM     11  C   UNL     1       3.435  28.492  18.615  1.00  0.00    -0.003 C 
ATOM     12  C   UNL     1       3.844  28.184  20.056  1.00  0.00     0.004 C 
ENDBRANCH  10  11
ENDBRANCH   9  10
ENDBRANCH   8   9
ENDBRANCH   7   8
ENDBRANCH   6   7
ENDBRANCH   5   6
ENDBRANCH   4   5
ENDBRANCH   3   4
ENDBRANCH   2   3
ENDBRANCH   1   2
BRANCH   1  13
ATOM     13  C   UNL     1       9.009  25.324  23.262  1.00  0.00     0.000 C 
BRANCH  13  14
ATOM     14  C   UNL     1       7.981  24.365  23.883  1.00  0.00     0.000 C 
BRANCH  14  15
ATOM     15  C   UNL     1       6.746  25.132  24.382  1.00  0.00     0.000 C 
BRANCH  15  16
ATOM     16  C   UNL     1       7.106  26.268  25.354  1.00  0.00     0.000 C 
BRANCH  16  17
ATOM     17  C   UNL     1       6.320  26.187  26.673  1.00  0.00     0.000 C 
BRANCH  17  18
ATOM     18  C   UNL     1       7.234  26.046  27.904  1.00  0.00     0.000 C 
BRANCH  18  19
ATOM     19  C   UNL     1       8.463  25.144  27.661  1.00  0.00     0.000 C 
BRANCH  19  20
ATOM     20  C   UNL     1       8.969  24.492  28.960  1.00  0.00     0.006 C 
BRANCH  20  21
ATOM     21  C   UNL     1       8.874  25.443  30.162  1.00  0.00     0.053 C 
BRANCH  21  22
ATOM     22  C   UNL     1       8.321  24.749  31.371  1.00  0.00     0.041 C 
ATOM     23  O   UNL     1       7.511  25.343  32.129  1.00  0.00    -0.550 OA
ATOM     24  O   UNL     1       8.745  23.463  31.687  1.00  0.00    -0.550 OA
ENDBRANCH  21  22
ENDBRANCH  20  21
ENDBRANCH  19  20
ENDBRANCH  18  19
ENDBRANCH  17  18
ENDBRANCH  16  17
ENDBRANCH  15  16
ENDBRANCH  14  15
ENDBRANCH  13  14
ENDBRANCH   1  13
TORSDOF 20
ENDMDL
MODEL 8
REMARK VINA RESULT:    -2.438     15.409     18.171
REMARK INTER + INTRA:          -7.528
REMARK INTER:                  -5.703
REMARK INTRA:                  -1.825
REMARK UNBOUND:                -2.239
REMARK SMILES CCCCCCCCCCCCCCCCCCCCCC(=O)[O-]
REMARK SMILES IDX 12 1 11 2 10 3 9 4 8 5 7 6 6 7 5 8 4 9 3 10 2 11 1 12 13 13
REMARK SMILES IDX 14 14 15 15 16 16 17 17 18 18 19 19 20 20 21 21 22 22 23 23
REMARK SMILES IDX 24 24
REMARK H PARENT
REMARK Flexibility Score: inf
ROOT
ATOM      1  C   UNL     1       8.228  25.463  22.100  1.00  0.00     0.000 C 
ENDROOT
BRANCH   1   2
ATOM      2  C   UNL     1       9.114  25.348  23.357  1.00  0.00     0.000 C 
BRANCH   2   3
ATOM      3  C   UNL     1       8.997  23.995  24.092  1.00  0.00     0.000 C 
BRANCH   3   4
ATOM      4  C   UNL     1       8.182  24.090  25.396  1.00  0.00    -0.000 C 
BRANCH   4   5
ATOM      5  C   UNL     1       9.035  24.510  26.603  1.00  0.00    -0.000 C 
BRANCH   5   6
ATOM      6  C   UNL     1       8.752  25.948  27.064  1.00  0.00    -0.000 C 
BRANCH   6   7
ATOM      7  C   UNL     1       7.424  26.026  27.833  1.00  0.00    -0.000 C 
BRANCH   7   8
ATOM      8  C   UNL     1       6.359  26.875  27.111  1.00  0.00    -0.000 C 
BRANCH   8   9
ATOM      9  C   UNL     1       4.914  26.352  27.226  1.00  0.00    -0.000 C 
BRANCH   9  10
ATOM     10  C   UNL     1       4.311  25.787  25.925  1.00  0.00    -0.000 C 
BRANCH  10  11
ATOM     11  C   UNL     1       5.236  25.917  24.696  1.00  0.00    -0.003 C 
ATOM     12  C   UNL     1       4.879  24.937  23.577  1.00  0.00     0.004 C 
ENDBRANCH  10  11
ENDBRANCH   9  10
ENDBRANCH   8   9
ENDBRANCH   7   8
ENDBRANCH   6   7
ENDBRANCH   5   6
ENDBRANCH   4   5
ENDBRANCH   3   4
ENDBRANCH   2   3
ENDBRANCH   1   2
BRANCH   1  13
ATOM     13  C   UNL     1       8.987  25.712  20.786  1.00  0.00     0.000 C 
BRANCH  13  14
ATOM     14  C   UNL     1       8.256  26.685  19.848  1.00  0.00     0.000 C 
BRANCH  14  15
ATOM     15  C   UNL     1       9.125  27.917  19.550  1.00  0.00     0.000 C 
BRANCH  15  16
ATOM     16  C   UNL     1       8.753  28.598  18.221  1.00  0.00     0.000 C 
BRANCH  16  17
ATOM     17  C   UNL     1       8.301  27.593  17.149  1.00  0.00     0.000 C 
BRANCH  17  18
ATOM     18  C   UNL     1       7.900  28.272  15.827  1.00  0.00     0.000 C 
BRANCH  18  19
ATOM     19  C   UNL     1       6.435  28.011  15.419  1.00  0.00     0.000 C 
BRANCH  19  20
ATOM     20  C   UNL     1       5.483  28.043  16.628  1.00  0.00     0.006 C 
BRANCH  20  21
ATOM     21  C   UNL     1       4.628  29.317  16.660  1.00  0.00     0.053 C 
BRANCH  21  22
ATOM     22  C   UNL     1       4.399  29.793  18.063  1.00  0.00     0.041 C 
ATOM     23  O   UNL     1       4.177  28.966  18.986  1.00  0.00    -0.550 OA
ATOM     24  O   UNL     1       4.381  31.155  18.340  1.00  0.00    -0.550 OA
ENDBRANCH  21  22
ENDBRANCH  20  21
ENDBRANCH  19  20
ENDBRANCH  18  19
ENDBRANCH  17  18
ENDBRANCH  16  17
ENDBRANCH  15  16
ENDBRANCH  14  15
ENDBRANCH  13  14
ENDBRANCH   1  13
TORSDOF 20
ENDMDL
MODEL 9
REMARK VINA RESULT:    -2.166     16.602     18.687
REMARK INTER + INTRA:          -6.939
REMARK INTER:                  -5.705
REMARK INTRA:                  -1.234
REMARK UNBOUND:                -2.239
REMARK SMILES CCCCCCCCCCCCCCCCCCCCCC(=O)[O-]
REMARK SMILES IDX 12 1 11 2 10 3 9 4 8 5 7 6 6 7 5 8 4 9 3 10 2 11 1 12 13 13
REMARK SMILES IDX 14 14 15 15 16 16 17 17 18 18 19 19 20 20 21 21 22 22 23 23
REMARK SMILES IDX 24 24
REMARK H PARENT
REMARK Flexibility Score: inf
ROOT
ATOM      1  C   UNL     1       7.716  24.876  23.274  1.00  0.00     0.000 C 
ENDROOT
BRANCH   1   2
ATOM      2  C   UNL     1       8.565  26.077  22.807  1.00  0.00     0.000 C 
BRANCH   2   3
ATOM      3  C   UNL     1       9.125  25.936  21.375  1.00  0.00     0.000 C 
BRANCH   3   4
ATOM      4  C   UNL     1       8.274  26.674  20.324  1.00  0.00    -0.000 C 
BRANCH   4   5
ATOM      5  C   UNL     1       9.125  27.381  19.257  1.00  0.00    -0.000 C 
BRANCH   5   6
ATOM      6  C   UNL     1       8.605  27.150  17.830  1.00  0.00    -0.000 C 
BRANCH   6   7
ATOM      7  C   UNL     1       7.747  28.335  17.360  1.00  0.00    -0.000 C 
BRANCH   7   8
ATOM      8  C   UNL     1       6.829  27.982  16.174  1.00  0.00    -0.000 C 
BRANCH   8   9
ATOM      9  C   UNL     1       5.435  28.638  16.204  1.00  0.00    -0.000 C 
BRANCH   9  10
ATOM     10  C   UNL     1       5.287  29.829  17.171  1.00  0.00    -0.000 C 
BRANCH  10  11
ATOM     11  C   UNL     1       4.240  29.609  18.283  1.00  0.00    -0.003 C 
ATOM     12  C   UNL     1       4.566  28.414  19.180  1.00  0.00     0.004 C 
ENDBRANCH  10  11
ENDBRANCH   9  10
ENDBRANCH   8   9
ENDBRANCH   7   8
ENDBRANCH   6   7
ENDBRANCH   5   6
ENDBRANCH   4   5
ENDBRANCH   3   4
ENDBRANCH   2   3
ENDBRANCH   1   2
BRANCH   1  13
ATOM     13  C   UNL     1       8.505  23.743  23.951  1.00  0.00     0.000 C 
BRANCH  13  14
ATOM     14  C   UNL     1       9.079  24.146  25.318  1.00  0.00     0.000 C 
BRANCH  14  15
ATOM     15  C   UNL     1       7.984  24.737  26.221  1.00  0.00     0.000 C 
BRANCH  15  16
ATOM     16  C   UNL     1       8.330  26.148  26.726  1.00  0.00     0.000 C 
BRANCH  16  17
ATOM     17  C   UNL     1       8.356  26.236  28.260  1.00  0.00     0.000 C 
BRANCH  17  18
ATOM     18  C   UNL     1       8.904  24.959  28.923  1.00  0.00     0.000 C 
BRANCH  18  19
ATOM     19  C   UNL     1       8.988  25.048  30.461  1.00  0.00     0.000 C 
BRANCH  19  20
ATOM     20  C   UNL     1       7.602  25.228  31.107  1.00  0.00     0.006 C 
BRANCH  20  21
ATOM     21  C   UNL     1       7.154  23.978  31.877  1.00  0.00     0.053 C 
BRANCH  21  22
ATOM     22  C   UNL     1       6.321  24.336  33.071  1.00  0.00     0.041 C 
ATOM     23  O   UNL     1       5.205  23.783  33.257  1.00  0.00    -0.550 OA
ATOM     24  O   UNL     1       6.757  25.320  33.952  1.00  0.00    -0.550 OA
ENDBRANCH  21  22
ENDBRANCH  20  21
ENDBRANCH  19  20
ENDBRANCH  18  19
ENDBRANCH  17  18
ENDBRANCH  16  17
ENDBRANCH  15  16
ENDBRANCH  14  15
ENDBRANCH  13  14
ENDBRANCH   1  13
TORSDOF 20
ENDMDL
