MODEL 1
REMARK VINA RESULT:    -6.581      0.000      0.000
REMARK INTER + INTRA:          -8.218
REMARK INTER:                  -7.927
REMARK INTRA:                  -0.290
REMARK UNBOUND:                -0.290
REMARK SMILES O=c1c(O)c(-c2ccc(O)c(O)c2)oc2cc(O)cc(O)c12
REMARK SMILES IDX 5 1 3 2 2 3 1 4 22 5 20 6 19 7 17 8 16 9 15 10 14 11 6 12
REMARK SMILES IDX 7 13 8 14 9 15 13 16 11 17 10 18 12 20 4 22 21 24 18 26
REMARK H PARENT 10 19 12 21 4 23 21 25 18 27
REMARK Flexibility Score: inf
ROOT
ATOM      1  C   UNL     1      30.691  76.058  37.550  1.00  0.00     0.180 A 
ATOM      2  C   UNL     1      31.727  76.577  38.345  1.00  0.00     0.208 A 
ATOM      3  C   UNL     1      31.954  77.962  38.349  1.00  0.00     0.238 A 
ATOM      4  O   UNL     1      32.931  78.412  39.004  1.00  0.00    -0.285 OA
ATOM      5  C   UNL     1      31.107  78.818  37.603  1.00  0.00     0.111 A 
ATOM      6  C   UNL     1      31.215  80.242  37.570  1.00  0.00     0.134 A 
ATOM      7  C   UNL     1      30.389  80.977  36.713  1.00  0.00     0.093 A 
ATOM      8  C   UNL     1      29.413  80.347  35.936  1.00  0.00     0.123 A 
ATOM      9  C   UNL     1      29.262  78.965  36.003  1.00  0.00     0.094 A 
ATOM     10  C   UNL     1      30.098  78.199  36.819  1.00  0.00     0.146 A 
ATOM     11  O   UNL     1      29.933  76.882  36.836  1.00  0.00    -0.452 OA
ENDROOT
BRANCH   1  12
ATOM     12  C   UNL     1      30.400  74.608  37.483  1.00  0.00     0.025 A 
ATOM     13  C   UNL     1      29.658  74.005  38.510  1.00  0.00     0.016 A 
ATOM     14  C   UNL     1      29.352  72.642  38.457  1.00  0.00     0.051 A 
ATOM     15  C   UNL     1      29.769  71.866  37.372  1.00  0.00     0.157 A 
ATOM     16  C   UNL     1      30.801  73.830  36.382  1.00  0.00     0.062 A 
ATOM     17  C   UNL     1      30.494  72.462  36.326  1.00  0.00     0.158 A 
BRANCH  15  18
ATOM     18  O   UNL     1      29.453  70.508  37.347  1.00  0.00    -0.504 OA
ATOM     19  H   UNL     1      28.834  70.112  36.651  1.00  0.00     0.293 HD
ENDBRANCH  15  18
BRANCH  17  20
ATOM     20  O   UNL     1      30.900  71.697  35.234  1.00  0.00    -0.504 OA
ATOM     21  H   UNL     1      31.562  70.936  35.336  1.00  0.00     0.293 HD
ENDBRANCH  17  20
ENDBRANCH   1  12
BRANCH   2  22
ATOM     22  O   UNL     1      32.504  75.723  39.134  1.00  0.00    -0.502 OA
ATOM     23  H   UNL     1      32.436  75.704  40.144  1.00  0.00     0.293 HD
ENDBRANCH   2  22
BRANCH   6  24
ATOM     24  O   UNL     1      32.095  80.979  38.369  1.00  0.00    -0.507 OA
ATOM     25  H   UNL     1      31.821  81.549  39.155  1.00  0.00     0.293 HD
ENDBRANCH   6  24
BRANCH   8  26
ATOM     26  O   UNL     1      28.582  81.089  35.099  1.00  0.00    -0.508 OA
ATOM     27  H   UNL     1      27.639  80.787  34.886  1.00  0.00     0.293 HD
ENDBRANCH   8  26
TORSDOF 6
ENDMDL
MODEL 2
REMARK VINA RESULT:    -6.538      2.203      2.494
REMARK INTER + INTRA:          -8.166
REMARK INTER:                  -7.877
REMARK INTRA:                  -0.288
REMARK UNBOUND:                -0.290
REMARK SMILES O=c1c(O)c(-c2ccc(O)c(O)c2)oc2cc(O)cc(O)c12
REMARK SMILES IDX 5 1 3 2 2 3 1 4 22 5 20 6 19 7 17 8 16 9 15 10 14 11 6 12
REMARK SMILES IDX 7 13 8 14 9 15 13 16 11 17 10 18 12 20 4 22 21 24 18 26
REMARK H PARENT 10 19 12 21 4 23 21 25 18 27
REMARK Flexibility Score: inf
ROOT
ATOM      1  C   UNL     1      31.670  76.382  38.895  1.00  0.00     0.180 A 
ATOM      2  C   UNL     1      32.708  77.322  39.011  1.00  0.00     0.208 A 
ATOM      3  C   UNL     1      32.620  78.526  38.294  1.00  0.00     0.238 A 
ATOM      4  O   UNL     1      33.587  79.330  38.343  1.00  0.00    -0.285 OA
ATOM      5  C   UNL     1      31.469  78.801  37.515  1.00  0.00     0.111 A 
ATOM      6  C   UNL     1      31.252  80.007  36.783  1.00  0.00     0.134 A 
ATOM      7  C   UNL     1      30.124  80.124  35.962  1.00  0.00     0.093 A 
ATOM      8  C   UNL     1      29.172  79.104  35.897  1.00  0.00     0.123 A 
ATOM      9  C   UNL     1      29.347  77.945  36.649  1.00  0.00     0.094 A 
ATOM     10  C   UNL     1      30.481  77.783  37.447  1.00  0.00     0.146 A 
ATOM     11  O   UNL     1      30.618  76.653  38.132  1.00  0.00    -0.452 OA
ENDROOT
BRANCH   1  12
ATOM     12  C   UNL     1      31.698  75.085  39.608  1.00  0.00     0.025 A 
ATOM     13  C   UNL     1      31.342  75.036  40.965  1.00  0.00     0.016 A 
ATOM     14  C   UNL     1      31.341  73.819  41.653  1.00  0.00     0.051 A 
ATOM     15  C   UNL     1      31.679  72.634  40.994  1.00  0.00     0.157 A 
ATOM     16  C   UNL     1      32.018  73.888  38.941  1.00  0.00     0.062 A 
ATOM     17  C   UNL     1      32.016  72.666  39.630  1.00  0.00     0.158 A 
BRANCH  15  18
ATOM     18  O   UNL     1      31.672  71.435  41.706  1.00  0.00    -0.504 OA
ATOM     19  H   UNL     1      32.098  70.591  41.344  1.00  0.00     0.293 HD
ENDBRANCH  15  18
BRANCH  17  20
ATOM     20  O   UNL     1      32.340  71.486  38.963  1.00  0.00    -0.504 OA
ATOM     21  H   UNL     1      33.296  71.267  38.707  1.00  0.00     0.293 HD
ENDBRANCH  17  20
ENDBRANCH   1  12
BRANCH   2  22
ATOM     22  O   UNL     1      33.800  77.065  39.845  1.00  0.00    -0.502 OA
ATOM     23  H   UNL     1      34.184  77.765  40.467  1.00  0.00     0.293 HD
ENDBRANCH   2  22
BRANCH   6  24
ATOM     24  O   UNL     1      32.093  81.123  36.845  1.00  0.00    -0.507 OA
ATOM     25  H   UNL     1      33.015  81.129  37.252  1.00  0.00     0.293 HD
ENDBRANCH   6  24
BRANCH   8  26
ATOM     26  O   UNL     1      28.043  79.235  35.091  1.00  0.00    -0.508 OA
ATOM     27  H   UNL     1      27.348  78.501  35.029  1.00  0.00     0.293 HD
ENDBRANCH   8  26
TORSDOF 6
ENDMDL
MODEL 3
REMARK VINA RESULT:    -6.522      1.909      2.410
REMARK INTER + INTRA:          -8.147
REMARK INTER:                  -7.938
REMARK INTRA:                  -0.209
REMARK UNBOUND:                -0.290
REMARK SMILES O=c1c(O)c(-c2ccc(O)c(O)c2)oc2cc(O)cc(O)c12
REMARK SMILES IDX 5 1 3 2 2 3 1 4 22 5 20 6 19 7 17 8 16 9 15 10 14 11 6 12
REMARK SMILES IDX 7 13 8 14 9 15 13 16 11 17 10 18 12 20 4 22 21 24 18 26
REMARK H PARENT 10 19 12 21 4 23 21 25 18 27
REMARK Flexibility Score: inf
ROOT
ATOM      1  C   UNL     1      29.934  76.148  38.304  1.00  0.00     0.180 A 
ATOM      2  C   UNL     1      30.695  76.113  39.484  1.00  0.00     0.208 A 
ATOM      3  C   UNL     1      31.633  77.131  39.720  1.00  0.00     0.238 A 
ATOM      4  O   UNL     1      32.364  77.053  40.742  1.00  0.00    -0.285 OA
ATOM      5  C   UNL     1      31.759  78.201  38.800  1.00  0.00     0.111 A 
ATOM      6  C   UNL     1      32.645  79.309  38.959  1.00  0.00     0.134 A 
ATOM      7  C   UNL     1      32.761  80.254  37.933  1.00  0.00     0.093 A 
ATOM      8  C   UNL     1      31.976  80.166  36.781  1.00  0.00     0.123 A 
ATOM      9  C   UNL     1      31.069  79.119  36.640  1.00  0.00     0.094 A 
ATOM     10  C   UNL     1      30.959  78.139  37.629  1.00  0.00     0.146 A 
ATOM     11  O   UNL     1      30.096  77.146  37.444  1.00  0.00    -0.452 OA
ENDROOT
BRANCH   1  12
ATOM     12  C   UNL     1      28.935  75.103  37.979  1.00  0.00     0.025 A 
ATOM     13  C   UNL     1      27.578  75.450  37.889  1.00  0.00     0.016 A 
ATOM     14  C   UNL     1      26.621  74.486  37.563  1.00  0.00     0.051 A 
ATOM     15  C   UNL     1      27.006  73.167  37.306  1.00  0.00     0.157 A 
ATOM     16  C   UNL     1      29.323  73.780  37.700  1.00  0.00     0.062 A 
ATOM     17  C   UNL     1      28.363  72.811  37.371  1.00  0.00     0.158 A 
BRANCH  15  18
ATOM     18  O   UNL     1      26.028  72.225  36.985  1.00  0.00    -0.504 OA
ATOM     19  H   UNL     1      25.826  71.434  37.584  1.00  0.00     0.293 HD
ENDBRANCH  15  18
BRANCH  17  20
ATOM     20  O   UNL     1      28.755  71.501  37.102  1.00  0.00    -0.504 OA
ATOM     21  H   UNL     1      29.725  71.214  37.162  1.00  0.00     0.293 HD
ENDBRANCH  17  20
ENDBRANCH   1  12
BRANCH   2  22
ATOM     22  O   UNL     1      30.501  75.090  40.417  1.00  0.00    -0.502 OA
ATOM     23  H   UNL     1      31.160  74.903  41.163  1.00  0.00     0.293 HD
ENDBRANCH   2  22
BRANCH   6  24
ATOM     24  O   UNL     1      33.409  79.542  40.107  1.00  0.00    -0.507 OA
ATOM     25  H   UNL     1      33.037  79.811  41.004  1.00  0.00     0.293 HD
ENDBRANCH   6  24
BRANCH   8  26
ATOM     26  O   UNL     1      32.085  81.120  35.771  1.00  0.00    -0.508 OA
ATOM     27  H   UNL     1      32.516  80.902  34.881  1.00  0.00     0.293 HD
ENDBRANCH   8  26
TORSDOF 6
ENDMDL
MODEL 4
REMARK VINA RESULT:    -6.489      6.711      9.966
REMARK INTER + INTRA:          -8.106
REMARK INTER:                  -7.776
REMARK INTRA:                  -0.330
REMARK UNBOUND:                -0.290
REMARK SMILES O=c1c(O)c(-c2ccc(O)c(O)c2)oc2cc(O)cc(O)c12
REMARK SMILES IDX 5 1 3 2 2 3 1 4 22 5 20 6 19 7 17 8 16 9 15 10 14 11 6 12
REMARK SMILES IDX 7 13 8 14 9 15 13 16 11 17 10 18 12 20 4 22 21 24 18 26
REMARK H PARENT 10 19 12 21 4 23 21 25 18 27
REMARK Flexibility Score: inf
ROOT
ATOM      1  C   UNL     1      31.332  66.998  40.725  1.00  0.00     0.180 A 
ATOM      2  C   UNL     1      31.099  66.891  42.106  1.00  0.00     0.208 A 
ATOM      3  C   UNL     1      31.053  68.061  42.882  1.00  0.00     0.238 A 
ATOM      4  O   UNL     1      30.919  67.953  44.129  1.00  0.00    -0.285 OA
ATOM      5  C   UNL     1      31.182  69.326  42.259  1.00  0.00     0.111 A 
ATOM      6  C   UNL     1      31.106  70.579  42.939  1.00  0.00     0.134 A 
ATOM      7  C   UNL     1      31.355  71.763  42.236  1.00  0.00     0.093 A 
ATOM      8  C   UNL     1      31.615  71.746  40.863  1.00  0.00     0.123 A 
ATOM      9  C   UNL     1      31.637  70.533  40.180  1.00  0.00     0.094 A 
ATOM     10  C   UNL     1      31.431  69.331  40.861  1.00  0.00     0.146 A 
ATOM     11  O   UNL     1      31.482  68.196  40.173  1.00  0.00    -0.452 OA
ENDROOT
BRANCH   1  12
ATOM     12  C   UNL     1      31.409  65.810  39.844  1.00  0.00     0.025 A 
ATOM     13  C   UNL     1      30.245  65.341  39.215  1.00  0.00     0.016 A 
ATOM     14  C   UNL     1      30.298  64.235  38.363  1.00  0.00     0.051 A 
ATOM     15  C   UNL     1      31.514  63.591  38.115  1.00  0.00     0.157 A 
ATOM     16  C   UNL     1      32.635  65.174  39.577  1.00  0.00     0.062 A 
ATOM     17  C   UNL     1      32.690  64.065  38.720  1.00  0.00     0.158 A 
BRANCH  15  18
ATOM     18  O   UNL     1      31.535  62.488  37.262  1.00  0.00    -0.504 OA
ATOM     19  H   UNL     1      30.760  62.264  36.650  1.00  0.00     0.293 HD
ENDBRANCH  15  18
BRANCH  17  20
ATOM     20  O   UNL     1      33.908  63.436  38.466  1.00  0.00    -0.504 OA
ATOM     21  H   UNL     1      34.788  63.933  38.544  1.00  0.00     0.293 HD
ENDBRANCH  17  20
ENDBRANCH   1  12
BRANCH   2  22
ATOM     22  O   UNL     1      30.897  65.638  42.691  1.00  0.00    -0.502 OA
ATOM     23  H   UNL     1      31.252  64.783  42.281  1.00  0.00     0.293 HD
ENDBRANCH   2  22
BRANCH   6  24
ATOM     24  O   UNL     1      30.766  70.718  44.289  1.00  0.00    -0.507 OA
ATOM     25  H   UNL     1      29.844  70.576  44.670  1.00  0.00     0.293 HD
ENDBRANCH   6  24
BRANCH   8  26
ATOM     26  O   UNL     1      31.844  72.930  40.168  1.00  0.00    -0.508 OA
ATOM     27  H   UNL     1      32.737  73.408  40.215  1.00  0.00     0.293 HD
ENDBRANCH   8  26
TORSDOF 6
ENDMDL
MODEL 5
REMARK VINA RESULT:    -6.474      5.157      9.672
REMARK INTER + INTRA:          -8.089
REMARK INTER:                  -7.910
REMARK INTRA:                  -0.178
REMARK UNBOUND:                -0.290
REMARK SMILES O=c1c(O)c(-c2ccc(O)c(O)c2)oc2cc(O)cc(O)c12
REMARK SMILES IDX 5 1 3 2 2 3 1 4 22 5 20 6 19 7 17 8 16 9 15 10 14 11 6 12
REMARK SMILES IDX 7 13 8 14 9 15 13 16 11 17 10 18 12 20 4 22 21 24 18 26
REMARK H PARENT 10 19 12 21 4 23 21 25 18 27
REMARK Flexibility Score: inf
ROOT
ATOM      1  C   UNL     1      31.740  69.743  38.398  1.00  0.00     0.180 A 
ATOM      2  C   UNL     1      31.899  68.406  37.996  1.00  0.00     0.208 A 
ATOM      3  C   UNL     1      31.797  67.388  38.959  1.00  0.00     0.238 A 
ATOM      4  O   UNL     1      32.015  66.200  38.605  1.00  0.00    -0.285 OA
ATOM      5  C   UNL     1      31.481  67.715  40.300  1.00  0.00     0.111 A 
ATOM      6  C   UNL     1      31.309  66.763  41.350  1.00  0.00     0.134 A 
ATOM      7  C   UNL     1      31.103  67.209  42.660  1.00  0.00     0.093 A 
ATOM      8  C   UNL     1      30.999  68.572  42.950  1.00  0.00     0.123 A 
ATOM      9  C   UNL     1      31.111  69.507  41.924  1.00  0.00     0.094 A 
ATOM     10  C   UNL     1      31.355  69.095  40.612  1.00  0.00     0.146 A 
ATOM     11  O   UNL     1      31.476  70.022  39.669  1.00  0.00    -0.452 OA
ENDROOT
BRANCH   1  12
ATOM     12  C   UNL     1      31.847  70.871  37.445  1.00  0.00     0.025 A 
ATOM     13  C   UNL     1      30.869  71.029  36.451  1.00  0.00     0.016 A 
ATOM     14  C   UNL     1      30.938  72.098  35.553  1.00  0.00     0.051 A 
ATOM     15  C   UNL     1      31.974  73.032  35.645  1.00  0.00     0.157 A 
ATOM     16  C   UNL     1      32.877  71.823  37.548  1.00  0.00     0.062 A 
ATOM     17  C   UNL     1      32.947  72.897  36.650  1.00  0.00     0.158 A 
BRANCH  15  18
ATOM     18  O   UNL     1      32.019  74.087  34.734  1.00  0.00    -0.504 OA
ATOM     19  H   UNL     1      32.534  74.025  33.863  1.00  0.00     0.293 HD
ENDBRANCH  15  18
BRANCH  17  20
ATOM     20  O   UNL     1      33.975  73.834  36.755  1.00  0.00    -0.504 OA
ATOM     21  H   UNL     1      34.197  74.465  35.995  1.00  0.00     0.293 HD
ENDBRANCH  17  20
ENDBRANCH   1  12
BRANCH   2  22
ATOM     22  O   UNL     1      32.134  68.098  36.653  1.00  0.00    -0.502 OA
ATOM     23  H   UNL     1      32.841  67.434  36.363  1.00  0.00     0.293 HD
ENDBRANCH   2  22
BRANCH   6  24
ATOM     24  O   UNL     1      31.305  65.378  41.157  1.00  0.00    -0.507 OA
ATOM     25  H   UNL     1      30.700  64.730  41.637  1.00  0.00     0.293 HD
ENDBRANCH   6  24
BRANCH   8  26
ATOM     26  O   UNL     1      30.776  69.007  44.254  1.00  0.00    -0.508 OA
ATOM     27  H   UNL     1      29.860  68.951  44.683  1.00  0.00     0.293 HD
ENDBRANCH   8  26
TORSDOF 6
ENDMDL
MODEL 6
REMARK VINA RESULT:    -6.457      3.456      7.991
REMARK INTER + INTRA:          -8.069
REMARK INTER:                  -7.798
REMARK INTRA:                  -0.270
REMARK UNBOUND:                -0.290
REMARK SMILES O=c1c(O)c(-c2ccc(O)c(O)c2)oc2cc(O)cc(O)c12
REMARK SMILES IDX 5 1 3 2 2 3 1 4 22 5 20 6 19 7 17 8 16 9 15 10 14 11 6 12
REMARK SMILES IDX 7 13 8 14 9 15 13 16 11 17 10 18 12 20 4 22 21 24 18 26
REMARK H PARENT 10 19 12 21 4 23 21 25 18 27
REMARK Flexibility Score: inf
ROOT
ATOM      1  C   UNL     1      31.712  75.506  40.269  1.00  0.00     0.180 A 
ATOM      2  C   UNL     1      31.980  74.945  39.009  1.00  0.00     0.208 A 
ATOM      3  C   UNL     1      31.953  73.549  38.865  1.00  0.00     0.238 A 
ATOM      4  O   UNL     1      32.268  73.051  37.753  1.00  0.00    -0.285 OA
ATOM      5  C   UNL     1      31.602  72.733  39.968  1.00  0.00     0.111 A 
ATOM      6  C   UNL     1      31.497  71.309  39.926  1.00  0.00     0.134 A 
ATOM      7  C   UNL     1      31.246  70.600  41.106  1.00  0.00     0.093 A 
ATOM      8  C   UNL     1      31.031  71.265  42.315  1.00  0.00     0.123 A 
ATOM      9  C   UNL     1      31.076  72.656  42.357  1.00  0.00     0.094 A 
ATOM     10  C   UNL     1      31.363  73.391  41.204  1.00  0.00     0.146 A 
ATOM     11  O   UNL     1      31.417  74.715  41.293  1.00  0.00    -0.452 OA
ENDROOT
BRANCH   1  12
ATOM     12  C   UNL     1      31.736  76.968  40.502  1.00  0.00     0.025 A 
ATOM     13  C   UNL     1      30.530  77.653  40.716  1.00  0.00     0.016 A 
ATOM     14  C   UNL     1      30.530  79.029  40.959  1.00  0.00     0.051 A 
ATOM     15  C   UNL     1      31.734  79.738  41.008  1.00  0.00     0.157 A 
ATOM     16  C   UNL     1      32.948  77.680  40.572  1.00  0.00     0.062 A 
ATOM     17  C   UNL     1      32.950  79.060  40.818  1.00  0.00     0.158 A 
BRANCH  15  18
ATOM     18  O   UNL     1      31.703  81.111  41.250  1.00  0.00    -0.504 OA
ATOM     19  H   UNL     1      31.685  81.790  40.499  1.00  0.00     0.293 HD
ENDBRANCH  15  18
BRANCH  17  20
ATOM     20  O   UNL     1      34.155  79.759  40.880  1.00  0.00    -0.504 OA
ATOM     21  H   UNL     1      34.210  80.687  41.284  1.00  0.00     0.293 HD
ENDBRANCH  17  20
ENDBRANCH   1  12
BRANCH   2  22
ATOM     22  O   UNL     1      32.250  75.771  37.914  1.00  0.00    -0.502 OA
ATOM     23  H   UNL     1      32.850  76.584  37.980  1.00  0.00     0.293 HD
ENDBRANCH   2  22
BRANCH   6  24
ATOM     24  O   UNL     1      31.606  70.551  38.756  1.00  0.00    -0.507 OA
ATOM     25  H   UNL     1      32.223  70.761  37.987  1.00  0.00     0.293 HD
ENDBRANCH   6  24
BRANCH   8  26
ATOM     26  O   UNL     1      30.765  70.552  43.482  1.00  0.00    -0.508 OA
ATOM     27  H   UNL     1      29.964  70.769  44.064  1.00  0.00     0.293 HD
ENDBRANCH   8  26
TORSDOF 6
ENDMDL
MODEL 7
REMARK VINA RESULT:    -6.422      4.125      6.596
REMARK INTER + INTRA:          -8.026
REMARK INTER:                  -7.869
REMARK INTRA:                  -0.157
REMARK UNBOUND:                -0.290
REMARK SMILES O=c1c(O)c(-c2ccc(O)c(O)c2)oc2cc(O)cc(O)c12
REMARK SMILES IDX 5 1 3 2 2 3 1 4 22 5 20 6 19 7 17 8 16 9 15 10 14 11 6 12
REMARK SMILES IDX 7 13 8 14 9 15 13 16 11 17 10 18 12 20 4 22 21 24 18 26
REMARK H PARENT 10 19 12 21 4 23 21 25 18 27
REMARK Flexibility Score: inf
ROOT
ATOM      1  C   UNL     1      31.742  71.144  39.959  1.00  0.00     0.180 A 
ATOM      2  C   UNL     1      31.875  72.488  40.347  1.00  0.00     0.208 A 
ATOM      3  C   UNL     1      31.770  73.492  39.371  1.00  0.00     0.238 A 
ATOM      4  O   UNL     1      31.964  74.688  39.713  1.00  0.00    -0.285 OA
ATOM      5  C   UNL     1      31.476  73.144  38.030  1.00  0.00     0.111 A 
ATOM      6  C   UNL     1      31.301  74.081  36.967  1.00  0.00     0.134 A 
ATOM      7  C   UNL     1      31.119  73.616  35.659  1.00  0.00     0.093 A 
ATOM      8  C   UNL     1      31.039  72.249  35.385  1.00  0.00     0.123 A 
ATOM      9  C   UNL     1      31.153  71.328  36.423  1.00  0.00     0.094 A 
ATOM     10  C   UNL     1      31.375  71.760  37.733  1.00  0.00     0.146 A 
ATOM     11  O   UNL     1      31.499  70.846  38.689  1.00  0.00    -0.452 OA
ENDROOT
BRANCH   1  12
ATOM     12  C   UNL     1      31.856  70.029  40.928  1.00  0.00     0.025 A 
ATOM     13  C   UNL     1      30.888  69.890  41.935  1.00  0.00     0.016 A 
ATOM     14  C   UNL     1      30.962  68.834  42.847  1.00  0.00     0.051 A 
ATOM     15  C   UNL     1      31.993  67.894  42.757  1.00  0.00     0.157 A 
ATOM     16  C   UNL     1      32.879  69.071  40.826  1.00  0.00     0.062 A 
ATOM     17  C   UNL     1      32.955  68.009  41.739  1.00  0.00     0.158 A 
BRANCH  15  18
ATOM     18  O   UNL     1      32.044  66.851  43.682  1.00  0.00    -0.504 OA
ATOM     19  H   UNL     1      32.791  66.770  44.361  1.00  0.00     0.293 HD
ENDBRANCH  15  18
BRANCH  17  20
ATOM     20  O   UNL     1      33.977  67.066  41.635  1.00  0.00    -0.504 OA
ATOM     21  H   UNL     1      34.568  67.014  40.813  1.00  0.00     0.293 HD
ENDBRANCH  17  20
ENDBRANCH   1  12
BRANCH   2  22
ATOM     22  O   UNL     1      32.089  72.815  41.689  1.00  0.00    -0.502 OA
ATOM     23  H   UNL     1      32.268  72.115  42.398  1.00  0.00     0.293 HD
ENDBRANCH   2  22
BRANCH   6  24
ATOM     24  O   UNL     1      31.274  75.469  37.143  1.00  0.00    -0.507 OA
ATOM     25  H   UNL     1      32.031  76.018  37.519  1.00  0.00     0.293 HD
ENDBRANCH   6  24
BRANCH   8  26
ATOM     26  O   UNL     1      30.840  71.795  34.083  1.00  0.00    -0.508 OA
ATOM     27  H   UNL     1      31.604  71.735  33.420  1.00  0.00     0.293 HD
ENDBRANCH   8  26
TORSDOF 6
ENDMDL
MODEL 8
REMARK VINA RESULT:    -6.332      6.930     10.173
REMARK INTER + INTRA:          -7.918
REMARK INTER:                  -7.591
REMARK INTRA:                  -0.326
REMARK UNBOUND:                -0.290
REMARK SMILES O=c1c(O)c(-c2ccc(O)c(O)c2)oc2cc(O)cc(O)c12
REMARK SMILES IDX 5 1 3 2 2 3 1 4 22 5 20 6 19 7 17 8 16 9 15 10 14 11 6 12
REMARK SMILES IDX 7 13 8 14 9 15 13 16 11 17 10 18 12 20 4 22 21 24 18 26
REMARK H PARENT 10 19 12 21 4 23 21 25 18 27
REMARK Flexibility Score: inf
ROOT
ATOM      1  C   UNL     1      32.065  66.364  39.341  1.00  0.00     0.180 A 
ATOM      2  C   UNL     1      32.798  67.278  40.118  1.00  0.00     0.208 A 
ATOM      3  C   UNL     1      32.949  68.596  39.657  1.00  0.00     0.238 A 
ATOM      4  O   UNL     1      33.669  69.388  40.320  1.00  0.00    -0.285 OA
ATOM      5  C   UNL     1      32.319  68.999  38.455  1.00  0.00     0.111 A 
ATOM      6  C   UNL     1      32.366  70.321  37.916  1.00  0.00     0.134 A 
ATOM      7  C   UNL     1      31.793  70.578  36.665  1.00  0.00     0.093 A 
ATOM      8  C   UNL     1      31.118  69.577  35.962  1.00  0.00     0.123 A 
ATOM      9  C   UNL     1      31.019  68.298  36.505  1.00  0.00     0.094 A 
ATOM     10  C   UNL     1      31.614  68.001  37.733  1.00  0.00     0.146 A 
ATOM     11  O   UNL     1      31.513  66.763  38.203  1.00  0.00    -0.452 OA
ENDROOT
BRANCH   1  12
ATOM     12  C   UNL     1      31.875  64.955  39.754  1.00  0.00     0.025 A 
ATOM     13  C   UNL     1      30.772  64.613  40.551  1.00  0.00     0.016 A 
ATOM     14  C   UNL     1      30.560  63.286  40.935  1.00  0.00     0.051 A 
ATOM     15  C   UNL     1      31.435  62.281  40.515  1.00  0.00     0.157 A 
ATOM     16  C   UNL     1      32.743  63.939  39.316  1.00  0.00     0.062 A 
ATOM     17  C   UNL     1      32.531  62.606  39.698  1.00  0.00     0.158 A 
BRANCH  15  18
ATOM     18  O   UNL     1      31.201  60.965  40.916  1.00  0.00    -0.504 OA
ATOM     19  H   UNL     1      31.802  60.488  41.576  1.00  0.00     0.293 HD
ENDBRANCH  15  18
BRANCH  17  20
ATOM     20  O   UNL     1      33.400  61.606  39.264  1.00  0.00    -0.504 OA
ATOM     21  H   UNL     1      33.056  60.751  38.843  1.00  0.00     0.293 HD
ENDBRANCH  17  20
ENDBRANCH   1  12
BRANCH   2  22
ATOM     22  O   UNL     1      33.348  66.881  41.340  1.00  0.00    -0.502 OA
ATOM     23  H   UNL     1      32.895  66.210  41.948  1.00  0.00     0.293 HD
ENDBRANCH   2  22
BRANCH   6  24
ATOM     24  O   UNL     1      32.937  71.415  38.575  1.00  0.00    -0.507 OA
ATOM     25  H   UNL     1      32.433  72.065  39.158  1.00  0.00     0.293 HD
ENDBRANCH   6  24
BRANCH   8  26
ATOM     26  O   UNL     1      30.536  69.845  34.726  1.00  0.00    -0.508 OA
ATOM     27  H   UNL     1      29.550  70.063  34.640  1.00  0.00     0.293 HD
ENDBRANCH   8  26
TORSDOF 6
ENDMDL
MODEL 9
REMARK VINA RESULT:    -6.320      5.529     10.769
REMARK INTER + INTRA:          -7.903
REMARK INTER:                  -7.658
REMARK INTRA:                  -0.246
REMARK UNBOUND:                -0.290
REMARK SMILES O=c1c(O)c(-c2ccc(O)c(O)c2)oc2cc(O)cc(O)c12
REMARK SMILES IDX 5 1 3 2 2 3 1 4 22 5 20 6 19 7 17 8 16 9 15 10 14 11 6 12
REMARK SMILES IDX 7 13 8 14 9 15 13 16 11 17 10 18 12 20 4 22 21 24 18 26
REMARK H PARENT 10 19 12 21 4 23 21 25 18 27
REMARK Flexibility Score: inf
ROOT
ATOM      1  C   UNL     1      31.950  68.696  38.422  1.00  0.00     0.180 A 
ATOM      2  C   UNL     1      31.927  68.530  39.816  1.00  0.00     0.208 A 
ATOM      3  C   UNL     1      31.666  67.256  40.347  1.00  0.00     0.238 A 
ATOM      4  O   UNL     1      31.573  67.130  41.596  1.00  0.00    -0.285 OA
ATOM      5  C   UNL     1      31.488  66.153  39.477  1.00  0.00     0.111 A 
ATOM      6  C   UNL     1      31.263  64.809  39.904  1.00  0.00     0.134 A 
ATOM      7  C   UNL     1      30.995  63.818  38.952  1.00  0.00     0.093 A 
ATOM      8  C   UNL     1      31.007  64.108  37.586  1.00  0.00     0.123 A 
ATOM      9  C   UNL     1      31.279  65.405  37.157  1.00  0.00     0.094 A 
ATOM     10  C   UNL     1      31.513  66.424  38.083  1.00  0.00     0.146 A 
ATOM     11  O   UNL     1      31.747  67.650  37.630  1.00  0.00    -0.452 OA
ENDROOT
BRANCH   1  12
ATOM     12  C   UNL     1      32.204  70.010  37.789  1.00  0.00     0.025 A 
ATOM     13  C   UNL     1      33.508  70.530  37.778  1.00  0.00     0.016 A 
ATOM     14  C   UNL     1      33.775  71.759  37.168  1.00  0.00     0.051 A 
ATOM     15  C   UNL     1      32.749  72.477  36.546  1.00  0.00     0.157 A 
ATOM     16  C   UNL     1      31.178  70.725  37.145  1.00  0.00     0.062 A 
ATOM     17  C   UNL     1      31.444  71.957  36.530  1.00  0.00     0.158 A 
BRANCH  15  18
ATOM     18  O   UNL     1      33.045  73.702  35.947  1.00  0.00    -0.504 OA
ATOM     19  H   UNL     1      33.568  74.424  36.428  1.00  0.00     0.293 HD
ENDBRANCH  15  18
BRANCH  17  20
ATOM     20  O   UNL     1      30.420  72.662  35.900  1.00  0.00    -0.504 OA
ATOM     21  H   UNL     1      30.528  73.635  35.638  1.00  0.00     0.293 HD
ENDBRANCH  17  20
ENDBRANCH   1  12
BRANCH   2  22
ATOM     22  O   UNL     1      32.182  69.616  40.659  1.00  0.00    -0.502 OA
ATOM     23  H   UNL     1      32.891  70.309  40.454  1.00  0.00     0.293 HD
ENDBRANCH   2  22
BRANCH   6  24
ATOM     24  O   UNL     1      31.316  64.392  41.238  1.00  0.00    -0.507 OA
ATOM     25  H   UNL     1      32.114  63.959  41.676  1.00  0.00     0.293 HD
ENDBRANCH   6  24
BRANCH   8  26
ATOM     26  O   UNL     1      30.756  63.112  36.645  1.00  0.00    -0.508 OA
ATOM     27  H   UNL     1      30.162  63.280  35.841  1.00  0.00     0.293 HD
ENDBRANCH   8  26
TORSDOF 6
ENDMDL
