MODEL 1
REMARK VINA RESULT:    -5.320      0.000      0.000
REMARK INTER + INTRA:          -6.333
REMARK INTER:                  -6.253
REMARK INTRA:                  -0.080
REMARK UNBOUND:                -0.080
REMARK SMILES O=C([O-])C=Cc1ccc(O)c(O)c1
REMARK SMILES IDX 6 1 13 2 7 3 11 4 8 5 9 6 5 7 4 8 2 9 1 10 3 11 12 12 10 14
REMARK H PARENT 12 13 10 15
REMARK Flexibility Score: inf
ROOT
ATOM      1  C   UNL     1       3.907  17.750  13.695  1.00  0.00    -0.022 A 
ATOM      2  C   UNL     1       4.715  17.940  14.825  1.00  0.00     0.058 A 
ATOM      3  C   UNL     1       3.455  16.457  13.381  1.00  0.00     0.012 A 
ATOM      4  C   UNL     1       5.116  16.845  15.604  1.00  0.00     0.157 A 
ATOM      5  C   UNL     1       3.853  15.365  14.157  1.00  0.00     0.051 A 
ATOM      6  C   UNL     1       4.685  15.551  15.265  1.00  0.00     0.157 A 
ENDROOT
BRANCH   1   7
ATOM      7  C   UNL     1       3.456  18.926  12.922  1.00  0.00     0.010 C 
ATOM      8  C   UNL     1       3.579  19.077  11.595  1.00  0.00     0.025 C 
BRANCH   8   9
ATOM      9  C   UNL     1       4.349  18.191  10.701  1.00  0.00     0.064 C 
ATOM     10  O   UNL     1       3.736  17.476   9.866  1.00  0.00    -0.545 OA
ATOM     11  O   UNL     1       5.738  18.178  10.712  1.00  0.00    -0.545 OA
ENDBRANCH   8   9
ENDBRANCH   1   7
BRANCH   4  12
ATOM     12  O   UNL     1       5.936  17.038  16.715  1.00  0.00    -0.504 OA
ATOM     13  H   UNL     1       5.903  17.894  17.256  1.00  0.00     0.293 HD
ENDBRANCH   4  12
BRANCH   6  14
ATOM     14  O   UNL     1       5.067  14.441  16.019  1.00  0.00    -0.504 OA
ATOM     15  H   UNL     1       6.037  14.162  16.111  1.00  0.00     0.293 HD
ENDBRANCH   6  14
TORSDOF 4
ENDMDL
MODEL 2
REMARK VINA RESULT:    -4.988      1.536      5.024
REMARK INTER + INTRA:          -5.942
REMARK INTER:                  -5.725
REMARK INTRA:                  -0.217
REMARK UNBOUND:                -0.080
REMARK SMILES O=C([O-])C=Cc1ccc(O)c(O)c1
REMARK SMILES IDX 6 1 13 2 7 3 11 4 8 5 9 6 5 7 4 8 2 9 1 10 3 11 12 12 10 14
REMARK H PARENT 12 13 10 15
REMARK Flexibility Score: inf
ROOT
ATOM      1  C   UNL     1       3.815  17.521  13.026  1.00  0.00    -0.022 A 
ATOM      2  C   UNL     1       4.548  16.774  12.093  1.00  0.00     0.058 A 
ATOM      3  C   UNL     1       3.414  18.828  12.700  1.00  0.00     0.012 A 
ATOM      4  C   UNL     1       4.926  17.341  10.867  1.00  0.00     0.157 A 
ATOM      5  C   UNL     1       3.790  19.394  11.479  1.00  0.00     0.051 A 
ATOM      6  C   UNL     1       4.547  18.660  10.562  1.00  0.00     0.157 A 
ENDROOT
BRANCH   1   7
ATOM      7  C   UNL     1       3.386  16.881  14.287  1.00  0.00     0.010 C 
ATOM      8  C   UNL     1       3.837  17.196  15.511  1.00  0.00     0.025 C 
BRANCH   8   9
ATOM      9  C   UNL     1       4.971  18.096  15.799  1.00  0.00     0.064 C 
ATOM     10  O   UNL     1       4.757  19.328  15.942  1.00  0.00    -0.545 OA
ATOM     11  O   UNL     1       6.257  17.606  15.985  1.00  0.00    -0.545 OA
ENDBRANCH   8   9
ENDBRANCH   1   7
BRANCH   4  12
ATOM     12  O   UNL     1       5.671  16.600   9.952  1.00  0.00    -0.504 OA
ATOM     13  H   UNL     1       6.662  16.435  10.084  1.00  0.00     0.293 HD
ENDBRANCH   4  12
BRANCH   6  14
ATOM     14  O   UNL     1       4.908  19.254   9.352  1.00  0.00    -0.504 OA
ATOM     15  H   UNL     1       5.782  19.039   8.888  1.00  0.00     0.293 HD
ENDBRANCH   6  14
TORSDOF 4
ENDMDL
MODEL 3
REMARK VINA RESULT:    -4.950      1.900      2.573
REMARK INTER + INTRA:          -5.898
REMARK INTER:                  -5.841
REMARK INTRA:                  -0.058
REMARK UNBOUND:                -0.080
REMARK SMILES O=C([O-])C=Cc1ccc(O)c(O)c1
REMARK SMILES IDX 6 1 13 2 7 3 11 4 8 5 9 6 5 7 4 8 2 9 1 10 3 11 12 12 10 14
REMARK H PARENT 12 13 10 15
REMARK Flexibility Score: inf
ROOT
ATOM      1  C   UNL     1       3.529  16.359  14.373  1.00  0.00    -0.022 A 
ATOM      2  C   UNL     1       4.464  15.364  14.055  1.00  0.00     0.058 A 
ATOM      3  C   UNL     1       2.264  15.986  14.859  1.00  0.00     0.012 A 
ATOM      4  C   UNL     1       4.125  14.007  14.168  1.00  0.00     0.157 A 
ATOM      5  C   UNL     1       1.925  14.635  14.972  1.00  0.00     0.051 A 
ATOM      6  C   UNL     1       2.846  13.643  14.625  1.00  0.00     0.157 A 
ENDROOT
BRANCH   1   7
ATOM      7  C   UNL     1       3.930  17.779  14.296  1.00  0.00     0.010 C 
ATOM      8  C   UNL     1       4.104  18.476  13.163  1.00  0.00     0.025 C 
BRANCH   8   9
ATOM      9  C   UNL     1       4.113  17.907  11.802  1.00  0.00     0.064 C 
ATOM     10  O   UNL     1       3.039  17.468  11.312  1.00  0.00    -0.545 OA
ATOM     11  O   UNL     1       5.262  17.909  11.021  1.00  0.00    -0.545 OA
ENDBRANCH   8   9
ENDBRANCH   1   7
BRANCH   4  12
ATOM     12  O   UNL     1       5.052  13.023  13.831  1.00  0.00    -0.504 OA
ATOM     13  H   UNL     1       5.001  12.090  14.222  1.00  0.00     0.293 HD
ENDBRANCH   4  12
BRANCH   6  14
ATOM     14  O   UNL     1       2.478  12.303  14.746  1.00  0.00    -0.504 OA
ATOM     15  H   UNL     1       2.541  11.655  13.970  1.00  0.00     0.293 HD
ENDBRANCH   6  14
TORSDOF 4
ENDMDL
MODEL 4
REMARK VINA RESULT:    -4.793      0.927      2.111
REMARK INTER + INTRA:          -5.713
REMARK INTER:                  -5.698
REMARK INTRA:                  -0.015
REMARK UNBOUND:                -0.080
REMARK SMILES O=C([O-])C=Cc1ccc(O)c(O)c1
REMARK SMILES IDX 6 1 13 2 7 3 11 4 8 5 9 6 5 7 4 8 2 9 1 10 3 11 12 12 10 14
REMARK H PARENT 12 13 10 15
REMARK Flexibility Score: inf
ROOT
ATOM      1  C   UNL     1       3.913  17.839  14.311  1.00  0.00    -0.022 A 
ATOM      2  C   UNL     1       3.394  16.570  14.020  1.00  0.00     0.058 A 
ATOM      3  C   UNL     1       4.942  17.962  15.261  1.00  0.00     0.012 A 
ATOM      4  C   UNL     1       3.857  15.438  14.707  1.00  0.00     0.157 A 
ATOM      5  C   UNL     1       5.404  16.835  15.946  1.00  0.00     0.051 A 
ATOM      6  C   UNL     1       4.864  15.573  15.677  1.00  0.00     0.157 A 
ENDROOT
BRANCH   1   7
ATOM      7  C   UNL     1       3.445  19.007  13.535  1.00  0.00     0.010 C 
ATOM      8  C   UNL     1       3.471  19.111  12.198  1.00  0.00     0.025 C 
BRANCH   8   9
ATOM      9  C   UNL     1       4.139  18.169  11.279  1.00  0.00     0.064 C 
ATOM     10  O   UNL     1       5.396  18.164  11.211  1.00  0.00    -0.545 OA
ATOM     11  O   UNL     1       3.417  17.240  10.540  1.00  0.00    -0.545 OA
ENDBRANCH   8   9
ENDBRANCH   1   7
BRANCH   4  12
ATOM     12  O   UNL     1       3.322  14.181  14.426  1.00  0.00    -0.504 OA
ATOM     13  H   UNL     1       3.246  13.466  15.140  1.00  0.00     0.293 HD
ENDBRANCH   4  12
BRANCH   6  14
ATOM     14  O   UNL     1       5.344  14.467  16.379  1.00  0.00    -0.504 OA
ATOM     15  H   UNL     1       6.297  14.138  16.278  1.00  0.00     0.293 HD
ENDBRANCH   6  14
TORSDOF 4
ENDMDL
MODEL 5
REMARK VINA RESULT:    -4.774      2.803      3.869
REMARK INTER + INTRA:          -5.691
REMARK INTER:                  -5.412
REMARK INTRA:                  -0.279
REMARK UNBOUND:                -0.080
REMARK SMILES O=C([O-])C=Cc1ccc(O)c(O)c1
REMARK SMILES IDX 6 1 13 2 7 3 11 4 8 5 9 6 5 7 4 8 2 9 1 10 3 11 12 12 10 14
REMARK H PARENT 12 13 10 15
REMARK Flexibility Score: inf
ROOT
ATOM      1  C   UNL     1       3.355  16.289  14.308  1.00  0.00    -0.022 A 
ATOM      2  C   UNL     1       4.275  15.321  13.883  1.00  0.00     0.058 A 
ATOM      3  C   UNL     1       2.320  15.918  15.183  1.00  0.00     0.012 A 
ATOM      4  C   UNL     1       4.135  13.983  14.281  1.00  0.00     0.157 A 
ATOM      5  C   UNL     1       2.178  14.586  15.580  1.00  0.00     0.051 A 
ATOM      6  C   UNL     1       3.078  13.614  15.131  1.00  0.00     0.157 A 
ENDROOT
BRANCH   1   7
ATOM      7  C   UNL     1       3.557  17.700  13.917  1.00  0.00     0.010 C 
ATOM      8  C   UNL     1       4.291  18.595  14.594  1.00  0.00     0.025 C 
BRANCH   8   9
ATOM      9  C   UNL     1       4.866  18.390  15.938  1.00  0.00     0.064 C 
ATOM     10  O   UNL     1       4.222  18.778  16.948  1.00  0.00    -0.545 OA
ATOM     11  O   UNL     1       6.067  17.717  16.119  1.00  0.00    -0.545 OA
ENDBRANCH   8   9
ENDBRANCH   1   7
BRANCH   4  12
ATOM     12  O   UNL     1       5.042  13.022  13.838  1.00  0.00    -0.504 OA
ATOM     13  H   UNL     1       5.602  12.482  14.488  1.00  0.00     0.293 HD
ENDBRANCH   4  12
BRANCH   6  14
ATOM     14  O   UNL     1       2.910  12.292  15.543  1.00  0.00    -0.504 OA
ATOM     15  H   UNL     1       2.876  11.524  14.884  1.00  0.00     0.293 HD
ENDBRANCH   6  14
TORSDOF 4
ENDMDL
MODEL 6
REMARK VINA RESULT:    -4.651      4.381      6.007
REMARK INTER + INTRA:          -5.547
REMARK INTER:                  -5.300
REMARK INTRA:                  -0.247
REMARK UNBOUND:                -0.080
REMARK SMILES O=C([O-])C=Cc1ccc(O)c(O)c1
REMARK SMILES IDX 6 1 13 2 7 3 11 4 8 5 9 6 5 7 4 8 2 9 1 10 3 11 12 12 10 14
REMARK H PARENT 12 13 10 15
REMARK Flexibility Score: inf
ROOT
ATOM      1  C   UNL     1       6.796  16.550  18.289  1.00  0.00    -0.022 A 
ATOM      2  C   UNL     1       7.173  17.212  19.465  1.00  0.00     0.058 A 
ATOM      3  C   UNL     1       6.341  15.222  18.361  1.00  0.00     0.012 A 
ATOM      4  C   UNL     1       7.151  16.542  20.697  1.00  0.00     0.157 A 
ATOM      5  C   UNL     1       6.319  14.553  19.587  1.00  0.00     0.051 A 
ATOM      6  C   UNL     1       6.725  15.204  20.756  1.00  0.00     0.157 A 
ENDROOT
BRANCH   1   7
ATOM      7  C   UNL     1       6.778  17.296  17.013  1.00  0.00     0.010 C 
ATOM      8  C   UNL     1       5.720  17.953  16.513  1.00  0.00     0.025 C 
BRANCH   8   9
ATOM      9  C   UNL     1       4.345  17.890  17.043  1.00  0.00     0.064 C 
ATOM     10  O   UNL     1       3.870  18.892  17.640  1.00  0.00    -0.545 OA
ATOM     11  O   UNL     1       3.537  16.779  16.838  1.00  0.00    -0.545 OA
ENDBRANCH   8   9
ENDBRANCH   1   7
BRANCH   4  12
ATOM     12  O   UNL     1       7.547  17.200  21.860  1.00  0.00    -0.504 OA
ATOM     13  H   UNL     1       7.105  18.062  22.158  1.00  0.00     0.293 HD
ENDBRANCH   4  12
BRANCH   6  14
ATOM     14  O   UNL     1       6.693  14.508  21.965  1.00  0.00    -0.504 OA
ATOM     15  H   UNL     1       6.377  13.548  22.025  1.00  0.00     0.293 HD
ENDBRANCH   6  14
TORSDOF 4
ENDMDL
MODEL 7
REMARK VINA RESULT:    -4.593      4.599      7.382
REMARK INTER + INTRA:          -5.478
REMARK INTER:                  -5.193
REMARK INTRA:                  -0.285
REMARK UNBOUND:                -0.080
REMARK SMILES O=C([O-])C=Cc1ccc(O)c(O)c1
REMARK SMILES IDX 6 1 13 2 7 3 11 4 8 5 9 6 5 7 4 8 2 9 1 10 3 11 12 12 10 14
REMARK H PARENT 12 13 10 15
REMARK Flexibility Score: inf
ROOT
ATOM      1  C   UNL     1       6.199  14.194  18.004  1.00  0.00    -0.022 A 
ATOM      2  C   UNL     1       6.266  12.842  17.639  1.00  0.00     0.058 A 
ATOM      3  C   UNL     1       5.520  15.100  17.171  1.00  0.00     0.012 A 
ATOM      4  C   UNL     1       5.709  12.404  16.428  1.00  0.00     0.157 A 
ATOM      5  C   UNL     1       4.965  14.665  15.965  1.00  0.00     0.051 A 
ATOM      6  C   UNL     1       5.059  13.322  15.586  1.00  0.00     0.157 A 
ENDROOT
BRANCH   1   7
ATOM      7  C   UNL     1       6.747  14.619  19.309  1.00  0.00     0.010 C 
ATOM      8  C   UNL     1       6.097  14.557  20.481  1.00  0.00     0.025 C 
BRANCH   8   9
ATOM      9  C   UNL     1       4.667  14.238  20.650  1.00  0.00     0.064 C 
ATOM     10  O   UNL     1       3.823  15.172  20.639  1.00  0.00    -0.545 OA
ATOM     11  O   UNL     1       4.222  12.926  20.750  1.00  0.00    -0.545 OA
ENDBRANCH   8   9
ENDBRANCH   1   7
BRANCH   4  12
ATOM     12  O   UNL     1       5.797  11.062  16.062  1.00  0.00    -0.504 OA
ATOM     13  H   UNL     1       6.562  10.476  16.374  1.00  0.00     0.293 HD
ENDBRANCH   4  12
BRANCH   6  14
ATOM     14  O   UNL     1       4.497  12.919  14.375  1.00  0.00    -0.504 OA
ATOM     15  H   UNL     1       3.684  13.376  13.980  1.00  0.00     0.293 HD
ENDBRANCH   6  14
TORSDOF 4
ENDMDL
MODEL 8
REMARK VINA RESULT:    -4.575      2.140      5.191
REMARK INTER + INTRA:          -5.457
REMARK INTER:                  -5.161
REMARK INTRA:                  -0.297
REMARK UNBOUND:                -0.080
REMARK SMILES O=C([O-])C=Cc1ccc(O)c(O)c1
REMARK SMILES IDX 6 1 13 2 7 3 11 4 8 5 9 6 5 7 4 8 2 9 1 10 3 11 12 12 10 14
REMARK H PARENT 12 13 10 15
REMARK Flexibility Score: inf
ROOT
ATOM      1  C   UNL     1       4.867  17.270  15.414  1.00  0.00    -0.022 A 
ATOM      2  C   UNL     1       4.520  18.402  14.663  1.00  0.00     0.058 A 
ATOM      3  C   UNL     1       4.516  15.994  14.939  1.00  0.00     0.012 A 
ATOM      4  C   UNL     1       3.783  18.270  13.477  1.00  0.00     0.157 A 
ATOM      5  C   UNL     1       3.782  15.862  13.757  1.00  0.00     0.051 A 
ATOM      6  C   UNL     1       3.410  16.993  13.025  1.00  0.00     0.157 A 
ENDROOT
BRANCH   1   7
ATOM      7  C   UNL     1       5.688  17.433  16.631  1.00  0.00     0.010 C 
ATOM      8  C   UNL     1       5.219  17.451  17.888  1.00  0.00     0.025 C 
BRANCH   8   9
ATOM      9  C   UNL     1       3.794  17.503  18.268  1.00  0.00     0.064 C 
ATOM     10  O   UNL     1       3.226  18.622  18.370  1.00  0.00    -0.545 OA
ATOM     11  O   UNL     1       3.048  16.346  18.448  1.00  0.00    -0.545 OA
ENDBRANCH   8   9
ENDBRANCH   1   7
BRANCH   4  12
ATOM     12  O   UNL     1       3.425  19.402  12.746  1.00  0.00    -0.504 OA
ATOM     13  H   UNL     1       3.398  20.321  13.171  1.00  0.00     0.293 HD
ENDBRANCH   4  12
BRANCH   6  14
ATOM     14  O   UNL     1       2.675  16.829  11.850  1.00  0.00    -0.504 OA
ATOM     15  H   UNL     1       1.963  16.114  11.757  1.00  0.00     0.293 HD
ENDBRANCH   6  14
TORSDOF 4
ENDMDL
MODEL 9
REMARK VINA RESULT:    -4.555      6.234      9.515
REMARK INTER + INTRA:          -5.433
REMARK INTER:                  -5.159
REMARK INTRA:                  -0.274
REMARK UNBOUND:                -0.080
REMARK SMILES O=C([O-])C=Cc1ccc(O)c(O)c1
REMARK SMILES IDX 6 1 13 2 7 3 11 4 8 5 9 6 5 7 4 8 2 9 1 10 3 11 12 12 10 14
REMARK H PARENT 12 13 10 15
REMARK Flexibility Score: inf
ROOT
ATOM      1  C   UNL     1       7.550  15.567  21.360  1.00  0.00    -0.022 A 
ATOM      2  C   UNL     1       7.135  14.516  20.530  1.00  0.00     0.058 A 
ATOM      3  C   UNL     1       7.530  16.883  20.868  1.00  0.00     0.012 A 
ATOM      4  C   UNL     1       6.754  14.766  19.204  1.00  0.00     0.157 A 
ATOM      5  C   UNL     1       7.151  17.133  19.546  1.00  0.00     0.051 A 
ATOM      6  C   UNL     1       6.767  16.082  18.709  1.00  0.00     0.157 A 
ENDROOT
BRANCH   1   7
ATOM      7  C   UNL     1       7.895  15.283  22.769  1.00  0.00     0.010 C 
ATOM      8  C   UNL     1       9.128  15.027  23.230  1.00  0.00     0.025 C 
BRANCH   8   9
ATOM      9  C   UNL     1      10.322  14.796  22.395  1.00  0.00     0.064 C 
ATOM     10  O   UNL     1      11.240  15.657  22.383  1.00  0.00    -0.545 OA
ATOM     11  O   UNL     1      10.490  13.618  21.677  1.00  0.00    -0.545 OA
ENDBRANCH   8   9
ENDBRANCH   1   7
BRANCH   4  12
ATOM     12  O   UNL     1       6.361  13.714  18.378  1.00  0.00    -0.504 OA
ATOM     13  H   UNL     1       6.636  13.673  17.403  1.00  0.00     0.293 HD
ENDBRANCH   4  12
BRANCH   6  14
ATOM     14  O   UNL     1       6.396  16.363  17.394  1.00  0.00    -0.504 OA
ATOM     15  H   UNL     1       5.479  16.723  17.159  1.00  0.00     0.293 HD
ENDBRANCH   6  14
TORSDOF 4
ENDMDL
