MODEL 1
REMARK VINA RESULT:    -4.118      0.000      0.000
REMARK INTER + INTRA:          -7.400
REMARK INTER:                  -6.525
REMARK INTRA:                  -0.876
REMARK UNBOUND:                -0.876
REMARK SMILES CCCCCCCCCCCC(=O)[O-]
REMARK SMILES IDX 7 1 8 2 9 3 10 4 11 5 12 6 13 7 14 8 6 9 5 10 4 11 3 12 2 13
REMARK SMILES IDX 1 14
REMARK H PARENT
REMARK Flexibility Score: inf
ROOT
ATOM      1  C   UNL     1      75.650  80.746  79.095  1.00  0.00     0.000 C 
ENDROOT
BRANCH   1   2
ATOM      2  C   UNL     1      75.111  81.774  78.088  1.00  0.00     0.000 C 
BRANCH   2   3
ATOM      3  C   UNL     1      74.671  81.132  76.762  1.00  0.00     0.000 C 
BRANCH   3   4
ATOM      4  C   UNL     1      74.867  82.103  75.592  1.00  0.00     0.006 C 
BRANCH   4   5
ATOM      5  C   UNL     1      75.468  83.428  76.072  1.00  0.00     0.053 C 
BRANCH   5   6
ATOM      6  C   UNL     1      76.466  83.940  75.080  1.00  0.00     0.041 C 
ATOM      7  O   UNL     1      77.150  83.134  74.397  1.00  0.00    -0.550 OA
ATOM      8  O   UNL     1      76.603  85.307  74.875  1.00  0.00    -0.550 OA
ENDBRANCH   5   6
ENDBRANCH   4   5
ENDBRANCH   3   4
ENDBRANCH   2   3
ENDBRANCH   1   2
BRANCH   1   9
ATOM      9  C   UNL     1      77.178  80.579  79.009  1.00  0.00     0.000 C 
BRANCH   9  10
ATOM     10  C   UNL     1      77.872  81.801  78.384  1.00  0.00    -0.000 C 
BRANCH  10  11
ATOM     11  C   UNL     1      79.057  81.416  77.484  1.00  0.00    -0.000 C 
BRANCH  11  12
ATOM     12  C   UNL     1      80.050  80.520  78.241  1.00  0.00    -0.000 C 
BRANCH  12  13
ATOM     13  C   UNL     1      81.410  81.201  78.459  1.00  0.00    -0.003 C 
ATOM     14  C   UNL     1      82.034  80.858  79.812  1.00  0.00     0.004 C 
ENDBRANCH  12  13
ENDBRANCH  11  12
ENDBRANCH  10  11
ENDBRANCH   9  10
ENDBRANCH   1   9
TORSDOF 10
ENDMDL
MODEL 2
REMARK VINA RESULT:    -4.052      1.753      2.915
REMARK INTER + INTRA:          -7.297
REMARK INTER:                  -6.332
REMARK INTRA:                  -0.964
REMARK UNBOUND:                -0.876
REMARK SMILES CCCCCCCCCCCC(=O)[O-]
REMARK SMILES IDX 7 1 8 2 9 3 10 4 11 5 12 6 13 7 14 8 6 9 5 10 4 11 3 12 2 13
REMARK SMILES IDX 1 14
REMARK H PARENT
REMARK Flexibility Score: inf
ROOT
ATOM      1  C   UNL     1      78.895  81.469  78.653  1.00  0.00     0.000 C 
ENDROOT
BRANCH   1   2
ATOM      2  C   UNL     1      77.725  81.167  77.704  1.00  0.00     0.000 C 
BRANCH   2   3
ATOM      3  C   UNL     1      76.384  81.711  78.222  1.00  0.00     0.000 C 
BRANCH   3   4
ATOM      4  C   UNL     1      75.638  82.470  77.118  1.00  0.00     0.006 C 
BRANCH   4   5
ATOM      5  C   UNL     1      76.563  82.769  75.935  1.00  0.00     0.053 C 
BRANCH   5   6
ATOM      6  C   UNL     1      76.012  83.889  75.109  1.00  0.00     0.041 C 
ATOM      7  O   UNL     1      74.830  83.837  74.679  1.00  0.00    -0.550 OA
ATOM      8  O   UNL     1      76.788  85.013  74.855  1.00  0.00    -0.550 OA
ENDBRANCH   5   6
ENDBRANCH   4   5
ENDBRANCH   3   4
ENDBRANCH   2   3
ENDBRANCH   1   2
BRANCH   1   9
ATOM      9  C   UNL     1      80.038  80.445  78.526  1.00  0.00     0.000 C 
BRANCH   9  10
ATOM     10  C   UNL     1      81.403  81.111  78.284  1.00  0.00    -0.000 C 
BRANCH  10  11
ATOM     11  C   UNL     1      81.976  80.803  76.892  1.00  0.00    -0.000 C 
BRANCH  11  12
ATOM     12  C   UNL     1      82.207  82.097  76.097  1.00  0.00    -0.000 C 
BRANCH  12  13
ATOM     13  C   UNL     1      81.070  82.390  75.105  1.00  0.00    -0.003 C 
ATOM     14  C   UNL     1      80.175  83.545  75.555  1.00  0.00     0.004 C 
ENDBRANCH  12  13
ENDBRANCH  11  12
ENDBRANCH  10  11
ENDBRANCH   9  10
ENDBRANCH   1   9
TORSDOF 10
ENDMDL
MODEL 3
REMARK VINA RESULT:    -3.990      1.737      4.180
REMARK INTER + INTRA:          -7.199
REMARK INTER:                  -5.773
REMARK INTRA:                  -1.426
REMARK UNBOUND:                -0.876
REMARK SMILES CCCCCCCCCCCC(=O)[O-]
REMARK SMILES IDX 7 1 8 2 9 3 10 4 11 5 12 6 13 7 14 8 6 9 5 10 4 11 3 12 2 13
REMARK SMILES IDX 1 14
REMARK H PARENT
REMARK Flexibility Score: inf
ROOT
ATOM      1  C   UNL     1      78.612  80.616  77.705  1.00  0.00     0.000 C 
ENDROOT
BRANCH   1   2
ATOM      2  C   UNL     1      78.762  80.969  76.216  1.00  0.00     0.000 C 
BRANCH   2   3
ATOM      3  C   UNL     1      79.430  82.336  75.994  1.00  0.00     0.000 C 
BRANCH   3   4
ATOM      4  C   UNL     1      78.685  83.141  74.923  1.00  0.00     0.006 C 
BRANCH   4   5
ATOM      5  C   UNL     1      77.200  82.768  74.888  1.00  0.00     0.053 C 
BRANCH   5   6
ATOM      6  C   UNL     1      76.349  83.998  74.947  1.00  0.00     0.041 C 
ATOM      7  O   UNL     1      76.875  85.137  74.854  1.00  0.00    -0.550 OA
ATOM      8  O   UNL     1      74.969  83.883  75.055  1.00  0.00    -0.550 OA
ENDBRANCH   5   6
ENDBRANCH   4   5
ENDBRANCH   3   4
ENDBRANCH   2   3
ENDBRANCH   1   2
BRANCH   1   9
ATOM      9  C   UNL     1      78.003  81.767  78.526  1.00  0.00     0.000 C 
BRANCH   9  10
ATOM     10  C   UNL     1      76.469  81.812  78.432  1.00  0.00    -0.000 C 
BRANCH  10  11
ATOM     11  C   UNL     1      75.807  80.501  78.882  1.00  0.00    -0.000 C 
BRANCH  11  12
ATOM     12  C   UNL     1      74.542  80.215  78.057  1.00  0.00    -0.000 C 
BRANCH  12  13
ATOM     13  C   UNL     1      74.661  80.706  76.606  1.00  0.00    -0.003 C 
ATOM     14  C   UNL     1      75.268  79.657  75.674  1.00  0.00     0.004 C 
ENDBRANCH  12  13
ENDBRANCH  11  12
ENDBRANCH  10  11
ENDBRANCH   9  10
ENDBRANCH   1   9
TORSDOF 10
ENDMDL
MODEL 4
REMARK VINA RESULT:    -3.979      1.662      4.001
REMARK INTER + INTRA:          -7.180
REMARK INTER:                  -6.300
REMARK INTRA:                  -0.880
REMARK UNBOUND:                -0.876
REMARK SMILES CCCCCCCCCCCC(=O)[O-]
REMARK SMILES IDX 7 1 8 2 9 3 10 4 11 5 12 6 13 7 14 8 6 9 5 10 4 11 3 12 2 13
REMARK SMILES IDX 1 14
REMARK H PARENT
REMARK Flexibility Score: inf
ROOT
ATOM      1  C   UNL     1      80.129  82.148  76.882  1.00  0.00     0.000 C 
ENDROOT
BRANCH   1   2
ATOM      2  C   UNL     1      80.638  82.080  75.433  1.00  0.00     0.000 C 
BRANCH   2   3
ATOM      3  C   UNL     1      79.497  82.090  74.403  1.00  0.00     0.000 C 
BRANCH   3   4
ATOM      4  C   UNL     1      78.566  83.287  74.628  1.00  0.00     0.006 C 
BRANCH   4   5
ATOM      5  C   UNL     1      77.158  82.823  75.014  1.00  0.00     0.053 C 
BRANCH   5   6
ATOM      6  C   UNL     1      76.248  83.998  75.189  1.00  0.00     0.041 C 
ATOM      7  O   UNL     1      75.120  83.852  75.727  1.00  0.00    -0.550 OA
ATOM      8  O   UNL     1      76.668  85.265  74.803  1.00  0.00    -0.550 OA
ENDBRANCH   5   6
ENDBRANCH   4   5
ENDBRANCH   3   4
ENDBRANCH   2   3
ENDBRANCH   1   2
BRANCH   1   9
ATOM      9  C   UNL     1      80.178  80.781  77.590  1.00  0.00     0.000 C 
BRANCH   9  10
ATOM     10  C   UNL     1      78.823  80.382  78.198  1.00  0.00    -0.000 C 
BRANCH  10  11
ATOM     11  C   UNL     1      77.935  81.594  78.517  1.00  0.00    -0.000 C 
BRANCH  11  12
ATOM     12  C   UNL     1      76.457  81.182  78.606  1.00  0.00    -0.000 C 
BRANCH  12  13
ATOM     13  C   UNL     1      76.267  79.816  79.284  1.00  0.00    -0.003 C 
ATOM     14  C   UNL     1      75.518  79.914  80.613  1.00  0.00     0.004 C 
ENDBRANCH  12  13
ENDBRANCH  11  12
ENDBRANCH  10  11
ENDBRANCH   9  10
ENDBRANCH   1   9
TORSDOF 10
ENDMDL
MODEL 5
REMARK VINA RESULT:    -3.927      1.538      4.454
REMARK INTER + INTRA:          -7.098
REMARK INTER:                  -5.807
REMARK INTRA:                  -1.291
REMARK UNBOUND:                -0.876
REMARK SMILES CCCCCCCCCCCC(=O)[O-]
REMARK SMILES IDX 7 1 8 2 9 3 10 4 11 5 12 6 13 7 14 8 6 9 5 10 4 11 3 12 2 13
REMARK SMILES IDX 1 14
REMARK H PARENT
REMARK Flexibility Score: inf
ROOT
ATOM      1  C   UNL     1      77.340  80.267  78.996  1.00  0.00     0.000 C 
ENDROOT
BRANCH   1   2
ATOM      2  C   UNL     1      78.024  81.603  78.664  1.00  0.00     0.000 C 
BRANCH   2   3
ATOM      3  C   UNL     1      79.187  81.444  77.671  1.00  0.00     0.000 C 
BRANCH   3   4
ATOM      4  C   UNL     1      78.677  81.450  76.225  1.00  0.00     0.006 C 
BRANCH   4   5
ATOM      5  C   UNL     1      79.522  82.380  75.348  1.00  0.00     0.053 C 
BRANCH   5   6
ATOM      6  C   UNL     1      78.649  83.146  74.404  1.00  0.00     0.041 C 
ATOM      7  O   UNL     1      78.204  84.277  74.729  1.00  0.00    -0.550 OA
ATOM      8  O   UNL     1      78.368  82.630  73.145  1.00  0.00    -0.550 OA
ENDBRANCH   5   6
ENDBRANCH   4   5
ENDBRANCH   3   4
ENDBRANCH   2   3
ENDBRANCH   1   2
BRANCH   1   9
ATOM      9  C   UNL     1      75.808  80.391  79.077  1.00  0.00     0.000 C 
BRANCH   9  10
ATOM     10  C   UNL     1      75.303  81.774  78.635  1.00  0.00    -0.000 C 
BRANCH  10  11
ATOM     11  C   UNL     1      74.677  81.758  77.231  1.00  0.00    -0.000 C 
BRANCH  11  12
ATOM     12  C   UNL     1      75.219  82.915  76.377  1.00  0.00    -0.000 C 
BRANCH  12  13
ATOM     13  C   UNL     1      75.064  82.658  74.871  1.00  0.00    -0.003 C 
ATOM     14  C   UNL     1      75.311  81.198  74.490  1.00  0.00     0.004 C 
ENDBRANCH  12  13
ENDBRANCH  11  12
ENDBRANCH  10  11
ENDBRANCH   9  10
ENDBRANCH   1   9
TORSDOF 10
ENDMDL
MODEL 6
REMARK VINA RESULT:    -3.917      2.081      4.465
REMARK INTER + INTRA:          -7.082
REMARK INTER:                  -5.665
REMARK INTRA:                  -1.417
REMARK UNBOUND:                -0.876
REMARK SMILES CCCCCCCCCCCC(=O)[O-]
REMARK SMILES IDX 7 1 8 2 9 3 10 4 11 5 12 6 13 7 14 8 6 9 5 10 4 11 3 12 2 13
REMARK SMILES IDX 1 14
REMARK H PARENT
REMARK Flexibility Score: inf
ROOT
ATOM      1  C   UNL     1      77.711  79.969  77.681  1.00  0.00     0.000 C 
ENDROOT
BRANCH   1   2
ATOM      2  C   UNL     1      77.965  80.560  76.286  1.00  0.00     0.000 C 
BRANCH   2   3
ATOM      3  C   UNL     1      76.765  80.387  75.340  1.00  0.00     0.000 C 
BRANCH   3   4
ATOM      4  C   UNL     1      76.470  81.688  74.587  1.00  0.00     0.006 C 
BRANCH   4   5
ATOM      5  C   UNL     1      76.457  82.886  75.542  1.00  0.00     0.053 C 
BRANCH   5   6
ATOM      6  C   UNL     1      77.208  84.037  74.949  1.00  0.00     0.041 C 
ATOM      7  O   UNL     1      76.661  85.166  74.849  1.00  0.00    -0.550 OA
ATOM      8  O   UNL     1      78.529  83.874  74.553  1.00  0.00    -0.550 OA
ENDBRANCH   5   6
ENDBRANCH   4   5
ENDBRANCH   3   4
ENDBRANCH   2   3
ENDBRANCH   1   2
BRANCH   1   9
ATOM      9  C   UNL     1      77.269  81.033  78.702  1.00  0.00     0.000 C 
BRANCH   9  10
ATOM     10  C   UNL     1      75.845  80.791  79.230  1.00  0.00    -0.000 C 
BRANCH  10  11
ATOM     11  C   UNL     1      74.765  81.412  78.331  1.00  0.00    -0.000 C 
BRANCH  11  12
ATOM     12  C   UNL     1      73.957  80.320  77.612  1.00  0.00    -0.000 C 
BRANCH  12  13
ATOM     13  C   UNL     1      72.899  80.899  76.661  1.00  0.00    -0.003 C 
ATOM     14  C   UNL     1      72.771  82.419  76.772  1.00  0.00     0.004 C 
ENDBRANCH  12  13
ENDBRANCH  11  12
ENDBRANCH  10  11
ENDBRANCH   9  10
ENDBRANCH   1   9
TORSDOF 10
ENDMDL
MODEL 7
REMARK VINA RESULT:    -3.877      1.937      2.906
REMARK INTER + INTRA:          -7.019
REMARK INTER:                  -5.874
REMARK INTRA:                  -1.145
REMARK UNBOUND:                -0.876
REMARK SMILES CCCCCCCCCCCC(=O)[O-]
REMARK SMILES IDX 7 1 8 2 9 3 10 4 11 5 12 6 13 7 14 8 6 9 5 10 4 11 3 12 2 13
REMARK SMILES IDX 1 14
REMARK H PARENT
REMARK Flexibility Score: inf
ROOT
ATOM      1  C   UNL     1      74.626  81.265  78.017  1.00  0.00     0.000 C 
ENDROOT
BRANCH   1   2
ATOM      2  C   UNL     1      74.556  80.681  76.597  1.00  0.00     0.000 C 
BRANCH   2   3
ATOM      3  C   UNL     1      73.664  81.508  75.657  1.00  0.00     0.000 C 
BRANCH   3   4
ATOM      4  C   UNL     1      74.513  82.345  74.693  1.00  0.00     0.006 C 
BRANCH   4   5
ATOM      5  C   UNL     1      74.933  83.670  75.337  1.00  0.00     0.053 C 
BRANCH   5   6
ATOM      6  C   UNL     1      76.381  83.944  75.077  1.00  0.00     0.041 C 
ATOM      7  O   UNL     1      77.212  82.999  75.066  1.00  0.00    -0.550 OA
ATOM      8  O   UNL     1      76.804  85.237  74.798  1.00  0.00    -0.550 OA
ENDBRANCH   5   6
ENDBRANCH   4   5
ENDBRANCH   3   4
ENDBRANCH   2   3
ENDBRANCH   1   2
BRANCH   1   9
ATOM      9  C   UNL     1      76.021  81.818  78.360  1.00  0.00     0.000 C 
BRANCH   9  10
ATOM     10  C   UNL     1      77.156  80.891  77.893  1.00  0.00    -0.000 C 
BRANCH  10  11
ATOM     11  C   UNL     1      77.729  80.033  79.031  1.00  0.00    -0.000 C 
BRANCH  11  12
ATOM     12  C   UNL     1      76.929  78.731  79.191  1.00  0.00    -0.000 C 
BRANCH  12  13
ATOM     13  C   UNL     1      76.523  78.463  80.648  1.00  0.00    -0.003 C 
ATOM     14  C   UNL     1      75.511  79.479  81.177  1.00  0.00     0.004 C 
ENDBRANCH  12  13
ENDBRANCH  11  12
ENDBRANCH  10  11
ENDBRANCH   9  10
ENDBRANCH   1   9
TORSDOF 10
ENDMDL
MODEL 8
REMARK VINA RESULT:    -3.845      2.737      5.296
REMARK INTER + INTRA:          -6.968
REMARK INTER:                  -5.695
REMARK INTRA:                  -1.273
REMARK UNBOUND:                -0.876
REMARK SMILES CCCCCCCCCCCC(=O)[O-]
REMARK SMILES IDX 7 1 8 2 9 3 10 4 11 5 12 6 13 7 14 8 6 9 5 10 4 11 3 12 2 13
REMARK SMILES IDX 1 14
REMARK H PARENT
REMARK Flexibility Score: inf
ROOT
ATOM      1  C   UNL     1      75.108  80.013  77.404  1.00  0.00     0.000 C 
ENDROOT
BRANCH   1   2
ATOM      2  C   UNL     1      75.110  81.264  78.297  1.00  0.00     0.000 C 
BRANCH   2   3
ATOM      3  C   UNL     1      76.235  82.248  77.939  1.00  0.00     0.000 C 
BRANCH   3   4
ATOM      4  C   UNL     1      76.685  82.059  76.485  1.00  0.00     0.006 C 
BRANCH   4   5
ATOM      5  C   UNL     1      75.961  83.037  75.554  1.00  0.00     0.053 C 
BRANCH   5   6
ATOM      6  C   UNL     1      76.945  83.924  74.858  1.00  0.00     0.041 C 
ATOM      7  O   UNL     1      77.954  83.429  74.292  1.00  0.00    -0.550 OA
ATOM      8  O   UNL     1      76.720  85.293  74.793  1.00  0.00    -0.550 OA
ENDBRANCH   5   6
ENDBRANCH   4   5
ENDBRANCH   3   4
ENDBRANCH   2   3
ENDBRANCH   1   2
BRANCH   1   9
ATOM      9  C   UNL     1      73.768  79.257  77.449  1.00  0.00     0.000 C 
BRANCH   9  10
ATOM     10  C   UNL     1      73.076  79.200  76.077  1.00  0.00    -0.000 C 
BRANCH  10  11
ATOM     11  C   UNL     1      71.949  80.235  75.937  1.00  0.00    -0.000 C 
BRANCH  11  12
ATOM     12  C   UNL     1      72.418  81.448  75.118  1.00  0.00    -0.000 C 
BRANCH  12  13
ATOM     13  C   UNL     1      72.505  82.730  75.960  1.00  0.00    -0.003 C 
ATOM     14  C   UNL     1      71.724  82.632  77.270  1.00  0.00     0.004 C 
ENDBRANCH  12  13
ENDBRANCH  11  12
ENDBRANCH  10  11
ENDBRANCH   9  10
ENDBRANCH   1   9
TORSDOF 10
ENDMDL
MODEL 9
REMARK VINA RESULT:    -3.737      1.598      2.169
REMARK INTER + INTRA:          -6.798
REMARK INTER:                  -5.552
REMARK INTRA:                  -1.246
REMARK UNBOUND:                -0.876
REMARK SMILES CCCCCCCCCCCC(=O)[O-]
REMARK SMILES IDX 7 1 8 2 9 3 10 4 11 5 12 6 13 7 14 8 6 9 5 10 4 11 3 12 2 13
REMARK SMILES IDX 1 14
REMARK H PARENT
REMARK Flexibility Score: inf
ROOT
ATOM      1  C   UNL     1      74.441  81.588  77.990  1.00  0.00     0.000 C 
ENDROOT
BRANCH   1   2
ATOM      2  C   UNL     1      73.667  81.294  76.695  1.00  0.00     0.000 C 
BRANCH   2   3
ATOM      3  C   UNL     1      74.581  81.205  75.463  1.00  0.00     0.000 C 
BRANCH   3   4
ATOM      4  C   UNL     1      75.110  82.590  75.073  1.00  0.00     0.006 C 
BRANCH   4   5
ATOM      5  C   UNL     1      76.597  82.529  74.710  1.00  0.00     0.053 C 
BRANCH   5   6
ATOM      6  C   UNL     1      77.218  83.887  74.814  1.00  0.00     0.041 C 
ATOM      7  O   UNL     1      78.459  84.030  74.657  1.00  0.00    -0.550 OA
ATOM      8  O   UNL     1      76.419  85.001  75.034  1.00  0.00    -0.550 OA
ENDBRANCH   5   6
ENDBRANCH   4   5
ENDBRANCH   3   4
ENDBRANCH   2   3
ENDBRANCH   1   2
BRANCH   1   9
ATOM      9  C   UNL     1      75.091  80.327  78.589  1.00  0.00     0.000 C 
BRANCH   9  10
ATOM     10  C   UNL     1      76.542  80.567  79.037  1.00  0.00    -0.000 C 
BRANCH  10  11
ATOM     11  C   UNL     1      77.177  81.793  78.363  1.00  0.00    -0.000 C 
BRANCH  11  12
ATOM     12  C   UNL     1      78.636  81.508  77.972  1.00  0.00    -0.000 C 
BRANCH  12  13
ATOM     13  C   UNL     1      78.775  80.259  77.088  1.00  0.00    -0.003 C 
ATOM     14  C   UNL     1      79.470  80.550  75.757  1.00  0.00     0.004 C 
ENDBRANCH  12  13
ENDBRANCH  11  12
ENDBRANCH  10  11
ENDBRANCH   9  10
ENDBRANCH   1   9
TORSDOF 10
ENDMDL
