MODEL 1
REMARK VINA RESULT:    -6.292      0.000      0.000
REMARK INTER + INTRA:          -7.680
REMARK INTER:                  -7.395
REMARK INTRA:                  -0.285
REMARK UNBOUND:                -0.285
REMARK SMILES O=c1cc(-c2ccc(O)c(O)c2)oc2cc(O)cc(O)c12
REMARK SMILES IDX 4 1 3 2 2 3 1 4 21 5 19 6 18 7 16 8 15 9 14 10 13 11 5 12
REMARK SMILES IDX 6 13 7 14 8 15 12 16 10 17 9 18 11 20 20 22 17 24
REMARK H PARENT 9 19 11 21 20 23 17 25
REMARK Flexibility Score: inf
ROOT
ATOM      1  C   UNL     1     318.994 234.098 201.066  1.00  0.00     0.138 A 
ATOM      2  C   UNL     1     317.991 234.391 200.131  1.00  0.00     0.100 A 
ATOM      3  C   UNL     1     316.703 234.697 200.573  1.00  0.00     0.197 A 
ATOM      4  O   UNL     1     315.840 235.015 199.714  1.00  0.00    -0.289 OA
ATOM      5  C   UNL     1     316.412 234.679 201.958  1.00  0.00     0.107 A 
ATOM      6  C   UNL     1     315.126 234.934 202.521  1.00  0.00     0.134 A 
ATOM      7  C   UNL     1     314.983 235.002 203.912  1.00  0.00     0.093 A 
ATOM      8  C   UNL     1     316.068 234.765 204.761  1.00  0.00     0.123 A 
ATOM      9  C   UNL     1     317.316 234.463 204.220  1.00  0.00     0.094 A 
ATOM     10  C   UNL     1     317.497 234.420 202.837  1.00  0.00     0.146 A 
ATOM     11  O   UNL     1     318.707 234.142 202.363  1.00  0.00    -0.456 OA
ENDROOT
BRANCH   1  12
ATOM     12  C   UNL     1     320.380 233.766 200.650  1.00  0.00     0.021 A 
ATOM     13  C   UNL     1     320.650 232.724 199.746  1.00  0.00     0.016 A 
ATOM     14  C   UNL     1     321.965 232.426 199.381  1.00  0.00     0.051 A 
ATOM     15  C   UNL     1     323.036 233.152 199.912  1.00  0.00     0.157 A 
ATOM     16  C   UNL     1     321.457 234.486 201.194  1.00  0.00     0.062 A 
ATOM     17  C   UNL     1     322.779 234.194 200.832  1.00  0.00     0.158 A 
BRANCH  15  18
ATOM     18  O   UNL     1     324.325 232.805 199.503  1.00  0.00    -0.504 OA
ATOM     19  H   UNL     1     324.551 232.457 198.583  1.00  0.00     0.293 HD
ENDBRANCH  15  18
BRANCH  17  20
ATOM     20  O   UNL     1     323.796 234.960 201.408  1.00  0.00    -0.504 OA
ATOM     21  H   UNL     1     324.052 234.914 202.384  1.00  0.00     0.293 HD
ENDBRANCH  17  20
ENDBRANCH   1  12
BRANCH   6  22
ATOM     22  O   UNL     1     313.961 235.100 201.766  1.00  0.00    -0.507 OA
ATOM     23  H   UNL     1     313.777 235.882 201.156  1.00  0.00     0.293 HD
ENDBRANCH   6  22
BRANCH   8  24
ATOM     24  O   UNL     1     315.913 234.820 206.144  1.00  0.00    -0.508 OA
ATOM     25  H   UNL     1     316.336 235.557 206.697  1.00  0.00     0.293 HD
ENDBRANCH   8  24
TORSDOF 5
ENDMDL
MODEL 2
REMARK VINA RESULT:    -6.121     12.048     14.515
REMARK INTER + INTRA:          -7.480
REMARK INTER:                  -7.190
REMARK INTRA:                  -0.290
REMARK UNBOUND:                -0.285
REMARK SMILES O=c1cc(-c2ccc(O)c(O)c2)oc2cc(O)cc(O)c12
REMARK SMILES IDX 4 1 3 2 2 3 1 4 21 5 19 6 18 7 16 8 15 9 14 10 13 11 5 12
REMARK SMILES IDX 6 13 7 14 8 15 12 16 10 17 9 18 11 20 20 22 17 24
REMARK H PARENT 9 19 11 21 20 23 17 25
REMARK Flexibility Score: inf
ROOT
ATOM      1  C   UNL     1     308.002 225.696 204.711  1.00  0.00     0.138 A 
ATOM      2  C   UNL     1     307.153 225.929 205.802  1.00  0.00     0.100 A 
ATOM      3  C   UNL     1     306.684 227.220 206.048  1.00  0.00     0.197 A 
ATOM      4  O   UNL     1     305.875 227.387 206.997  1.00  0.00    -0.289 OA
ATOM      5  C   UNL     1     307.094 228.288 205.214  1.00  0.00     0.107 A 
ATOM      6  C   UNL     1     306.713 229.652 205.394  1.00  0.00     0.134 A 
ATOM      7  C   UNL     1     307.086 230.604 204.439  1.00  0.00     0.093 A 
ATOM      8  C   UNL     1     307.877 230.253 203.341  1.00  0.00     0.123 A 
ATOM      9  C   UNL     1     308.299 228.934 203.186  1.00  0.00     0.094 A 
ATOM     10  C   UNL     1     307.915 227.955 204.105  1.00  0.00     0.146 A 
ATOM     11  O   UNL     1     308.327 226.706 203.911  1.00  0.00    -0.456 OA
ENDROOT
BRANCH   1  12
ATOM     12  C   UNL     1     308.531 224.342 204.404  1.00  0.00     0.021 A 
ATOM     13  C   UNL     1     309.664 224.159 203.592  1.00  0.00     0.016 A 
ATOM     14  C   UNL     1     310.133 222.874 203.311  1.00  0.00     0.051 A 
ATOM     15  C   UNL     1     309.481 221.747 203.824  1.00  0.00     0.157 A 
ATOM     16  C   UNL     1     307.869 223.210 204.908  1.00  0.00     0.062 A 
ATOM     17  C   UNL     1     308.333 221.917 204.631  1.00  0.00     0.158 A 
BRANCH  15  18
ATOM     18  O   UNL     1     310.003 220.491 203.507  1.00  0.00    -0.504 OA
ATOM     19  H   UNL     1     310.978 220.246 203.599  1.00  0.00     0.293 HD
ENDBRANCH  15  18
BRANCH  17  20
ATOM     20  O   UNL     1     307.626 220.842 205.175  1.00  0.00    -0.504 OA
ATOM     21  H   UNL     1     306.652 220.883 205.439  1.00  0.00     0.293 HD
ENDBRANCH  17  20
ENDBRANCH   1  12
BRANCH   6  22
ATOM     22  O   UNL     1     305.995 230.123 206.498  1.00  0.00    -0.507 OA
ATOM     23  H   UNL     1     305.181 230.716 206.445  1.00  0.00     0.293 HD
ENDBRANCH   6  22
BRANCH   8  24
ATOM     24  O   UNL     1     308.256 231.211 202.404  1.00  0.00    -0.508 OA
ATOM     25  H   UNL     1     309.232 231.399 202.202  1.00  0.00     0.293 HD
ENDBRANCH   8  24
TORSDOF 5
ENDMDL
MODEL 3
REMARK VINA RESULT:    -6.120      1.775      7.834
REMARK INTER + INTRA:          -7.478
REMARK INTER:                  -7.193
REMARK INTRA:                  -0.285
REMARK UNBOUND:                -0.285
REMARK SMILES O=c1cc(-c2ccc(O)c(O)c2)oc2cc(O)cc(O)c12
REMARK SMILES IDX 4 1 3 2 2 3 1 4 21 5 19 6 18 7 16 8 15 9 14 10 13 11 5 12
REMARK SMILES IDX 6 13 7 14 8 15 12 16 10 17 9 18 11 20 20 22 17 24
REMARK H PARENT 9 19 11 21 20 23 17 25
REMARK Flexibility Score: inf
ROOT
ATOM      1  C   UNL     1     320.921 234.087 200.530  1.00  0.00     0.138 A 
ATOM      2  C   UNL     1     321.957 234.407 201.417  1.00  0.00     0.100 A 
ATOM      3  C   UNL     1     323.284 234.232 201.020  1.00  0.00     0.197 A 
ATOM      4  O   UNL     1     324.193 234.585 201.815  1.00  0.00    -0.289 OA
ATOM      5  C   UNL     1     323.571 233.706 199.738  1.00  0.00     0.107 A 
ATOM      6  C   UNL     1     324.884 233.446 199.242  1.00  0.00     0.134 A 
ATOM      7  C   UNL     1     325.050 233.034 197.915  1.00  0.00     0.093 A 
ATOM      8  C   UNL     1     323.947 232.813 197.084  1.00  0.00     0.123 A 
ATOM      9  C   UNL     1     322.660 233.012 197.577  1.00  0.00     0.094 A 
ATOM     10  C   UNL     1     322.463 233.456 198.886  1.00  0.00     0.146 A 
ATOM     11  O   UNL     1     321.218 233.647 199.312  1.00  0.00    -0.456 OA
ENDROOT
BRANCH   1  12
ATOM     12  C   UNL     1     319.492 234.253 200.901  1.00  0.00     0.021 A 
ATOM     13  C   UNL     1     318.513 234.578 199.945  1.00  0.00     0.016 A 
ATOM     14  C   UNL     1     317.180 234.739 200.324  1.00  0.00     0.051 A 
ATOM     15  C   UNL     1     316.793 234.586 201.659  1.00  0.00     0.157 A 
ATOM     16  C   UNL     1     319.105 234.113 202.245  1.00  0.00     0.062 A 
ATOM     17  C   UNL     1     317.769 234.272 202.633  1.00  0.00     0.158 A 
BRANCH  15  18
ATOM     18  O   UNL     1     315.442 234.757 201.971  1.00  0.00    -0.504 OA
ATOM     19  H   UNL     1     314.693 234.237 201.538  1.00  0.00     0.293 HD
ENDBRANCH  15  18
BRANCH  17  20
ATOM     20  O   UNL     1     317.460 234.109 203.986  1.00  0.00    -0.504 OA
ATOM     21  H   UNL     1     316.520 234.016 204.343  1.00  0.00     0.293 HD
ENDBRANCH  17  20
ENDBRANCH   1  12
BRANCH   6  22
ATOM     22  O   UNL     1     326.046 233.554 200.012  1.00  0.00    -0.507 OA
ATOM     23  H   UNL     1     326.369 234.402 200.452  1.00  0.00     0.293 HD
ENDBRANCH   6  22
BRANCH   8  24
ATOM     24  O   UNL     1     324.122 232.387 195.769  1.00  0.00    -0.508 OA
ATOM     25  H   UNL     1     324.738 232.877 195.130  1.00  0.00     0.293 HD
ENDBRANCH   8  24
TORSDOF 5
ENDMDL
MODEL 4
REMARK VINA RESULT:    -6.034     10.247     13.213
REMARK INTER + INTRA:          -7.377
REMARK INTER:                  -7.058
REMARK INTRA:                  -0.318
REMARK UNBOUND:                -0.285
REMARK SMILES O=c1cc(-c2ccc(O)c(O)c2)oc2cc(O)cc(O)c12
REMARK SMILES IDX 4 1 3 2 2 3 1 4 21 5 19 6 18 7 16 8 15 9 14 10 13 11 5 12
REMARK SMILES IDX 6 13 7 14 8 15 12 16 10 17 9 18 11 20 20 22 17 24
REMARK H PARENT 9 19 11 21 20 23 17 25
REMARK Flexibility Score: inf
ROOT
ATOM      1  C   UNL     1     308.635 228.037 204.256  1.00  0.00     0.138 A 
ATOM      2  C   UNL     1     307.489 227.678 204.979  1.00  0.00     0.100 A 
ATOM      3  C   UNL     1     307.204 226.329 205.195  1.00  0.00     0.197 A 
ATOM      4  O   UNL     1     306.202 226.038 205.899  1.00  0.00    -0.289 OA
ATOM      5  C   UNL     1     308.057 225.335 204.657  1.00  0.00     0.107 A 
ATOM      6  C   UNL     1     307.843 223.929 204.779  1.00  0.00     0.134 A 
ATOM      7  C   UNL     1     308.816 223.041 204.305  1.00  0.00     0.093 A 
ATOM      8  C   UNL     1     309.966 223.506 203.661  1.00  0.00     0.123 A 
ATOM      9  C   UNL     1     310.156 224.876 203.490  1.00  0.00     0.094 A 
ATOM     10  C   UNL     1     309.220 225.788 203.981  1.00  0.00     0.146 A 
ATOM     11  O   UNL     1     309.448 227.086 203.810  1.00  0.00    -0.456 OA
ENDROOT
BRANCH   1  12
ATOM     12  C   UNL     1     308.984 229.458 203.997  1.00  0.00     0.021 A 
ATOM     13  C   UNL     1     308.142 230.510 204.396  1.00  0.00     0.016 A 
ATOM     14  C   UNL     1     308.491 231.836 204.130  1.00  0.00     0.051 A 
ATOM     15  C   UNL     1     309.678 232.141 203.456  1.00  0.00     0.157 A 
ATOM     16  C   UNL     1     310.170 229.763 203.308  1.00  0.00     0.062 A 
ATOM     17  C   UNL     1     310.528 231.091 203.037  1.00  0.00     0.158 A 
BRANCH  15  18
ATOM     18  O   UNL     1     309.969 233.487 203.223  1.00  0.00    -0.504 OA
ATOM     19  H   UNL     1     310.889 233.891 203.326  1.00  0.00     0.293 HD
ENDBRANCH  15  18
BRANCH  17  20
ATOM     20  O   UNL     1     311.726 231.316 202.356  1.00  0.00    -0.504 OA
ATOM     21  H   UNL     1     312.504 231.835 202.737  1.00  0.00     0.293 HD
ENDBRANCH  17  20
ENDBRANCH   1  12
BRANCH   6  22
ATOM     22  O   UNL     1     306.692 223.358 205.330  1.00  0.00    -0.507 OA
ATOM     23  H   UNL     1     306.675 222.778 206.154  1.00  0.00     0.293 HD
ENDBRANCH   6  22
BRANCH   8  24
ATOM     24  O   UNL     1     310.921 222.614 203.179  1.00  0.00    -0.508 OA
ATOM     25  H   UNL     1     311.822 222.506 203.631  1.00  0.00     0.293 HD
ENDBRANCH   8  24
TORSDOF 5
ENDMDL
MODEL 5
REMARK VINA RESULT:    -5.993     10.063     12.746
REMARK INTER + INTRA:          -7.329
REMARK INTER:                  -7.014
REMARK INTRA:                  -0.315
REMARK UNBOUND:                -0.285
REMARK SMILES O=c1cc(-c2ccc(O)c(O)c2)oc2cc(O)cc(O)c12
REMARK SMILES IDX 4 1 3 2 2 3 1 4 21 5 19 6 18 7 16 8 15 9 14 10 13 11 5 12
REMARK SMILES IDX 6 13 7 14 8 15 12 16 10 17 9 18 11 20 20 22 17 24
REMARK H PARENT 9 19 11 21 20 23 17 25
REMARK Flexibility Score: inf
ROOT
ATOM      1  C   UNL     1     308.703 227.136 204.227  1.00  0.00     0.138 A 
ATOM      2  C   UNL     1     307.559 227.489 204.955  1.00  0.00     0.100 A 
ATOM      3  C   UNL     1     307.254 228.837 205.149  1.00  0.00     0.197 A 
ATOM      4  O   UNL     1     306.188 229.124 205.754  1.00  0.00    -0.289 OA
ATOM      5  C   UNL     1     308.117 229.835 204.638  1.00  0.00     0.107 A 
ATOM      6  C   UNL     1     307.929 231.239 204.811  1.00  0.00     0.134 A 
ATOM      7  C   UNL     1     308.785 232.135 204.161  1.00  0.00     0.093 A 
ATOM      8  C   UNL     1     309.860 231.677 203.393  1.00  0.00     0.123 A 
ATOM      9  C   UNL     1     310.084 230.309 203.263  1.00  0.00     0.094 A 
ATOM     10  C   UNL     1     309.227 229.390 203.872  1.00  0.00     0.146 A 
ATOM     11  O   UNL     1     309.468 228.093 203.710  1.00  0.00    -0.456 OA
ENDROOT
BRANCH   1  12
ATOM     12  C   UNL     1     309.075 225.718 203.990  1.00  0.00     0.021 A 
ATOM     13  C   UNL     1     308.169 224.668 204.221  1.00  0.00     0.016 A 
ATOM     14  C   UNL     1     308.549 223.343 204.001  1.00  0.00     0.051 A 
ATOM     15  C   UNL     1     309.838 223.034 203.554  1.00  0.00     0.157 A 
ATOM     16  C   UNL     1     310.374 225.406 203.554  1.00  0.00     0.062 A 
ATOM     17  C   UNL     1     310.764 224.079 203.330  1.00  0.00     0.158 A 
BRANCH  15  18
ATOM     18  O   UNL     1     310.153 221.689 203.350  1.00  0.00    -0.504 OA
ATOM     19  H   UNL     1     310.628 221.112 204.029  1.00  0.00     0.293 HD
ENDBRANCH  15  18
BRANCH  17  20
ATOM     20  O   UNL     1     312.069 223.849 202.889  1.00  0.00    -0.504 OA
ATOM     21  H   UNL     1     312.716 223.222 203.344  1.00  0.00     0.293 HD
ENDBRANCH  17  20
ENDBRANCH   1  12
BRANCH   6  22
ATOM     22  O   UNL     1     306.939 231.801 205.623  1.00  0.00    -0.507 OA
ATOM     23  H   UNL     1     306.344 232.571 205.358  1.00  0.00     0.293 HD
ENDBRANCH   6  22
BRANCH   8  24
ATOM     24  O   UNL     1     310.717 232.577 202.762  1.00  0.00    -0.508 OA
ATOM     25  H   UNL     1     310.701 232.710 201.757  1.00  0.00     0.293 HD
ENDBRANCH   8  24
TORSDOF 5
ENDMDL
MODEL 6
REMARK VINA RESULT:    -5.846      1.250      2.746
REMARK INTER + INTRA:          -7.156
REMARK INTER:                  -6.890
REMARK INTRA:                  -0.266
REMARK UNBOUND:                -0.285
REMARK SMILES O=c1cc(-c2ccc(O)c(O)c2)oc2cc(O)cc(O)c12
REMARK SMILES IDX 4 1 3 2 2 3 1 4 21 5 19 6 18 7 16 8 15 9 14 10 13 11 5 12
REMARK SMILES IDX 6 13 7 14 8 15 12 16 10 17 9 18 11 20 20 22 17 24
REMARK H PARENT 9 19 11 21 20 23 17 25
REMARK Flexibility Score: inf
ROOT
ATOM      1  C   UNL     1     319.010 234.071 201.199  1.00  0.00     0.138 A 
ATOM      2  C   UNL     1     318.763 234.006 202.577  1.00  0.00     0.100 A 
ATOM      3  C   UNL     1     317.485 234.291 203.062  1.00  0.00     0.197 A 
ATOM      4  O   UNL     1     317.278 234.165 204.297  1.00  0.00    -0.289 OA
ATOM      5  C   UNL     1     316.460 234.674 202.164  1.00  0.00     0.107 A 
ATOM      6  C   UNL     1     315.132 235.027 202.550  1.00  0.00     0.134 A 
ATOM      7  C   UNL     1     314.171 235.276 201.564  1.00  0.00     0.093 A 
ATOM      8  C   UNL     1     314.505 235.243 200.206  1.00  0.00     0.123 A 
ATOM      9  C   UNL     1     315.812 234.952 199.823  1.00  0.00     0.094 A 
ATOM     10  C   UNL     1     316.785 234.666 200.782  1.00  0.00     0.146 A 
ATOM     11  O   UNL     1     318.016 234.379 200.372  1.00  0.00    -0.456 OA
ENDROOT
BRANCH   1  12
ATOM     12  C   UNL     1     320.350 233.778 200.628  1.00  0.00     0.021 A 
ATOM     13  C   UNL     1     320.573 232.664 199.800  1.00  0.00     0.016 A 
ATOM     14  C   UNL     1     321.845 232.407 199.287  1.00  0.00     0.051 A 
ATOM     15  C   UNL     1     322.922 233.247 199.591  1.00  0.00     0.157 A 
ATOM     16  C   UNL     1     321.434 234.614 200.945  1.00  0.00     0.062 A 
ATOM     17  C   UNL     1     322.714 234.364 200.433  1.00  0.00     0.158 A 
BRANCH  15  18
ATOM     18  O   UNL     1     324.168 232.935 199.042  1.00  0.00    -0.504 OA
ATOM     19  H   UNL     1     325.002 233.485 199.187  1.00  0.00     0.293 HD
ENDBRANCH  15  18
BRANCH  17  20
ATOM     20  O   UNL     1     323.740 235.244 200.785  1.00  0.00    -0.504 OA
ATOM     21  H   UNL     1     323.903 235.573 201.726  1.00  0.00     0.293 HD
ENDBRANCH  17  20
ENDBRANCH   1  12
BRANCH   6  22
ATOM     22  O   UNL     1     314.716 235.170 203.877  1.00  0.00    -0.507 OA
ATOM     23  H   UNL     1     314.057 235.861 204.203  1.00  0.00     0.293 HD
ENDBRANCH   6  22
BRANCH   8  24
ATOM     24  O   UNL     1     313.545 235.508 199.232  1.00  0.00    -0.508 OA
ATOM     25  H   UNL     1     313.095 236.414 199.163  1.00  0.00     0.293 HD
ENDBRANCH   8  24
TORSDOF 5
ENDMDL
MODEL 7
REMARK VINA RESULT:    -5.735      3.848      6.388
REMARK INTER + INTRA:          -7.026
REMARK INTER:                  -6.761
REMARK INTRA:                  -0.265
REMARK UNBOUND:                -0.285
REMARK SMILES O=c1cc(-c2ccc(O)c(O)c2)oc2cc(O)cc(O)c12
REMARK SMILES IDX 4 1 3 2 2 3 1 4 21 5 19 6 18 7 16 8 15 9 14 10 13 11 5 12
REMARK SMILES IDX 6 13 7 14 8 15 12 16 10 17 9 18 11 20 20 22 17 24
REMARK H PARENT 9 19 11 21 20 23 17 25
REMARK Flexibility Score: inf
ROOT
ATOM      1  C   UNL     1     315.733 234.389 201.175  1.00  0.00     0.138 A 
ATOM      2  C   UNL     1     316.486 235.058 200.200  1.00  0.00     0.100 A 
ATOM      3  C   UNL     1     316.211 234.843 198.849  1.00  0.00     0.197 A 
ATOM      4  O   UNL     1     316.862 235.504 197.998  1.00  0.00    -0.289 OA
ATOM      5  C   UNL     1     315.198 233.929 198.473  1.00  0.00     0.107 A 
ATOM      6  C   UNL     1     314.859 233.600 197.126  1.00  0.00     0.134 A 
ATOM      7  C   UNL     1     313.761 232.770 196.875  1.00  0.00     0.093 A 
ATOM      8  C   UNL     1     313.025 232.209 197.923  1.00  0.00     0.123 A 
ATOM      9  C   UNL     1     313.382 232.482 199.242  1.00  0.00     0.094 A 
ATOM     10  C   UNL     1     314.452 233.333 199.524  1.00  0.00     0.146 A 
ATOM     11  O   UNL     1     314.750 233.579 200.796  1.00  0.00    -0.456 OA
ENDROOT
BRANCH   1  12
ATOM     12  C   UNL     1     315.983 234.581 202.627  1.00  0.00     0.021 A 
ATOM     13  C   UNL     1     315.005 235.125 203.479  1.00  0.00     0.016 A 
ATOM     14  C   UNL     1     315.272 235.304 204.837  1.00  0.00     0.051 A 
ATOM     15  C   UNL     1     316.514 234.953 205.375  1.00  0.00     0.157 A 
ATOM     16  C   UNL     1     317.235 234.241 203.164  1.00  0.00     0.062 A 
ATOM     17  C   UNL     1     317.510 234.417 204.526  1.00  0.00     0.158 A 
BRANCH  15  18
ATOM     18  O   UNL     1     316.714 235.155 206.742  1.00  0.00    -0.504 OA
ATOM     19  H   UNL     1     317.075 236.010 207.139  1.00  0.00     0.293 HD
ENDBRANCH  15  18
BRANCH  17  20
ATOM     20  O   UNL     1     318.776 234.047 204.988  1.00  0.00    -0.504 OA
ATOM     21  H   UNL     1     319.268 234.525 205.730  1.00  0.00     0.293 HD
ENDBRANCH  17  20
ENDBRANCH   1  12
BRANCH   6  22
ATOM     22  O   UNL     1     315.579 234.038 196.010  1.00  0.00    -0.507 OA
ATOM     23  H   UNL     1     316.060 233.434 195.361  1.00  0.00     0.293 HD
ENDBRANCH   6  22
BRANCH   8  24
ATOM     24  O   UNL     1     311.943 231.371 197.664  1.00  0.00    -0.508 OA
ATOM     25  H   UNL     1     312.075 230.416 197.348  1.00  0.00     0.293 HD
ENDBRANCH   8  24
TORSDOF 5
ENDMDL
MODEL 8
REMARK VINA RESULT:    -5.642      4.184      6.517
REMARK INTER + INTRA:          -6.917
REMARK INTER:                  -6.649
REMARK INTRA:                  -0.268
REMARK UNBOUND:                -0.285
REMARK SMILES O=c1cc(-c2ccc(O)c(O)c2)oc2cc(O)cc(O)c12
REMARK SMILES IDX 4 1 3 2 2 3 1 4 21 5 19 6 18 7 16 8 15 9 14 10 13 11 5 12
REMARK SMILES IDX 6 13 7 14 8 15 12 16 10 17 9 18 11 20 20 22 17 24
REMARK H PARENT 9 19 11 21 20 23 17 25
REMARK Flexibility Score: inf
ROOT
ATOM      1  C   UNL     1     314.961 233.980 201.891  1.00  0.00     0.138 A 
ATOM      2  C   UNL     1     313.873 233.101 201.976  1.00  0.00     0.100 A 
ATOM      3  C   UNL     1     313.290 232.608 200.807  1.00  0.00     0.197 A 
ATOM      4  O   UNL     1     312.355 231.773 200.915  1.00  0.00    -0.289 OA
ATOM      5  C   UNL     1     313.782 233.025 199.546  1.00  0.00     0.107 A 
ATOM      6  C   UNL     1     313.240 232.621 198.289  1.00  0.00     0.134 A 
ATOM      7  C   UNL     1     313.882 233.006 197.107  1.00  0.00     0.093 A 
ATOM      8  C   UNL     1     315.012 233.829 197.133  1.00  0.00     0.123 A 
ATOM      9  C   UNL     1     315.515 234.272 198.354  1.00  0.00     0.094 A 
ATOM     10  C   UNL     1     314.917 233.878 199.553  1.00  0.00     0.146 A 
ATOM     11  O   UNL     1     315.438 234.312 200.696  1.00  0.00    -0.456 OA
ENDROOT
BRANCH   1  12
ATOM     12  C   UNL     1     315.618 234.534 203.103  1.00  0.00     0.021 A 
ATOM     13  C   UNL     1     315.045 235.588 203.836  1.00  0.00     0.016 A 
ATOM     14  C   UNL     1     315.690 236.096 204.965  1.00  0.00     0.051 A 
ATOM     15  C   UNL     1     316.918 235.573 205.383  1.00  0.00     0.157 A 
ATOM     16  C   UNL     1     316.857 234.017 203.515  1.00  0.00     0.062 A 
ATOM     17  C   UNL     1     317.511 234.521 204.647  1.00  0.00     0.158 A 
BRANCH  15  18
ATOM     18  O   UNL     1     317.509 236.124 206.522  1.00  0.00    -0.504 OA
ATOM     19  H   UNL     1     317.252 235.877 207.467  1.00  0.00     0.293 HD
ENDBRANCH  15  18
BRANCH  17  20
ATOM     20  O   UNL     1     318.736 233.951 204.999  1.00  0.00    -0.504 OA
ATOM     21  H   UNL     1     318.847 233.252 205.720  1.00  0.00     0.293 HD
ENDBRANCH  17  20
ENDBRANCH   1  12
BRANCH   6  22
ATOM     22  O   UNL     1     312.070 231.869 198.148  1.00  0.00    -0.507 OA
ATOM     23  H   UNL     1     311.965 231.076 197.534  1.00  0.00     0.293 HD
ENDBRANCH   6  22
BRANCH   8  24
ATOM     24  O   UNL     1     315.635 234.220 195.950  1.00  0.00    -0.508 OA
ATOM     25  H   UNL     1     316.048 235.139 195.847  1.00  0.00     0.293 HD
ENDBRANCH   8  24
TORSDOF 5
ENDMDL
