MODEL 1
REMARK VINA RESULT:     3.469      0.000      0.000
REMARK INTER + INTRA:           9.992
REMARK INTER:                   7.525
REMARK INTRA:                   2.467
REMARK UNBOUND:                 2.467
REMARK SMILES CCCCCCCCCCCCCCCCCCCCCC(=O)[O-]
REMARK SMILES IDX 12 1 11 2 10 3 9 4 8 5 7 6 6 7 5 8 4 9 3 10 2 11 1 12 13 13
REMARK SMILES IDX 14 14 15 15 16 16 17 17 18 18 19 19 20 20 21 21 22 22 23 23
REMARK SMILES IDX 24 24
REMARK H PARENT
REMARK Flexibility Score: inf
ROOT
ATOM      1  C   UNL     1      -9.232  16.472 -11.877  1.00  0.00     0.000 C 
ENDROOT
BRANCH   1   2
ATOM      2  C   UNL     1      -7.841  16.019 -11.418  1.00  0.00     0.000 C 
BRANCH   2   3
ATOM      3  C   UNL     1      -7.644  14.515 -11.658  1.00  0.00     0.000 C 
BRANCH   3   4
ATOM      4  C   UNL     1      -6.977  13.810 -10.467  1.00  0.00    -0.000 C 
BRANCH   4   5
ATOM      5  C   UNL     1      -6.677  12.327 -10.752  1.00  0.00    -0.000 C 
BRANCH   5   6
ATOM      6  C   UNL     1      -6.602  12.020 -12.256  1.00  0.00    -0.000 C 
BRANCH   6   7
ATOM      7  C   UNL     1      -5.162  12.078 -12.798  1.00  0.00    -0.000 C 
BRANCH   7   8
ATOM      8  C   UNL     1      -4.914  13.309 -13.685  1.00  0.00    -0.000 C 
BRANCH   8   9
ATOM      9  C   UNL     1      -5.433  13.119 -15.119  1.00  0.00    -0.000 C 
BRANCH   9  10
ATOM     10  C   UNL     1      -6.747  12.322 -15.123  1.00  0.00    -0.000 C 
BRANCH  10  11
ATOM     11  C   UNL     1      -7.960  13.184 -14.737  1.00  0.00    -0.003 C 
ATOM     12  C   UNL     1      -9.291  12.461 -14.948  1.00  0.00     0.004 C 
ENDBRANCH  10  11
ENDBRANCH   9  10
ENDBRANCH   8   9
ENDBRANCH   7   8
ENDBRANCH   6   7
ENDBRANCH   5   6
ENDBRANCH   4   5
ENDBRANCH   3   4
ENDBRANCH   2   3
ENDBRANCH   1   2
BRANCH   1  13
ATOM     13  C   UNL     1      -9.318  16.517 -13.411  1.00  0.00     0.000 C 
BRANCH  13  14
ATOM     14  C   UNL     1      -8.171  15.741 -14.092  1.00  0.00     0.000 C 
BRANCH  14  15
ATOM     15  C   UNL     1      -7.376  16.574 -15.115  1.00  0.00     0.000 C 
BRANCH  15  16
ATOM     16  C   UNL     1      -5.855  16.340 -15.107  1.00  0.00     0.000 C 
BRANCH  16  17
ATOM     17  C   UNL     1      -4.998  17.619 -15.053  1.00  0.00     0.000 C 
BRANCH  17  18
ATOM     18  C   UNL     1      -5.641  18.734 -14.215  1.00  0.00     0.000 C 
BRANCH  18  19
ATOM     19  C   UNL     1      -5.037  20.099 -14.564  1.00  0.00     0.000 C 
BRANCH  19  20
ATOM     20  C   UNL     1      -5.297  21.118 -13.448  1.00  0.00     0.006 C 
BRANCH  20  21
ATOM     21  C   UNL     1      -6.084  20.485 -12.297  1.00  0.00     0.053 C 
BRANCH  21  22
ATOM     22  C   UNL     1      -7.453  20.089 -12.753  1.00  0.00     0.041 C 
ATOM     23  O   UNL     1      -8.021  19.083 -12.253  1.00  0.00    -0.550 OA
ATOM     24  O   UNL     1      -8.121  20.858 -13.697  1.00  0.00    -0.550 OA
ENDBRANCH  21  22
ENDBRANCH  20  21
ENDBRANCH  19  20
ENDBRANCH  18  19
ENDBRANCH  17  18
ENDBRANCH  16  17
ENDBRANCH  15  16
ENDBRANCH  14  15
ENDBRANCH  13  14
ENDBRANCH   1  13
TORSDOF 20
ENDMDL
MODEL 2
REMARK VINA RESULT:     4.990      4.300      7.699
REMARK INTER + INTRA:          13.292
REMARK INTER:                  14.521
REMARK INTRA:                  -1.229
REMARK UNBOUND:                 2.467
REMARK SMILES CCCCCCCCCCCCCCCCCCCCCC(=O)[O-]
REMARK SMILES IDX 12 1 11 2 10 3 9 4 8 5 7 6 6 7 5 8 4 9 3 10 2 11 1 12 13 13
REMARK SMILES IDX 14 14 15 15 16 16 17 17 18 18 19 19 20 20 21 21 22 22 23 23
REMARK SMILES IDX 24 24
REMARK H PARENT
REMARK Flexibility Score: inf
ROOT
ATOM      1  C   UNL     1      -8.179  17.098 -12.382  1.00  0.00     0.000 C 
ENDROOT
BRANCH   1   2
ATOM      2  C   UNL     1      -8.473  18.014 -13.576  1.00  0.00     0.000 C 
BRANCH   2   3
ATOM      3  C   UNL     1      -8.272  19.491 -13.201  1.00  0.00     0.000 C 
BRANCH   3   4
ATOM      4  C   UNL     1      -6.852  19.989 -13.512  1.00  0.00    -0.000 C 
BRANCH   4   5
ATOM      5  C   UNL     1      -5.764  19.102 -12.880  1.00  0.00    -0.000 C 
BRANCH   5   6
ATOM      6  C   UNL     1      -4.893  18.400 -13.934  1.00  0.00    -0.000 C 
BRANCH   6   7
ATOM      7  C   UNL     1      -5.087  16.873 -13.936  1.00  0.00    -0.000 C 
BRANCH   7   8
ATOM      8  C   UNL     1      -5.931  16.386 -15.124  1.00  0.00    -0.000 C 
BRANCH   8   9
ATOM      9  C   UNL     1      -6.341  14.911 -14.993  1.00  0.00    -0.000 C 
BRANCH   9  10
ATOM     10  C   UNL     1      -6.316  14.465 -13.523  1.00  0.00    -0.000 C 
BRANCH  10  11
ATOM     11  C   UNL     1      -7.187  13.225 -13.268  1.00  0.00    -0.003 C 
ATOM     12  C   UNL     1      -8.034  12.837 -14.481  1.00  0.00     0.004 C 
ENDBRANCH  10  11
ENDBRANCH   9  10
ENDBRANCH   8   9
ENDBRANCH   7   8
ENDBRANCH   6   7
ENDBRANCH   5   6
ENDBRANCH   4   5
ENDBRANCH   3   4
ENDBRANCH   2   3
ENDBRANCH   1   2
BRANCH   1  13
ATOM     13  C   UNL     1      -9.264  16.019 -12.237  1.00  0.00     0.000 C 
BRANCH  13  14
ATOM     14  C   UNL     1     -10.186  16.265 -11.024  1.00  0.00     0.000 C 
BRANCH  14  15
ATOM     15  C   UNL     1     -10.284  15.066 -10.062  1.00  0.00     0.000 C 
BRANCH  15  16
ATOM     16  C   UNL     1     -11.100  15.320  -8.782  1.00  0.00     0.000 C 
BRANCH  16  17
ATOM     17  C   UNL     1     -11.542  14.052  -8.027  1.00  0.00     0.000 C 
BRANCH  17  18
ATOM     18  C   UNL     1     -10.439  12.988  -7.948  1.00  0.00     0.000 C 
BRANCH  18  19
ATOM     19  C   UNL     1     -10.088  12.669  -6.490  1.00  0.00     0.000 C 
BRANCH  19  20
ATOM     20  C   UNL     1      -9.032  11.560  -6.407  1.00  0.00     0.006 C 
BRANCH  20  21
ATOM     21  C   UNL     1      -8.692  11.232  -4.950  1.00  0.00     0.053 C 
BRANCH  21  22
ATOM     22  C   UNL     1      -7.429  11.919  -4.538  1.00  0.00     0.041 C 
ATOM     23  O   UNL     1      -6.965  12.862  -5.233  1.00  0.00    -0.550 OA
ATOM     24  O   UNL     1      -6.789  11.551  -3.362  1.00  0.00    -0.550 OA
ENDBRANCH  21  22
ENDBRANCH  20  21
ENDBRANCH  19  20
ENDBRANCH  18  19
ENDBRANCH  17  18
ENDBRANCH  16  17
ENDBRANCH  15  16
ENDBRANCH  14  15
ENDBRANCH  13  14
ENDBRANCH   1  13
TORSDOF 20
ENDMDL
MODEL 3
REMARK VINA RESULT:     4.999      4.120      7.623
REMARK INTER + INTRA:          13.311
REMARK INTER:                  14.545
REMARK INTRA:                  -1.234
REMARK UNBOUND:                 2.467
REMARK SMILES CCCCCCCCCCCCCCCCCCCCCC(=O)[O-]
REMARK SMILES IDX 12 1 11 2 10 3 9 4 8 5 7 6 6 7 5 8 4 9 3 10 2 11 1 12 13 13
REMARK SMILES IDX 14 14 15 15 16 16 17 17 18 18 19 19 20 20 21 21 22 22 23 23
REMARK SMILES IDX 24 24
REMARK H PARENT
REMARK Flexibility Score: inf
ROOT
ATOM      1  C   UNL     1      -9.323  16.088 -12.753  1.00  0.00     0.000 C 
ENDROOT
BRANCH   1   2
ATOM      2  C   UNL     1      -8.842  16.994 -13.893  1.00  0.00     0.000 C 
BRANCH   2   3
ATOM      3  C   UNL     1      -8.240  16.166 -15.039  1.00  0.00     0.000 C 
BRANCH   3   4
ATOM      4  C   UNL     1      -8.442  14.655 -14.845  1.00  0.00    -0.000 C 
BRANCH   4   5
ATOM      5  C   UNL     1      -7.119  13.871 -14.903  1.00  0.00    -0.000 C 
BRANCH   5   6
ATOM      6  C   UNL     1      -6.040  14.470 -13.987  1.00  0.00    -0.000 C 
BRANCH   6   7
ATOM      7  C   UNL     1      -4.886  15.112 -14.778  1.00  0.00    -0.000 C 
BRANCH   7   8
ATOM      8  C   UNL     1      -5.155  16.586 -15.125  1.00  0.00    -0.000 C 
BRANCH   8   9
ATOM      9  C   UNL     1      -4.890  17.529 -13.942  1.00  0.00    -0.000 C 
BRANCH   9  10
ATOM     10  C   UNL     1      -5.213  18.983 -14.319  1.00  0.00    -0.000 C 
BRANCH  10  11
ATOM     11  C   UNL     1      -6.431  19.532 -13.560  1.00  0.00    -0.003 C 
ATOM     12  C   UNL     1      -6.787  20.963 -13.967  1.00  0.00     0.004 C 
ENDBRANCH  10  11
ENDBRANCH   9  10
ENDBRANCH   8   9
ENDBRANCH   7   8
ENDBRANCH   6   7
ENDBRANCH   5   6
ENDBRANCH   4   5
ENDBRANCH   3   4
ENDBRANCH   2   3
ENDBRANCH   1   2
BRANCH   1  13
ATOM     13  C   UNL     1      -8.441  16.258 -11.507  1.00  0.00     0.000 C 
BRANCH  13  14
ATOM     14  C   UNL     1      -7.226  15.306 -11.505  1.00  0.00     0.000 C 
BRANCH  14  15
ATOM     15  C   UNL     1      -7.591  13.832 -11.247  1.00  0.00     0.000 C 
BRANCH  15  16
ATOM     16  C   UNL     1      -7.966  13.497  -9.792  1.00  0.00     0.000 C 
BRANCH  16  17
ATOM     17  C   UNL     1      -9.443  13.121  -9.569  1.00  0.00     0.000 C 
BRANCH  17  18
ATOM     18  C   UNL     1      -9.891  13.297  -8.111  1.00  0.00     0.000 C 
BRANCH  18  19
ATOM     19  C   UNL     1      -9.662  12.012  -7.308  1.00  0.00     0.000 C 
BRANCH  19  20
ATOM     20  C   UNL     1      -9.087  12.324  -5.920  1.00  0.00     0.006 C 
BRANCH  20  21
ATOM     21  C   UNL     1      -8.272  11.144  -5.384  1.00  0.00     0.053 C 
BRANCH  21  22
ATOM     22  C   UNL     1      -7.169  11.628  -4.498  1.00  0.00     0.041 C 
ATOM     23  O   UNL     1      -6.173  12.219  -4.992  1.00  0.00    -0.550 OA
ATOM     24  O   UNL     1      -7.262  11.470  -3.121  1.00  0.00    -0.550 OA
ENDBRANCH  21  22
ENDBRANCH  20  21
ENDBRANCH  19  20
ENDBRANCH  18  19
ENDBRANCH  17  18
ENDBRANCH  16  17
ENDBRANCH  15  16
ENDBRANCH  14  15
ENDBRANCH  13  14
ENDBRANCH   1  13
TORSDOF 20
ENDMDL
MODEL 4
REMARK VINA RESULT:     5.061      3.428      5.529
REMARK INTER + INTRA:          13.445
REMARK INTER:                  15.026
REMARK INTRA:                  -1.581
REMARK UNBOUND:                 2.467
REMARK SMILES CCCCCCCCCCCCCCCCCCCCCC(=O)[O-]
REMARK SMILES IDX 12 1 11 2 10 3 9 4 8 5 7 6 6 7 5 8 4 9 3 10 2 11 1 12 13 13
REMARK SMILES IDX 14 14 15 15 16 16 17 17 18 18 19 19 20 20 21 21 22 22 23 23
REMARK SMILES IDX 24 24
REMARK H PARENT
REMARK Flexibility Score: inf
ROOT
ATOM      1  C   UNL     1      -7.446  14.620 -11.904  1.00  0.00     0.000 C 
ENDROOT
BRANCH   1   2
ATOM      2  C   UNL     1      -7.707  13.896 -10.578  1.00  0.00     0.000 C 
BRANCH   2   3
ATOM      3  C   UNL     1      -9.201  13.917 -10.222  1.00  0.00     0.000 C 
BRANCH   3   4
ATOM      4  C   UNL     1      -9.502  13.205  -8.894  1.00  0.00    -0.000 C 
BRANCH   4   5
ATOM      5  C   UNL     1     -10.792  13.717  -8.229  1.00  0.00    -0.000 C 
BRANCH   5   6
ATOM      6  C   UNL     1     -11.113  12.977  -6.921  1.00  0.00    -0.000 C 
BRANCH   6   7
ATOM      7  C   UNL     1      -9.860  12.724  -6.064  1.00  0.00    -0.000 C 
BRANCH   7   8
ATOM      8  C   UNL     1      -9.750  11.265  -5.593  1.00  0.00    -0.000 C 
BRANCH   8   9
ATOM      9  C   UNL     1      -8.293  10.801  -5.439  1.00  0.00    -0.000 C 
BRANCH   9  10
ATOM     10  C   UNL     1      -7.538  11.693  -4.442  1.00  0.00    -0.000 C 
BRANCH  10  11
ATOM     11  C   UNL     1      -6.237  12.264  -5.029  1.00  0.00    -0.003 C 
ATOM     12  C   UNL     1      -6.462  13.027  -6.334  1.00  0.00     0.004 C 
ENDBRANCH  10  11
ENDBRANCH   9  10
ENDBRANCH   8   9
ENDBRANCH   7   8
ENDBRANCH   6   7
ENDBRANCH   5   6
ENDBRANCH   4   5
ENDBRANCH   3   4
ENDBRANCH   2   3
ENDBRANCH   1   2
BRANCH   1  13
ATOM     13  C   UNL     1      -6.733  13.697 -12.904  1.00  0.00     0.000 C 
BRANCH  13  14
ATOM     14  C   UNL     1      -7.254  13.870 -14.346  1.00  0.00     0.000 C 
BRANCH  14  15
ATOM     15  C   UNL     1      -6.953  15.253 -14.955  1.00  0.00     0.000 C 
BRANCH  15  16
ATOM     16  C   UNL     1      -5.462  15.632 -15.012  1.00  0.00     0.000 C 
BRANCH  16  17
ATOM     17  C   UNL     1      -5.102  16.968 -14.336  1.00  0.00     0.000 C 
BRANCH  17  18
ATOM     18  C   UNL     1      -5.894  18.156 -14.899  1.00  0.00     0.000 C 
BRANCH  18  19
ATOM     19  C   UNL     1      -5.816  19.363 -13.957  1.00  0.00     0.000 C 
BRANCH  19  20
ATOM     20  C   UNL     1      -7.188  19.681 -13.352  1.00  0.00     0.006 C 
BRANCH  20  21
ATOM     21  C   UNL     1      -8.283  18.817 -13.986  1.00  0.00     0.053 C 
BRANCH  21  22
ATOM     22  C   UNL     1      -8.779  17.799 -13.008  1.00  0.00     0.041 C 
ATOM     23  O   UNL     1      -8.429  17.858 -11.800  1.00  0.00    -0.550 OA
ATOM     24  O   UNL     1      -9.666  16.814 -13.421  1.00  0.00    -0.550 OA
ENDBRANCH  21  22
ENDBRANCH  20  21
ENDBRANCH  19  20
ENDBRANCH  18  19
ENDBRANCH  17  18
ENDBRANCH  16  17
ENDBRANCH  15  16
ENDBRANCH  14  15
ENDBRANCH  13  14
ENDBRANCH   1  13
TORSDOF 20
ENDMDL
MODEL 5
REMARK VINA RESULT:     5.120      3.294      5.513
REMARK INTER + INTRA:          13.572
REMARK INTER:                  15.006
REMARK INTRA:                  -1.434
REMARK UNBOUND:                 2.467
REMARK SMILES CCCCCCCCCCCCCCCCCCCCCC(=O)[O-]
REMARK SMILES IDX 12 1 11 2 10 3 9 4 8 5 7 6 6 7 5 8 4 9 3 10 2 11 1 12 13 13
REMARK SMILES IDX 14 14 15 15 16 16 17 17 18 18 19 19 20 20 21 21 22 22 23 23
REMARK SMILES IDX 24 24
REMARK H PARENT
REMARK Flexibility Score: inf
ROOT
ATOM      1  C   UNL     1      -7.713  14.227 -11.491  1.00  0.00     0.000 C 
ENDROOT
BRANCH   1   2
ATOM      2  C   UNL     1      -8.537  15.467 -11.859  1.00  0.00     0.000 C 
BRANCH   2   3
ATOM      3  C   UNL     1      -9.426  15.907 -10.686  1.00  0.00     0.000 C 
BRANCH   3   4
ATOM      4  C   UNL     1     -10.420  14.817 -10.257  1.00  0.00    -0.000 C 
BRANCH   4   5
ATOM      5  C   UNL     1     -10.951  15.032  -8.829  1.00  0.00    -0.000 C 
BRANCH   5   6
ATOM      6  C   UNL     1     -11.311  13.711  -8.130  1.00  0.00    -0.000 C 
BRANCH   6   7
ATOM      7  C   UNL     1     -10.191  13.212  -7.199  1.00  0.00    -0.000 C 
BRANCH   7   8
ATOM      8  C   UNL     1     -10.729  12.671  -5.864  1.00  0.00    -0.000 C 
BRANCH   8   9
ATOM      9  C   UNL     1      -9.864  11.535  -5.296  1.00  0.00    -0.000 C 
BRANCH   9  10
ATOM     10  C   UNL     1      -8.499  11.482  -5.999  1.00  0.00    -0.000 C 
BRANCH  10  11
ATOM     11  C   UNL     1      -7.366  12.051  -5.130  1.00  0.00    -0.003 C 
ATOM     12  C   UNL     1      -6.485  13.047  -5.885  1.00  0.00     0.004 C 
ENDBRANCH  10  11
ENDBRANCH   9  10
ENDBRANCH   8   9
ENDBRANCH   7   8
ENDBRANCH   6   7
ENDBRANCH   5   6
ENDBRANCH   4   5
ENDBRANCH   3   4
ENDBRANCH   2   3
ENDBRANCH   1   2
BRANCH   1  13
ATOM     13  C   UNL     1      -6.753  13.847 -12.629  1.00  0.00     0.000 C 
BRANCH  13  14
ATOM     14  C   UNL     1      -7.491  13.551 -13.952  1.00  0.00     0.000 C 
BRANCH  14  15
ATOM     15  C   UNL     1      -7.272  14.620 -15.040  1.00  0.00     0.000 C 
BRANCH  15  16
ATOM     16  C   UNL     1      -5.897  15.313 -15.007  1.00  0.00     0.000 C 
BRANCH  16  17
ATOM     17  C   UNL     1      -5.903  16.747 -14.444  1.00  0.00     0.000 C 
BRANCH  17  18
ATOM     18  C   UNL     1      -7.060  17.598 -14.986  1.00  0.00     0.000 C 
BRANCH  18  19
ATOM     19  C   UNL     1      -8.102  17.868 -13.894  1.00  0.00     0.000 C 
BRANCH  19  20
ATOM     20  C   UNL     1      -8.028  19.321 -13.409  1.00  0.00     0.006 C 
BRANCH  20  21
ATOM     21  C   UNL     1      -7.072  20.143 -14.278  1.00  0.00     0.053 C 
BRANCH  21  22
ATOM     22  C   UNL     1      -5.957  20.698 -13.449  1.00  0.00     0.041 C 
ATOM     23  O   UNL     1      -4.893  21.088 -13.999  1.00  0.00    -0.550 OA
ATOM     24  O   UNL     1      -6.110  20.830 -12.076  1.00  0.00    -0.550 OA
ENDBRANCH  21  22
ENDBRANCH  20  21
ENDBRANCH  19  20
ENDBRANCH  18  19
ENDBRANCH  17  18
ENDBRANCH  16  17
ENDBRANCH  15  16
ENDBRANCH  14  15
ENDBRANCH  13  14
ENDBRANCH   1  13
TORSDOF 20
ENDMDL
MODEL 6
REMARK VINA RESULT:     5.337      3.914      6.067
REMARK INTER + INTRA:          14.043
REMARK INTER:                  15.326
REMARK INTRA:                  -1.283
REMARK UNBOUND:                 2.467
REMARK SMILES CCCCCCCCCCCCCCCCCCCCCC(=O)[O-]
REMARK SMILES IDX 12 1 11 2 10 3 9 4 8 5 7 6 6 7 5 8 4 9 3 10 2 11 1 12 13 13
REMARK SMILES IDX 14 14 15 15 16 16 17 17 18 18 19 19 20 20 21 21 22 22 23 23
REMARK SMILES IDX 24 24
REMARK H PARENT
REMARK Flexibility Score: inf
ROOT
ATOM      1  C   UNL     1      -9.586  15.887 -11.324  1.00  0.00     0.000 C 
ENDROOT
BRANCH   1   2
ATOM      2  C   UNL     1      -9.892  14.867 -10.221  1.00  0.00     0.000 C 
BRANCH   2   3
ATOM      3  C   UNL     1     -10.870  15.448  -9.188  1.00  0.00     0.000 C 
BRANCH   3   4
ATOM      4  C   UNL     1     -11.926  14.428  -8.736  1.00  0.00    -0.000 C 
BRANCH   4   5
ATOM      5  C   UNL     1     -11.576  13.776  -7.386  1.00  0.00    -0.000 C 
BRANCH   5   6
ATOM      6  C   UNL     1     -10.290  12.937  -7.454  1.00  0.00    -0.000 C 
BRANCH   6   7
ATOM      7  C   UNL     1      -9.708  12.638  -6.061  1.00  0.00    -0.000 C 
BRANCH   7   8
ATOM      8  C   UNL     1      -8.455  11.750  -6.121  1.00  0.00    -0.000 C 
BRANCH   8   9
ATOM      9  C   UNL     1      -7.257  12.367  -5.383  1.00  0.00    -0.000 C 
BRANCH   9  10
ATOM     10  C   UNL     1      -6.616  11.345  -4.432  1.00  0.00    -0.000 C 
BRANCH  10  11
ATOM     11  C   UNL     1      -7.419  11.163  -3.134  1.00  0.00    -0.003 C 
ATOM     12  C   UNL     1      -6.528  10.906  -1.918  1.00  0.00     0.004 C 
ENDBRANCH  10  11
ENDBRANCH   9  10
ENDBRANCH   8   9
ENDBRANCH   7   8
ENDBRANCH   6   7
ENDBRANCH   5   6
ENDBRANCH   4   5
ENDBRANCH   3   4
ENDBRANCH   2   3
ENDBRANCH   1   2
BRANCH   1  13
ATOM     13  C   UNL     1      -8.093  15.876 -11.685  1.00  0.00     0.000 C 
BRANCH  13  14
ATOM     14  C   UNL     1      -7.447  14.487 -11.493  1.00  0.00     0.000 C 
BRANCH  14  15
ATOM     15  C   UNL     1      -7.169  13.742 -12.812  1.00  0.00     0.000 C 
BRANCH  15  16
ATOM     16  C   UNL     1      -7.812  14.367 -14.063  1.00  0.00     0.000 C 
BRANCH  16  17
ATOM     17  C   UNL     1      -6.817  14.872 -15.125  1.00  0.00     0.000 C 
BRANCH  17  18
ATOM     18  C   UNL     1      -5.823  15.903 -14.571  1.00  0.00     0.000 C 
BRANCH  18  19
ATOM     19  C   UNL     1      -6.354  17.330 -14.752  1.00  0.00     0.000 C 
BRANCH  19  20
ATOM     20  C   UNL     1      -5.435  18.351 -14.071  1.00  0.00     0.006 C 
BRANCH  20  21
ATOM     21  C   UNL     1      -5.713  19.768 -14.582  1.00  0.00     0.053 C 
BRANCH  21  22
ATOM     22  C   UNL     1      -6.860  20.377 -13.839  1.00  0.00     0.041 C 
ATOM     23  O   UNL     1      -6.841  20.435 -12.581  1.00  0.00    -0.550 OA
ATOM     24  O   UNL     1      -7.929  20.923 -14.537  1.00  0.00    -0.550 OA
ENDBRANCH  21  22
ENDBRANCH  20  21
ENDBRANCH  19  20
ENDBRANCH  18  19
ENDBRANCH  17  18
ENDBRANCH  16  17
ENDBRANCH  15  16
ENDBRANCH  14  15
ENDBRANCH  13  14
ENDBRANCH   1  13
TORSDOF 20
ENDMDL
MODEL 7
REMARK VINA RESULT:     5.365      1.992      4.097
REMARK INTER + INTRA:          14.105
REMARK INTER:                  13.000
REMARK INTRA:                   1.105
REMARK UNBOUND:                 2.467
REMARK SMILES CCCCCCCCCCCCCCCCCCCCCC(=O)[O-]
REMARK SMILES IDX 12 1 11 2 10 3 9 4 8 5 7 6 6 7 5 8 4 9 3 10 2 11 1 12 13 13
REMARK SMILES IDX 14 14 15 15 16 16 17 17 18 18 19 19 20 20 21 21 22 22 23 23
REMARK SMILES IDX 24 24
REMARK H PARENT
REMARK Flexibility Score: inf
ROOT
ATOM      1  C   UNL     1      -7.172  14.658 -14.553  1.00  0.00     0.000 C 
ENDROOT
BRANCH   1   2
ATOM      2  C   UNL     1      -6.984  13.225 -15.065  1.00  0.00     0.000 C 
BRANCH   2   3
ATOM      3  C   UNL     1      -5.495  12.852 -15.125  1.00  0.00     0.000 C 
BRANCH   3   4
ATOM      4  C   UNL     1      -5.060  11.966 -13.947  1.00  0.00    -0.000 C 
BRANCH   4   5
ATOM      5  C   UNL     1      -5.186  12.684 -12.592  1.00  0.00    -0.000 C 
BRANCH   5   6
ATOM      6  C   UNL     1      -6.649  12.867 -12.156  1.00  0.00    -0.000 C 
BRANCH   6   7
ATOM      7  C   UNL     1      -6.926  14.275 -11.602  1.00  0.00    -0.000 C 
BRANCH   7   8
ATOM      8  C   UNL     1      -7.712  14.247 -10.280  1.00  0.00    -0.000 C 
BRANCH   8   9
ATOM      9  C   UNL     1      -8.974  13.376 -10.361  1.00  0.00    -0.000 C 
BRANCH   9  10
ATOM     10  C   UNL     1      -9.551  13.116  -8.961  1.00  0.00    -0.000 C 
BRANCH  10  11
ATOM     11  C   UNL     1     -10.726  14.047  -8.625  1.00  0.00    -0.003 C 
ATOM     12  C   UNL     1     -11.638  13.481  -7.537  1.00  0.00     0.004 C 
ENDBRANCH  10  11
ENDBRANCH   9  10
ENDBRANCH   8   9
ENDBRANCH   7   8
ENDBRANCH   6   7
ENDBRANCH   5   6
ENDBRANCH   4   5
ENDBRANCH   3   4
ENDBRANCH   2   3
ENDBRANCH   1   2
BRANCH   1  13
ATOM     13  C   UNL     1      -5.877  15.472 -14.708  1.00  0.00     0.000 C 
BRANCH  13  14
ATOM     14  C   UNL     1      -6.144  16.944 -15.089  1.00  0.00     0.000 C 
BRANCH  14  15
ATOM     15  C   UNL     1      -4.876  17.818 -15.124  1.00  0.00     0.000 C 
BRANCH  15  16
ATOM     16  C   UNL     1      -5.126  19.335 -15.038  1.00  0.00     0.000 C 
BRANCH  16  17
ATOM     17  C   UNL     1      -5.306  19.887 -13.611  1.00  0.00     0.000 C 
BRANCH  17  18
ATOM     18  C   UNL     1      -6.292  21.062 -13.544  1.00  0.00     0.000 C 
BRANCH  18  19
ATOM     19  C   UNL     1      -7.426  20.884 -14.559  1.00  0.00     0.000 C 
BRANCH  19  20
ATOM     20  C   UNL     1      -8.231  19.611 -14.270  1.00  0.00     0.006 C 
BRANCH  20  21
ATOM     21  C   UNL     1      -8.101  19.200 -12.801  1.00  0.00     0.053 C 
BRANCH  21  22
ATOM     22  C   UNL     1      -8.449  17.755 -12.628  1.00  0.00     0.041 C 
ATOM     23  O   UNL     1      -7.662  16.981 -12.022  1.00  0.00    -0.550 OA
ATOM     24  O   UNL     1      -9.664  17.272 -13.095  1.00  0.00    -0.550 OA
ENDBRANCH  21  22
ENDBRANCH  20  21
ENDBRANCH  19  20
ENDBRANCH  18  19
ENDBRANCH  17  18
ENDBRANCH  16  17
ENDBRANCH  15  16
ENDBRANCH  14  15
ENDBRANCH  13  14
ENDBRANCH   1  13
TORSDOF 20
ENDMDL
MODEL 8
REMARK VINA RESULT:     5.523      4.016      7.904
REMARK INTER + INTRA:          14.448
REMARK INTER:                  15.374
REMARK INTRA:                  -0.926
REMARK UNBOUND:                 2.467
REMARK SMILES CCCCCCCCCCCCCCCCCCCCCC(=O)[O-]
REMARK SMILES IDX 12 1 11 2 10 3 9 4 8 5 7 6 6 7 5 8 4 9 3 10 2 11 1 12 13 13
REMARK SMILES IDX 14 14 15 15 16 16 17 17 18 18 19 19 20 20 21 21 22 22 23 23
REMARK SMILES IDX 24 24
REMARK H PARENT
REMARK Flexibility Score: inf
ROOT
ATOM      1  C   UNL     1      -8.116  15.134 -13.936  1.00  0.00     0.000 C 
ENDROOT
BRANCH   1   2
ATOM      2  C   UNL     1      -7.233  15.532 -15.124  1.00  0.00     0.000 C 
BRANCH   2   3
ATOM      3  C   UNL     1      -5.757  15.204 -14.849  1.00  0.00     0.000 C 
BRANCH   3   4
ATOM      4  C   UNL     1      -4.892  16.464 -14.694  1.00  0.00    -0.000 C 
BRANCH   4   5
ATOM      5  C   UNL     1      -5.635  17.745 -15.112  1.00  0.00    -0.000 C 
BRANCH   5   6
ATOM      6  C   UNL     1      -4.876  19.022 -14.716  1.00  0.00    -0.000 C 
BRANCH   6   7
ATOM      7  C   UNL     1      -5.625  20.303 -15.125  1.00  0.00    -0.000 C 
BRANCH   7   8
ATOM      8  C   UNL     1      -6.462  20.890 -13.977  1.00  0.00    -0.000 C 
BRANCH   8   9
ATOM      9  C   UNL     1      -6.970  19.814 -13.005  1.00  0.00    -0.000 C 
BRANCH   9  10
ATOM     10  C   UNL     1      -8.319  19.247 -13.472  1.00  0.00    -0.000 C 
BRANCH  10  11
ATOM     11  C   UNL     1      -8.862  18.163 -12.528  1.00  0.00    -0.003 C 
ATOM     12  C   UNL     1      -7.753  17.341 -11.871  1.00  0.00     0.004 C 
ENDBRANCH  10  11
ENDBRANCH   9  10
ENDBRANCH   8   9
ENDBRANCH   7   8
ENDBRANCH   6   7
ENDBRANCH   5   6
ENDBRANCH   4   5
ENDBRANCH   3   4
ENDBRANCH   2   3
ENDBRANCH   1   2
BRANCH   1  13
ATOM     13  C   UNL     1      -7.897  13.661 -13.556  1.00  0.00     0.000 C 
BRANCH  13  14
ATOM     14  C   UNL     1      -6.940  13.494 -12.357  1.00  0.00     0.000 C 
BRANCH  14  15
ATOM     15  C   UNL     1      -7.469  14.109 -11.047  1.00  0.00     0.000 C 
BRANCH  15  16
ATOM     16  C   UNL     1      -7.324  13.215  -9.802  1.00  0.00     0.000 C 
BRANCH  16  17
ATOM     17  C   UNL     1      -6.339  13.735  -8.737  1.00  0.00     0.000 C 
BRANCH  17  18
ATOM     18  C   UNL     1      -5.944  12.662  -7.713  1.00  0.00     0.000 C 
BRANCH  18  19
ATOM     19  C   UNL     1      -5.949  13.233  -6.290  1.00  0.00     0.000 C 
BRANCH  19  20
ATOM     20  C   UNL     1      -7.317  13.039  -5.623  1.00  0.00     0.006 C 
BRANCH  20  21
ATOM     21  C   UNL     1      -8.138  11.971  -6.351  1.00  0.00     0.053 C 
BRANCH  21  22
ATOM     22  C   UNL     1      -8.799  11.058  -5.368  1.00  0.00     0.041 C 
ATOM     23  O   UNL     1      -8.236   9.986  -5.022  1.00  0.00    -0.550 OA
ATOM     24  O   UNL     1     -10.014  11.413  -4.798  1.00  0.00    -0.550 OA
ENDBRANCH  21  22
ENDBRANCH  20  21
ENDBRANCH  19  20
ENDBRANCH  18  19
ENDBRANCH  17  18
ENDBRANCH  16  17
ENDBRANCH  15  16
ENDBRANCH  14  15
ENDBRANCH  13  14
ENDBRANCH   1  13
TORSDOF 20
ENDMDL
MODEL 9
REMARK VINA RESULT:     5.674      2.865      5.141
REMARK INTER + INTRA:          14.774
REMARK INTER:                  14.248
REMARK INTRA:                   0.526
REMARK UNBOUND:                 2.467
REMARK SMILES CCCCCCCCCCCCCCCCCCCCCC(=O)[O-]
REMARK SMILES IDX 12 1 11 2 10 3 9 4 8 5 7 6 6 7 5 8 4 9 3 10 2 11 1 12 13 13
REMARK SMILES IDX 14 14 15 15 16 16 17 17 18 18 19 19 20 20 21 21 22 22 23 23
REMARK SMILES IDX 24 24
REMARK H PARENT
REMARK Flexibility Score: inf
ROOT
ATOM      1  C   UNL     1      -7.779  14.632 -14.801  1.00  0.00     0.000 C 
ENDROOT
BRANCH   1   2
ATOM      2  C   UNL     1      -7.593  13.131 -14.548  1.00  0.00     0.000 C 
BRANCH   2   3
ATOM      3  C   UNL     1      -7.169  12.865 -13.096  1.00  0.00     0.000 C 
BRANCH   3   4
ATOM      4  C   UNL     1      -7.114  14.147 -12.252  1.00  0.00    -0.000 C 
BRANCH   4   5
ATOM      5  C   UNL     1      -7.414  13.888 -10.765  1.00  0.00    -0.000 C 
BRANCH   5   6
ATOM      6  C   UNL     1      -8.730  13.121 -10.556  1.00  0.00    -0.000 C 
BRANCH   6   7
ATOM      7  C   UNL     1      -8.933  12.691  -9.092  1.00  0.00    -0.000 C 
BRANCH   7   8
ATOM      8  C   UNL     1     -10.122  13.403  -8.426  1.00  0.00    -0.000 C 
BRANCH   8   9
ATOM      9  C   UNL     1     -10.501  12.782  -7.073  1.00  0.00    -0.000 C 
BRANCH   9  10
ATOM     10  C   UNL     1      -9.245  12.377  -6.286  1.00  0.00    -0.000 C 
BRANCH  10  11
ATOM     11  C   UNL     1      -9.556  11.398  -5.143  1.00  0.00    -0.003 C 
ATOM     12  C   UNL     1      -8.297  10.890  -4.440  1.00  0.00     0.004 C 
ENDBRANCH  10  11
ENDBRANCH   9  10
ENDBRANCH   8   9
ENDBRANCH   7   8
ENDBRANCH   6   7
ENDBRANCH   5   6
ENDBRANCH   4   5
ENDBRANCH   3   4
ENDBRANCH   2   3
ENDBRANCH   1   2
BRANCH   1  13
ATOM     13  C   UNL     1      -6.561  15.428 -14.307  1.00  0.00     0.000 C 
BRANCH  13  14
ATOM     14  C   UNL     1      -6.324  16.716 -15.123  1.00  0.00     0.000 C 
BRANCH  14  15
ATOM     15  C   UNL     1      -4.968  17.390 -14.844  1.00  0.00     0.000 C 
BRANCH  15  16
ATOM     16  C   UNL     1      -4.923  18.905 -15.114  1.00  0.00     0.000 C 
BRANCH  16  17
ATOM     17  C   UNL     1      -4.973  19.794 -13.858  1.00  0.00     0.000 C 
BRANCH  17  18
ATOM     18  C   UNL     1      -6.109  20.826 -13.900  1.00  0.00     0.000 C 
BRANCH  18  19
ATOM     19  C   UNL     1      -7.467  20.159 -13.651  1.00  0.00     0.000 C 
BRANCH  19  20
ATOM     20  C   UNL     1      -7.305  18.863 -12.848  1.00  0.00     0.006 C 
BRANCH  20  21
ATOM     21  C   UNL     1      -8.632  18.441 -12.210  1.00  0.00     0.053 C 
BRANCH  21  22
ATOM     22  C   UNL     1      -9.247  17.313 -12.976  1.00  0.00     0.041 C 
ATOM     23  O   UNL     1      -9.255  17.333 -14.235  1.00  0.00    -0.550 OA
ATOM     24  O   UNL     1      -9.769  16.218 -12.301  1.00  0.00    -0.550 OA
ENDBRANCH  21  22
ENDBRANCH  20  21
ENDBRANCH  19  20
ENDBRANCH  18  19
ENDBRANCH  17  18
ENDBRANCH  16  17
ENDBRANCH  15  16
ENDBRANCH  14  15
ENDBRANCH  13  14
ENDBRANCH   1  13
TORSDOF 20
ENDMDL
