MODEL 1
REMARK VINA RESULT:    94.236      0.000      0.000
REMARK INTER + INTRA:         102.781
REMARK INTER:                 102.500
REMARK INTRA:                   0.280
REMARK UNBOUND:                 0.280
REMARK SMILES C[C@@H]1[C@H]2C3=CC[C@@H]4[C@@]5(C)CC[C@@H](O)C(C)(C)[C@@H]5CC[C@@]4(C)[C@]3(C)CC[C@@]2(C(=O)[O-])CC[C@@H]1C
REMARK SMILES IDX 26 1 30 2 25 3 3 4 31 5 24 6 4 7 2 8 32 9 22 10 5 11 1 12
REMARK SMILES IDX 33 13 23 14 20 15 6 16 7 17 19 18 21 19 8 20 18 21 17 22
REMARK SMILES IDX 10 23 9 24 14 25 11 26 12 27 15 28 16 29 27 30 28 31 29 32
REMARK SMILES IDX 13 33
REMARK H PARENT 13 34
REMARK Flexibility Score: inf
ROOT
ATOM      1  C   UNL     1       3.088   4.323   9.281  1.00  0.00     0.017 C 
ATOM      2  C   UNL     1       4.479   4.758   9.825  1.00  0.00     0.014 C 
ATOM      3  C   UNL     1       2.622   5.294   8.166  1.00  0.00     0.014 C 
ATOM      4  C   UNL     1       1.971   4.263  10.401  1.00  0.00     0.030 C 
ATOM      5  C   UNL     1       4.878   3.994  11.082  1.00  0.00     0.004 C 
ATOM      6  C   UNL     1       2.357   6.720   8.656  1.00  0.00     0.013 C 
ATOM      7  C   UNL     1       0.997   5.461  10.450  1.00  0.00    -0.063 C 
ATOM      8  C   UNL     1       2.450   3.852  11.854  1.00  0.00    -0.003 C 
ATOM      9  C   UNL     1       3.889   4.317  12.203  1.00  0.00    -0.011 C 
ATOM     10  C   UNL     1       1.305   6.837   9.820  1.00  0.00    -0.006 C 
ATOM     11  C   UNL     1      -0.179   5.242  11.094  1.00  0.00    -0.027 C 
ATOM     12  C   UNL     1       2.226   2.349  12.140  1.00  0.00     0.008 C 
ATOM     13  C   UNL     1       4.397   3.782  13.555  1.00  0.00     0.008 C 
ATOM     14  C   UNL     1       2.007   7.641  10.962  1.00  0.00     0.017 C 
ATOM     15  C   UNL     1      -0.065   7.528   9.304  1.00  0.00    -0.020 C 
ATOM     16  C   UNL     1      -1.399   6.115  10.992  1.00  0.00     0.032 C 
ATOM     17  C   UNL     1      -1.107   7.551  10.494  1.00  0.00     0.006 C 
ATOM     18  C   UNL     1       0.182   8.994   8.810  1.00  0.00     0.008 C 
ATOM     19  C   UNL     1      -0.607   6.689   8.105  1.00  0.00     0.012 C 
ATOM     20  C   UNL     1      -2.405   8.480  10.346  1.00  0.00    -0.025 C 
ATOM     21  C   UNL     1      -1.094   9.809   8.578  1.00  0.00     0.005 C 
ATOM     22  C   UNL     1      -1.918   9.903   9.885  1.00  0.00     0.003 C 
ATOM     23  C   UNL     1      -3.058   8.641  11.758  1.00  0.00     0.010 C 
ATOM     24  C   UNL     1      -3.484   7.876   9.392  1.00  0.00     0.012 C 
ATOM     25  C   UNL     1      -3.000  11.060   9.925  1.00  0.00    -0.006 C 
ATOM     26  C   UNL     1      -4.124   9.746  11.849  1.00  0.00     0.033 C 
ATOM     27  C   UNL     1      -3.628  11.117  11.356  1.00  0.00     0.120 C 
ATOM     28  C   UNL     1      -4.125  10.903   8.860  1.00  0.00     0.014 C 
ATOM     29  C   UNL     1      -2.325  12.436   9.658  1.00  0.00     0.014 C 
ENDROOT
BRANCH   1  30
ATOM     30  C   UNL     1       3.274   2.948   8.625  1.00  0.00     0.048 C 
ATOM     31  O   UNL     1       3.938   2.045   9.204  1.00  0.00    -0.550 OA
ATOM     32  O   UNL     1       2.662   2.637   7.416  1.00  0.00    -0.550 OA
ENDBRANCH   1  30
BRANCH  27  33
ATOM     33  O   UNL     1      -2.693  11.606  12.289  1.00  0.00    -0.393 OA
ATOM     34  H   UNL     1      -2.004  10.906  12.427  1.00  0.00     0.210 HD
ENDBRANCH  27  33
TORSDOF 2
ENDMDL
MODEL 2
REMARK VINA RESULT:    95.833      1.779      3.789
REMARK INTER + INTRA:         104.517
REMARK INTER:                 104.577
REMARK INTRA:                  -0.059
REMARK UNBOUND:                 0.280
REMARK SMILES C[C@@H]1[C@H]2C3=CC[C@@H]4[C@@]5(C)CC[C@@H](O)C(C)(C)[C@@H]5CC[C@@]4(C)[C@]3(C)CC[C@@]2(C(=O)[O-])CC[C@@H]1C
REMARK SMILES IDX 26 1 30 2 25 3 3 4 31 5 24 6 4 7 2 8 32 9 22 10 5 11 1 12
REMARK SMILES IDX 33 13 23 14 20 15 6 16 7 17 19 18 21 19 8 20 18 21 17 22
REMARK SMILES IDX 10 23 9 24 14 25 11 26 12 27 15 28 16 29 27 30 28 31 29 32
REMARK SMILES IDX 13 33
REMARK H PARENT 13 34
REMARK Flexibility Score: inf
ROOT
ATOM      1  C   UNL     1       4.015   3.385  10.816  1.00  0.00     0.017 C 
ATOM      2  C   UNL     1       3.513   1.913  10.811  1.00  0.00     0.014 C 
ATOM      3  C   UNL     1       3.391   4.159  12.006  1.00  0.00     0.014 C 
ATOM      4  C   UNL     1       3.684   4.162   9.477  1.00  0.00     0.030 C 
ATOM      5  C   UNL     1       3.894   1.171   9.535  1.00  0.00     0.004 C 
ATOM      6  C   UNL     1       1.873   4.324  11.910  1.00  0.00     0.013 C 
ATOM      7  C   UNL     1       2.475   5.121   9.532  1.00  0.00    -0.063 C 
ATOM      8  C   UNL     1       3.674   3.301   8.146  1.00  0.00    -0.003 C 
ATOM      9  C   UNL     1       3.204   1.835   8.342  1.00  0.00    -0.011 C 
ATOM     10  C   UNL     1       1.363   5.031  10.600  1.00  0.00    -0.006 C 
ATOM     11  C   UNL     1       2.432   6.077   8.568  1.00  0.00    -0.027 C 
ATOM     12  C   UNL     1       5.013   3.397   7.378  1.00  0.00     0.008 C 
ATOM     13  C   UNL     1       3.344   0.970   7.075  1.00  0.00     0.008 C 
ATOM     14  C   UNL     1       0.297   4.075   9.976  1.00  0.00     0.017 C 
ATOM     15  C   UNL     1       0.783   6.509  10.919  1.00  0.00    -0.020 C 
ATOM     16  C   UNL     1       1.565   7.304   8.600  1.00  0.00     0.032 C 
ATOM     17  C   UNL     1       0.357   7.197   9.560  1.00  0.00     0.006 C 
ATOM     18  C   UNL     1      -0.458   6.445  11.874  1.00  0.00     0.008 C 
ATOM     19  C   UNL     1       1.908   7.326  11.629  1.00  0.00     0.012 C 
ATOM     20  C   UNL     1      -0.556   8.514   9.632  1.00  0.00    -0.025 C 
ATOM     21  C   UNL     1      -1.235   7.759  11.994  1.00  0.00     0.005 C 
ATOM     22  C   UNL     1      -1.752   8.208  10.606  1.00  0.00     0.003 C 
ATOM     23  C   UNL     1      -1.158   8.771   8.212  1.00  0.00     0.010 C 
ATOM     24  C   UNL     1       0.245   9.790  10.045  1.00  0.00     0.012 C 
ATOM     25  C   UNL     1      -2.925   9.273  10.629  1.00  0.00    -0.006 C 
ATOM     26  C   UNL     1      -2.296   9.806   8.177  1.00  0.00     0.033 C 
ATOM     27  C   UNL     1      -3.433   9.498   9.168  1.00  0.00     0.120 C 
ATOM     28  C   UNL     1      -2.522  10.635  11.265  1.00  0.00     0.014 C 
ATOM     29  C   UNL     1      -4.125   8.733  11.460  1.00  0.00     0.014 C 
ENDROOT
BRANCH   1  30
ATOM     30  C   UNL     1       5.529   3.341  11.058  1.00  0.00     0.048 C 
ATOM     31  O   UNL     1       6.327   3.869  10.235  1.00  0.00    -0.550 OA
ATOM     32  O   UNL     1       6.059   2.785  12.217  1.00  0.00    -0.550 OA
ENDBRANCH   1  30
BRANCH  27  33
ATOM     33  O   UNL     1      -4.125   8.363   8.701  1.00  0.00    -0.393 OA
ATOM     34  H   UNL     1      -4.986   8.308   9.191  1.00  0.00     0.210 HD
ENDBRANCH  27  33
TORSDOF 2
ENDMDL
