MODEL 1
REMARK VINA RESULT:    -5.636      0.000      0.000
REMARK INTER + INTRA:          -9.505
REMARK INTER:                  -8.931
REMARK INTRA:                  -0.574
REMARK UNBOUND:                -0.574
REMARK SMILES CCCCCCCCCCCC(=O)[O-]
REMARK SMILES IDX 7 1 8 2 9 3 10 4 11 5 12 6 13 7 14 8 6 9 5 10 4 11 3 12 2 13
REMARK SMILES IDX 1 14
REMARK H PARENT
REMARK Flexibility Score: inf
ROOT
ATOM      1  C   UNL     1     -13.002  -1.005 -10.424  1.00  0.00     0.000 C 
ENDROOT
BRANCH   1   2
ATOM      2  C   UNL     1     -11.574  -0.543 -10.767  1.00  0.00     0.000 C 
BRANCH   2   3
ATOM      3  C   UNL     1     -10.600  -0.686  -9.585  1.00  0.00     0.000 C 
BRANCH   3   4
ATOM      4  C   UNL     1     -10.278  -2.157  -9.255  1.00  0.00     0.006 C 
BRANCH   4   5
ATOM      5  C   UNL     1      -9.770  -2.389  -7.822  1.00  0.00     0.053 C 
BRANCH   5   6
ATOM      6  C   UNL     1      -9.482  -3.834  -7.556  1.00  0.00     0.041 C 
ATOM      7  O   UNL     1     -10.111  -4.452  -6.657  1.00  0.00    -0.550 OA
ATOM      8  O   UNL     1      -8.539  -4.508  -8.322  1.00  0.00    -0.550 OA
ENDBRANCH   5   6
ENDBRANCH   4   5
ENDBRANCH   3   4
ENDBRANCH   2   3
ENDBRANCH   1   2
BRANCH   1   9
ATOM      9  C   UNL     1     -14.095   0.066 -10.596  1.00  0.00     0.000 C 
BRANCH   9  10
ATOM     10  C   UNL     1     -14.418   0.805  -9.285  1.00  0.00    -0.000 C 
BRANCH  10  11
ATOM     11  C   UNL     1     -14.022   2.290  -9.330  1.00  0.00    -0.000 C 
BRANCH  11  12
ATOM     12  C   UNL     1     -12.501   2.492  -9.433  1.00  0.00    -0.000 C 
BRANCH  12  13
ATOM     13  C   UNL     1     -12.033   3.795  -8.766  1.00  0.00    -0.003 C 
ATOM     14  C   UNL     1     -13.159   4.525  -8.036  1.00  0.00     0.004 C 
ENDBRANCH  12  13
ENDBRANCH  11  12
ENDBRANCH  10  11
ENDBRANCH   9  10
ENDBRANCH   1   9
TORSDOF 10
ENDMDL
MODEL 2
REMARK VINA RESULT:    -5.481      3.505      6.502
REMARK INTER + INTRA:          -9.259
REMARK INTER:                  -8.630
REMARK INTRA:                  -0.629
REMARK UNBOUND:                -0.574
REMARK SMILES CCCCCCCCCCCC(=O)[O-]
REMARK SMILES IDX 7 1 8 2 9 3 10 4 11 5 12 6 13 7 14 8 6 9 5 10 4 11 3 12 2 13
REMARK SMILES IDX 1 14
REMARK H PARENT
REMARK Flexibility Score: inf
ROOT
ATOM      1  C   UNL     1     -13.026  -1.010 -10.489  1.00  0.00     0.000 C 
ENDROOT
BRANCH   1   2
ATOM      2  C   UNL     1     -14.084   0.102 -10.615  1.00  0.00     0.000 C 
BRANCH   2   3
ATOM      3  C   UNL     1     -14.349   0.830  -9.286  1.00  0.00     0.000 C 
BRANCH   3   4
ATOM      4  C   UNL     1     -14.043   2.338  -9.364  1.00  0.00     0.006 C 
BRANCH   4   5
ATOM      5  C   UNL     1     -12.548   2.677  -9.482  1.00  0.00     0.053 C 
BRANCH   5   6
ATOM      6  C   UNL     1     -12.170   3.848  -8.629  1.00  0.00     0.041 C 
ATOM      7  O   UNL     1     -12.987   4.789  -8.445  1.00  0.00    -0.550 OA
ATOM      8  O   UNL     1     -10.926   3.888  -8.013  1.00  0.00    -0.550 OA
ENDBRANCH   5   6
ENDBRANCH   4   5
ENDBRANCH   3   4
ENDBRANCH   2   3
ENDBRANCH   1   2
BRANCH   1   9
ATOM      9  C   UNL     1     -11.576  -0.564 -10.750  1.00  0.00     0.000 C 
BRANCH   9  10
ATOM     10  C   UNL     1     -10.673  -0.713  -9.513  1.00  0.00    -0.000 C 
BRANCH  10  11
ATOM     11  C   UNL     1     -10.289  -2.175  -9.231  1.00  0.00    -0.000 C 
BRANCH  11  12
ATOM     12  C   UNL     1      -9.796  -2.386  -7.790  1.00  0.00    -0.000 C 
BRANCH  12  13
ATOM     13  C   UNL     1      -9.031  -3.707  -7.617  1.00  0.00    -0.003 C 
ATOM     14  C   UNL     1      -8.794  -4.434  -8.941  1.00  0.00     0.004 C 
ENDBRANCH  12  13
ENDBRANCH  11  12
ENDBRANCH  10  11
ENDBRANCH   9  10
ENDBRANCH   1   9
TORSDOF 10
ENDMDL
MODEL 3
REMARK VINA RESULT:    -5.237      0.868      1.802
REMARK INTER + INTRA:          -8.873
REMARK INTER:                  -8.438
REMARK INTRA:                  -0.435
REMARK UNBOUND:                -0.574
REMARK SMILES CCCCCCCCCCCC(=O)[O-]
REMARK SMILES IDX 7 1 8 2 9 3 10 4 11 5 12 6 13 7 14 8 6 9 5 10 4 11 3 12 2 13
REMARK SMILES IDX 1 14
REMARK H PARENT
REMARK Flexibility Score: inf
ROOT
ATOM      1  C   UNL     1     -11.501  -0.334 -10.087  1.00  0.00     0.000 C 
ENDROOT
BRANCH   1   2
ATOM      2  C   UNL     1     -10.221  -1.186 -10.008  1.00  0.00     0.000 C 
BRANCH   2   3
ATOM      3  C   UNL     1     -10.460  -2.564  -9.367  1.00  0.00     0.000 C 
BRANCH   3   4
ATOM      4  C   UNL     1      -9.695  -2.743  -8.041  1.00  0.00     0.006 C 
BRANCH   4   5
ATOM      5  C   UNL     1      -8.838  -4.017  -7.971  1.00  0.00     0.053 C 
BRANCH   5   6
ATOM      6  C   UNL     1      -9.648  -5.217  -7.588  1.00  0.00     0.041 C 
ATOM      7  O   UNL     1      -9.847  -6.140  -8.421  1.00  0.00    -0.550 OA
ATOM      8  O   UNL     1     -10.159  -5.331  -6.301  1.00  0.00    -0.550 OA
ENDBRANCH   5   6
ENDBRANCH   4   5
ENDBRANCH   3   4
ENDBRANCH   2   3
ENDBRANCH   1   2
BRANCH   1   9
ATOM      9  C   UNL     1     -12.740  -1.064 -10.638  1.00  0.00     0.000 C 
BRANCH   9  10
ATOM     10  C   UNL     1     -13.968  -0.146 -10.763  1.00  0.00    -0.000 C 
BRANCH  10  11
ATOM     11  C   UNL     1     -14.276   0.613  -9.461  1.00  0.00    -0.000 C 
BRANCH  11  12
ATOM     12  C   UNL     1     -14.224   2.139  -9.644  1.00  0.00    -0.000 C 
BRANCH  12  13
ATOM     13  C   UNL     1     -12.834   2.721  -9.341  1.00  0.00    -0.003 C 
ATOM     14  C   UNL     1     -12.897   4.039  -8.570  1.00  0.00     0.004 C 
ENDBRANCH  12  13
ENDBRANCH  11  12
ENDBRANCH  10  11
ENDBRANCH   9  10
ENDBRANCH   1   9
TORSDOF 10
ENDMDL
MODEL 4
REMARK VINA RESULT:    -5.072      3.766      7.011
REMARK INTER + INTRA:          -8.612
REMARK INTER:                  -8.098
REMARK INTRA:                  -0.514
REMARK UNBOUND:                -0.574
REMARK SMILES CCCCCCCCCCCC(=O)[O-]
REMARK SMILES IDX 7 1 8 2 9 3 10 4 11 5 12 6 13 7 14 8 6 9 5 10 4 11 3 12 2 13
REMARK SMILES IDX 1 14
REMARK H PARENT
REMARK Flexibility Score: inf
ROOT
ATOM      1  C   UNL     1     -10.795  -0.691  -9.815  1.00  0.00     0.000 C 
ENDROOT
BRANCH   1   2
ATOM      2  C   UNL     1     -12.203  -0.837 -10.421  1.00  0.00     0.000 C 
BRANCH   2   3
ATOM      3  C   UNL     1     -13.159   0.288  -9.989  1.00  0.00     0.000 C 
BRANCH   3   4
ATOM      4  C   UNL     1     -12.419   1.587  -9.618  1.00  0.00     0.006 C 
BRANCH   4   5
ATOM      5  C   UNL     1     -13.335   2.721  -9.126  1.00  0.00     0.053 C 
BRANCH   5   6
ATOM      6  C   UNL     1     -12.553   3.896  -8.629  1.00  0.00     0.041 C 
ATOM      7  O   UNL     1     -13.100   5.026  -8.529  1.00  0.00    -0.550 OA
ATOM      8  O   UNL     1     -11.227   3.740  -8.245  1.00  0.00    -0.550 OA
ENDBRANCH   5   6
ENDBRANCH   4   5
ENDBRANCH   3   4
ENDBRANCH   2   3
ENDBRANCH   1   2
BRANCH   1   9
ATOM      9  C   UNL     1     -10.184  -1.990  -9.257  1.00  0.00     0.000 C 
BRANCH   9  10
ATOM     10  C   UNL     1     -11.134  -3.194  -9.375  1.00  0.00    -0.000 C 
BRANCH  10  11
ATOM     11  C   UNL     1     -10.537  -4.481  -8.781  1.00  0.00    -0.000 C 
BRANCH  11  12
ATOM     12  C   UNL     1     -10.065  -4.294  -7.328  1.00  0.00    -0.000 C 
BRANCH  12  13
ATOM     13  C   UNL     1     -10.621  -5.373  -6.386  1.00  0.00    -0.003 C 
ATOM     14  C   UNL     1     -11.937  -5.973  -6.881  1.00  0.00     0.004 C 
ENDBRANCH  12  13
ENDBRANCH  11  12
ENDBRANCH  10  11
ENDBRANCH   9  10
ENDBRANCH   1   9
TORSDOF 10
ENDMDL
MODEL 5
REMARK VINA RESULT:    -4.986      1.983      3.841
REMARK INTER + INTRA:          -8.474
REMARK INTER:                  -7.785
REMARK INTRA:                  -0.689
REMARK UNBOUND:                -0.574
REMARK SMILES CCCCCCCCCCCC(=O)[O-]
REMARK SMILES IDX 7 1 8 2 9 3 10 4 11 5 12 6 13 7 14 8 6 9 5 10 4 11 3 12 2 13
REMARK SMILES IDX 1 14
REMARK H PARENT
REMARK Flexibility Score: inf
ROOT
ATOM      1  C   UNL     1      -9.768  -3.281  -9.983  1.00  0.00     0.000 C 
ENDROOT
BRANCH   1   2
ATOM      2  C   UNL     1      -9.082  -3.980  -8.795  1.00  0.00     0.000 C 
BRANCH   2   3
ATOM      3  C   UNL     1      -9.677  -3.570  -7.437  1.00  0.00     0.000 C 
BRANCH   3   4
ATOM      4  C   UNL     1     -10.258  -4.766  -6.658  1.00  0.00     0.006 C 
BRANCH   4   5
ATOM      5  C   UNL     1     -11.314  -5.573  -7.430  1.00  0.00     0.053 C 
BRANCH   5   6
ATOM      6  C   UNL     1     -11.048  -7.045  -7.371  1.00  0.00     0.041 C 
ATOM      7  O   UNL     1     -11.705  -7.778  -6.585  1.00  0.00    -0.550 OA
ATOM      8  O   UNL     1     -10.094  -7.615  -8.205  1.00  0.00    -0.550 OA
ENDBRANCH   5   6
ENDBRANCH   4   5
ENDBRANCH   3   4
ENDBRANCH   2   3
ENDBRANCH   1   2
BRANCH   1   9
ATOM      9  C   UNL     1     -10.920  -2.331  -9.607  1.00  0.00     0.000 C 
BRANCH   9  10
ATOM     10  C   UNL     1     -10.513  -0.848  -9.659  1.00  0.00    -0.000 C 
BRANCH  10  11
ATOM     11  C   UNL     1     -11.680   0.074 -10.046  1.00  0.00    -0.000 C 
BRANCH  11  12
ATOM     12  C   UNL     1     -12.949  -0.709 -10.424  1.00  0.00    -0.000 C 
BRANCH  12  13
ATOM     13  C   UNL     1     -14.237   0.050 -10.069  1.00  0.00    -0.003 C 
ATOM     14  C   UNL     1     -13.975   1.491  -9.631  1.00  0.00     0.004 C 
ENDBRANCH  12  13
ENDBRANCH  11  12
ENDBRANCH  10  11
ENDBRANCH   9  10
ENDBRANCH   1   9
TORSDOF 10
ENDMDL
MODEL 6
REMARK VINA RESULT:    -4.740     16.822     18.447
REMARK INTER + INTRA:          -8.085
REMARK INTER:                  -6.940
REMARK INTRA:                  -1.146
REMARK UNBOUND:                -0.574
REMARK SMILES CCCCCCCCCCCC(=O)[O-]
REMARK SMILES IDX 7 1 8 2 9 3 10 4 11 5 12 6 13 7 14 8 6 9 5 10 4 11 3 12 2 13
REMARK SMILES IDX 1 14
REMARK H PARENT
REMARK Flexibility Score: inf
ROOT
ATOM      1  C   UNL     1      -9.002   6.119   6.610  1.00  0.00     0.000 C 
ENDROOT
BRANCH   1   2
ATOM      2  C   UNL     1      -9.141   7.183   5.505  1.00  0.00     0.000 C 
BRANCH   2   3
ATOM      3  C   UNL     1      -9.848   8.460   5.992  1.00  0.00     0.000 C 
BRANCH   3   4
ATOM      4  C   UNL     1      -9.057   9.740   5.659  1.00  0.00     0.006 C 
BRANCH   4   5
ATOM      5  C   UNL     1      -7.560   9.509   5.393  1.00  0.00     0.053 C 
BRANCH   5   6
ATOM      6  C   UNL     1      -6.706  10.033   6.505  1.00  0.00     0.041 C 
ATOM      7  O   UNL     1      -5.452   9.939   6.440  1.00  0.00    -0.550 OA
ATOM      8  O   UNL     1      -7.292  10.653   7.601  1.00  0.00    -0.550 OA
ENDBRANCH   5   6
ENDBRANCH   4   5
ENDBRANCH   3   4
ENDBRANCH   2   3
ENDBRANCH   1   2
BRANCH   1   9
ATOM      9  C   UNL     1      -9.709   6.456   7.935  1.00  0.00     0.000 C 
BRANCH   9  10
ATOM     10  C   UNL     1     -10.088   5.204   8.745  1.00  0.00    -0.000 C 
BRANCH  10  11
ATOM     11  C   UNL     1     -10.585   4.051   7.858  1.00  0.00    -0.000 C 
BRANCH  11  12
ATOM     12  C   UNL     1     -12.079   4.177   7.512  1.00  0.00    -0.000 C 
BRANCH  12  13
ATOM     13  C   UNL     1     -12.314   4.512   6.031  1.00  0.00    -0.003 C 
ATOM     14  C   UNL     1     -12.770   5.954   5.814  1.00  0.00     0.004 C 
ENDBRANCH  12  13
ENDBRANCH  11  12
ENDBRANCH  10  11
ENDBRANCH   9  10
ENDBRANCH   1   9
TORSDOF 10
ENDMDL
MODEL 7
REMARK VINA RESULT:    -4.726     15.113     17.272
REMARK INTER + INTRA:          -8.062
REMARK INTER:                  -7.229
REMARK INTRA:                  -0.833
REMARK UNBOUND:                -0.574
REMARK SMILES CCCCCCCCCCCC(=O)[O-]
REMARK SMILES IDX 7 1 8 2 9 3 10 4 11 5 12 6 13 7 14 8 6 9 5 10 4 11 3 12 2 13
REMARK SMILES IDX 1 14
REMARK H PARENT
REMARK Flexibility Score: inf
ROOT
ATOM      1  C   UNL     1     -10.731   5.663   8.404  1.00  0.00     0.000 C 
ENDROOT
BRANCH   1   2
ATOM      2  C   UNL     1     -10.802   4.252   7.791  1.00  0.00     0.000 C 
BRANCH   2   3
ATOM      3  C   UNL     1     -12.042   4.048   6.903  1.00  0.00     0.000 C 
BRANCH   3   4
ATOM      4  C   UNL     1     -12.723   5.376   6.520  1.00  0.00     0.006 C 
BRANCH   4   5
ATOM      5  C   UNL     1     -12.412   5.861   5.095  1.00  0.00     0.053 C 
BRANCH   5   6
ATOM      6  C   UNL     1     -13.645   5.951   4.251  1.00  0.00     0.041 C 
ATOM      7  O   UNL     1     -13.678   5.408   3.115  1.00  0.00    -0.550 OA
ATOM      8  O   UNL     1     -14.770   6.610   4.731  1.00  0.00    -0.550 OA
ENDBRANCH   5   6
ENDBRANCH   4   5
ENDBRANCH   3   4
ENDBRANCH   2   3
ENDBRANCH   1   2
BRANCH   1   9
ATOM      9  C   UNL     1      -9.530   6.514   7.952  1.00  0.00     0.000 C 
BRANCH   9  10
ATOM     10  C   UNL     1      -8.990   6.097   6.573  1.00  0.00    -0.000 C 
BRANCH  10  11
ATOM     11  C   UNL     1      -9.033   7.243   5.548  1.00  0.00    -0.000 C 
BRANCH  11  12
ATOM     12  C   UNL     1      -8.329   8.513   6.054  1.00  0.00    -0.000 C 
BRANCH  12  13
ATOM     13  C   UNL     1      -8.217   9.596   4.970  1.00  0.00    -0.003 C 
ATOM     14  C   UNL     1      -6.994  10.493   5.151  1.00  0.00     0.004 C 
ENDBRANCH  12  13
ENDBRANCH  11  12
ENDBRANCH  10  11
ENDBRANCH   9  10
ENDBRANCH   1   9
TORSDOF 10
ENDMDL
MODEL 8
REMARK VINA RESULT:    -4.691      3.465      6.982
REMARK INTER + INTRA:          -8.008
REMARK INTER:                  -7.270
REMARK INTRA:                  -0.738
REMARK UNBOUND:                -0.574
REMARK SMILES CCCCCCCCCCCC(=O)[O-]
REMARK SMILES IDX 7 1 8 2 9 3 10 4 11 5 12 6 13 7 14 8 6 9 5 10 4 11 3 12 2 13
REMARK SMILES IDX 1 14
REMARK H PARENT
REMARK Flexibility Score: inf
ROOT
ATOM      1  C   UNL     1      -9.495  -3.355  -9.560  1.00  0.00     0.000 C 
ENDROOT
BRANCH   1   2
ATOM      2  C   UNL     1     -10.805  -2.547  -9.599  1.00  0.00     0.000 C 
BRANCH   2   3
ATOM      3  C   UNL     1     -10.579  -1.034  -9.427  1.00  0.00     0.000 C 
BRANCH   3   4
ATOM      4  C   UNL     1     -11.447  -0.192 -10.382  1.00  0.00     0.006 C 
BRANCH   4   5
ATOM      5  C   UNL     1     -12.801  -0.829 -10.736  1.00  0.00     0.053 C 
BRANCH   5   6
ATOM      6  C   UNL     1     -13.944  -0.112 -10.086  1.00  0.00     0.041 C 
ATOM      7  O   UNL     1     -14.910  -0.762  -9.605  1.00  0.00    -0.550 OA
ATOM      8  O   UNL     1     -13.931   1.273  -9.985  1.00  0.00    -0.550 OA
ENDBRANCH   5   6
ENDBRANCH   4   5
ENDBRANCH   3   4
ENDBRANCH   2   3
ENDBRANCH   1   2
BRANCH   1   9
ATOM      9  C   UNL     1      -8.874  -3.527  -8.162  1.00  0.00     0.000 C 
BRANCH   9  10
ATOM     10  C   UNL     1      -9.879  -4.053  -7.122  1.00  0.00    -0.000 C 
BRANCH  10  11
ATOM     11  C   UNL     1      -9.840  -5.583  -6.980  1.00  0.00    -0.000 C 
BRANCH  11  12
ATOM     12  C   UNL     1     -10.964  -6.276  -7.769  1.00  0.00    -0.000 C 
BRANCH  12  13
ATOM     13  C   UNL     1     -12.362  -5.899  -7.255  1.00  0.00    -0.003 C 
ATOM     14  C   UNL     1     -12.578  -6.277  -5.790  1.00  0.00     0.004 C 
ENDBRANCH  12  13
ENDBRANCH  11  12
ENDBRANCH  10  11
ENDBRANCH   9  10
ENDBRANCH   1   9
TORSDOF 10
ENDMDL
MODEL 9
REMARK VINA RESULT:    -4.666      3.524      7.489
REMARK INTER + INTRA:          -7.967
REMARK INTER:                  -7.089
REMARK INTRA:                  -0.878
REMARK UNBOUND:                -0.574
REMARK SMILES CCCCCCCCCCCC(=O)[O-]
REMARK SMILES IDX 7 1 8 2 9 3 10 4 11 5 12 6 13 7 14 8 6 9 5 10 4 11 3 12 2 13
REMARK SMILES IDX 1 14
REMARK H PARENT
REMARK Flexibility Score: inf
ROOT
ATOM      1  C   UNL     1     -10.170  -3.957  -7.083  1.00  0.00     0.000 C 
ENDROOT
BRANCH   1   2
ATOM      2  C   UNL     1      -9.076  -3.730  -8.143  1.00  0.00     0.000 C 
BRANCH   2   3
ATOM      3  C   UNL     1      -9.645  -3.546  -9.560  1.00  0.00     0.000 C 
BRANCH   3   4
ATOM      4  C   UNL     1     -10.877  -2.620  -9.589  1.00  0.00     0.006 C 
BRANCH   4   5
ATOM      5  C   UNL     1     -10.541  -1.120  -9.649  1.00  0.00     0.053 C 
BRANCH   5   6
ATOM      6  C   UNL     1     -11.705  -0.304 -10.119  1.00  0.00     0.041 C 
ATOM      7  O   UNL     1     -11.889   0.858  -9.669  1.00  0.00    -0.550 OA
ATOM      8  O   UNL     1     -12.573  -0.814 -11.077  1.00  0.00    -0.550 OA
ENDBRANCH   5   6
ENDBRANCH   4   5
ENDBRANCH   3   4
ENDBRANCH   2   3
ENDBRANCH   1   2
BRANCH   1   9
ATOM      9  C   UNL     1     -10.046  -5.270  -6.287  1.00  0.00     0.000 C 
BRANCH   9  10
ATOM     10  C   UNL     1     -11.341  -5.640  -5.543  1.00  0.00    -0.000 C 
BRANCH  10  11
ATOM     11  C   UNL     1     -12.142  -6.742  -6.257  1.00  0.00    -0.000 C 
BRANCH  11  12
ATOM     12  C   UNL     1     -11.235  -7.811  -6.890  1.00  0.00    -0.000 C 
BRANCH  12  13
ATOM     13  C   UNL     1     -11.614  -8.116  -8.347  1.00  0.00    -0.003 C 
ATOM     14  C   UNL     1     -11.276  -6.970  -9.300  1.00  0.00     0.004 C 
ENDBRANCH  12  13
ENDBRANCH  11  12
ENDBRANCH  10  11
ENDBRANCH   9  10
ENDBRANCH   1   9
TORSDOF 10
ENDMDL
