MODEL 1
REMARK VINA RESULT:     6.254      0.000      0.000
REMARK INTER + INTRA:           7.442
REMARK INTER:                   7.534
REMARK INTRA:                  -0.092
REMARK UNBOUND:                -0.092
REMARK SMILES O=c1c(O)c(-c2ccc(O)c(O)c2)oc2cc(O)cc(O)c12
REMARK SMILES IDX 5 1 3 2 2 3 1 4 22 5 20 6 19 7 17 8 16 9 15 10 14 11 6 12
REMARK SMILES IDX 7 13 8 14 9 15 13 16 11 17 10 18 12 20 4 22 21 24 18 26
REMARK H PARENT 10 19 12 21 4 23 21 25 18 27
REMARK Flexibility Score: inf
ROOT
ATOM      1  C   UNL     1      -0.067  60.992  -3.111  1.00  0.00     0.180 A 
ATOM      2  C   UNL     1       0.869  60.937  -4.157  1.00  0.00     0.208 A 
ATOM      3  C   UNL     1       0.417  60.677  -5.461  1.00  0.00     0.238 A 
ATOM      4  O   UNL     1       1.251  60.703  -6.404  1.00  0.00    -0.285 OA
ATOM      5  C   UNL     1      -0.956  60.418  -5.694  1.00  0.00     0.111 A 
ATOM      6  C   UNL     1      -1.517  60.099  -6.967  1.00  0.00     0.134 A 
ATOM      7  C   UNL     1      -2.905  59.968  -7.095  1.00  0.00     0.093 A 
ATOM      8  C   UNL     1      -3.747  60.082  -5.986  1.00  0.00     0.123 A 
ATOM      9  C   UNL     1      -3.203  60.340  -4.731  1.00  0.00     0.094 A 
ATOM     10  C   UNL     1      -1.825  60.514  -4.576  1.00  0.00     0.146 A 
ATOM     11  O   UNL     1      -1.353  60.778  -3.364  1.00  0.00    -0.452 OA
ENDROOT
BRANCH   1  12
ATOM     12  C   UNL     1       0.329  61.276  -1.712  1.00  0.00     0.025 A 
ATOM     13  C   UNL     1       0.110  60.341  -0.685  1.00  0.00     0.016 A 
ATOM     14  C   UNL     1       0.514  60.621   0.623  1.00  0.00     0.051 A 
ATOM     15  C   UNL     1       1.156  61.830   0.922  1.00  0.00     0.157 A 
ATOM     16  C   UNL     1       0.991  62.477  -1.412  1.00  0.00     0.062 A 
ATOM     17  C   UNL     1       1.398  62.760  -0.102  1.00  0.00     0.158 A 
BRANCH  15  18
ATOM     18  O   UNL     1       1.556  62.106   2.228  1.00  0.00    -0.504 OA
ATOM     19  H   UNL     1       1.537  63.048   2.601  1.00  0.00     0.293 HD
ENDBRANCH  15  18
BRANCH  17  20
ATOM     20  O   UNL     1       2.039  63.971   0.161  1.00  0.00    -0.504 OA
ATOM     21  H   UNL     1       2.350  64.224   1.091  1.00  0.00     0.293 HD
ENDBRANCH  17  20
ENDBRANCH   1  12
BRANCH   2  22
ATOM     22  O   UNL     1       2.229  61.119  -3.895  1.00  0.00    -0.502 OA
ATOM     23  H   UNL     1       2.567  61.769  -3.196  1.00  0.00     0.293 HD
ENDBRANCH   2  22
BRANCH   6  24
ATOM     24  O   UNL     1      -0.762  59.875  -8.122  1.00  0.00    -0.507 OA
ATOM     25  H   UNL     1      -1.143  59.769  -9.050  1.00  0.00     0.293 HD
ENDBRANCH   6  24
BRANCH   8  26
ATOM     26  O   UNL     1      -5.125  59.933  -6.121  1.00  0.00    -0.508 OA
ATOM     27  H   UNL     1      -5.694  60.644  -6.565  1.00  0.00     0.293 HD
ENDBRANCH   8  26
TORSDOF 6
ENDMDL
