MODEL 1
REMARK VINA RESULT:    19.601      0.000      0.000
REMARK INTER + INTRA:          46.368
REMARK INTER:                  44.811
REMARK INTRA:                   1.557
REMARK UNBOUND:                 1.557
REMARK SMILES CCCCCCCCCCCCCCCCCCCCCCCC(=O)[O-]
REMARK SMILES IDX 13 1 14 2 15 3 16 4 17 5 18 6 19 7 20 8 21 9 22 10 23 11
REMARK SMILES IDX 24 12 25 13 26 14 12 15 11 16 10 17 9 18 8 19 7 20 6 21 5 22
REMARK SMILES IDX 4 23 3 24 2 25 1 26
REMARK H PARENT
REMARK Flexibility Score: inf
ROOT
ATOM      1  C   UNL     1      10.797  47.284   9.981  1.00  0.00     0.000 C 
ENDROOT
BRANCH   1   2
ATOM      2  C   UNL     1      11.836  47.036   8.875  1.00  0.00     0.000 C 
BRANCH   2   3
ATOM      3  C   UNL     1      13.088  47.915   9.026  1.00  0.00     0.000 C 
BRANCH   3   4
ATOM      4  C   UNL     1      14.368  47.075   8.889  1.00  0.00     0.000 C 
BRANCH   4   5
ATOM      5  C   UNL     1      15.584  47.725   9.569  1.00  0.00     0.000 C 
BRANCH   5   6
ATOM      6  C   UNL     1      16.500  46.698  10.255  1.00  0.00     0.000 C 
BRANCH   6   7
ATOM      7  C   UNL     1      15.905  45.281  10.250  1.00  0.00     0.000 C 
BRANCH   7   8
ATOM      8  C   UNL     1      15.307  44.891   8.887  1.00  0.00     0.000 C 
BRANCH   8   9
ATOM      9  C   UNL     1      14.687  43.477   8.906  1.00  0.00     0.000 C 
BRANCH   9  10
ATOM     10  C   UNL     1      13.146  43.479   8.875  1.00  0.00     0.006 C 
BRANCH  10  11
ATOM     11  C   UNL     1      12.498  42.363   9.709  1.00  0.00     0.053 C 
BRANCH  11  12
ATOM     12  C   UNL     1      11.151  41.971   9.178  1.00  0.00     0.041 C 
ATOM     13  O   UNL     1      10.299  42.854   8.896  1.00  0.00    -0.550 OA
ATOM     14  O   UNL     1      10.834  40.630   9.001  1.00  0.00    -0.550 OA
ENDBRANCH  11  12
ENDBRANCH  10  11
ENDBRANCH   9  10
ENDBRANCH   8   9
ENDBRANCH   7   8
ENDBRANCH   6   7
ENDBRANCH   5   6
ENDBRANCH   4   5
ENDBRANCH   3   4
ENDBRANCH   2   3
ENDBRANCH   1   2
BRANCH   1  15
ATOM     15  C   UNL     1       9.351  47.232   9.458  1.00  0.00     0.000 C 
BRANCH  15  16
ATOM     16  C   UNL     1       8.313  47.104  10.587  1.00  0.00     0.000 C 
BRANCH  16  17
ATOM     17  C   UNL     1       7.010  46.377  10.199  1.00  0.00     0.000 C 
BRANCH  17  18
ATOM     18  C   UNL     1       6.252  46.978   8.999  1.00  0.00    -0.000 C 
BRANCH  18  19
ATOM     19  C   UNL     1       4.814  47.438   9.300  1.00  0.00    -0.000 C 
BRANCH  19  20
ATOM     20  C   UNL     1       4.721  48.329  10.547  1.00  0.00    -0.000 C 
BRANCH  20  21
ATOM     21  C   UNL     1       4.736  49.812  10.160  1.00  0.00    -0.000 C 
BRANCH  21  22
ATOM     22  C   UNL     1       5.560  50.043   8.884  1.00  0.00    -0.000 C 
BRANCH  22  23
ATOM     23  C   UNL     1       7.032  50.383   9.193  1.00  0.00    -0.000 C 
BRANCH  23  24
ATOM     24  C   UNL     1       7.576  49.712  10.470  1.00  0.00    -0.000 C 
BRANCH  24  25
ATOM     25  C   UNL     1       8.857  50.362  11.029  1.00  0.00    -0.003 C 
ATOM     26  C   UNL     1       8.737  51.880  11.169  1.00  0.00     0.004 C 
ENDBRANCH  24  25
ENDBRANCH  23  24
ENDBRANCH  22  23
ENDBRANCH  21  22
ENDBRANCH  20  21
ENDBRANCH  19  20
ENDBRANCH  18  19
ENDBRANCH  17  18
ENDBRANCH  16  17
ENDBRANCH  15  16
ENDBRANCH   1  15
TORSDOF 22
ENDMDL
MODEL 2
REMARK VINA RESULT:    21.029      8.855     12.040
REMARK INTER + INTRA:          49.631
REMARK INTER:                  50.649
REMARK INTRA:                  -1.018
REMARK UNBOUND:                 1.557
REMARK SMILES CCCCCCCCCCCCCCCCCCCCCCCC(=O)[O-]
REMARK SMILES IDX 13 1 14 2 15 3 16 4 17 5 18 6 19 7 20 8 21 9 22 10 23 11
REMARK SMILES IDX 24 12 25 13 26 14 12 15 11 16 10 17 9 18 8 19 7 20 6 21 5 22
REMARK SMILES IDX 4 23 3 24 2 25 1 26
REMARK H PARENT
REMARK Flexibility Score: inf
ROOT
ATOM      1  C   UNL     1       3.519  45.549  16.967  1.00  0.00     0.000 C 
ENDROOT
BRANCH   1   2
ATOM      2  C   UNL     1       3.192  45.710  15.474  1.00  0.00     0.000 C 
BRANCH   2   3
ATOM      3  C   UNL     1       2.735  47.134  15.114  1.00  0.00     0.000 C 
BRANCH   3   4
ATOM      4  C   UNL     1       3.942  48.042  14.831  1.00  0.00     0.000 C 
BRANCH   4   5
ATOM      5  C   UNL     1       4.535  47.825  13.429  1.00  0.00     0.000 C 
BRANCH   5   6
ATOM      6  C   UNL     1       3.471  47.879  12.320  1.00  0.00     0.000 C 
BRANCH   6   7
ATOM      7  C   UNL     1       4.074  47.708  10.916  1.00  0.00     0.000 C 
BRANCH   7   8
ATOM      8  C   UNL     1       4.516  49.043  10.292  1.00  0.00     0.000 C 
BRANCH   8   9
ATOM      9  C   UNL     1       5.656  48.857   9.266  1.00  0.00     0.000 C 
BRANCH   9  10
ATOM     10  C   UNL     1       6.268  47.443   9.275  1.00  0.00     0.006 C 
BRANCH  10  11
ATOM     11  C   UNL     1       7.774  47.411   9.580  1.00  0.00     0.053 C 
BRANCH  11  12
ATOM     12  C   UNL     1       8.128  48.255  10.767  1.00  0.00     0.041 C 
ATOM     13  O   UNL     1       8.472  47.714  11.851  1.00  0.00    -0.550 OA
ATOM     14  O   UNL     1       8.073  49.641  10.680  1.00  0.00    -0.550 OA
ENDBRANCH  11  12
ENDBRANCH  10  11
ENDBRANCH   9  10
ENDBRANCH   8   9
ENDBRANCH   7   8
ENDBRANCH   6   7
ENDBRANCH   5   6
ENDBRANCH   4   5
ENDBRANCH   3   4
ENDBRANCH   2   3
ENDBRANCH   1   2
BRANCH   1  15
ATOM     15  C   UNL     1       2.423  44.791  17.735  1.00  0.00     0.000 C 
BRANCH  15  16
ATOM     16  C   UNL     1       1.690  45.679  18.758  1.00  0.00     0.000 C 
BRANCH  16  17
ATOM     17  C   UNL     1       2.303  45.687  20.173  1.00  0.00     0.000 C 
BRANCH  17  18
ATOM     18  C   UNL     1       2.922  44.352  20.631  1.00  0.00    -0.000 C 
BRANCH  18  19
ATOM     19  C   UNL     1       1.963  43.412  21.384  1.00  0.00    -0.000 C 
BRANCH  19  20
ATOM     20  C   UNL     1       2.534  42.922  22.722  1.00  0.00    -0.000 C 
BRANCH  20  21
ATOM     21  C   UNL     1       3.330  41.626  22.533  1.00  0.00    -0.000 C 
BRANCH  21  22
ATOM     22  C   UNL     1       4.522  41.562  23.499  1.00  0.00    -0.000 C 
BRANCH  22  23
ATOM     23  C   UNL     1       5.535  42.697  23.253  1.00  0.00    -0.000 C 
BRANCH  23  24
ATOM     24  C   UNL     1       7.006  42.279  23.448  1.00  0.00    -0.000 C 
BRANCH  24  25
ATOM     25  C   UNL     1       7.813  42.176  22.139  1.00  0.00    -0.003 C 
ATOM     26  C   UNL     1       9.299  42.480  22.333  1.00  0.00     0.004 C 
ENDBRANCH  24  25
ENDBRANCH  23  24
ENDBRANCH  22  23
ENDBRANCH  21  22
ENDBRANCH  20  21
ENDBRANCH  19  20
ENDBRANCH  18  19
ENDBRANCH  17  18
ENDBRANCH  16  17
ENDBRANCH  15  16
ENDBRANCH   1  15
TORSDOF 22
ENDMDL
MODEL 3
REMARK VINA RESULT:    21.351      7.893     11.479
REMARK INTER + INTRA:          50.367
REMARK INTER:                  51.230
REMARK INTRA:                  -0.863
REMARK UNBOUND:                 1.557
REMARK SMILES CCCCCCCCCCCCCCCCCCCCCCCC(=O)[O-]
REMARK SMILES IDX 13 1 14 2 15 3 16 4 17 5 18 6 19 7 20 8 21 9 22 10 23 11
REMARK SMILES IDX 24 12 25 13 26 14 12 15 11 16 10 17 9 18 8 19 7 20 6 21 5 22
REMARK SMILES IDX 4 23 3 24 2 25 1 26
REMARK H PARENT
REMARK Flexibility Score: inf
ROOT
ATOM      1  C   UNL     1       2.751  46.786  18.043  1.00  0.00     0.000 C 
ENDROOT
BRANCH   1   2
ATOM      2  C   UNL     1       2.738  46.118  16.658  1.00  0.00     0.000 C 
BRANCH   2   3
ATOM      3  C   UNL     1       2.620  47.132  15.508  1.00  0.00     0.000 C 
BRANCH   3   4
ATOM      4  C   UNL     1       3.956  47.272  14.761  1.00  0.00     0.000 C 
BRANCH   4   5
ATOM      5  C   UNL     1       3.877  48.247  13.576  1.00  0.00     0.000 C 
BRANCH   5   6
ATOM      6  C   UNL     1       3.965  47.535  12.215  1.00  0.00     0.000 C 
BRANCH   6   7
ATOM      7  C   UNL     1       4.906  48.252  11.234  1.00  0.00     0.000 C 
BRANCH   7   8
ATOM      8  C   UNL     1       4.152  49.126  10.217  1.00  0.00     0.000 C 
BRANCH   8   9
ATOM      9  C   UNL     1       5.065  49.591   9.060  1.00  0.00     0.000 C 
BRANCH   9  10
ATOM     10  C   UNL     1       6.328  48.727   8.886  1.00  0.00     0.006 C 
BRANCH  10  11
ATOM     11  C   UNL     1       7.531  49.196   9.718  1.00  0.00     0.053 C 
BRANCH  11  12
ATOM     12  C   UNL     1       8.457  48.066  10.060  1.00  0.00     0.041 C 
ATOM     13  O   UNL     1       8.566  47.674  11.251  1.00  0.00    -0.550 OA
ATOM     14  O   UNL     1       9.203  47.450   9.063  1.00  0.00    -0.550 OA
ENDBRANCH  11  12
ENDBRANCH  10  11
ENDBRANCH   9  10
ENDBRANCH   8   9
ENDBRANCH   7   8
ENDBRANCH   6   7
ENDBRANCH   5   6
ENDBRANCH   4   5
ENDBRANCH   3   4
ENDBRANCH   2   3
ENDBRANCH   1   2
BRANCH   1  15
ATOM     15  C   UNL     1       2.105  45.910  19.130  1.00  0.00     0.000 C 
BRANCH  15  16
ATOM     16  C   UNL     1       3.055  45.624  20.307  1.00  0.00     0.000 C 
BRANCH  16  17
ATOM     17  C   UNL     1       4.258  46.581  20.423  1.00  0.00     0.000 C 
BRANCH  17  18
ATOM     18  C   UNL     1       5.598  45.914  20.792  1.00  0.00    -0.000 C 
BRANCH  18  19
ATOM     19  C   UNL     1       6.850  46.616  20.236  1.00  0.00    -0.000 C 
BRANCH  19  20
ATOM     20  C   UNL     1       7.823  45.646  19.549  1.00  0.00    -0.000 C 
BRANCH  20  21
ATOM     21  C   UNL     1       9.268  45.932  19.973  1.00  0.00    -0.000 C 
BRANCH  21  22
ATOM     22  C   UNL     1      10.065  44.629  20.138  1.00  0.00    -0.000 C 
BRANCH  22  23
ATOM     23  C   UNL     1       9.234  43.517  20.807  1.00  0.00    -0.000 C 
BRANCH  23  24
ATOM     24  C   UNL     1       9.327  43.504  22.346  1.00  0.00    -0.000 C 
BRANCH  24  25
ATOM     25  C   UNL     1       8.494  42.396  23.020  1.00  0.00    -0.003 C 
ATOM     26  C   UNL     1       8.198  41.225  22.083  1.00  0.00     0.004 C 
ENDBRANCH  24  25
ENDBRANCH  23  24
ENDBRANCH  22  23
ENDBRANCH  21  22
ENDBRANCH  20  21
ENDBRANCH  19  20
ENDBRANCH  18  19
ENDBRANCH  17  18
ENDBRANCH  16  17
ENDBRANCH  15  16
ENDBRANCH   1  15
TORSDOF 22
ENDMDL
MODEL 4
REMARK VINA RESULT:    21.570      7.274     10.182
REMARK INTER + INTRA:          50.869
REMARK INTER:                  51.798
REMARK INTRA:                  -0.929
REMARK UNBOUND:                 1.557
REMARK SMILES CCCCCCCCCCCCCCCCCCCCCCCC(=O)[O-]
REMARK SMILES IDX 13 1 14 2 15 3 16 4 17 5 18 6 19 7 20 8 21 9 22 10 23 11
REMARK SMILES IDX 24 12 25 13 26 14 12 15 11 16 10 17 9 18 8 19 7 20 6 21 5 22
REMARK SMILES IDX 4 23 3 24 2 25 1 26
REMARK H PARENT
REMARK Flexibility Score: inf
ROOT
ATOM      1  C   UNL     1       3.659  45.517  16.035  1.00  0.00     0.000 C 
ENDROOT
BRANCH   1   2
ATOM      2  C   UNL     1       3.177  45.199  17.460  1.00  0.00     0.000 C 
BRANCH   2   3
ATOM      3  C   UNL     1       2.518  46.405  18.149  1.00  0.00     0.000 C 
BRANCH   3   4
ATOM      4  C   UNL     1       2.362  46.156  19.658  1.00  0.00     0.000 C 
BRANCH   4   5
ATOM      5  C   UNL     1       2.934  47.299  20.512  1.00  0.00     0.000 C 
BRANCH   5   6
ATOM      6  C   UNL     1       4.423  47.564  20.229  1.00  0.00     0.000 C 
BRANCH   6   7
ATOM      7  C   UNL     1       5.348  46.863  21.236  1.00  0.00     0.000 C 
BRANCH   7   8
ATOM      8  C   UNL     1       6.173  45.732  20.599  1.00  0.00     0.000 C 
BRANCH   8   9
ATOM      9  C   UNL     1       7.355  46.273  19.763  1.00  0.00     0.000 C 
BRANCH   9  10
ATOM     10  C   UNL     1       8.713  45.652  20.143  1.00  0.00     0.006 C 
BRANCH  10  11
ATOM     11  C   UNL     1       9.161  44.508  19.221  1.00  0.00     0.053 C 
BRANCH  11  12
ATOM     12  C   UNL     1       9.524  43.272  19.990  1.00  0.00     0.041 C 
ATOM     13  O   UNL     1       9.761  43.340  21.225  1.00  0.00    -0.550 OA
ATOM     14  O   UNL     1       9.606  42.046  19.342  1.00  0.00    -0.550 OA
ENDBRANCH  11  12
ENDBRANCH  10  11
ENDBRANCH   9  10
ENDBRANCH   8   9
ENDBRANCH   7   8
ENDBRANCH   6   7
ENDBRANCH   5   6
ENDBRANCH   4   5
ENDBRANCH   3   4
ENDBRANCH   2   3
ENDBRANCH   1   2
BRANCH   1  15
ATOM     15  C   UNL     1       3.378  46.972  15.625  1.00  0.00     0.000 C 
BRANCH  15  16
ATOM     16  C   UNL     1       3.139  47.130  14.112  1.00  0.00     0.000 C 
BRANCH  16  17
ATOM     17  C   UNL     1       4.097  48.104  13.398  1.00  0.00     0.000 C 
BRANCH  17  18
ATOM     18  C   UNL     1       4.497  47.704  11.964  1.00  0.00    -0.000 C 
BRANCH  18  19
ATOM     19  C   UNL     1       3.895  48.580  10.850  1.00  0.00    -0.000 C 
BRANCH  19  20
ATOM     20  C   UNL     1       4.552  48.344   9.483  1.00  0.00    -0.000 C 
BRANCH  20  21
ATOM     21  C   UNL     1       5.110  49.654   8.914  1.00  0.00    -0.000 C 
BRANCH  21  22
ATOM     22  C   UNL     1       6.341  50.122   9.704  1.00  0.00    -0.000 C 
BRANCH  22  23
ATOM     23  C   UNL     1       7.662  49.718   9.020  1.00  0.00    -0.000 C 
BRANCH  23  24
ATOM     24  C   UNL     1       7.854  48.195   8.875  1.00  0.00    -0.000 C 
BRANCH  24  25
ATOM     25  C   UNL     1       7.399  47.382  10.102  1.00  0.00    -0.003 C 
ATOM     26  C   UNL     1       8.184  47.730  11.367  1.00  0.00     0.004 C 
ENDBRANCH  24  25
ENDBRANCH  23  24
ENDBRANCH  22  23
ENDBRANCH  21  22
ENDBRANCH  20  21
ENDBRANCH  19  20
ENDBRANCH  18  19
ENDBRANCH  17  18
ENDBRANCH  16  17
ENDBRANCH  15  16
ENDBRANCH   1  15
TORSDOF 22
ENDMDL
MODEL 5
REMARK VINA RESULT:    21.791      9.039     12.315
REMARK INTER + INTRA:          51.373
REMARK INTER:                  51.826
REMARK INTRA:                  -0.453
REMARK UNBOUND:                 1.557
REMARK SMILES CCCCCCCCCCCCCCCCCCCCCCCC(=O)[O-]
REMARK SMILES IDX 13 1 14 2 15 3 16 4 17 5 18 6 19 7 20 8 21 9 22 10 23 11
REMARK SMILES IDX 24 12 25 13 26 14 12 15 11 16 10 17 9 18 8 19 7 20 6 21 5 22
REMARK SMILES IDX 4 23 3 24 2 25 1 26
REMARK H PARENT
REMARK Flexibility Score: inf
ROOT
ATOM      1  C   UNL     1       3.090  45.873  18.604  1.00  0.00     0.000 C 
ENDROOT
BRANCH   1   2
ATOM      2  C   UNL     1       2.465  46.595  17.399  1.00  0.00     0.000 C 
BRANCH   2   3
ATOM      3  C   UNL     1       3.193  46.293  16.079  1.00  0.00     0.000 C 
BRANCH   3   4
ATOM      4  C   UNL     1       3.209  47.529  15.166  1.00  0.00     0.000 C 
BRANCH   4   5
ATOM      5  C   UNL     1       3.068  47.172  13.678  1.00  0.00     0.000 C 
BRANCH   5   6
ATOM      6  C   UNL     1       4.081  47.917  12.791  1.00  0.00     0.000 C 
BRANCH   6   7
ATOM      7  C   UNL     1       3.705  47.871  11.301  1.00  0.00     0.000 C 
BRANCH   7   8
ATOM      8  C   UNL     1       4.363  48.997  10.486  1.00  0.00     0.000 C 
BRANCH   8   9
ATOM      9  C   UNL     1       5.254  48.449   9.349  1.00  0.00     0.000 C 
BRANCH   9  10
ATOM     10  C   UNL     1       6.564  49.237   9.158  1.00  0.00     0.006 C 
BRANCH  10  11
ATOM     11  C   UNL     1       7.477  49.250  10.394  1.00  0.00     0.053 C 
BRANCH  11  12
ATOM     12  C   UNL     1       7.876  47.867  10.816  1.00  0.00     0.041 C 
ATOM     13  O   UNL     1       7.475  46.865  10.167  1.00  0.00    -0.550 OA
ATOM     14  O   UNL     1       8.688  47.684  11.928  1.00  0.00    -0.550 OA
ENDBRANCH  11  12
ENDBRANCH  10  11
ENDBRANCH   9  10
ENDBRANCH   8   9
ENDBRANCH   7   8
ENDBRANCH   6   7
ENDBRANCH   5   6
ENDBRANCH   4   5
ENDBRANCH   3   4
ENDBRANCH   2   3
ENDBRANCH   1   2
BRANCH   1  15
ATOM     15  C   UNL     1       2.035  45.351  19.594  1.00  0.00     0.000 C 
BRANCH  15  16
ATOM     16  C   UNL     1       2.195  43.850  19.899  1.00  0.00     0.000 C 
BRANCH  16  17
ATOM     17  C   UNL     1       2.503  43.511  21.371  1.00  0.00     0.000 C 
BRANCH  17  18
ATOM     18  C   UNL     1       3.094  42.108  21.615  1.00  0.00    -0.000 C 
BRANCH  18  19
ATOM     19  C   UNL     1       3.061  41.633  23.079  1.00  0.00    -0.000 C 
BRANCH  19  20
ATOM     20  C   UNL     1       4.415  41.782  23.787  1.00  0.00    -0.000 C 
BRANCH  20  21
ATOM     21  C   UNL     1       5.555  41.882  22.766  1.00  0.00    -0.000 C 
BRANCH  21  22
ATOM     22  C   UNL     1       6.759  42.633  23.353  1.00  0.00    -0.000 C 
BRANCH  22  23
ATOM     23  C   UNL     1       8.099  42.123  22.785  1.00  0.00    -0.000 C 
BRANCH  23  24
ATOM     24  C   UNL     1       8.437  42.674  21.386  1.00  0.00    -0.000 C 
BRANCH  24  25
ATOM     25  C   UNL     1       9.726  43.517  21.334  1.00  0.00    -0.003 C 
ATOM     26  C   UNL     1      10.362  43.540  19.943  1.00  0.00     0.004 C 
ENDBRANCH  24  25
ENDBRANCH  23  24
ENDBRANCH  22  23
ENDBRANCH  21  22
ENDBRANCH  20  21
ENDBRANCH  19  20
ENDBRANCH  18  19
ENDBRANCH  17  18
ENDBRANCH  16  17
ENDBRANCH  15  16
ENDBRANCH   1  15
TORSDOF 22
ENDMDL
MODEL 6
REMARK VINA RESULT:    21.863      8.234     11.592
REMARK INTER + INTRA:          51.538
REMARK INTER:                  52.655
REMARK INTRA:                  -1.117
REMARK UNBOUND:                 1.557
REMARK SMILES CCCCCCCCCCCCCCCCCCCCCCCC(=O)[O-]
REMARK SMILES IDX 13 1 14 2 15 3 16 4 17 5 18 6 19 7 20 8 21 9 22 10 23 11
REMARK SMILES IDX 24 12 25 13 26 14 12 15 11 16 10 17 9 18 8 19 7 20 6 21 5 22
REMARK SMILES IDX 4 23 3 24 2 25 1 26
REMARK H PARENT
REMARK Flexibility Score: inf
ROOT
ATOM      1  C   UNL     1       4.778  44.765  16.746  1.00  0.00     0.000 C 
ENDROOT
BRANCH   1   2
ATOM      2  C   UNL     1       3.687  45.215  15.761  1.00  0.00     0.000 C 
BRANCH   2   3
ATOM      3  C   UNL     1       3.113  46.601  16.100  1.00  0.00     0.000 C 
BRANCH   3   4
ATOM      4  C   UNL     1       2.796  47.391  14.820  1.00  0.00     0.000 C 
BRANCH   4   5
ATOM      5  C   UNL     1       3.953  47.376  13.809  1.00  0.00     0.000 C 
BRANCH   5   6
ATOM      6  C   UNL     1       3.507  47.773  12.391  1.00  0.00     0.000 C 
BRANCH   6   7
ATOM      7  C   UNL     1       4.654  48.364  11.556  1.00  0.00     0.000 C 
BRANCH   7   8
ATOM      8  C   UNL     1       4.274  48.564  10.079  1.00  0.00     0.000 C 
BRANCH   8   9
ATOM      9  C   UNL     1       5.516  48.684   9.169  1.00  0.00     0.000 C 
BRANCH   9  10
ATOM     10  C   UNL     1       6.399  47.421   9.162  1.00  0.00     0.006 C 
BRANCH  10  11
ATOM     11  C   UNL     1       7.896  47.698   9.370  1.00  0.00     0.053 C 
BRANCH  11  12
ATOM     12  C   UNL     1       8.168  48.380  10.678  1.00  0.00     0.041 C 
ATOM     13  O   UNL     1       8.300  49.631  10.726  1.00  0.00    -0.550 OA
ATOM     14  O   UNL     1       8.281  47.633  11.844  1.00  0.00    -0.550 OA
ENDBRANCH  11  12
ENDBRANCH  10  11
ENDBRANCH   9  10
ENDBRANCH   8   9
ENDBRANCH   7   8
ENDBRANCH   6   7
ENDBRANCH   5   6
ENDBRANCH   4   5
ENDBRANCH   3   4
ENDBRANCH   2   3
ENDBRANCH   1   2
BRANCH   1  15
ATOM     15  C   UNL     1       6.189  44.830  16.138  1.00  0.00     0.000 C 
BRANCH  15  16
ATOM     16  C   UNL     1       7.301  44.730  17.199  1.00  0.00     0.000 C 
BRANCH  16  17
ATOM     17  C   UNL     1       7.485  45.987  18.073  1.00  0.00     0.000 C 
BRANCH  17  18
ATOM     18  C   UNL     1       8.657  45.929  19.073  1.00  0.00    -0.000 C 
BRANCH  18  19
ATOM     19  C   UNL     1       8.755  44.626  19.888  1.00  0.00    -0.000 C 
BRANCH  19  20
ATOM     20  C   UNL     1      10.175  44.346  20.398  1.00  0.00    -0.000 C 
BRANCH  20  21
ATOM     21  C   UNL     1      10.290  42.913  20.932  1.00  0.00    -0.000 C 
BRANCH  21  22
ATOM     22  C   UNL     1       8.903  42.292  21.153  1.00  0.00    -0.000 C 
BRANCH  22  23
ATOM     23  C   UNL     1       8.370  42.544  22.578  1.00  0.00    -0.000 C 
BRANCH  23  24
ATOM     24  C   UNL     1       9.337  42.105  23.695  1.00  0.00    -0.000 C 
BRANCH  24  25
ATOM     25  C   UNL     1      10.232  43.236  24.238  1.00  0.00    -0.003 C 
ATOM     26  C   UNL     1      10.607  43.041  25.707  1.00  0.00     0.004 C 
ENDBRANCH  24  25
ENDBRANCH  23  24
ENDBRANCH  22  23
ENDBRANCH  21  22
ENDBRANCH  20  21
ENDBRANCH  19  20
ENDBRANCH  18  19
ENDBRANCH  17  18
ENDBRANCH  16  17
ENDBRANCH  15  16
ENDBRANCH   1  15
TORSDOF 22
ENDMDL
MODEL 7
REMARK VINA RESULT:    22.127      7.582     10.895
REMARK INTER + INTRA:          52.143
REMARK INTER:                  53.281
REMARK INTRA:                  -1.138
REMARK UNBOUND:                 1.557
REMARK SMILES CCCCCCCCCCCCCCCCCCCCCCCC(=O)[O-]
REMARK SMILES IDX 13 1 14 2 15 3 16 4 17 5 18 6 19 7 20 8 21 9 22 10 23 11
REMARK SMILES IDX 24 12 25 13 26 14 12 15 11 16 10 17 9 18 8 19 7 20 6 21 5 22
REMARK SMILES IDX 4 23 3 24 2 25 1 26
REMARK H PARENT
REMARK Flexibility Score: inf
ROOT
ATOM      1  C   UNL     1       3.454  45.183  16.631  1.00  0.00     0.000 C 
ENDROOT
BRANCH   1   2
ATOM      2  C   UNL     1       3.827  45.869  15.306  1.00  0.00     0.000 C 
BRANCH   2   3
ATOM      3  C   UNL     1       2.968  47.110  15.015  1.00  0.00     0.000 C 
BRANCH   3   4
ATOM      4  C   UNL     1       3.783  48.175  14.263  1.00  0.00     0.000 C 
BRANCH   4   5
ATOM      5  C   UNL     1       4.451  47.628  12.992  1.00  0.00     0.000 C 
BRANCH   5   6
ATOM      6  C   UNL     1       3.825  48.190  11.703  1.00  0.00     0.000 C 
BRANCH   6   7
ATOM      7  C   UNL     1       4.858  48.880  10.799  1.00  0.00     0.000 C 
BRANCH   7   8
ATOM      8  C   UNL     1       5.026  48.176   9.442  1.00  0.00     0.000 C 
BRANCH   8   9
ATOM      9  C   UNL     1       5.768  46.827   9.573  1.00  0.00     0.000 C 
BRANCH   9  10
ATOM     10  C   UNL     1       7.248  46.895   9.151  1.00  0.00     0.006 C 
BRANCH  10  11
ATOM     11  C   UNL     1       7.844  48.311   9.169  1.00  0.00     0.053 C 
BRANCH  11  12
ATOM     12  C   UNL     1       8.196  48.758  10.557  1.00  0.00     0.041 C 
ATOM     13  O   UNL     1       8.267  49.986  10.829  1.00  0.00    -0.550 OA
ATOM     14  O   UNL     1       8.453  47.820  11.548  1.00  0.00    -0.550 OA
ENDBRANCH  11  12
ENDBRANCH  10  11
ENDBRANCH   9  10
ENDBRANCH   8   9
ENDBRANCH   7   8
ENDBRANCH   6   7
ENDBRANCH   5   6
ENDBRANCH   4   5
ENDBRANCH   3   4
ENDBRANCH   2   3
ENDBRANCH   1   2
BRANCH   1  15
ATOM     15  C   UNL     1       2.793  46.147  17.631  1.00  0.00     0.000 C 
BRANCH  15  16
ATOM     16  C   UNL     1       2.232  45.427  18.871  1.00  0.00     0.000 C 
BRANCH  16  17
ATOM     17  C   UNL     1       2.712  45.987  20.225  1.00  0.00     0.000 C 
BRANCH  17  18
ATOM     18  C   UNL     1       4.203  45.762  20.541  1.00  0.00    -0.000 C 
BRANCH  18  19
ATOM     19  C   UNL     1       4.977  47.023  20.968  1.00  0.00    -0.000 C 
BRANCH  19  20
ATOM     20  C   UNL     1       6.437  47.017  20.494  1.00  0.00    -0.000 C 
BRANCH  20  21
ATOM     21  C   UNL     1       6.926  45.584  20.253  1.00  0.00    -0.000 C 
BRANCH  21  22
ATOM     22  C   UNL     1       8.283  45.576  19.532  1.00  0.00    -0.000 C 
BRANCH  22  23
ATOM     23  C   UNL     1       9.452  45.282  20.493  1.00  0.00    -0.000 C 
BRANCH  23  24
ATOM     24  C   UNL     1       9.888  43.803  20.517  1.00  0.00    -0.000 C 
BRANCH  24  25
ATOM     25  C   UNL     1      10.036  43.211  21.932  1.00  0.00    -0.003 C 
ATOM     26  C   UNL     1       8.740  42.585  22.450  1.00  0.00     0.004 C 
ENDBRANCH  24  25
ENDBRANCH  23  24
ENDBRANCH  22  23
ENDBRANCH  21  22
ENDBRANCH  20  21
ENDBRANCH  19  20
ENDBRANCH  18  19
ENDBRANCH  17  18
ENDBRANCH  16  17
ENDBRANCH  15  16
ENDBRANCH   1  15
TORSDOF 22
ENDMDL
MODEL 8
REMARK VINA RESULT:    22.183      9.224     11.752
REMARK INTER + INTRA:          52.269
REMARK INTER:                  53.552
REMARK INTRA:                  -1.283
REMARK UNBOUND:                 1.557
REMARK SMILES CCCCCCCCCCCCCCCCCCCCCCCC(=O)[O-]
REMARK SMILES IDX 13 1 14 2 15 3 16 4 17 5 18 6 19 7 20 8 21 9 22 10 23 11
REMARK SMILES IDX 24 12 25 13 26 14 12 15 11 16 10 17 9 18 8 19 7 20 6 21 5 22
REMARK SMILES IDX 4 23 3 24 2 25 1 26
REMARK H PARENT
REMARK Flexibility Score: inf
ROOT
ATOM      1  C   UNL     1       3.205  45.169  18.870  1.00  0.00     0.000 C 
ENDROOT
BRANCH   1   2
ATOM      2  C   UNL     1       2.042  45.750  19.692  1.00  0.00     0.000 C 
BRANCH   2   3
ATOM      3  C   UNL     1       1.562  44.800  20.800  1.00  0.00     0.000 C 
BRANCH   3   4
ATOM      4  C   UNL     1       2.532  43.619  20.968  1.00  0.00     0.000 C 
BRANCH   4   5
ATOM      5  C   UNL     1       2.550  43.061  22.400  1.00  0.00     0.000 C 
BRANCH   5   6
ATOM      6  C   UNL     1       3.162  41.652  22.481  1.00  0.00     0.000 C 
BRANCH   6   7
ATOM      7  C   UNL     1       4.511  41.638  23.217  1.00  0.00     0.000 C 
BRANCH   7   8
ATOM      8  C   UNL     1       5.533  42.613  22.608  1.00  0.00     0.000 C 
BRANCH   8   9
ATOM      9  C   UNL     1       6.916  42.508  23.288  1.00  0.00     0.000 C 
BRANCH   9  10
ATOM     10  C   UNL     1       8.022  41.976  22.357  1.00  0.00     0.006 C 
BRANCH  10  11
ATOM     11  C   UNL     1       9.164  42.973  22.103  1.00  0.00     0.053 C 
BRANCH  11  12
ATOM     12  C   UNL     1       9.562  43.020  20.658  1.00  0.00     0.041 C 
ATOM     13  O   UNL     1      10.305  43.944  20.235  1.00  0.00    -0.550 OA
ATOM     14  O   UNL     1       9.108  42.046  19.777  1.00  0.00    -0.550 OA
ENDBRANCH  11  12
ENDBRANCH  10  11
ENDBRANCH   9  10
ENDBRANCH   8   9
ENDBRANCH   7   8
ENDBRANCH   6   7
ENDBRANCH   5   6
ENDBRANCH   4   5
ENDBRANCH   3   4
ENDBRANCH   2   3
ENDBRANCH   1   2
BRANCH   1  15
ATOM     15  C   UNL     1       2.846  44.983  17.386  1.00  0.00     0.000 C 
BRANCH  15  16
ATOM     16  C   UNL     1       2.755  46.318  16.623  1.00  0.00     0.000 C 
BRANCH  16  17
ATOM     17  C   UNL     1       3.704  46.445  15.414  1.00  0.00     0.000 C 
BRANCH  17  18
ATOM     18  C   UNL     1       3.291  47.490  14.359  1.00  0.00    -0.000 C 
BRANCH  18  19
ATOM     19  C   UNL     1       4.429  47.979  13.445  1.00  0.00    -0.000 C 
BRANCH  19  20
ATOM     20  C   UNL     1       4.243  47.557  11.980  1.00  0.00    -0.000 C 
BRANCH  20  21
ATOM     21  C   UNL     1       4.060  48.784  11.079  1.00  0.00    -0.000 C 
BRANCH  21  22
ATOM     22  C   UNL     1       4.709  48.562   9.704  1.00  0.00    -0.000 C 
BRANCH  22  23
ATOM     23  C   UNL     1       5.755  47.429   9.728  1.00  0.00    -0.000 C 
BRANCH  23  24
ATOM     24  C   UNL     1       7.164  47.868   9.284  1.00  0.00    -0.000 C 
BRANCH  24  25
ATOM     25  C   UNL     1       7.944  48.663  10.349  1.00  0.00    -0.003 C 
ATOM     26  C   UNL     1       8.094  47.899  11.665  1.00  0.00     0.004 C 
ENDBRANCH  24  25
ENDBRANCH  23  24
ENDBRANCH  22  23
ENDBRANCH  21  22
ENDBRANCH  20  21
ENDBRANCH  19  20
ENDBRANCH  18  19
ENDBRANCH  17  18
ENDBRANCH  16  17
ENDBRANCH  15  16
ENDBRANCH   1  15
TORSDOF 22
ENDMDL
