MODEL 1
REMARK VINA RESULT:    -6.389      0.000      0.000
REMARK INTER + INTRA:         -10.658
REMARK INTER:                 -10.124
REMARK INTRA:                  -0.534
REMARK UNBOUND:                -0.534
REMARK SMILES CCCCCCCCCCCC(=O)[O-]
REMARK SMILES IDX 7 1 8 2 9 3 10 4 11 5 12 6 13 7 14 8 6 9 5 10 4 11 3 12 2 13
REMARK SMILES IDX 1 14
REMARK H PARENT
REMARK Flexibility Score: inf
ROOT
ATOM      1  C   UNL     1      -3.564   3.589   4.805  1.00  0.00     0.000 C 
ENDROOT
BRANCH   1   2
ATOM      2  C   UNL     1      -2.826   2.968   6.000  1.00  0.00     0.000 C 
BRANCH   2   3
ATOM      3  C   UNL     1      -3.516   3.255   7.346  1.00  0.00     0.000 C 
BRANCH   3   4
ATOM      4  C   UNL     1      -2.767   2.732   8.586  1.00  0.00     0.006 C 
BRANCH   4   5
ATOM      5  C   UNL     1      -2.391   1.249   8.476  1.00  0.00     0.053 C 
BRANCH   5   6
ATOM      6  C   UNL     1      -1.035   1.010   9.061  1.00  0.00     0.041 C 
ATOM      7  O   UNL     1      -0.080   1.784   8.784  1.00  0.00    -0.550 OA
ATOM      8  O   UNL     1      -0.812  -0.096   9.870  1.00  0.00    -0.550 OA
ENDBRANCH   5   6
ENDBRANCH   4   5
ENDBRANCH   3   4
ENDBRANCH   2   3
ENDBRANCH   1   2
BRANCH   1   9
ATOM      9  C   UNL     1      -4.468   4.744   5.256  1.00  0.00     0.000 C 
BRANCH   9  10
ATOM     10  C   UNL     1      -4.186   6.013   4.439  1.00  0.00    -0.000 C 
BRANCH  10  11
ATOM     11  C   UNL     1      -5.471   6.701   3.953  1.00  0.00    -0.000 C 
BRANCH  11  12
ATOM     12  C   UNL     1      -6.406   5.740   3.196  1.00  0.00    -0.000 C 
BRANCH  12  13
ATOM     13  C   UNL     1      -6.793   6.269   1.806  1.00  0.00    -0.003 C 
ATOM     14  C   UNL     1      -5.688   7.108   1.166  1.00  0.00     0.004 C 
ENDBRANCH  12  13
ENDBRANCH  11  12
ENDBRANCH  10  11
ENDBRANCH   9  10
ENDBRANCH   1   9
TORSDOF 10
ENDMDL
MODEL 2
REMARK VINA RESULT:    -6.205      1.336      2.023
REMARK INTER + INTRA:         -10.367
REMARK INTER:                 -10.038
REMARK INTRA:                  -0.328
REMARK UNBOUND:                -0.534
REMARK SMILES CCCCCCCCCCCC(=O)[O-]
REMARK SMILES IDX 7 1 8 2 9 3 10 4 11 5 12 6 13 7 14 8 6 9 5 10 4 11 3 12 2 13
REMARK SMILES IDX 1 14
REMARK H PARENT
REMARK Flexibility Score: inf
ROOT
ATOM      1  C   UNL     1      -4.641   4.712   5.363  1.00  0.00     0.000 C 
ENDROOT
BRANCH   1   2
ATOM      2  C   UNL     1      -3.320   3.982   5.080  1.00  0.00     0.000 C 
BRANCH   2   3
ATOM      3  C   UNL     1      -3.171   2.677   5.881  1.00  0.00     0.000 C 
BRANCH   3   4
ATOM      4  C   UNL     1      -2.916   2.863   7.388  1.00  0.00     0.006 C 
BRANCH   4   5
ATOM      5  C   UNL     1      -2.382   1.595   8.066  1.00  0.00     0.053 C 
BRANCH   5   6
ATOM      6  C   UNL     1      -1.900   1.904   9.448  1.00  0.00     0.041 C 
ATOM      7  O   UNL     1      -2.706   1.893  10.417  1.00  0.00    -0.550 OA
ATOM      8  O   UNL     1      -0.574   2.255   9.661  1.00  0.00    -0.550 OA
ENDBRANCH   5   6
ENDBRANCH   4   5
ENDBRANCH   3   4
ENDBRANCH   2   3
ENDBRANCH   1   2
BRANCH   1   9
ATOM      9  C   UNL     1      -4.722   6.027   4.577  1.00  0.00     0.000 C 
BRANCH   9  10
ATOM     10  C   UNL     1      -6.046   6.125   3.806  1.00  0.00    -0.000 C 
BRANCH  10  11
ATOM     11  C   UNL     1      -5.869   6.715   2.399  1.00  0.00    -0.000 C 
BRANCH  11  12
ATOM     12  C   UNL     1      -7.026   6.349   1.453  1.00  0.00    -0.000 C 
BRANCH  12  13
ATOM     13  C   UNL     1      -8.275   5.869   2.210  1.00  0.00    -0.003 C 
ATOM     14  C   UNL     1      -9.541   5.931   1.357  1.00  0.00     0.004 C 
ENDBRANCH  12  13
ENDBRANCH  11  12
ENDBRANCH  10  11
ENDBRANCH   9  10
ENDBRANCH   1   9
TORSDOF 10
ENDMDL
MODEL 3
REMARK VINA RESULT:    -6.170      3.787      4.478
REMARK INTER + INTRA:         -10.311
REMARK INTER:                  -9.642
REMARK INTRA:                  -0.670
REMARK UNBOUND:                -0.534
REMARK SMILES CCCCCCCCCCCC(=O)[O-]
REMARK SMILES IDX 7 1 8 2 9 3 10 4 11 5 12 6 13 7 14 8 6 9 5 10 4 11 3 12 2 13
REMARK SMILES IDX 1 14
REMARK H PARENT
REMARK Flexibility Score: inf
ROOT
ATOM      1  C   UNL     1      -3.057   3.478   4.653  1.00  0.00     0.000 C 
ENDROOT
BRANCH   1   2
ATOM      2  C   UNL     1      -3.599   2.052   4.473  1.00  0.00     0.000 C 
BRANCH   2   3
ATOM      3  C   UNL     1      -4.523   1.911   3.250  1.00  0.00     0.000 C 
BRANCH   3   4
ATOM      4  C   UNL     1      -4.661   0.479   2.700  1.00  0.00     0.006 C 
BRANCH   4   5
ATOM      5  C   UNL     1      -4.436  -0.596   3.771  1.00  0.00     0.053 C 
BRANCH   5   6
ATOM      6  C   UNL     1      -5.730  -1.255   4.129  1.00  0.00     0.041 C 
ATOM      7  O   UNL     1      -6.689  -1.256   3.312  1.00  0.00    -0.550 OA
ATOM      8  O   UNL     1      -5.896  -1.825   5.384  1.00  0.00    -0.550 OA
ENDBRANCH   5   6
ENDBRANCH   4   5
ENDBRANCH   3   4
ENDBRANCH   2   3
ENDBRANCH   1   2
BRANCH   1   9
ATOM      9  C   UNL     1      -4.161   4.430   5.128  1.00  0.00     0.000 C 
BRANCH   9  10
ATOM     10  C   UNL     1      -3.983   5.827   4.515  1.00  0.00    -0.000 C 
BRANCH  10  11
ATOM     11  C   UNL     1      -5.323   6.516   4.214  1.00  0.00    -0.000 C 
BRANCH  11  12
ATOM     12  C   UNL     1      -6.297   5.604   3.447  1.00  0.00    -0.000 C 
BRANCH  12  13
ATOM     13  C   UNL     1      -6.823   6.256   2.159  1.00  0.00    -0.003 C 
ATOM     14  C   UNL     1      -5.743   7.032   1.406  1.00  0.00     0.004 C 
ENDBRANCH  12  13
ENDBRANCH  11  12
ENDBRANCH  10  11
ENDBRANCH   9  10
ENDBRANCH   1   9
TORSDOF 10
ENDMDL
MODEL 4
REMARK VINA RESULT:    -6.123      0.833      1.081
REMARK INTER + INTRA:         -10.236
REMARK INTER:                  -9.718
REMARK INTRA:                  -0.518
REMARK UNBOUND:                -0.534
REMARK SMILES CCCCCCCCCCCC(=O)[O-]
REMARK SMILES IDX 7 1 8 2 9 3 10 4 11 5 12 6 13 7 14 8 6 9 5 10 4 11 3 12 2 13
REMARK SMILES IDX 1 14
REMARK H PARENT
REMARK Flexibility Score: inf
ROOT
ATOM      1  C   UNL     1      -3.195   3.293   5.702  1.00  0.00     0.000 C 
ENDROOT
BRANCH   1   2
ATOM      2  C   UNL     1      -3.727   3.728   7.076  1.00  0.00     0.000 C 
BRANCH   2   3
ATOM      3  C   UNL     1      -3.203   2.852   8.228  1.00  0.00     0.000 C 
BRANCH   3   4
ATOM      4  C   UNL     1      -2.440   1.588   7.790  1.00  0.00     0.006 C 
BRANCH   4   5
ATOM      5  C   UNL     1      -1.908   0.772   8.974  1.00  0.00     0.053 C 
BRANCH   5   6
ATOM      6  C   UNL     1      -0.641   1.373   9.496  1.00  0.00     0.041 C 
ATOM      7  O   UNL     1       0.374   1.455   8.755  1.00  0.00    -0.550 OA
ATOM      8  O   UNL     1      -0.564   1.798  10.816  1.00  0.00    -0.550 OA
ENDBRANCH   5   6
ENDBRANCH   4   5
ENDBRANCH   3   4
ENDBRANCH   2   3
ENDBRANCH   1   2
BRANCH   1   9
ATOM      9  C   UNL     1      -3.881   4.074   4.574  1.00  0.00     0.000 C 
BRANCH   9  10
ATOM     10  C   UNL     1      -4.763   5.196   5.140  1.00  0.00    -0.000 C 
BRANCH  10  11
ATOM     11  C   UNL     1      -5.201   6.203   4.065  1.00  0.00    -0.000 C 
BRANCH  11  12
ATOM     12  C   UNL     1      -6.662   6.002   3.628  1.00  0.00    -0.000 C 
BRANCH  12  13
ATOM     13  C   UNL     1      -6.844   6.129   2.107  1.00  0.00    -0.003 C 
ATOM     14  C   UNL     1      -5.857   7.109   1.474  1.00  0.00     0.004 C 
ENDBRANCH  12  13
ENDBRANCH  11  12
ENDBRANCH  10  11
ENDBRANCH   9  10
ENDBRANCH   1   9
TORSDOF 10
ENDMDL
MODEL 5
REMARK VINA RESULT:    -6.049      3.627      4.613
REMARK INTER + INTRA:         -10.119
REMARK INTER:                  -9.542
REMARK INTRA:                  -0.576
REMARK UNBOUND:                -0.534
REMARK SMILES CCCCCCCCCCCC(=O)[O-]
REMARK SMILES IDX 7 1 8 2 9 3 10 4 11 5 12 6 13 7 14 8 6 9 5 10 4 11 3 12 2 13
REMARK SMILES IDX 1 14
REMARK H PARENT
REMARK Flexibility Score: inf
ROOT
ATOM      1  C   UNL     1      -4.454   5.420   4.956  1.00  0.00     0.000 C 
ENDROOT
BRANCH   1   2
ATOM      2  C   UNL     1      -3.993   4.075   5.536  1.00  0.00     0.000 C 
BRANCH   2   3
ATOM      3  C   UNL     1      -3.106   3.275   4.565  1.00  0.00     0.000 C 
BRANCH   3   4
ATOM      4  C   UNL     1      -3.546   1.817   4.332  1.00  0.00     0.006 C 
BRANCH   4   5
ATOM      5  C   UNL     1      -4.531   1.669   3.166  1.00  0.00     0.053 C 
BRANCH   5   6
ATOM      6  C   UNL     1      -4.374   0.331   2.516  1.00  0.00     0.041 C 
ATOM      7  O   UNL     1      -4.528   0.208   1.272  1.00  0.00    -0.550 OA
ATOM      8  O   UNL     1      -4.106  -0.791   3.290  1.00  0.00    -0.550 OA
ENDBRANCH   5   6
ENDBRANCH   4   5
ENDBRANCH   3   4
ENDBRANCH   2   3
ENDBRANCH   1   2
BRANCH   1   9
ATOM      9  C   UNL     1      -5.725   5.248   4.114  1.00  0.00     0.000 C 
BRANCH   9  10
ATOM     10  C   UNL     1      -5.848   6.367   3.070  1.00  0.00    -0.000 C 
BRANCH  10  11
ATOM     11  C   UNL     1      -7.091   6.211   2.180  1.00  0.00    -0.000 C 
BRANCH  11  12
ATOM     12  C   UNL     1      -8.266   5.545   2.917  1.00  0.00    -0.000 C 
BRANCH  12  13
ATOM     13  C   UNL     1      -9.627   5.903   2.300  1.00  0.00    -0.003 C 
ATOM     14  C   UNL     1      -9.598   5.914   0.772  1.00  0.00     0.004 C 
ENDBRANCH  12  13
ENDBRANCH  11  12
ENDBRANCH  10  11
ENDBRANCH   9  10
ENDBRANCH   1   9
TORSDOF 10
ENDMDL
MODEL 6
REMARK VINA RESULT:    -5.941      8.342     10.015
REMARK INTER + INTRA:          -9.948
REMARK INTER:                  -9.462
REMARK INTRA:                  -0.486
REMARK UNBOUND:                -0.534
REMARK SMILES CCCCCCCCCCCC(=O)[O-]
REMARK SMILES IDX 7 1 8 2 9 3 10 4 11 5 12 6 13 7 14 8 6 9 5 10 4 11 3 12 2 13
REMARK SMILES IDX 1 14
REMARK H PARENT
REMARK Flexibility Score: inf
ROOT
ATOM      1  C   UNL     1      -4.190  -0.121  -0.307  1.00  0.00     0.000 C 
ENDROOT
BRANCH   1   2
ATOM      2  C   UNL     1      -4.776   0.260  -1.675  1.00  0.00     0.000 C 
BRANCH   2   3
ATOM      3  C   UNL     1      -3.707   0.364  -2.778  1.00  0.00     0.000 C 
BRANCH   3   4
ATOM      4  C   UNL     1      -3.420  -0.948  -3.532  1.00  0.00     0.006 C 
BRANCH   4   5
ATOM      5  C   UNL     1      -4.574  -1.954  -3.441  1.00  0.00     0.053 C 
BRANCH   5   6
ATOM      6  C   UNL     1      -4.058  -3.309  -3.072  1.00  0.00     0.041 C 
ATOM      7  O   UNL     1      -4.844  -4.291  -3.008  1.00  0.00    -0.550 OA
ATOM      8  O   UNL     1      -2.718  -3.478  -2.747  1.00  0.00    -0.550 OA
ENDBRANCH   5   6
ENDBRANCH   4   5
ENDBRANCH   3   4
ENDBRANCH   2   3
ENDBRANCH   1   2
BRANCH   1   9
ATOM      9  C   UNL     1      -4.996   0.515   0.832  1.00  0.00     0.000 C 
BRANCH   9  10
ATOM     10  C   UNL     1      -4.260   0.375   2.172  1.00  0.00    -0.000 C 
BRANCH  10  11
ATOM     11  C   UNL     1      -5.209   0.439   3.378  1.00  0.00    -0.000 C 
BRANCH  11  12
ATOM     12  C   UNL     1      -6.380  -0.552   3.262  1.00  0.00    -0.000 C 
BRANCH  12  13
ATOM     13  C   UNL     1      -6.594  -1.364   4.550  1.00  0.00    -0.003 C 
ATOM     14  C   UNL     1      -5.291  -1.929   5.114  1.00  0.00     0.004 C 
ENDBRANCH  12  13
ENDBRANCH  11  12
ENDBRANCH  10  11
ENDBRANCH   9  10
ENDBRANCH   1   9
TORSDOF 10
ENDMDL
MODEL 7
REMARK VINA RESULT:    -5.788     14.557     16.002
REMARK INTER + INTRA:          -9.705
REMARK INTER:                  -9.058
REMARK INTRA:                  -0.647
REMARK UNBOUND:                -0.534
REMARK SMILES CCCCCCCCCCCC(=O)[O-]
REMARK SMILES IDX 7 1 8 2 9 3 10 4 11 5 12 6 13 7 14 8 6 9 5 10 4 11 3 12 2 13
REMARK SMILES IDX 1 14
REMARK H PARENT
REMARK Flexibility Score: inf
ROOT
ATOM      1  C   UNL     1       3.413  -3.260  -8.222  1.00  0.00     0.000 C 
ENDROOT
BRANCH   1   2
ATOM      2  C   UNL     1       2.227  -4.075  -7.686  1.00  0.00     0.000 C 
BRANCH   2   3
ATOM      3  C   UNL     1       0.864  -3.520  -8.138  1.00  0.00     0.000 C 
BRANCH   3   4
ATOM      4  C   UNL     1      -0.301  -3.782  -7.165  1.00  0.00     0.006 C 
BRANCH   4   5
ATOM      5  C   UNL     1       0.091  -3.581  -5.696  1.00  0.00     0.053 C 
BRANCH   5   6
ATOM      6  C   UNL     1      -0.916  -2.719  -5.000  1.00  0.00     0.041 C 
ATOM      7  O   UNL     1      -1.714  -3.225  -4.167  1.00  0.00    -0.550 OA
ATOM      8  O   UNL     1      -1.007  -1.369  -5.309  1.00  0.00    -0.550 OA
ENDBRANCH   5   6
ENDBRANCH   4   5
ENDBRANCH   3   4
ENDBRANCH   2   3
ENDBRANCH   1   2
BRANCH   1   9
ATOM      9  C   UNL     1       4.744  -3.827  -7.711  1.00  0.00     0.000 C 
BRANCH   9  10
ATOM     10  C   UNL     1       5.459  -2.815  -6.803  1.00  0.00    -0.000 C 
BRANCH  10  11
ATOM     11  C   UNL     1       4.592  -1.586  -6.489  1.00  0.00    -0.000 C 
BRANCH  11  12
ATOM     12  C   UNL     1       4.137  -1.544  -5.020  1.00  0.00    -0.000 C 
BRANCH  12  13
ATOM     13  C   UNL     1       5.290  -1.229  -4.055  1.00  0.00    -0.003 C 
ATOM     14  C   UNL     1       5.157  -1.956  -2.718  1.00  0.00     0.004 C 
ENDBRANCH  12  13
ENDBRANCH  11  12
ENDBRANCH  10  11
ENDBRANCH   9  10
ENDBRANCH   1   9
TORSDOF 10
ENDMDL
MODEL 8
REMARK VINA RESULT:    -5.693      5.050      7.216
REMARK INTER + INTRA:          -9.555
REMARK INTER:                  -8.868
REMARK INTRA:                  -0.687
REMARK UNBOUND:                -0.534
REMARK SMILES CCCCCCCCCCCC(=O)[O-]
REMARK SMILES IDX 7 1 8 2 9 3 10 4 11 5 12 6 13 7 14 8 6 9 5 10 4 11 3 12 2 13
REMARK SMILES IDX 1 14
REMARK H PARENT
REMARK Flexibility Score: inf
ROOT
ATOM      1  C   UNL     1      -4.414   2.329   3.890  1.00  0.00     0.000 C 
ENDROOT
BRANCH   1   2
ATOM      2  C   UNL     1      -3.283   3.017   4.668  1.00  0.00     0.000 C 
BRANCH   2   3
ATOM      3  C   UNL     1      -3.705   4.370   5.270  1.00  0.00     0.000 C 
BRANCH   3   4
ATOM      4  C   UNL     1      -5.108   4.856   4.861  1.00  0.00     0.006 C 
BRANCH   4   5
ATOM      5  C   UNL     1      -5.080   6.178   4.084  1.00  0.00     0.053 C 
BRANCH   5   6
ATOM      6  C   UNL     1      -6.256   6.268   3.164  1.00  0.00     0.041 C 
ATOM      7  O   UNL     1      -7.346   5.718   3.473  1.00  0.00    -0.550 OA
ATOM      8  O   UNL     1      -6.136   6.916   1.942  1.00  0.00    -0.550 OA
ENDBRANCH   5   6
ENDBRANCH   4   5
ENDBRANCH   3   4
ENDBRANCH   2   3
ENDBRANCH   1   2
BRANCH   1   9
ATOM      9  C   UNL     1      -3.894   1.097   3.140  1.00  0.00     0.000 C 
BRANCH   9  10
ATOM     10  C   UNL     1      -5.012   0.443   2.314  1.00  0.00    -0.000 C 
BRANCH  10  11
ATOM     11  C   UNL     1      -6.322   0.299   3.104  1.00  0.00    -0.000 C 
BRANCH  11  12
ATOM     12  C   UNL     1      -6.622  -1.160   3.491  1.00  0.00    -0.000 C 
BRANCH  12  13
ATOM     13  C   UNL     1      -6.128  -1.507   4.904  1.00  0.00    -0.003 C 
ATOM     14  C   UNL     1      -4.787  -2.240   4.896  1.00  0.00     0.004 C 
ENDBRANCH  12  13
ENDBRANCH  11  12
ENDBRANCH  10  11
ENDBRANCH   9  10
ENDBRANCH   1   9
TORSDOF 10
ENDMDL
MODEL 9
REMARK VINA RESULT:    -5.604      5.155      7.503
REMARK INTER + INTRA:          -9.414
REMARK INTER:                  -8.772
REMARK INTRA:                  -0.642
REMARK UNBOUND:                -0.534
REMARK SMILES CCCCCCCCCCCC(=O)[O-]
REMARK SMILES IDX 7 1 8 2 9 3 10 4 11 5 12 6 13 7 14 8 6 9 5 10 4 11 3 12 2 13
REMARK SMILES IDX 1 14
REMARK H PARENT
REMARK Flexibility Score: inf
ROOT
ATOM      1  C   UNL     1      -3.248   3.648   4.706  1.00  0.00     0.000 C 
ENDROOT
BRANCH   1   2
ATOM      2  C   UNL     1      -4.327   4.388   5.509  1.00  0.00     0.000 C 
BRANCH   2   3
ATOM      3  C   UNL     1      -5.037   5.484   4.695  1.00  0.00     0.000 C 
BRANCH   3   4
ATOM      4  C   UNL     1      -6.110   4.976   3.715  1.00  0.00     0.006 C 
BRANCH   4   5
ATOM      5  C   UNL     1      -6.658   6.080   2.802  1.00  0.00     0.053 C 
BRANCH   5   6
ATOM      6  C   UNL     1      -8.134   5.921   2.618  1.00  0.00     0.041 C 
ATOM      7  O   UNL     1      -8.632   5.924   1.460  1.00  0.00    -0.550 OA
ATOM      8  O   UNL     1      -8.967   5.820   3.724  1.00  0.00    -0.550 OA
ENDBRANCH   5   6
ENDBRANCH   4   5
ENDBRANCH   3   4
ENDBRANCH   2   3
ENDBRANCH   1   2
BRANCH   1   9
ATOM      9  C   UNL     1      -3.590   2.160   4.565  1.00  0.00     0.000 C 
BRANCH   9  10
ATOM     10  C   UNL     1      -4.393   1.900   3.282  1.00  0.00    -0.000 C 
BRANCH  10  11
ATOM     11  C   UNL     1      -4.606   0.403   3.011  1.00  0.00    -0.000 C 
BRANCH  11  12
ATOM     12  C   UNL     1      -4.332  -0.467   4.250  1.00  0.00    -0.000 C 
BRANCH  12  13
ATOM     13  C   UNL     1      -5.475  -1.453   4.541  1.00  0.00    -0.003 C 
ATOM     14  C   UNL     1      -6.731  -1.159   3.723  1.00  0.00     0.004 C 
ENDBRANCH  12  13
ENDBRANCH  11  12
ENDBRANCH  10  11
ENDBRANCH   9  10
ENDBRANCH   1   9
TORSDOF 10
ENDMDL
