MODEL 1
REMARK VINA RESULT:    -3.892      0.000      0.000
REMARK INTER + INTRA:         -13.039
REMARK INTER:                  -8.897
REMARK INTRA:                  -4.142
REMARK UNBOUND:                -4.142
REMARK SMILES CCCCCCCCCCCCCCCCCCCCCCCC(=O)[O-]
REMARK SMILES IDX 13 1 14 2 15 3 16 4 17 5 18 6 19 7 20 8 21 9 22 10 23 11
REMARK SMILES IDX 24 12 25 13 26 14 12 15 11 16 10 17 9 18 8 19 7 20 6 21 5 22
REMARK SMILES IDX 4 23 3 24 2 25 1 26
REMARK H PARENT
REMARK Flexibility Score: inf
ROOT
ATOM      1  C   UNL     1    -112.584 -42.454 -64.627  1.00  0.00     0.000 C 
ENDROOT
BRANCH   1   2
ATOM      2  C   UNL     1    -113.237 -41.274 -65.371  1.00  0.00     0.000 C 
BRANCH   2   3
ATOM      3  C   UNL     1    -112.459 -40.766 -66.602  1.00  0.00     0.000 C 
BRANCH   3   4
ATOM      4  C   UNL     1    -113.148 -41.013 -67.958  1.00  0.00     0.000 C 
BRANCH   4   5
ATOM      5  C   UNL     1    -114.100 -42.226 -67.996  1.00  0.00     0.000 C 
BRANCH   5   6
ATOM      6  C   UNL     1    -113.463 -43.544 -68.475  1.00  0.00     0.000 C 
BRANCH   6   7
ATOM      7  C   UNL     1    -112.298 -43.323 -69.453  1.00  0.00     0.000 C 
BRANCH   7   8
ATOM      8  C   UNL     1    -111.005 -44.034 -69.013  1.00  0.00     0.000 C 
BRANCH   8   9
ATOM      9  C   UNL     1    -109.696 -43.292 -69.353  1.00  0.00     0.000 C 
BRANCH   9  10
ATOM     10  C   UNL     1    -109.374 -42.084 -68.451  1.00  0.00     0.006 C 
BRANCH  10  11
ATOM     11  C   UNL     1    -109.547 -40.720 -69.137  1.00  0.00     0.053 C 
BRANCH  11  12
ATOM     12  C   UNL     1    -108.233 -40.132 -69.555  1.00  0.00     0.041 C 
ATOM     13  O   UNL     1    -108.176 -38.952 -69.989  1.00  0.00    -0.550 OA
ATOM     14  O   UNL     1    -107.069 -40.881 -69.436  1.00  0.00    -0.550 OA
ENDBRANCH  11  12
ENDBRANCH  10  11
ENDBRANCH   9  10
ENDBRANCH   8   9
ENDBRANCH   7   8
ENDBRANCH   6   7
ENDBRANCH   5   6
ENDBRANCH   4   5
ENDBRANCH   3   4
ENDBRANCH   2   3
ENDBRANCH   1   2
BRANCH   1  15
ATOM     15  C   UNL     1    -111.311 -42.966 -65.322  1.00  0.00     0.000 C 
BRANCH  15  16
ATOM     16  C   UNL     1    -110.194 -43.321 -64.328  1.00  0.00     0.000 C 
BRANCH  16  17
ATOM     17  C   UNL     1    -108.817 -43.455 -64.996  1.00  0.00     0.000 C 
BRANCH  17  18
ATOM     18  C   UNL     1    -107.697 -43.461 -63.945  1.00  0.00    -0.000 C 
BRANCH  18  19
ATOM     19  C   UNL     1    -108.180 -42.999 -62.562  1.00  0.00    -0.000 C 
BRANCH  19  20
ATOM     20  C   UNL     1    -107.022 -42.591 -61.634  1.00  0.00    -0.000 C 
BRANCH  20  21
ATOM     21  C   UNL     1    -106.283 -41.337 -62.128  1.00  0.00    -0.000 C 
BRANCH  21  22
ATOM     22  C   UNL     1    -107.243 -40.204 -62.526  1.00  0.00    -0.000 C 
BRANCH  22  23
ATOM     23  C   UNL     1    -106.633 -39.330 -63.632  1.00  0.00    -0.000 C 
BRANCH  23  24
ATOM     24  C   UNL     1    -106.696 -39.992 -65.021  1.00  0.00    -0.000 C 
BRANCH  24  25
ATOM     25  C   UNL     1    -107.765 -39.415 -65.967  1.00  0.00    -0.003 C 
ATOM     26  C   UNL     1    -109.187 -39.809 -65.574  1.00  0.00     0.004 C 
ENDBRANCH  24  25
ENDBRANCH  23  24
ENDBRANCH  22  23
ENDBRANCH  21  22
ENDBRANCH  20  21
ENDBRANCH  19  20
ENDBRANCH  18  19
ENDBRANCH  17  18
ENDBRANCH  16  17
ENDBRANCH  15  16
ENDBRANCH   1  15
TORSDOF 22
ENDMDL
MODEL 2
REMARK VINA RESULT:    -3.874      1.793      6.500
REMARK INTER + INTRA:         -12.999
REMARK INTER:                  -8.684
REMARK INTRA:                  -4.314
REMARK UNBOUND:                -4.142
REMARK SMILES CCCCCCCCCCCCCCCCCCCCCCCC(=O)[O-]
REMARK SMILES IDX 13 1 14 2 15 3 16 4 17 5 18 6 19 7 20 8 21 9 22 10 23 11
REMARK SMILES IDX 24 12 25 13 26 14 12 15 11 16 10 17 9 18 8 19 7 20 6 21 5 22
REMARK SMILES IDX 4 23 3 24 2 25 1 26
REMARK H PARENT
REMARK Flexibility Score: inf
ROOT
ATOM      1  C   UNL     1    -111.112 -40.730 -65.754  1.00  0.00     0.000 C 
ENDROOT
BRANCH   1   2
ATOM      2  C   UNL     1    -109.740 -41.411 -65.595  1.00  0.00     0.000 C 
BRANCH   2   3
ATOM      3  C   UNL     1    -109.779 -42.834 -65.001  1.00  0.00     0.000 C 
BRANCH   3   4
ATOM      4  C   UNL     1    -108.550 -43.707 -65.316  1.00  0.00     0.000 C 
BRANCH   4   5
ATOM      5  C   UNL     1    -107.344 -42.950 -65.909  1.00  0.00     0.000 C 
BRANCH   5   6
ATOM      6  C   UNL     1    -105.981 -43.295 -65.282  1.00  0.00     0.000 C 
BRANCH   6   7
ATOM      7  C   UNL     1    -106.056 -43.488 -63.758  1.00  0.00     0.000 C 
BRANCH   7   8
ATOM      8  C   UNL     1    -105.397 -42.337 -62.977  1.00  0.00     0.000 C 
BRANCH   8   9
ATOM      9  C   UNL     1    -106.345 -41.530 -62.065  1.00  0.00     0.000 C 
BRANCH   9  10
ATOM     10  C   UNL     1    -107.460 -40.758 -62.799  1.00  0.00     0.006 C 
BRANCH  10  11
ATOM     11  C   UNL     1    -107.079 -39.322 -63.192  1.00  0.00     0.053 C 
BRANCH  11  12
ATOM     12  C   UNL     1    -106.906 -39.175 -64.674  1.00  0.00     0.041 C 
ATOM     13  O   UNL     1    -105.913 -39.692 -65.250  1.00  0.00    -0.550 OA
ATOM     14  O   UNL     1    -107.857 -38.490 -65.419  1.00  0.00    -0.550 OA
ENDBRANCH  11  12
ENDBRANCH  10  11
ENDBRANCH   9  10
ENDBRANCH   8   9
ENDBRANCH   7   8
ENDBRANCH   6   7
ENDBRANCH   5   6
ENDBRANCH   4   5
ENDBRANCH   3   4
ENDBRANCH   2   3
ENDBRANCH   1   2
BRANCH   1  15
ATOM     15  C   UNL     1    -112.276 -41.614 -65.273  1.00  0.00     0.000 C 
BRANCH  15  16
ATOM     16  C   UNL     1    -113.648 -41.081 -65.713  1.00  0.00     0.000 C 
BRANCH  16  17
ATOM     17  C   UNL     1    -113.956 -41.367 -67.191  1.00  0.00     0.000 C 
BRANCH  17  18
ATOM     18  C   UNL     1    -113.803 -42.864 -67.501  1.00  0.00    -0.000 C 
BRANCH  18  19
ATOM     19  C   UNL     1    -113.606 -43.141 -68.999  1.00  0.00    -0.000 C 
BRANCH  19  20
ATOM     20  C   UNL     1    -112.280 -43.863 -69.299  1.00  0.00    -0.000 C 
BRANCH  20  21
ATOM     21  C   UNL     1    -111.154 -43.456 -68.334  1.00  0.00    -0.000 C 
BRANCH  21  22
ATOM     22  C   UNL     1    -109.786 -43.363 -69.028  1.00  0.00    -0.000 C 
BRANCH  22  23
ATOM     23  C   UNL     1    -109.707 -42.117 -69.923  1.00  0.00    -0.000 C 
BRANCH  23  24
ATOM     24  C   UNL     1    -110.161 -40.834 -69.205  1.00  0.00    -0.000 C 
BRANCH  24  25
ATOM     25  C   UNL     1    -111.458 -40.209 -69.749  1.00  0.00    -0.003 C 
ATOM     26  C   UNL     1    -111.755 -40.609 -71.193  1.00  0.00     0.004 C 
ENDBRANCH  24  25
ENDBRANCH  23  24
ENDBRANCH  22  23
ENDBRANCH  21  22
ENDBRANCH  20  21
ENDBRANCH  19  20
ENDBRANCH  18  19
ENDBRANCH  17  18
ENDBRANCH  16  17
ENDBRANCH  15  16
ENDBRANCH   1  15
TORSDOF 22
ENDMDL
MODEL 3
REMARK VINA RESULT:    -3.850      1.626      2.114
REMARK INTER + INTRA:         -12.945
REMARK INTER:                  -8.791
REMARK INTRA:                  -4.153
REMARK UNBOUND:                -4.142
REMARK SMILES CCCCCCCCCCCCCCCCCCCCCCCC(=O)[O-]
REMARK SMILES IDX 13 1 14 2 15 3 16 4 17 5 18 6 19 7 20 8 21 9 22 10 23 11
REMARK SMILES IDX 24 12 25 13 26 14 12 15 11 16 10 17 9 18 8 19 7 20 6 21 5 22
REMARK SMILES IDX 4 23 3 24 2 25 1 26
REMARK H PARENT
REMARK Flexibility Score: inf
ROOT
ATOM      1  C   UNL     1    -112.305 -40.771 -65.538  1.00  0.00     0.000 C 
ENDROOT
BRANCH   1   2
ATOM      2  C   UNL     1    -113.489 -41.697 -65.206  1.00  0.00     0.000 C 
BRANCH   2   3
ATOM      3  C   UNL     1    -114.543 -41.840 -66.323  1.00  0.00     0.000 C 
BRANCH   3   4
ATOM      4  C   UNL     1    -113.974 -41.916 -67.753  1.00  0.00     0.000 C 
BRANCH   4   5
ATOM      5  C   UNL     1    -113.443 -43.302 -68.172  1.00  0.00     0.000 C 
BRANCH   5   6
ATOM      6  C   UNL     1    -112.056 -43.297 -68.841  1.00  0.00     0.000 C 
BRANCH   6   7
ATOM      7  C   UNL     1    -111.521 -41.878 -69.098  1.00  0.00     0.000 C 
BRANCH   7   8
ATOM      8  C   UNL     1    -109.983 -41.809 -69.094  1.00  0.00     0.000 C 
BRANCH   8   9
ATOM      9  C   UNL     1    -109.271 -43.000 -68.419  1.00  0.00     0.000 C 
BRANCH   9  10
ATOM     10  C   UNL     1    -108.111 -43.613 -69.227  1.00  0.00     0.006 C 
BRANCH  10  11
ATOM     11  C   UNL     1    -106.866 -42.717 -69.325  1.00  0.00     0.053 C 
BRANCH  11  12
ATOM     12  C   UNL     1    -105.920 -42.947 -68.186  1.00  0.00     0.041 C 
ATOM     13  O   UNL     1    -104.994 -42.125 -67.955  1.00  0.00    -0.550 OA
ATOM     14  O   UNL     1    -106.080 -44.055 -67.364  1.00  0.00    -0.550 OA
ENDBRANCH  11  12
ENDBRANCH  10  11
ENDBRANCH   9  10
ENDBRANCH   8   9
ENDBRANCH   7   8
ENDBRANCH   6   7
ENDBRANCH   5   6
ENDBRANCH   4   5
ENDBRANCH   3   4
ENDBRANCH   2   3
ENDBRANCH   1   2
BRANCH   1  15
ATOM     15  C   UNL     1    -110.947 -41.491 -65.471  1.00  0.00     0.000 C 
BRANCH  15  16
ATOM     16  C   UNL     1    -111.087 -42.998 -65.203  1.00  0.00     0.000 C 
BRANCH  16  17
ATOM     17  C   UNL     1    -109.753 -43.670 -64.844  1.00  0.00     0.000 C 
BRANCH  17  18
ATOM     18  C   UNL     1    -108.791 -42.664 -64.195  1.00  0.00    -0.000 C 
BRANCH  18  19
ATOM     19  C   UNL     1    -108.322 -43.107 -62.801  1.00  0.00    -0.000 C 
BRANCH  19  20
ATOM     20  C   UNL     1    -107.569 -41.996 -62.048  1.00  0.00    -0.000 C 
BRANCH  20  21
ATOM     21  C   UNL     1    -106.747 -41.098 -62.987  1.00  0.00    -0.000 C 
BRANCH  21  22
ATOM     22  C   UNL     1    -107.137 -39.616 -62.879  1.00  0.00    -0.000 C 
BRANCH  22  23
ATOM     23  C   UNL     1    -107.496 -39.041 -64.258  1.00  0.00    -0.000 C 
BRANCH  23  24
ATOM     24  C   UNL     1    -106.834 -39.807 -65.417  1.00  0.00    -0.000 C 
BRANCH  24  25
ATOM     25  C   UNL     1    -107.753 -40.086 -66.620  1.00  0.00    -0.003 C 
ATOM     26  C   UNL     1    -107.295 -39.385 -67.898  1.00  0.00     0.004 C 
ENDBRANCH  24  25
ENDBRANCH  23  24
ENDBRANCH  22  23
ENDBRANCH  21  22
ENDBRANCH  20  21
ENDBRANCH  19  20
ENDBRANCH  18  19
ENDBRANCH  17  18
ENDBRANCH  16  17
ENDBRANCH  15  16
ENDBRANCH   1  15
TORSDOF 22
ENDMDL
MODEL 4
REMARK VINA RESULT:    -3.840      1.831      6.717
REMARK INTER + INTRA:         -12.920
REMARK INTER:                  -8.942
REMARK INTRA:                  -3.977
REMARK UNBOUND:                -4.142
REMARK SMILES CCCCCCCCCCCCCCCCCCCCCCCC(=O)[O-]
REMARK SMILES IDX 13 1 14 2 15 3 16 4 17 5 18 6 19 7 20 8 21 9 22 10 23 11
REMARK SMILES IDX 24 12 25 13 26 14 12 15 11 16 10 17 9 18 8 19 7 20 6 21 5 22
REMARK SMILES IDX 4 23 3 24 2 25 1 26
REMARK H PARENT
REMARK Flexibility Score: inf
ROOT
ATOM      1  C   UNL     1    -108.277 -41.664 -66.253  1.00  0.00     0.000 C 
ENDROOT
BRANCH   1   2
ATOM      2  C   UNL     1    -108.218 -43.128 -66.726  1.00  0.00     0.000 C 
BRANCH   2   3
ATOM      3  C   UNL     1    -107.345 -44.061 -65.862  1.00  0.00     0.000 C 
BRANCH   3   4
ATOM      4  C   UNL     1    -106.353 -43.346 -64.925  1.00  0.00     0.000 C 
BRANCH   4   5
ATOM      5  C   UNL     1    -106.500 -43.692 -63.429  1.00  0.00     0.000 C 
BRANCH   5   6
ATOM      6  C   UNL     1    -107.841 -43.285 -62.791  1.00  0.00     0.000 C 
BRANCH   6   7
ATOM      7  C   UNL     1    -107.719 -42.052 -61.879  1.00  0.00     0.000 C 
BRANCH   7   8
ATOM      8  C   UNL     1    -106.258 -41.645 -61.617  1.00  0.00     0.000 C 
BRANCH   8   9
ATOM      9  C   UNL     1    -105.895 -40.200 -62.017  1.00  0.00     0.000 C 
BRANCH   9  10
ATOM     10  C   UNL     1    -106.005 -39.889 -63.523  1.00  0.00     0.006 C 
BRANCH  10  11
ATOM     11  C   UNL     1    -107.115 -38.888 -63.882  1.00  0.00     0.053 C 
BRANCH  11  12
ATOM     12  C   UNL     1    -106.775 -38.090 -65.103  1.00  0.00     0.041 C 
ATOM     13  O   UNL     1    -107.269 -38.398 -66.220  1.00  0.00    -0.550 OA
ATOM     14  O   UNL     1    -105.935 -36.988 -65.001  1.00  0.00    -0.550 OA
ENDBRANCH  11  12
ENDBRANCH  10  11
ENDBRANCH   9  10
ENDBRANCH   8   9
ENDBRANCH   7   8
ENDBRANCH   6   7
ENDBRANCH   5   6
ENDBRANCH   4   5
ENDBRANCH   3   4
ENDBRANCH   2   3
ENDBRANCH   1   2
BRANCH   1  15
ATOM     15  C   UNL     1    -109.540 -41.354 -65.431  1.00  0.00     0.000 C 
BRANCH  15  16
ATOM     16  C   UNL     1    -110.718 -42.277 -65.780  1.00  0.00     0.000 C 
BRANCH  16  17
ATOM     17  C   UNL     1    -111.202 -43.109 -64.583  1.00  0.00     0.000 C 
BRANCH  17  18
ATOM     18  C   UNL     1    -112.633 -42.716 -64.186  1.00  0.00    -0.000 C 
BRANCH  18  19
ATOM     19  C   UNL     1    -113.177 -41.544 -65.018  1.00  0.00    -0.000 C 
BRANCH  19  20
ATOM     20  C   UNL     1    -114.388 -41.940 -65.881  1.00  0.00    -0.000 C 
BRANCH  20  21
ATOM     21  C   UNL     1    -114.185 -41.613 -67.369  1.00  0.00    -0.000 C 
BRANCH  21  22
ATOM     22  C   UNL     1    -113.565 -42.782 -68.152  1.00  0.00    -0.000 C 
BRANCH  22  23
ATOM     23  C   UNL     1    -112.718 -42.269 -69.326  1.00  0.00    -0.000 C 
BRANCH  23  24
ATOM     24  C   UNL     1    -112.113 -40.878 -69.065  1.00  0.00    -0.000 C 
BRANCH  24  25
ATOM     25  C   UNL     1    -110.578 -40.808 -69.159  1.00  0.00    -0.003 C 
ATOM     26  C   UNL     1    -109.958 -42.069 -69.758  1.00  0.00     0.004 C 
ENDBRANCH  24  25
ENDBRANCH  23  24
ENDBRANCH  22  23
ENDBRANCH  21  22
ENDBRANCH  20  21
ENDBRANCH  19  20
ENDBRANCH  18  19
ENDBRANCH  17  18
ENDBRANCH  16  17
ENDBRANCH  15  16
ENDBRANCH   1  15
TORSDOF 22
ENDMDL
MODEL 5
REMARK VINA RESULT:    -3.822      4.632      9.314
REMARK INTER + INTRA:         -12.880
REMARK INTER:                 -10.130
REMARK INTRA:                  -2.750
REMARK UNBOUND:                -4.142
REMARK SMILES CCCCCCCCCCCCCCCCCCCCCCCC(=O)[O-]
REMARK SMILES IDX 13 1 14 2 15 3 16 4 17 5 18 6 19 7 20 8 21 9 22 10 23 11
REMARK SMILES IDX 24 12 25 13 26 14 12 15 11 16 10 17 9 18 8 19 7 20 6 21 5 22
REMARK SMILES IDX 4 23 3 24 2 25 1 26
REMARK H PARENT
REMARK Flexibility Score: inf
ROOT
ATOM      1  C   UNL     1    -108.340 -42.043 -65.366  1.00  0.00     0.000 C 
ENDROOT
BRANCH   1   2
ATOM      2  C   UNL     1    -108.044 -43.508 -64.996  1.00  0.00     0.000 C 
BRANCH   2   3
ATOM      3  C   UNL     1    -107.311 -43.710 -63.654  1.00  0.00     0.000 C 
BRANCH   3   4
ATOM      4  C   UNL     1    -107.963 -43.016 -62.443  1.00  0.00     0.000 C 
BRANCH   4   5
ATOM      5  C   UNL     1    -107.118 -41.900 -61.795  1.00  0.00     0.000 C 
BRANCH   5   6
ATOM      6  C   UNL     1    -106.413 -42.291 -60.483  1.00  0.00     0.000 C 
BRANCH   6   7
ATOM      7  C   UNL     1    -104.909 -42.556 -60.670  1.00  0.00     0.000 C 
BRANCH   7   8
ATOM      8  C   UNL     1    -104.027 -41.462 -60.043  1.00  0.00     0.000 C 
BRANCH   8   9
ATOM      9  C   UNL     1    -104.757 -40.486 -59.098  1.00  0.00     0.000 C 
BRANCH   9  10
ATOM     10  C   UNL     1    -103.931 -40.000 -57.890  1.00  0.00     0.006 C 
BRANCH  10  11
ATOM     11  C   UNL     1    -104.541 -40.352 -56.525  1.00  0.00     0.053 C 
BRANCH  11  12
ATOM     12  C   UNL     1    -103.855 -41.523 -55.889  1.00  0.00     0.041 C 
ATOM     13  O   UNL     1    -103.381 -41.426 -54.727  1.00  0.00    -0.550 OA
ATOM     14  O   UNL     1    -103.766 -42.729 -56.573  1.00  0.00    -0.550 OA
ENDBRANCH  11  12
ENDBRANCH  10  11
ENDBRANCH   9  10
ENDBRANCH   8   9
ENDBRANCH   7   8
ENDBRANCH   6   7
ENDBRANCH   5   6
ENDBRANCH   4   5
ENDBRANCH   3   4
ENDBRANCH   2   3
ENDBRANCH   1   2
BRANCH   1  15
ATOM     15  C   UNL     1    -109.847 -41.747 -65.469  1.00  0.00     0.000 C 
BRANCH  15  16
ATOM     16  C   UNL     1    -110.717 -42.952 -65.077  1.00  0.00     0.000 C 
BRANCH  16  17
ATOM     17  C   UNL     1    -112.192 -42.580 -64.860  1.00  0.00     0.000 C 
BRANCH  17  18
ATOM     18  C   UNL     1    -112.470 -41.146 -65.335  1.00  0.00    -0.000 C 
BRANCH  18  19
ATOM     19  C   UNL     1    -113.711 -41.052 -66.237  1.00  0.00    -0.000 C 
BRANCH  19  20
ATOM     20  C   UNL     1    -113.391 -41.332 -67.716  1.00  0.00    -0.000 C 
BRANCH  20  21
ATOM     21  C   UNL     1    -113.791 -42.752 -68.149  1.00  0.00    -0.000 C 
BRANCH  21  22
ATOM     22  C   UNL     1    -112.912 -43.292 -69.287  1.00  0.00    -0.000 C 
BRANCH  22  23
ATOM     23  C   UNL     1    -111.449 -42.859 -69.104  1.00  0.00    -0.000 C 
BRANCH  23  24
ATOM     24  C   UNL     1    -110.545 -43.997 -68.599  1.00  0.00    -0.000 C 
BRANCH  24  25
ATOM     25  C   UNL     1    -109.036 -43.763 -68.793  1.00  0.00    -0.003 C 
ATOM     26  C   UNL     1    -108.686 -42.299 -69.047  1.00  0.00     0.004 C 
ENDBRANCH  24  25
ENDBRANCH  23  24
ENDBRANCH  22  23
ENDBRANCH  21  22
ENDBRANCH  20  21
ENDBRANCH  19  20
ENDBRANCH  18  19
ENDBRANCH  17  18
ENDBRANCH  16  17
ENDBRANCH  15  16
ENDBRANCH   1  15
TORSDOF 22
ENDMDL
MODEL 6
REMARK VINA RESULT:    -3.796      1.368      2.636
REMARK INTER + INTRA:         -12.820
REMARK INTER:                  -8.821
REMARK INTRA:                  -3.998
REMARK UNBOUND:                -4.142
REMARK SMILES CCCCCCCCCCCCCCCCCCCCCCCC(=O)[O-]
REMARK SMILES IDX 13 1 14 2 15 3 16 4 17 5 18 6 19 7 20 8 21 9 22 10 23 11
REMARK SMILES IDX 24 12 25 13 26 14 12 15 11 16 10 17 9 18 8 19 7 20 6 21 5 22
REMARK SMILES IDX 4 23 3 24 2 25 1 26
REMARK H PARENT
REMARK Flexibility Score: inf
ROOT
ATOM      1  C   UNL     1    -109.658 -43.657 -65.786  1.00  0.00     0.000 C 
ENDROOT
BRANCH   1   2
ATOM      2  C   UNL     1    -110.799 -42.793 -65.220  1.00  0.00     0.000 C 
BRANCH   2   3
ATOM      3  C   UNL     1    -110.834 -41.337 -65.728  1.00  0.00     0.000 C 
BRANCH   3   4
ATOM      4  C   UNL     1    -112.228 -40.682 -65.739  1.00  0.00     0.000 C 
BRANCH   4   5
ATOM      5  C   UNL     1    -113.369 -41.563 -65.192  1.00  0.00     0.000 C 
BRANCH   5   6
ATOM      6  C   UNL     1    -114.421 -41.991 -66.232  1.00  0.00     0.000 C 
BRANCH   6   7
ATOM      7  C   UNL     1    -113.976 -41.723 -67.679  1.00  0.00     0.000 C 
BRANCH   7   8
ATOM      8  C   UNL     1    -113.669 -43.014 -68.459  1.00  0.00     0.000 C 
BRANCH   8   9
ATOM      9  C   UNL     1    -112.173 -43.371 -68.582  1.00  0.00     0.000 C 
BRANCH   9  10
ATOM     10  C   UNL     1    -111.441 -42.722 -69.774  1.00  0.00     0.006 C 
BRANCH  10  11
ATOM     11  C   UNL     1    -110.490 -41.579 -69.385  1.00  0.00     0.053 C 
BRANCH  11  12
ATOM     12  C   UNL     1    -109.121 -42.082 -69.043  1.00  0.00     0.041 C 
ATOM     13  O   UNL     1    -108.718 -43.184 -69.500  1.00  0.00    -0.550 OA
ATOM     14  O   UNL     1    -108.281 -41.318 -68.242  1.00  0.00    -0.550 OA
ENDBRANCH  11  12
ENDBRANCH  10  11
ENDBRANCH   9  10
ENDBRANCH   8   9
ENDBRANCH   7   8
ENDBRANCH   6   7
ENDBRANCH   5   6
ENDBRANCH   4   5
ENDBRANCH   3   4
ENDBRANCH   2   3
ENDBRANCH   1   2
BRANCH   1  15
ATOM     15  C   UNL     1    -108.442 -43.730 -64.847  1.00  0.00     0.000 C 
BRANCH  15  16
ATOM     16  C   UNL     1    -108.759 -43.239 -63.426  1.00  0.00     0.000 C 
BRANCH  16  17
ATOM     17  C   UNL     1    -107.595 -43.449 -62.446  1.00  0.00     0.000 C 
BRANCH  17  18
ATOM     18  C   UNL     1    -107.373 -42.196 -61.584  1.00  0.00    -0.000 C 
BRANCH  18  19
ATOM     19  C   UNL     1    -106.021 -42.212 -60.854  1.00  0.00    -0.000 C 
BRANCH  19  20
ATOM     20  C   UNL     1    -105.015 -41.211 -61.448  1.00  0.00    -0.000 C 
BRANCH  20  21
ATOM     21  C   UNL     1    -104.148 -41.832 -62.556  1.00  0.00    -0.000 C 
BRANCH  21  22
ATOM     22  C   UNL     1    -104.253 -41.069 -63.886  1.00  0.00    -0.000 C 
BRANCH  22  23
ATOM     23  C   UNL     1    -105.432 -41.587 -64.724  1.00  0.00    -0.000 C 
BRANCH  23  24
ATOM     24  C   UNL     1    -106.188 -40.462 -65.454  1.00  0.00    -0.000 C 
BRANCH  24  25
ATOM     25  C   UNL     1    -107.513 -40.038 -64.796  1.00  0.00    -0.003 C 
ATOM     26  C   UNL     1    -107.316 -39.135 -63.580  1.00  0.00     0.004 C 
ENDBRANCH  24  25
ENDBRANCH  23  24
ENDBRANCH  22  23
ENDBRANCH  21  22
ENDBRANCH  20  21
ENDBRANCH  19  20
ENDBRANCH  18  19
ENDBRANCH  17  18
ENDBRANCH  16  17
ENDBRANCH  15  16
ENDBRANCH   1  15
TORSDOF 22
ENDMDL
MODEL 7
REMARK VINA RESULT:    -3.793      1.477      3.102
REMARK INTER + INTRA:         -12.813
REMARK INTER:                  -8.715
REMARK INTRA:                  -4.098
REMARK UNBOUND:                -4.142
REMARK SMILES CCCCCCCCCCCCCCCCCCCCCCCC(=O)[O-]
REMARK SMILES IDX 13 1 14 2 15 3 16 4 17 5 18 6 19 7 20 8 21 9 22 10 23 11
REMARK SMILES IDX 24 12 25 13 26 14 12 15 11 16 10 17 9 18 8 19 7 20 6 21 5 22
REMARK SMILES IDX 4 23 3 24 2 25 1 26
REMARK H PARENT
REMARK Flexibility Score: inf
ROOT
ATOM      1  C   UNL     1    -110.641 -42.728 -64.577  1.00  0.00     0.000 C 
ENDROOT
BRANCH   1   2
ATOM      2  C   UNL     1    -112.105 -42.994 -64.182  1.00  0.00     0.000 C 
BRANCH   2   3
ATOM      3  C   UNL     1    -113.128 -41.979 -64.734  1.00  0.00     0.000 C 
BRANCH   3   4
ATOM      4  C   UNL     1    -112.545 -40.917 -65.686  1.00  0.00     0.000 C 
BRANCH   4   5
ATOM      5  C   UNL     1    -112.884 -41.118 -67.177  1.00  0.00     0.000 C 
BRANCH   5   6
ATOM      6  C   UNL     1    -113.824 -42.299 -67.481  1.00  0.00     0.000 C 
BRANCH   6   7
ATOM      7  C   UNL     1    -113.230 -43.289 -68.497  1.00  0.00     0.000 C 
BRANCH   7   8
ATOM      8  C   UNL     1    -113.639 -42.975 -69.948  1.00  0.00     0.000 C 
BRANCH   8   9
ATOM      9  C   UNL     1    -112.477 -42.621 -70.898  1.00  0.00     0.000 C 
BRANCH   9  10
ATOM     10  C   UNL     1    -111.137 -42.300 -70.205  1.00  0.00     0.006 C 
BRANCH  10  11
ATOM     11  C   UNL     1    -109.923 -43.020 -70.813  1.00  0.00     0.053 C 
BRANCH  11  12
ATOM     12  C   UNL     1    -108.710 -42.141 -70.846  1.00  0.00     0.041 C 
ATOM     13  O   UNL     1    -107.558 -42.650 -70.841  1.00  0.00    -0.550 OA
ATOM     14  O   UNL     1    -108.854 -40.761 -70.911  1.00  0.00    -0.550 OA
ENDBRANCH  11  12
ENDBRANCH  10  11
ENDBRANCH   9  10
ENDBRANCH   8   9
ENDBRANCH   7   8
ENDBRANCH   6   7
ENDBRANCH   5   6
ENDBRANCH   4   5
ENDBRANCH   3   4
ENDBRANCH   2   3
ENDBRANCH   1   2
BRANCH   1  15
ATOM     15  C   UNL     1    -110.011 -43.898 -65.353  1.00  0.00     0.000 C 
BRANCH  15  16
ATOM     16  C   UNL     1    -109.978 -43.654 -66.870  1.00  0.00     0.000 C 
BRANCH  16  17
ATOM     17  C   UNL     1    -108.553 -43.642 -67.444  1.00  0.00     0.000 C 
BRANCH  17  18
ATOM     18  C   UNL     1    -107.665 -42.647 -66.683  1.00  0.00    -0.000 C 
BRANCH  18  19
ATOM     19  C   UNL     1    -107.409 -41.355 -67.474  1.00  0.00    -0.000 C 
BRANCH  19  20
ATOM     20  C   UNL     1    -108.514 -40.304 -67.269  1.00  0.00    -0.000 C 
BRANCH  20  21
ATOM     21  C   UNL     1    -108.811 -40.042 -65.783  1.00  0.00    -0.000 C 
BRANCH  21  22
ATOM     22  C   UNL     1    -108.015 -38.852 -65.223  1.00  0.00    -0.000 C 
BRANCH  22  23
ATOM     23  C   UNL     1    -107.425 -39.186 -63.844  1.00  0.00    -0.000 C 
BRANCH  23  24
ATOM     24  C   UNL     1    -107.025 -40.666 -63.706  1.00  0.00    -0.000 C 
BRANCH  24  25
ATOM     25  C   UNL     1    -107.445 -41.331 -62.383  1.00  0.00    -0.003 C 
ATOM     26  C   UNL     1    -107.636 -42.842 -62.508  1.00  0.00     0.004 C 
ENDBRANCH  24  25
ENDBRANCH  23  24
ENDBRANCH  22  23
ENDBRANCH  21  22
ENDBRANCH  20  21
ENDBRANCH  19  20
ENDBRANCH  18  19
ENDBRANCH  17  18
ENDBRANCH  16  17
ENDBRANCH  15  16
ENDBRANCH   1  15
TORSDOF 22
ENDMDL
MODEL 8
REMARK VINA RESULT:    -3.784      3.337      6.617
REMARK INTER + INTRA:         -12.794
REMARK INTER:                  -9.274
REMARK INTRA:                  -3.520
REMARK UNBOUND:                -4.142
REMARK SMILES CCCCCCCCCCCCCCCCCCCCCCCC(=O)[O-]
REMARK SMILES IDX 13 1 14 2 15 3 16 4 17 5 18 6 19 7 20 8 21 9 22 10 23 11
REMARK SMILES IDX 24 12 25 13 26 14 12 15 11 16 10 17 9 18 8 19 7 20 6 21 5 22
REMARK SMILES IDX 4 23 3 24 2 25 1 26
REMARK H PARENT
REMARK Flexibility Score: inf
ROOT
ATOM      1  C   UNL     1    -113.750 -41.132 -66.890  1.00  0.00     0.000 C 
ENDROOT
BRANCH   1   2
ATOM      2  C   UNL     1    -113.516 -41.219 -65.371  1.00  0.00     0.000 C 
BRANCH   2   3
ATOM      3  C   UNL     1    -112.586 -42.362 -64.916  1.00  0.00     0.000 C 
BRANCH   3   4
ATOM      4  C   UNL     1    -111.103 -42.190 -65.299  1.00  0.00     0.000 C 
BRANCH   4   5
ATOM      5  C   UNL     1    -110.300 -43.503 -65.409  1.00  0.00     0.000 C 
BRANCH   5   6
ATOM      6  C   UNL     1    -108.920 -43.485 -64.726  1.00  0.00     0.000 C 
BRANCH   6   7
ATOM      7  C   UNL     1    -108.967 -42.917 -63.298  1.00  0.00     0.000 C 
BRANCH   7   8
ATOM      8  C   UNL     1    -107.765 -43.355 -62.441  1.00  0.00     0.000 C 
BRANCH   8   9
ATOM      9  C   UNL     1    -107.100 -42.233 -61.617  1.00  0.00     0.000 C 
BRANCH   9  10
ATOM     10  C   UNL     1    -105.674 -42.544 -61.119  1.00  0.00     0.006 C 
BRANCH  10  11
ATOM     11  C   UNL     1    -105.578 -42.822 -59.610  1.00  0.00     0.053 C 
BRANCH  11  12
ATOM     12  C   UNL     1    -105.130 -41.614 -58.846  1.00  0.00     0.041 C 
ATOM     13  O   UNL     1    -105.115 -41.630 -57.587  1.00  0.00    -0.550 OA
ATOM     14  O   UNL     1    -104.701 -40.481 -59.526  1.00  0.00    -0.550 OA
ENDBRANCH  11  12
ENDBRANCH  10  11
ENDBRANCH   9  10
ENDBRANCH   8   9
ENDBRANCH   7   8
ENDBRANCH   6   7
ENDBRANCH   5   6
ENDBRANCH   4   5
ENDBRANCH   3   4
ENDBRANCH   2   3
ENDBRANCH   1   2
BRANCH   1  15
ATOM     15  C   UNL     1    -114.015 -42.505 -67.532  1.00  0.00     0.000 C 
BRANCH  15  16
ATOM     16  C   UNL     1    -113.257 -42.697 -68.855  1.00  0.00     0.000 C 
BRANCH  16  17
ATOM     17  C   UNL     1    -112.099 -43.702 -68.741  1.00  0.00     0.000 C 
BRANCH  17  18
ATOM     18  C   UNL     1    -110.750 -43.012 -68.992  1.00  0.00    -0.000 C 
BRANCH  18  19
ATOM     19  C   UNL     1    -110.876 -41.484 -69.094  1.00  0.00    -0.000 C 
BRANCH  19  20
ATOM     20  C   UNL     1    -109.653 -40.749 -68.516  1.00  0.00    -0.000 C 
BRANCH  20  21
ATOM     21  C   UNL     1    -108.490 -41.701 -68.192  1.00  0.00    -0.000 C 
BRANCH  21  22
ATOM     22  C   UNL     1    -107.651 -41.223 -66.996  1.00  0.00    -0.000 C 
BRANCH  22  23
ATOM     23  C   UNL     1    -108.070 -39.811 -66.561  1.00  0.00    -0.000 C 
BRANCH  23  24
ATOM     24  C   UNL     1    -108.503 -39.742 -65.086  1.00  0.00    -0.000 C 
BRANCH  24  25
ATOM     25  C   UNL     1    -107.362 -39.489 -64.085  1.00  0.00    -0.003 C 
ATOM     26  C   UNL     1    -106.571 -38.218 -64.388  1.00  0.00     0.004 C 
ENDBRANCH  24  25
ENDBRANCH  23  24
ENDBRANCH  22  23
ENDBRANCH  21  22
ENDBRANCH  20  21
ENDBRANCH  19  20
ENDBRANCH  18  19
ENDBRANCH  17  18
ENDBRANCH  16  17
ENDBRANCH  15  16
ENDBRANCH   1  15
TORSDOF 22
ENDMDL
MODEL 9
REMARK VINA RESULT:    -3.782      1.932      4.078
REMARK INTER + INTRA:         -12.788
REMARK INTER:                  -8.296
REMARK INTRA:                  -4.492
REMARK UNBOUND:                -4.142
REMARK SMILES CCCCCCCCCCCCCCCCCCCCCCCC(=O)[O-]
REMARK SMILES IDX 13 1 14 2 15 3 16 4 17 5 18 6 19 7 20 8 21 9 22 10 23 11
REMARK SMILES IDX 24 12 25 13 26 14 12 15 11 16 10 17 9 18 8 19 7 20 6 21 5 22
REMARK SMILES IDX 4 23 3 24 2 25 1 26
REMARK H PARENT
REMARK Flexibility Score: inf
ROOT
ATOM      1  C   UNL     1    -108.940 -40.286 -65.498  1.00  0.00     0.000 C 
ENDROOT
BRANCH   1   2
ATOM      2  C   UNL     1    -109.497 -41.197 -66.607  1.00  0.00     0.000 C 
BRANCH   2   3
ATOM      3  C   UNL     1    -110.089 -42.536 -66.119  1.00  0.00     0.000 C 
BRANCH   3   4
ATOM      4  C   UNL     1    -110.807 -42.475 -64.757  1.00  0.00     0.000 C 
BRANCH   4   5
ATOM      5  C   UNL     1    -112.345 -42.385 -64.831  1.00  0.00     0.000 C 
BRANCH   5   6
ATOM      6  C   UNL     1    -112.897 -41.060 -65.388  1.00  0.00     0.000 C 
BRANCH   6   7
ATOM      7  C   UNL     1    -113.814 -41.259 -66.606  1.00  0.00     0.000 C 
BRANCH   7   8
ATOM      8  C   UNL     1    -113.919 -42.732 -67.041  1.00  0.00     0.000 C 
BRANCH   8   9
ATOM      9  C   UNL     1    -113.662 -42.997 -68.539  1.00  0.00     0.000 C 
BRANCH   9  10
ATOM     10  C   UNL     1    -112.189 -43.258 -68.915  1.00  0.00     0.006 C 
BRANCH  10  11
ATOM     11  C   UNL     1    -111.467 -42.043 -69.520  1.00  0.00     0.053 C 
BRANCH  11  12
ATOM     12  C   UNL     1    -111.274 -42.187 -70.999  1.00  0.00     0.041 C 
ATOM     13  O   UNL     1    -110.405 -42.978 -71.451  1.00  0.00    -0.550 OA
ATOM     14  O   UNL     1    -112.075 -41.467 -71.877  1.00  0.00    -0.550 OA
ENDBRANCH  11  12
ENDBRANCH  10  11
ENDBRANCH   9  10
ENDBRANCH   8   9
ENDBRANCH   7   8
ENDBRANCH   6   7
ENDBRANCH   5   6
ENDBRANCH   4   5
ENDBRANCH   3   4
ENDBRANCH   2   3
ENDBRANCH   1   2
BRANCH   1  15
ATOM     15  C   UNL     1    -107.564 -39.692 -65.849  1.00  0.00     0.000 C 
BRANCH  15  16
ATOM     16  C   UNL     1    -106.726 -39.361 -64.604  1.00  0.00     0.000 C 
BRANCH  16  17
ATOM     17  C   UNL     1    -107.483 -39.606 -63.290  1.00  0.00     0.000 C 
BRANCH  17  18
ATOM     18  C   UNL     1    -106.836 -40.748 -62.491  1.00  0.00    -0.000 C 
BRANCH  18  19
ATOM     19  C   UNL     1    -107.726 -41.998 -62.418  1.00  0.00    -0.000 C 
BRANCH  19  20
ATOM     20  C   UNL     1    -106.976 -43.284 -62.807  1.00  0.00    -0.000 C 
BRANCH  20  21
ATOM     21  C   UNL     1    -107.308 -43.752 -64.234  1.00  0.00    -0.000 C 
BRANCH  21  22
ATOM     22  C   UNL     1    -106.338 -43.186 -65.283  1.00  0.00    -0.000 C 
BRANCH  22  23
ATOM     23  C   UNL     1    -106.628 -43.773 -66.672  1.00  0.00    -0.000 C 
BRANCH  23  24
ATOM     24  C   UNL     1    -106.388 -42.765 -67.810  1.00  0.00    -0.000 C 
BRANCH  24  25
ATOM     25  C   UNL     1    -107.288 -42.953 -69.045  1.00  0.00    -0.003 C 
ATOM     26  C   UNL     1    -108.257 -44.125 -68.906  1.00  0.00     0.004 C 
ENDBRANCH  24  25
ENDBRANCH  23  24
ENDBRANCH  22  23
ENDBRANCH  21  22
ENDBRANCH  20  21
ENDBRANCH  19  20
ENDBRANCH  18  19
ENDBRANCH  17  18
ENDBRANCH  16  17
ENDBRANCH  15  16
ENDBRANCH   1  15
TORSDOF 22
ENDMDL
