MODEL 1
REMARK VINA RESULT:    -5.054      0.000      0.000
REMARK INTER + INTRA:          -5.054
REMARK INTER:                  -5.054
REMARK INTRA:                   0.000
REMARK UNBOUND:                 0.000
REMARK SMILES CC1(C)O[C@]2(C)CC[C@H]1CC2
REMARK SMILES IDX 1 1 2 2 9 3 8 4 7 5 5 6 4 7 11 8 10 9 6 10 3 11
REMARK H PARENT
REMARK Flexibility Score: inf
ROOT
ATOM      1  C   UNL     1      24.077   5.849  21.859  1.00  0.00     0.042 C 
ATOM      2  C   UNL     1      24.374   7.295  22.311  1.00  0.00     0.066 C 
ATOM      3  C   UNL     1      25.228   8.055  21.225  1.00  0.00     0.021 C 
ATOM      4  C   UNL     1      25.450   9.509  21.707  1.00  0.00     0.009 C 
ATOM      5  C   UNL     1      24.085  10.134  22.085  1.00  0.00     0.035 C 
ATOM      6  C   UNL     1      22.940   9.128  21.771  1.00  0.00     0.066 C 
ATOM      7  O   UNL     1      23.121   7.950  22.559  1.00  0.00    -0.369 OA
ATOM      8  C   UNL     1      23.001   8.748  20.264  1.00  0.00     0.035 C 
ATOM      9  C   UNL     1      24.391   8.157  19.927  1.00  0.00     0.009 C 
ATOM     10  C   UNL     1      21.581   9.746  22.110  1.00  0.00     0.042 C 
ATOM     11  C   UNL     1      25.142   7.209  23.648  1.00  0.00     0.042 C 
ENDROOT
TORSDOF 0
ENDMDL
MODEL 2
REMARK VINA RESULT:    -5.039      2.950      5.352
REMARK INTER + INTRA:          -5.039
REMARK INTER:                  -5.039
REMARK INTRA:                   0.000
REMARK UNBOUND:                 0.000
REMARK SMILES CC1(C)O[C@]2(C)CC[C@H]1CC2
REMARK SMILES IDX 1 1 2 2 9 3 8 4 7 5 5 6 4 7 11 8 10 9 6 10 3 11
REMARK H PARENT
REMARK Flexibility Score: inf
ROOT
ATOM      1  C   UNL     1      24.187   6.586  21.087  1.00  0.00     0.042 C 
ATOM      2  C   UNL     1      25.068   5.320  21.016  1.00  0.00     0.066 C 
ATOM      3  C   UNL     1      25.264   4.695  22.452  1.00  0.00     0.021 C 
ATOM      4  C   UNL     1      26.108   3.406  22.312  1.00  0.00     0.009 C 
ATOM      5  C   UNL     1      25.471   2.494  21.235  1.00  0.00     0.035 C 
ATOM      6  C   UNL     1      24.151   3.134  20.718  1.00  0.00     0.066 C 
ATOM      7  O   UNL     1      24.445   4.394  20.113  1.00  0.00    -0.369 OA
ATOM      8  C   UNL     1      23.192   3.358  21.922  1.00  0.00     0.035 C 
ATOM      9  C   UNL     1      23.882   4.248  22.984  1.00  0.00     0.009 C 
ATOM     10  C   UNL     1      23.492   2.226  19.674  1.00  0.00     0.042 C 
ATOM     11  C   UNL     1      26.426   5.738  20.412  1.00  0.00     0.042 C 
ENDROOT
TORSDOF 0
ENDMDL
MODEL 3
REMARK VINA RESULT:    -4.987      2.376      3.731
REMARK INTER + INTRA:          -4.987
REMARK INTER:                  -4.987
REMARK INTRA:                   0.000
REMARK UNBOUND:                 0.000
REMARK SMILES CC1(C)O[C@]2(C)CC[C@H]1CC2
REMARK SMILES IDX 1 1 2 2 9 3 8 4 7 5 5 6 4 7 11 8 10 9 6 10 3 11
REMARK H PARENT
REMARK Flexibility Score: inf
ROOT
ATOM      1  C   UNL     1      24.569   5.882  21.067  1.00  0.00     0.042 C 
ATOM      2  C   UNL     1      24.792   5.723  22.587  1.00  0.00     0.066 C 
ATOM      3  C   UNL     1      24.748   7.125  23.307  1.00  0.00     0.021 C 
ATOM      4  C   UNL     1      24.925   6.899  24.827  1.00  0.00     0.009 C 
ATOM      5  C   UNL     1      23.907   5.835  25.306  1.00  0.00     0.035 C 
ATOM      6  C   UNL     1      22.988   5.416  24.123  1.00  0.00     0.066 C 
ATOM      7  O   UNL     1      23.787   4.831  23.093  1.00  0.00    -0.369 OA
ATOM      8  C   UNL     1      22.278   6.682  23.561  1.00  0.00     0.035 C 
ATOM      9  C   UNL     1      23.334   7.725  23.124  1.00  0.00     0.009 C 
ATOM     10  C   UNL     1      21.953   4.388  24.590  1.00  0.00     0.042 C 
ATOM     11  C   UNL     1      26.169   5.051  22.780  1.00  0.00     0.042 C 
ENDROOT
TORSDOF 0
ENDMDL
MODEL 4
REMARK VINA RESULT:    -4.957      2.383      3.726
REMARK INTER + INTRA:          -4.957
REMARK INTER:                  -4.957
REMARK INTRA:                   0.000
REMARK UNBOUND:                 0.000
REMARK SMILES CC1(C)O[C@]2(C)CC[C@H]1CC2
REMARK SMILES IDX 1 1 2 2 9 3 8 4 7 5 5 6 4 7 11 8 10 9 6 10 3 11
REMARK H PARENT
REMARK Flexibility Score: inf
ROOT
ATOM      1  C   UNL     1      23.888   6.460  21.887  1.00  0.00     0.042 C 
ATOM      2  C   UNL     1      24.938   6.869  20.830  1.00  0.00     0.066 C 
ATOM      3  C   UNL     1      25.778   5.618  20.364  1.00  0.00     0.021 C 
ATOM      4  C   UNL     1      26.773   6.076  19.272  1.00  0.00     0.009 C 
ATOM      5  C   UNL     1      26.003   6.849  18.173  1.00  0.00     0.035 C 
ATOM      6  C   UNL     1      24.479   6.829  18.485  1.00  0.00     0.066 C 
ATOM      7  O   UNL     1      24.247   7.486  19.733  1.00  0.00    -0.369 OA
ATOM      8  C   UNL     1      24.004   5.351  18.591  1.00  0.00     0.035 C 
ATOM      9  C   UNL     1      24.821   4.614  19.678  1.00  0.00     0.009 C 
ATOM     10  C   UNL     1      23.701   7.562  17.388  1.00  0.00     0.042 C 
ATOM     11  C   UNL     1      25.853   7.931  21.477  1.00  0.00     0.042 C 
ENDROOT
TORSDOF 0
ENDMDL
MODEL 5
REMARK VINA RESULT:    -4.901      2.402      4.003
REMARK INTER + INTRA:          -4.901
REMARK INTER:                  -4.901
REMARK INTRA:                   0.000
REMARK UNBOUND:                 0.000
REMARK SMILES CC1(C)O[C@]2(C)CC[C@H]1CC2
REMARK SMILES IDX 1 1 2 2 9 3 8 4 7 5 5 6 4 7 11 8 10 9 6 10 3 11
REMARK H PARENT
REMARK Flexibility Score: inf
ROOT
ATOM      1  C   UNL     1      24.410   7.410  22.507  1.00  0.00     0.042 C 
ATOM      2  C   UNL     1      25.776   7.415  21.787  1.00  0.00     0.066 C 
ATOM      3  C   UNL     1      26.589   6.106  22.125  1.00  0.00     0.021 C 
ATOM      4  C   UNL     1      27.921   6.142  21.339  1.00  0.00     0.009 C 
ATOM      5  C   UNL     1      27.623   6.413  19.844  1.00  0.00     0.035 C 
ATOM      6  C   UNL     1      26.086   6.469  19.615  1.00  0.00     0.066 C 
ATOM      7  O   UNL     1      25.536   7.545  20.378  1.00  0.00    -0.369 OA
ATOM      8  C   UNL     1      25.454   5.131  20.095  1.00  0.00     0.035 C 
ATOM      9  C   UNL     1      25.804   4.889  21.583  1.00  0.00     0.009 C 
ATOM     10  C   UNL     1      25.776   6.704  18.134  1.00  0.00     0.042 C 
ATOM     11  C   UNL     1      26.540   8.671  22.261  1.00  0.00     0.042 C 
ENDROOT
TORSDOF 0
ENDMDL
MODEL 6
REMARK VINA RESULT:    -4.899      2.441      3.339
REMARK INTER + INTRA:          -4.899
REMARK INTER:                  -4.899
REMARK INTRA:                   0.000
REMARK UNBOUND:                 0.000
REMARK SMILES CC1(C)O[C@]2(C)CC[C@H]1CC2
REMARK SMILES IDX 1 1 2 2 9 3 8 4 7 5 5 6 4 7 11 8 10 9 6 10 3 11
REMARK H PARENT
REMARK Flexibility Score: inf
ROOT
ATOM      1  C   UNL     1      24.767   3.931  19.974  1.00  0.00     0.042 C 
ATOM      2  C   UNL     1      24.527   5.399  20.390  1.00  0.00     0.066 C 
ATOM      3  C   UNL     1      25.898   6.145  20.619  1.00  0.00     0.021 C 
ATOM      4  C   UNL     1      25.597   7.619  20.981  1.00  0.00     0.009 C 
ATOM      5  C   UNL     1      24.644   8.220  19.920  1.00  0.00     0.035 C 
ATOM      6  C   UNL     1      24.378   7.174  18.799  1.00  0.00     0.066 C 
ATOM      7  O   UNL     1      23.742   6.028  19.366  1.00  0.00    -0.369 OA
ATOM      8  C   UNL     1      25.738   6.746  18.175  1.00  0.00     0.035 C 
ATOM      9  C   UNL     1      26.666   6.181  19.277  1.00  0.00     0.009 C 
ATOM     10  C   UNL     1      23.462   7.767  17.724  1.00  0.00     0.042 C 
ATOM     11  C   UNL     1      23.692   5.378  21.689  1.00  0.00     0.042 C 
ENDROOT
TORSDOF 0
ENDMDL
MODEL 7
REMARK VINA RESULT:    -4.885      1.262      2.349
REMARK INTER + INTRA:          -4.885
REMARK INTER:                  -4.885
REMARK INTRA:                   0.000
REMARK UNBOUND:                 0.000
REMARK SMILES CC1(C)O[C@]2(C)CC[C@H]1CC2
REMARK SMILES IDX 1 1 2 2 9 3 8 4 7 5 5 6 4 7 11 8 10 9 6 10 3 11
REMARK H PARENT
REMARK Flexibility Score: inf
ROOT
ATOM      1  C   UNL     1      24.404   7.898  19.271  1.00  0.00     0.042 C 
ATOM      2  C   UNL     1      24.615   7.312  20.685  1.00  0.00     0.066 C 
ATOM      3  C   UNL     1      25.536   8.257  21.548  1.00  0.00     0.021 C 
ATOM      4  C   UNL     1      25.669   7.649  22.964  1.00  0.00     0.009 C 
ATOM      5  C   UNL     1      24.257   7.348  23.524  1.00  0.00     0.035 C 
ATOM      6  C   UNL     1      23.176   7.839  22.518  1.00  0.00     0.066 C 
ATOM      7  O   UNL     1      23.324   7.130  21.287  1.00  0.00    -0.369 OA
ATOM      8  C   UNL     1      23.381   9.359  22.258  1.00  0.00     0.035 C 
ATOM      9  C   UNL     1      24.813   9.613  21.730  1.00  0.00     0.009 C 
ATOM     10  C   UNL     1      21.773   7.577  23.074  1.00  0.00     0.042 C 
ATOM     11  C   UNL     1      25.265   5.922  20.513  1.00  0.00     0.042 C 
ENDROOT
TORSDOF 0
ENDMDL
MODEL 8
REMARK VINA RESULT:    -4.835      1.766      4.212
REMARK INTER + INTRA:          -4.835
REMARK INTER:                  -4.835
REMARK INTRA:                   0.000
REMARK UNBOUND:                 0.000
REMARK SMILES CC1(C)O[C@]2(C)CC[C@H]1CC2
REMARK SMILES IDX 1 1 2 2 9 3 8 4 7 5 5 6 4 7 11 8 10 9 6 10 3 11
REMARK H PARENT
REMARK Flexibility Score: inf
ROOT
ATOM      1  C   UNL     1      22.327   7.898  22.999  1.00  0.00     0.042 C 
ATOM      2  C   UNL     1      23.739   7.295  22.833  1.00  0.00     0.066 C 
ATOM      3  C   UNL     1      24.397   7.019  24.240  1.00  0.00     0.021 C 
ATOM      4  C   UNL     1      25.782   6.369  24.012  1.00  0.00     0.009 C 
ATOM      5  C   UNL     1      25.626   5.155  23.064  1.00  0.00     0.035 C 
ATOM      6  C   UNL     1      24.122   4.939  22.729  1.00  0.00     0.066 C 
ATOM      7  O   UNL     1      23.621   6.094  22.055  1.00  0.00    -0.369 OA
ATOM      8  C   UNL     1      23.333   4.739  24.055  1.00  0.00     0.035 C 
ATOM      9  C   UNL     1      23.543   5.962  24.980  1.00  0.00     0.009 C 
ATOM     10  C   UNL     1      23.950   3.720  21.817  1.00  0.00     0.042 C 
ATOM     11  C   UNL     1      24.579   8.308  22.026  1.00  0.00     0.042 C 
ENDROOT
TORSDOF 0
ENDMDL
MODEL 9
REMARK VINA RESULT:    -4.785      1.650      3.836
REMARK INTER + INTRA:          -4.785
REMARK INTER:                  -4.785
REMARK INTRA:                   0.000
REMARK UNBOUND:                 0.000
REMARK SMILES CC1(C)O[C@]2(C)CC[C@H]1CC2
REMARK SMILES IDX 1 1 2 2 9 3 8 4 7 5 5 6 4 7 11 8 10 9 6 10 3 11
REMARK H PARENT
REMARK Flexibility Score: inf
ROOT
ATOM      1  C   UNL     1      25.519   9.761  21.885  1.00  0.00     0.042 C 
ATOM      2  C   UNL     1      25.256   8.242  21.791  1.00  0.00     0.066 C 
ATOM      3  C   UNL     1      26.606   7.454  21.582  1.00  0.00     0.021 C 
ATOM      4  C   UNL     1      26.288   5.940  21.547  1.00  0.00     0.009 C 
ATOM      5  C   UNL     1      25.447   5.567  22.793  1.00  0.00     0.035 C 
ATOM      6  C   UNL     1      25.279   6.815  23.707  1.00  0.00     0.066 C 
ATOM      7  O   UNL     1      24.579   7.832  22.989  1.00  0.00    -0.369 OA
ATOM      8  C   UNL     1      26.687   7.346  24.101  1.00  0.00     0.035 C 
ATOM      9  C   UNL     1      27.500   7.676  22.826  1.00  0.00     0.009 C 
ATOM     10  C   UNL     1      24.476   6.452  24.960  1.00  0.00     0.042 C 
ATOM     11  C   UNL     1      24.301   8.014  20.599  1.00  0.00     0.042 C 
ENDROOT
TORSDOF 0
ENDMDL
