MODEL 1
REMARK VINA RESULT:    -6.803      0.000      0.000
REMARK INTER + INTRA:          -8.405
REMARK INTER:                  -8.195
REMARK INTRA:                  -0.211
REMARK UNBOUND:                -0.211
REMARK SMILES O=c1c(O)c(-c2ccc(O)c(O)c2)oc2cc(O)cc(O)c12
REMARK SMILES IDX 5 1 3 2 2 3 1 4 22 5 20 6 19 7 17 8 16 9 15 10 14 11 6 12
REMARK SMILES IDX 7 13 8 14 9 15 13 16 11 17 10 18 12 20 4 22 21 24 18 26
REMARK H PARENT 10 19 12 21 4 23 21 25 18 27
REMARK Flexibility Score: inf
ROOT
ATOM      1  C   UNL     1     -35.341  -5.680   6.229  1.00  0.00     0.180 A 
ATOM      2  C   UNL     1     -35.653  -6.992   6.627  1.00  0.00     0.208 A 
ATOM      3  C   UNL     1     -35.395  -8.052   5.744  1.00  0.00     0.238 A 
ATOM      4  O   UNL     1     -35.607  -9.229   6.136  1.00  0.00    -0.285 OA
ATOM      5  C   UNL     1     -34.880  -7.783   4.452  1.00  0.00     0.111 A 
ATOM      6  C   UNL     1     -34.623  -8.776   3.458  1.00  0.00     0.134 A 
ATOM      7  C   UNL     1     -34.013  -8.404   2.254  1.00  0.00     0.093 A 
ATOM      8  C   UNL     1     -33.710  -7.068   1.980  1.00  0.00     0.123 A 
ATOM      9  C   UNL     1     -34.009  -6.087   2.921  1.00  0.00     0.094 A 
ATOM     10  C   UNL     1     -34.581  -6.430   4.148  1.00  0.00     0.146 A 
ATOM     11  O   UNL     1     -34.829  -5.463   5.024  1.00  0.00    -0.452 OA
ENDROOT
BRANCH   1  12
ATOM     12  C   UNL     1     -35.570  -4.513   7.111  1.00  0.00     0.025 A 
ATOM     13  C   UNL     1     -36.884  -4.088   7.363  1.00  0.00     0.016 A 
ATOM     14  C   UNL     1     -37.125  -2.977   8.175  1.00  0.00     0.051 A 
ATOM     15  C   UNL     1     -36.058  -2.264   8.733  1.00  0.00     0.157 A 
ATOM     16  C   UNL     1     -34.499  -3.783   7.655  1.00  0.00     0.062 A 
ATOM     17  C   UNL     1     -34.739  -2.666   8.468  1.00  0.00     0.158 A 
BRANCH  15  18
ATOM     18  O   UNL     1     -36.329  -1.160   9.540  1.00  0.00    -0.504 OA
ATOM     19  H   UNL     1     -36.637  -1.258  10.500  1.00  0.00     0.293 HD
ENDBRANCH  15  18
BRANCH  17  20
ATOM     20  O   UNL     1     -33.670  -1.951   9.009  1.00  0.00    -0.504 OA
ATOM     21  H   UNL     1     -32.874  -2.420   9.425  1.00  0.00     0.293 HD
ENDBRANCH  17  20
ENDBRANCH   1  12
BRANCH   2  22
ATOM     22  O   UNL     1     -36.232  -7.228   7.878  1.00  0.00    -0.502 OA
ATOM     23  H   UNL     1     -37.198  -7.514   7.985  1.00  0.00     0.293 HD
ENDBRANCH   2  22
BRANCH   6  24
ATOM     24  O   UNL     1     -34.965 -10.125   3.591  1.00  0.00    -0.507 OA
ATOM     25  H   UNL     1     -35.907 -10.485   3.598  1.00  0.00     0.293 HD
ENDBRANCH   6  24
BRANCH   8  26
ATOM     26  O   UNL     1     -33.120  -6.706   0.771  1.00  0.00    -0.508 OA
ATOM     27  H   UNL     1     -32.744  -7.400   0.137  1.00  0.00     0.293 HD
ENDBRANCH   8  26
TORSDOF 6
ENDMDL
MODEL 2
REMARK VINA RESULT:    -6.358      2.698      7.752
REMARK INTER + INTRA:          -7.869
REMARK INTER:                  -7.545
REMARK INTRA:                  -0.324
REMARK UNBOUND:                -0.211
REMARK SMILES O=c1c(O)c(-c2ccc(O)c(O)c2)oc2cc(O)cc(O)c12
REMARK SMILES IDX 5 1 3 2 2 3 1 4 22 5 20 6 19 7 17 8 16 9 15 10 14 11 6 12
REMARK SMILES IDX 7 13 8 14 9 15 13 16 11 17 10 18 12 20 4 22 21 24 18 26
REMARK H PARENT 10 19 12 21 4 23 21 25 18 27
REMARK Flexibility Score: inf
ROOT
ATOM      1  C   UNL     1     -34.630  -8.049   2.850  1.00  0.00     0.180 A 
ATOM      2  C   UNL     1     -34.312  -6.731   3.221  1.00  0.00     0.208 A 
ATOM      3  C   UNL     1     -34.568  -6.312   4.536  1.00  0.00     0.238 A 
ATOM      4  O   UNL     1     -34.212  -5.155   4.880  1.00  0.00    -0.285 OA
ATOM      5  C   UNL     1     -35.190  -7.198   5.449  1.00  0.00     0.111 A 
ATOM      6  C   UNL     1     -35.538  -6.865   6.794  1.00  0.00     0.134 A 
ATOM      7  C   UNL     1     -36.053  -7.856   7.639  1.00  0.00     0.093 A 
ATOM      8  C   UNL     1     -36.293  -9.150   7.171  1.00  0.00     0.123 A 
ATOM      9  C   UNL     1     -36.009  -9.469   5.846  1.00  0.00     0.094 A 
ATOM     10  C   UNL     1     -35.458  -8.513   4.988  1.00  0.00     0.146 A 
ATOM     11  O   UNL     1     -35.183  -8.867   3.739  1.00  0.00    -0.452 OA
ENDROOT
BRANCH   1  12
ATOM     12  C   UNL     1     -34.376  -8.568   1.488  1.00  0.00     0.025 A 
ATOM     13  C   UNL     1     -35.429  -8.615   0.560  1.00  0.00     0.016 A 
ATOM     14  C   UNL     1     -35.219  -9.120  -0.725  1.00  0.00     0.051 A 
ATOM     15  C   UNL     1     -33.959  -9.600  -1.099  1.00  0.00     0.157 A 
ATOM     16  C   UNL     1     -33.116  -9.070   1.117  1.00  0.00     0.062 A 
ATOM     17  C   UNL     1     -32.903  -9.580  -0.173  1.00  0.00     0.158 A 
BRANCH  15  18
ATOM     18  O   UNL     1     -33.779 -10.096  -2.389  1.00  0.00    -0.504 OA
ATOM     19  H   UNL     1     -34.538 -10.144  -3.058  1.00  0.00     0.293 HD
ENDBRANCH  15  18
BRANCH  17  20
ATOM     20  O   UNL     1     -31.649 -10.071  -0.534  1.00  0.00    -0.504 OA
ATOM     21  H   UNL     1     -31.328 -10.049  -1.495  1.00  0.00     0.293 HD
ENDBRANCH  17  20
ENDBRANCH   1  12
BRANCH   2  22
ATOM     22  O   UNL     1     -33.769  -5.849   2.283  1.00  0.00    -0.502 OA
ATOM     23  H   UNL     1     -33.138  -6.153   1.551  1.00  0.00     0.293 HD
ENDBRANCH   2  22
BRANCH   6  24
ATOM     24  O   UNL     1     -35.422  -5.583   7.339  1.00  0.00    -0.507 OA
ATOM     25  H   UNL     1     -35.131  -5.380   8.283  1.00  0.00     0.293 HD
ENDBRANCH   6  24
BRANCH   8  26
ATOM     26  O   UNL     1     -36.822 -10.125   8.014  1.00  0.00    -0.508 OA
ATOM     27  H   UNL     1     -36.771 -10.038   9.022  1.00  0.00     0.293 HD
ENDBRANCH   8  26
TORSDOF 6
ENDMDL
MODEL 3
REMARK VINA RESULT:    -6.207      3.014      5.466
REMARK INTER + INTRA:          -7.687
REMARK INTER:                  -7.403
REMARK INTRA:                  -0.284
REMARK UNBOUND:                -0.211
REMARK SMILES O=c1c(O)c(-c2ccc(O)c(O)c2)oc2cc(O)cc(O)c12
REMARK SMILES IDX 5 1 3 2 2 3 1 4 22 5 20 6 19 7 17 8 16 9 15 10 14 11 6 12
REMARK SMILES IDX 7 13 8 14 9 15 13 16 11 17 10 18 12 20 4 22 21 24 18 26
REMARK H PARENT 10 19 12 21 4 23 21 25 18 27
REMARK Flexibility Score: inf
ROOT
ATOM      1  C   UNL     1     -34.397  -8.059   2.031  1.00  0.00     0.180 A 
ATOM      2  C   UNL     1     -33.219  -8.744   1.689  1.00  0.00     0.208 A 
ATOM      3  C   UNL     1     -33.029  -9.153   0.359  1.00  0.00     0.238 A 
ATOM      4  O   UNL     1     -31.940  -9.699   0.046  1.00  0.00    -0.285 OA
ATOM      5  C   UNL     1     -34.044  -8.921  -0.601  1.00  0.00     0.111 A 
ATOM      6  C   UNL     1     -33.978  -9.331  -1.967  1.00  0.00     0.134 A 
ATOM      7  C   UNL     1     -34.996  -8.952  -2.851  1.00  0.00     0.093 A 
ATOM      8  C   UNL     1     -36.108  -8.234  -2.406  1.00  0.00     0.123 A 
ATOM      9  C   UNL     1     -36.207  -7.877  -1.064  1.00  0.00     0.094 A 
ATOM     10  C   UNL     1     -35.190  -8.206  -0.165  1.00  0.00     0.146 A 
ATOM     11  O   UNL     1     -35.317  -7.827   1.102  1.00  0.00    -0.452 OA
ENDROOT
BRANCH   1  12
ATOM     12  C   UNL     1     -34.662  -7.585   3.408  1.00  0.00     0.025 A 
ATOM     13  C   UNL     1     -35.123  -8.493   4.374  1.00  0.00     0.016 A 
ATOM     14  C   UNL     1     -35.399  -8.065   5.674  1.00  0.00     0.051 A 
ATOM     15  C   UNL     1     -35.236  -6.720   6.025  1.00  0.00     0.157 A 
ATOM     16  C   UNL     1     -34.518  -6.230   3.757  1.00  0.00     0.062 A 
ATOM     17  C   UNL     1     -34.797  -5.797   5.062  1.00  0.00     0.158 A 
BRANCH  15  18
ATOM     18  O   UNL     1     -35.518  -6.322   7.332  1.00  0.00    -0.504 OA
ATOM     19  H   UNL     1     -36.125  -6.859   7.939  1.00  0.00     0.293 HD
ENDBRANCH  15  18
BRANCH  17  20
ATOM     20  O   UNL     1     -34.647  -4.453   5.402  1.00  0.00    -0.504 OA
ATOM     21  H   UNL     1     -33.744  -4.066   5.649  1.00  0.00     0.293 HD
ENDBRANCH  17  20
ENDBRANCH   1  12
BRANCH   2  22
ATOM     22  O   UNL     1     -32.263  -9.032   2.668  1.00  0.00    -0.502 OA
ATOM     23  H   UNL     1     -31.752  -8.307   3.158  1.00  0.00     0.293 HD
ENDBRANCH   2  22
BRANCH   6  24
ATOM     24  O   UNL     1     -32.958 -10.125  -2.498  1.00  0.00    -0.507 OA
ATOM     25  H   UNL     1     -32.820 -11.103  -2.293  1.00  0.00     0.293 HD
ENDBRANCH   6  24
BRANCH   8  26
ATOM     26  O   UNL     1     -37.124  -7.876  -3.289  1.00  0.00    -0.508 OA
ATOM     27  H   UNL     1     -37.327  -6.907  -3.500  1.00  0.00     0.293 HD
ENDBRANCH   8  26
TORSDOF 6
ENDMDL
MODEL 4
REMARK VINA RESULT:    -6.159      2.569      7.655
REMARK INTER + INTRA:          -7.630
REMARK INTER:                  -7.343
REMARK INTRA:                  -0.287
REMARK UNBOUND:                -0.211
REMARK SMILES O=c1c(O)c(-c2ccc(O)c(O)c2)oc2cc(O)cc(O)c12
REMARK SMILES IDX 5 1 3 2 2 3 1 4 22 5 20 6 19 7 17 8 16 9 15 10 14 11 6 12
REMARK SMILES IDX 7 13 8 14 9 15 13 16 11 17 10 18 12 20 4 22 21 24 18 26
REMARK H PARENT 10 19 12 21 4 23 21 25 18 27
REMARK Flexibility Score: inf
ROOT
ATOM      1  C   UNL     1     -34.593  -7.932   3.393  1.00  0.00     0.180 A 
ATOM      2  C   UNL     1     -34.494  -6.563   3.697  1.00  0.00     0.208 A 
ATOM      3  C   UNL     1     -34.920  -6.112   4.957  1.00  0.00     0.238 A 
ATOM      4  O   UNL     1     -34.760  -4.899   5.248  1.00  0.00    -0.285 OA
ATOM      5  C   UNL     1     -35.491  -7.026   5.876  1.00  0.00     0.111 A 
ATOM      6  C   UNL     1     -35.998  -6.671   7.163  1.00  0.00     0.134 A 
ATOM      7  C   UNL     1     -36.443  -7.678   8.030  1.00  0.00     0.093 A 
ATOM      8  C   UNL     1     -36.459  -9.017   7.633  1.00  0.00     0.123 A 
ATOM      9  C   UNL     1     -36.019  -9.365   6.359  1.00  0.00     0.094 A 
ATOM     10  C   UNL     1     -35.533  -8.390   5.485  1.00  0.00     0.146 A 
ATOM     11  O   UNL     1     -35.102  -8.770   4.288  1.00  0.00    -0.452 OA
ENDROOT
BRANCH   1  12
ATOM     12  C   UNL     1     -34.151  -8.484   2.093  1.00  0.00     0.025 A 
ATOM     13  C   UNL     1     -32.893  -9.101   1.997  1.00  0.00     0.016 A 
ATOM     14  C   UNL     1     -32.446  -9.611   0.776  1.00  0.00     0.051 A 
ATOM     15  C   UNL     1     -33.240  -9.499  -0.371  1.00  0.00     0.157 A 
ATOM     16  C   UNL     1     -34.938  -8.354   0.935  1.00  0.00     0.062 A 
ATOM     17  C   UNL     1     -34.490  -8.863  -0.293  1.00  0.00     0.158 A 
BRANCH  15  18
ATOM     18  O   UNL     1     -32.768 -10.019  -1.576  1.00  0.00    -0.504 OA
ATOM     19  H   UNL     1     -32.872  -9.523  -2.453  1.00  0.00     0.293 HD
ENDBRANCH  15  18
BRANCH  17  20
ATOM     20  O   UNL     1     -35.279  -8.735  -1.435  1.00  0.00    -0.504 OA
ATOM     21  H   UNL     1     -35.836  -7.905  -1.605  1.00  0.00     0.293 HD
ENDBRANCH  17  20
ENDBRANCH   1  12
BRANCH   2  22
ATOM     22  O   UNL     1     -33.998  -5.666   2.747  1.00  0.00    -0.502 OA
ATOM     23  H   UNL     1     -34.072  -5.833   1.750  1.00  0.00     0.293 HD
ENDBRANCH   2  22
BRANCH   6  24
ATOM     24  O   UNL     1     -36.109  -5.358   7.627  1.00  0.00    -0.507 OA
ATOM     25  H   UNL     1     -35.841  -5.045   8.547  1.00  0.00     0.293 HD
ENDBRANCH   6  24
BRANCH   8  26
ATOM     26  O   UNL     1     -36.920 -10.009   8.496  1.00  0.00    -0.508 OA
ATOM     27  H   UNL     1     -36.599 -10.966   8.422  1.00  0.00     0.293 HD
ENDBRANCH   8  26
TORSDOF 6
ENDMDL
MODEL 5
REMARK VINA RESULT:    -6.070      1.838      7.056
REMARK INTER + INTRA:          -7.523
REMARK INTER:                  -7.230
REMARK INTRA:                  -0.293
REMARK UNBOUND:                -0.211
REMARK SMILES O=c1c(O)c(-c2ccc(O)c(O)c2)oc2cc(O)cc(O)c12
REMARK SMILES IDX 5 1 3 2 2 3 1 4 22 5 20 6 19 7 17 8 16 9 15 10 14 11 6 12
REMARK SMILES IDX 7 13 8 14 9 15 13 16 11 17 10 18 12 20 4 22 21 24 18 26
REMARK H PARENT 10 19 12 21 4 23 21 25 18 27
REMARK Flexibility Score: inf
ROOT
ATOM      1  C   UNL     1     -34.618  -7.893   3.671  1.00  0.00     0.180 A 
ATOM      2  C   UNL     1     -35.241  -8.751   4.594  1.00  0.00     0.208 A 
ATOM      3  C   UNL     1     -35.774  -8.210   5.775  1.00  0.00     0.238 A 
ATOM      4  O   UNL     1     -36.395  -8.973   6.560  1.00  0.00    -0.285 OA
ATOM      5  C   UNL     1     -35.629  -6.828   6.045  1.00  0.00     0.111 A 
ATOM      6  C   UNL     1     -36.090  -6.180   7.232  1.00  0.00     0.134 A 
ATOM      7  C   UNL     1     -35.986  -4.788   7.342  1.00  0.00     0.093 A 
ATOM      8  C   UNL     1     -35.379  -4.027   6.339  1.00  0.00     0.123 A 
ATOM      9  C   UNL     1     -34.877  -4.657   5.204  1.00  0.00     0.094 A 
ATOM     10  C   UNL     1     -35.000  -6.040   5.046  1.00  0.00     0.146 A 
ATOM     11  O   UNL     1     -34.526  -6.595   3.937  1.00  0.00    -0.452 OA
ENDROOT
BRANCH   1  12
ATOM     12  C   UNL     1     -34.045  -8.386   2.398  1.00  0.00     0.025 A 
ATOM     13  C   UNL     1     -34.794  -8.272   1.216  1.00  0.00     0.016 A 
ATOM     14  C   UNL     1     -34.283  -8.750   0.006  1.00  0.00     0.051 A 
ATOM     15  C   UNL     1     -33.026  -9.361  -0.038  1.00  0.00     0.157 A 
ATOM     16  C   UNL     1     -32.791  -9.020   2.355  1.00  0.00     0.062 A 
ATOM     17  C   UNL     1     -32.277  -9.502   1.142  1.00  0.00     0.158 A 
BRANCH  15  18
ATOM     18  O   UNL     1     -32.541  -9.827  -1.261  1.00  0.00    -0.504 OA
ATOM     19  H   UNL     1     -31.616  -9.589  -1.598  1.00  0.00     0.293 HD
ENDBRANCH  15  18
BRANCH  17  20
ATOM     20  O   UNL     1     -31.030 -10.125   1.107  1.00  0.00    -0.504 OA
ATOM     21  H   UNL     1     -30.437 -10.171   1.927  1.00  0.00     0.293 HD
ENDBRANCH  17  20
ENDBRANCH   1  12
BRANCH   2  22
ATOM     22  O   UNL     1     -35.306 -10.124   4.343  1.00  0.00    -0.502 OA
ATOM     23  H   UNL     1     -35.998 -10.724   4.777  1.00  0.00     0.293 HD
ENDBRANCH   2  22
BRANCH   6  24
ATOM     24  O   UNL     1     -36.631  -6.852   8.331  1.00  0.00    -0.507 OA
ATOM     25  H   UNL     1     -37.467  -6.576   8.824  1.00  0.00     0.293 HD
ENDBRANCH   6  24
BRANCH   8  26
ATOM     26  O   UNL     1     -35.265  -2.645   6.466  1.00  0.00    -0.508 OA
ATOM     27  H   UNL     1     -34.434  -2.152   6.163  1.00  0.00     0.293 HD
ENDBRANCH   8  26
TORSDOF 6
ENDMDL
MODEL 6
REMARK VINA RESULT:    -6.039      1.782      7.117
REMARK INTER + INTRA:          -7.486
REMARK INTER:                  -7.294
REMARK INTRA:                  -0.192
REMARK UNBOUND:                -0.211
REMARK SMILES O=c1c(O)c(-c2ccc(O)c(O)c2)oc2cc(O)cc(O)c12
REMARK SMILES IDX 5 1 3 2 2 3 1 4 22 5 20 6 19 7 17 8 16 9 15 10 14 11 6 12
REMARK SMILES IDX 7 13 8 14 9 15 13 16 11 17 10 18 12 20 4 22 21 24 18 26
REMARK H PARENT 10 19 12 21 4 23 21 25 18 27
REMARK Flexibility Score: inf
ROOT
ATOM      1  C   UNL     1     -34.637  -7.907   3.731  1.00  0.00     0.180 A 
ATOM      2  C   UNL     1     -35.297  -8.752   4.640  1.00  0.00     0.208 A 
ATOM      3  C   UNL     1     -35.850  -8.199   5.806  1.00  0.00     0.238 A 
ATOM      4  O   UNL     1     -36.503  -8.949   6.577  1.00  0.00    -0.285 OA
ATOM      5  C   UNL     1     -35.688  -6.819   6.077  1.00  0.00     0.111 A 
ATOM      6  C   UNL     1     -36.168  -6.160   7.250  1.00  0.00     0.134 A 
ATOM      7  C   UNL     1     -36.043  -4.769   7.359  1.00  0.00     0.093 A 
ATOM      8  C   UNL     1     -35.399  -4.022   6.370  1.00  0.00     0.123 A 
ATOM      9  C   UNL     1     -34.879  -4.664   5.249  1.00  0.00     0.094 A 
ATOM     10  C   UNL     1     -35.022  -6.044   5.092  1.00  0.00     0.146 A 
ATOM     11  O   UNL     1     -34.530  -6.611   3.996  1.00  0.00    -0.452 OA
ENDROOT
BRANCH   1  12
ATOM     12  C   UNL     1     -34.042  -8.414   2.474  1.00  0.00     0.025 A 
ATOM     13  C   UNL     1     -32.907  -9.237   2.531  1.00  0.00     0.016 A 
ATOM     14  C   UNL     1     -32.315  -9.710   1.357  1.00  0.00     0.051 A 
ATOM     15  C   UNL     1     -32.838  -9.355   0.109  1.00  0.00     0.157 A 
ATOM     16  C   UNL     1     -34.554  -8.041   1.218  1.00  0.00     0.062 A 
ATOM     17  C   UNL     1     -33.960  -8.513   0.038  1.00  0.00     0.158 A 
BRANCH  15  18
ATOM     18  O   UNL     1     -32.227  -9.844  -1.045  1.00  0.00    -0.504 OA
ATOM     19  H   UNL     1     -32.451 -10.755  -1.427  1.00  0.00     0.293 HD
ENDBRANCH  15  18
BRANCH  17  20
ATOM     20  O   UNL     1     -34.477  -8.144  -1.203  1.00  0.00    -0.504 OA
ATOM     21  H   UNL     1     -34.238  -7.258  -1.635  1.00  0.00     0.293 HD
ENDBRANCH  17  20
ENDBRANCH   1  12
BRANCH   2  22
ATOM     22  O   UNL     1     -35.380 -10.125   4.391  1.00  0.00    -0.502 OA
ATOM     23  H   UNL     1     -35.341 -10.815   5.132  1.00  0.00     0.293 HD
ENDBRANCH   2  22
BRANCH   6  24
ATOM     24  O   UNL     1     -36.747  -6.819   8.337  1.00  0.00    -0.507 OA
ATOM     25  H   UNL     1     -36.243  -7.166   9.139  1.00  0.00     0.293 HD
ENDBRANCH   6  24
BRANCH   8  26
ATOM     26  O   UNL     1     -35.264  -2.641   6.497  1.00  0.00    -0.508 OA
ATOM     27  H   UNL     1     -34.878  -2.076   5.750  1.00  0.00     0.293 HD
ENDBRANCH   8  26
TORSDOF 6
ENDMDL
