MODEL 1
REMARK VINA RESULT:    60.358      0.000      0.000
REMARK INTER + INTRA:          66.063
REMARK INTER:                  65.651
REMARK INTRA:                   0.412
REMARK UNBOUND:                 0.412
REMARK SMILES C[C@H]1[C@@H](C)CC[C@]2(C(=O)[O-])CC[C@]3(C)C(=CC[C@@H]4[C@]5(C)CC[C@@H](O)C(C)(C)[C@H]5CC[C@]43C)[C@@H]12
REMARK SMILES IDX 7 1 6 2 11 3 33 4 5 5 12 6 15 7 2 8 3 9 13 10 16 11 1 12
REMARK SMILES IDX 4 13 14 14 31 15 17 16 18 17 30 18 32 19 19 20 29 21 28 22
REMARK SMILES IDX 21 23 20 24 25 25 22 26 23 27 26 28 27 29 8 30 9 31 10 32
REMARK SMILES IDX 24 33
REMARK H PARENT 24 34
REMARK Flexibility Score: inf
ROOT
ATOM      1  C   UNL     1     -50.786 121.095 -11.186  1.00  0.00     0.017 C 
ATOM      2  C   UNL     1     -49.726 121.758 -12.125  1.00  0.00     0.014 C 
ATOM      3  C   UNL     1     -51.739 120.257 -12.078  1.00  0.00     0.014 C 
ATOM      4  C   UNL     1     -51.631 122.220 -10.489  1.00  0.00     0.030 C 
ATOM      5  C   UNL     1     -48.877 122.834 -11.427  1.00  0.00     0.004 C 
ATOM      6  C   UNL     1     -52.923 119.655 -11.303  1.00  0.00     0.013 C 
ATOM      7  C   UNL     1     -52.884 121.676  -9.765  1.00  0.00    -0.063 C 
ATOM      8  C   UNL     1     -50.765 123.327  -9.785  1.00  0.00    -0.003 C 
ATOM      9  C   UNL     1     -49.780 123.929 -10.829  1.00  0.00    -0.011 C 
ATOM     10  C   UNL     1     -53.811 120.705 -10.548  1.00  0.00    -0.006 C 
ATOM     11  C   UNL     1     -53.283 122.223  -8.583  1.00  0.00    -0.027 C 
ATOM     12  C   UNL     1     -50.073 122.902  -8.464  1.00  0.00     0.008 C 
ATOM     13  C   UNL     1     -48.971 125.125 -10.299  1.00  0.00     0.008 C 
ATOM     14  C   UNL     1     -54.565 121.543 -11.649  1.00  0.00     0.017 C 
ATOM     15  C   UNL     1     -54.849 119.955  -9.559  1.00  0.00    -0.020 C 
ATOM     16  C   UNL     1     -54.469 121.777  -7.777  1.00  0.00     0.032 C 
ATOM     17  C   UNL     1     -55.529 121.037  -8.622  1.00  0.00     0.006 C 
ATOM     18  C   UNL     1     -55.934 119.147 -10.391  1.00  0.00     0.008 C 
ATOM     19  C   UNL     1     -54.076 118.942  -8.643  1.00  0.00     0.012 C 
ATOM     20  C   UNL     1     -56.853 120.629  -7.804  1.00  0.00    -0.025 C 
ATOM     21  C   UNL     1     -57.392 119.312  -9.923  1.00  0.00     0.005 C 
ATOM     22  C   UNL     1     -57.445 119.291  -8.387  1.00  0.00     0.003 C 
ATOM     23  C   UNL     1     -56.611 120.380  -6.285  1.00  0.00     0.010 C 
ATOM     24  C   UNL     1     -57.829 121.849  -7.936  1.00  0.00     0.012 C 
ATOM     25  C   UNL     1     -58.763 118.747  -7.709  1.00  0.00    -0.006 C 
ATOM     26  C   UNL     1     -57.856 119.857  -5.535  1.00  0.00     0.033 C 
ATOM     27  C   UNL     1     -58.484 118.602  -6.174  1.00  0.00     0.120 C 
ATOM     28  C   UNL     1     -60.013 119.629  -7.985  1.00  0.00     0.014 C 
ATOM     29  C   UNL     1     -59.086 117.325  -8.259  1.00  0.00     0.014 C 
ENDROOT
BRANCH   1  30
ATOM     30  C   UNL     1     -50.092 120.164 -10.192  1.00  0.00     0.048 C 
ATOM     31  O   UNL     1     -48.875 119.873 -10.320  1.00  0.00    -0.550 OA
ATOM     32  O   UNL     1     -50.803 119.564  -9.163  1.00  0.00    -0.550 OA
ENDBRANCH   1  30
BRANCH  27  33
ATOM     33  O   UNL     1     -59.671 118.294  -5.481  1.00  0.00    -0.393 OA
ATOM     34  H   UNL     1     -59.908 117.356  -5.683  1.00  0.00     0.210 HD
ENDBRANCH  27  33
TORSDOF 2
ENDMDL
