MODEL 1
REMARK VINA RESULT:    -4.253      0.000      0.000
REMARK INTER + INTRA:          -5.287
REMARK INTER:                  -4.999
REMARK INTRA:                  -0.288
REMARK UNBOUND:                -0.288
REMARK SMILES O=c1c(O)c(-c2ccc(O)cc2)oc2cc(O)cc(O)c12
REMARK SMILES IDX 5 1 3 2 2 3 1 4 21 5 19 6 18 7 16 8 15 9 14 10 13 11 6 12
REMARK SMILES IDX 7 13 8 14 9 15 12 16 11 17 10 18 4 20 20 22 17 24
REMARK H PARENT 10 19 4 21 20 23 17 25
REMARK Flexibility Score: inf
ROOT
ATOM      1  C   UNL     1      36.205  -3.054   3.627  1.00  0.00     0.180 A 
ATOM      2  C   UNL     1      35.667  -2.495   2.454  1.00  0.00     0.208 A 
ATOM      3  C   UNL     1      36.500  -2.322   1.338  1.00  0.00     0.238 A 
ATOM      4  O   UNL     1      36.000  -1.872   0.274  1.00  0.00    -0.285 OA
ATOM      5  C   UNL     1      37.864  -2.695   1.411  1.00  0.00     0.111 A 
ATOM      6  C   UNL     1      38.808  -2.527   0.355  1.00  0.00     0.134 A 
ATOM      7  C   UNL     1      40.099  -3.052   0.493  1.00  0.00     0.093 A 
ATOM      8  C   UNL     1      40.500  -3.680   1.674  1.00  0.00     0.123 A 
ATOM      9  C   UNL     1      39.603  -3.795   2.734  1.00  0.00     0.094 A 
ATOM     10  C   UNL     1      38.297  -3.314   2.613  1.00  0.00     0.146 A 
ATOM     11  O   UNL     1      37.471  -3.455   3.643  1.00  0.00    -0.452 OA
ENDROOT
BRANCH   1  12
ATOM     12  C   UNL     1      35.396  -3.245   4.852  1.00  0.00     0.021 A 
ATOM     13  C   UNL     1      35.185  -2.193   5.762  1.00  0.00     0.016 A 
ATOM     14  C   UNL     1      34.438  -2.404   6.925  1.00  0.00     0.047 A 
ATOM     15  C   UNL     1      33.906  -3.666   7.201  1.00  0.00     0.115 A 
ATOM     16  C   UNL     1      34.876  -4.516   5.147  1.00  0.00     0.016 A 
ATOM     17  C   UNL     1      34.128  -4.724   6.310  1.00  0.00     0.047 A 
BRANCH  15  18
ATOM     18  O   UNL     1      33.161  -3.862   8.363  1.00  0.00    -0.508 OA
ATOM     19  H   UNL     1      32.982  -4.790   8.727  1.00  0.00     0.293 HD
ENDBRANCH  15  18
ENDBRANCH   1  12
BRANCH   2  20
ATOM     20  O   UNL     1      34.313  -2.154   2.395  1.00  0.00    -0.502 OA
ATOM     21  H   UNL     1      33.967  -1.397   1.818  1.00  0.00     0.293 HD
ENDBRANCH   2  20
BRANCH   6  22
ATOM     22  O   UNL     1      38.539  -1.835  -0.830  1.00  0.00    -0.507 OA
ATOM     23  H   UNL     1      38.520  -2.252  -1.748  1.00  0.00     0.293 HD
ENDBRANCH   6  22
BRANCH   8  24
ATOM     24  O   UNL     1      41.791  -4.184   1.809  1.00  0.00    -0.508 OA
ATOM     25  H   UNL     1      42.572  -3.787   1.298  1.00  0.00     0.293 HD
ENDBRANCH   8  24
TORSDOF 5
ENDMDL
MODEL 2
REMARK VINA RESULT:    -3.991     10.723     12.276
REMARK INTER + INTRA:          -4.980
REMARK INTER:                  -4.700
REMARK INTRA:                  -0.280
REMARK UNBOUND:                -0.288
REMARK SMILES O=c1c(O)c(-c2ccc(O)cc2)oc2cc(O)cc(O)c12
REMARK SMILES IDX 5 1 3 2 2 3 1 4 21 5 19 6 18 7 16 8 15 9 14 10 13 11 6 12
REMARK SMILES IDX 7 13 8 14 9 15 12 16 11 17 10 18 4 20 20 22 17 24
REMARK H PARENT 10 19 4 21 20 23 17 25
REMARK Flexibility Score: inf
ROOT
ATOM      1  C   UNL     1      30.285 -11.457  -0.395  1.00  0.00     0.180 A 
ATOM      2  C   UNL     1      31.035 -12.514  -0.941  1.00  0.00     0.208 A 
ATOM      3  C   UNL     1      31.845 -13.285  -0.092  1.00  0.00     0.238 A 
ATOM      4  O   UNL     1      32.472 -14.262  -0.577  1.00  0.00    -0.285 OA
ATOM      5  C   UNL     1      31.907 -12.981   1.290  1.00  0.00     0.111 A 
ATOM      6  C   UNL     1      32.724 -13.669   2.235  1.00  0.00     0.134 A 
ATOM      7  C   UNL     1      32.607 -13.368   3.598  1.00  0.00     0.093 A 
ATOM      8  C   UNL     1      31.750 -12.358   4.042  1.00  0.00     0.123 A 
ATOM      9  C   UNL     1      30.993 -11.639   3.120  1.00  0.00     0.094 A 
ATOM     10  C   UNL     1      31.061 -11.941   1.758  1.00  0.00     0.146 A 
ATOM     11  O   UNL     1      30.313 -11.238   0.915  1.00  0.00    -0.452 OA
ENDROOT
BRANCH   1  12
ATOM     12  C   UNL     1      29.429 -10.585  -1.230  1.00  0.00     0.021 A 
ATOM     13  C   UNL     1      29.970  -9.518  -1.971  1.00  0.00     0.016 A 
ATOM     14  C   UNL     1      29.138  -8.692  -2.732  1.00  0.00     0.047 A 
ATOM     15  C   UNL     1      27.758  -8.912  -2.755  1.00  0.00     0.115 A 
ATOM     16  C   UNL     1      28.039 -10.786  -1.241  1.00  0.00     0.016 A 
ATOM     17  C   UNL     1      27.209  -9.960  -2.005  1.00  0.00     0.047 A 
BRANCH  15  18
ATOM     18  O   UNL     1      26.940  -8.083  -3.521  1.00  0.00    -0.508 OA
ATOM     19  H   UNL     1      26.016  -7.814  -3.206  1.00  0.00     0.293 HD
ENDBRANCH  15  18
ENDBRANCH   1  12
BRANCH   2  20
ATOM     20  O   UNL     1      30.943 -12.811  -2.303  1.00  0.00    -0.502 OA
ATOM     21  H   UNL     1      31.738 -12.754  -2.928  1.00  0.00     0.293 HD
ENDBRANCH   2  20
BRANCH   6  22
ATOM     22  O   UNL     1      33.678 -14.631   1.888  1.00  0.00    -0.507 OA
ATOM     23  H   UNL     1      34.579 -14.733   2.331  1.00  0.00     0.293 HD
ENDBRANCH   6  22
BRANCH   8  24
ATOM     24  O   UNL     1      31.653 -12.054   5.398  1.00  0.00    -0.508 OA
ATOM     25  H   UNL     1      31.139 -11.243   5.724  1.00  0.00     0.293 HD
ENDBRANCH   8  24
TORSDOF 5
ENDMDL
MODEL 3
REMARK VINA RESULT:    -3.972      3.750      7.092
REMARK INTER + INTRA:          -4.957
REMARK INTER:                  -4.679
REMARK INTRA:                  -0.278
REMARK UNBOUND:                -0.288
REMARK SMILES O=c1c(O)c(-c2ccc(O)cc2)oc2cc(O)cc(O)c12
REMARK SMILES IDX 5 1 3 2 2 3 1 4 21 5 19 6 18 7 16 8 15 9 14 10 13 11 6 12
REMARK SMILES IDX 7 13 8 14 9 15 12 16 11 17 10 18 4 20 20 22 17 24
REMARK H PARENT 10 19 4 21 20 23 17 25
REMARK Flexibility Score: inf
ROOT
ATOM      1  C   UNL     1      36.251  -2.644  -1.704  1.00  0.00     0.180 A 
ATOM      2  C   UNL     1      37.369  -3.446  -1.999  1.00  0.00     0.208 A 
ATOM      3  C   UNL     1      38.225  -3.830  -0.955  1.00  0.00     0.238 A 
ATOM      4  O   UNL     1      39.193  -4.592  -1.217  1.00  0.00    -0.285 OA
ATOM      5  C   UNL     1      37.965  -3.397   0.367  1.00  0.00     0.111 A 
ATOM      6  C   UNL     1      38.788  -3.693   1.494  1.00  0.00     0.134 A 
ATOM      7  C   UNL     1      38.363  -3.322   2.776  1.00  0.00     0.093 A 
ATOM      8  C   UNL     1      37.177  -2.609   2.964  1.00  0.00     0.123 A 
ATOM      9  C   UNL     1      36.396  -2.262   1.863  1.00  0.00     0.094 A 
ATOM     10  C   UNL     1      36.776  -2.650   0.576  1.00  0.00     0.146 A 
ATOM     11  O   UNL     1      35.997  -2.309  -0.444  1.00  0.00    -0.452 OA
ENDROOT
BRANCH   1  12
ATOM     12  C   UNL     1      35.317  -2.179  -2.753  1.00  0.00     0.021 A 
ATOM     13  C   UNL     1      35.433  -0.897  -3.323  1.00  0.00     0.016 A 
ATOM     14  C   UNL     1      34.524  -0.470  -4.294  1.00  0.00     0.047 A 
ATOM     15  C   UNL     1      33.481  -1.308  -4.700  1.00  0.00     0.115 A 
ATOM     16  C   UNL     1      34.255  -3.007  -3.151  1.00  0.00     0.016 A 
ATOM     17  C   UNL     1      33.347  -2.578  -4.124  1.00  0.00     0.047 A 
BRANCH  15  18
ATOM     18  O   UNL     1      32.583  -0.870  -5.671  1.00  0.00    -0.508 OA
ATOM     19  H   UNL     1      32.280   0.095  -5.716  1.00  0.00     0.293 HD
ENDBRANCH  15  18
ENDBRANCH   1  12
BRANCH   2  20
ATOM     20  O   UNL     1      37.596  -3.881  -3.307  1.00  0.00    -0.502 OA
ATOM     21  H   UNL     1      37.024  -3.581  -4.087  1.00  0.00     0.293 HD
ENDBRANCH   2  20
BRANCH   6  22
ATOM     22  O   UNL     1      40.034  -4.320   1.407  1.00  0.00    -0.507 OA
ATOM     23  H   UNL     1      40.231  -5.134   0.844  1.00  0.00     0.293 HD
ENDBRANCH   6  22
BRANCH   8  24
ATOM     24  O   UNL     1      36.770  -2.229   4.241  1.00  0.00    -0.508 OA
ATOM     25  H   UNL     1      36.403  -2.903   4.903  1.00  0.00     0.293 HD
ENDBRANCH   8  24
TORSDOF 5
ENDMDL
MODEL 4
REMARK VINA RESULT:    -3.840     11.894     13.829
REMARK INTER + INTRA:          -4.802
REMARK INTER:                  -4.675
REMARK INTRA:                  -0.126
REMARK UNBOUND:                -0.288
REMARK SMILES O=c1c(O)c(-c2ccc(O)cc2)oc2cc(O)cc(O)c12
REMARK SMILES IDX 5 1 3 2 2 3 1 4 21 5 19 6 18 7 16 8 15 9 14 10 13 11 6 12
REMARK SMILES IDX 7 13 8 14 9 15 12 16 11 17 10 18 4 20 20 22 17 24
REMARK H PARENT 10 19 4 21 20 23 17 25
REMARK Flexibility Score: inf
ROOT
ATOM      1  C   UNL     1      27.244  -8.601  -2.638  1.00  0.00     0.180 A 
ATOM      2  C   UNL     1      27.053  -8.432  -4.021  1.00  0.00     0.208 A 
ATOM      3  C   UNL     1      26.039  -7.570  -4.468  1.00  0.00     0.238 A 
ATOM      4  O   UNL     1      25.908  -7.381  -5.706  1.00  0.00    -0.285 OA
ATOM      5  C   UNL     1      25.219  -6.900  -3.529  1.00  0.00     0.111 A 
ATOM      6  C   UNL     1      24.137  -6.034  -3.870  1.00  0.00     0.134 A 
ATOM      7  C   UNL     1      23.477  -5.322  -2.860  1.00  0.00     0.093 A 
ATOM      8  C   UNL     1      23.818  -5.494  -1.517  1.00  0.00     0.123 A 
ATOM      9  C   UNL     1      24.833  -6.383  -1.169  1.00  0.00     0.094 A 
ATOM     10  C   UNL     1      25.534  -7.080  -2.157  1.00  0.00     0.146 A 
ATOM     11  O   UNL     1      26.502  -7.908  -1.782  1.00  0.00    -0.452 OA
ENDROOT
BRANCH   1  12
ATOM     12  C   UNL     1      28.274  -9.512  -2.091  1.00  0.00     0.021 A 
ATOM     13  C   UNL     1      27.925 -10.644  -1.331  1.00  0.00     0.016 A 
ATOM     14  C   UNL     1      28.917 -11.474  -0.803  1.00  0.00     0.047 A 
ATOM     15  C   UNL     1      30.268 -11.181  -1.015  1.00  0.00     0.115 A 
ATOM     16  C   UNL     1      29.633  -9.212  -2.281  1.00  0.00     0.016 A 
ATOM     17  C   UNL     1      30.624 -10.046  -1.753  1.00  0.00     0.047 A 
BRANCH  15  18
ATOM     18  O   UNL     1      31.247 -12.020  -0.484  1.00  0.00    -0.508 OA
ATOM     19  H   UNL     1      32.188 -12.036  -0.857  1.00  0.00     0.293 HD
ENDBRANCH  15  18
ENDBRANCH   1  12
BRANCH   2  20
ATOM     20  O   UNL     1      27.887  -9.087  -4.931  1.00  0.00    -0.502 OA
ATOM     21  H   UNL     1      27.572  -9.376  -5.849  1.00  0.00     0.293 HD
ENDBRANCH   2  20
BRANCH   6  22
ATOM     22  O   UNL     1      23.657  -5.861  -5.172  1.00  0.00    -0.507 OA
ATOM     23  H   UNL     1      23.481  -4.968  -5.606  1.00  0.00     0.293 HD
ENDBRANCH   6  22
BRANCH   8  24
ATOM     24  O   UNL     1      23.145  -4.795  -0.517  1.00  0.00    -0.508 OA
ATOM     25  H   UNL     1      22.638  -3.940  -0.718  1.00  0.00     0.293 HD
ENDBRANCH   8  24
TORSDOF 5
ENDMDL
MODEL 5
REMARK VINA RESULT:    -3.828      2.131      7.600
REMARK INTER + INTRA:          -4.788
REMARK INTER:                  -4.490
REMARK INTRA:                  -0.298
REMARK UNBOUND:                -0.288
REMARK SMILES O=c1c(O)c(-c2ccc(O)cc2)oc2cc(O)cc(O)c12
REMARK SMILES IDX 5 1 3 2 2 3 1 4 21 5 19 6 18 7 16 8 15 9 14 10 13 11 6 12
REMARK SMILES IDX 7 13 8 14 9 15 12 16 11 17 10 18 4 20 20 22 17 24
REMARK H PARENT 10 19 4 21 20 23 17 25
REMARK Flexibility Score: inf
ROOT
ATOM      1  C   UNL     1      34.945  -2.862   5.275  1.00  0.00     0.180 A 
ATOM      2  C   UNL     1      34.484  -4.101   5.756  1.00  0.00     0.208 A 
ATOM      3  C   UNL     1      33.872  -4.157   7.017  1.00  0.00     0.238 A 
ATOM      4  O   UNL     1      33.413  -5.258   7.418  1.00  0.00    -0.285 OA
ATOM      5  C   UNL     1      33.741  -2.978   7.790  1.00  0.00     0.111 A 
ATOM      6  C   UNL     1      33.173  -2.926   9.099  1.00  0.00     0.134 A 
ATOM      7  C   UNL     1      32.975  -1.684   9.716  1.00  0.00     0.093 A 
ATOM      8  C   UNL     1      33.385  -0.499   9.100  1.00  0.00     0.123 A 
ATOM      9  C   UNL     1      33.995  -0.546   7.849  1.00  0.00     0.094 A 
ATOM     10  C   UNL     1      34.173  -1.766   7.192  1.00  0.00     0.146 A 
ATOM     11  O   UNL     1      34.748  -1.763   5.995  1.00  0.00    -0.452 OA
ENDROOT
BRANCH   1  12
ATOM     12  C   UNL     1      35.623  -2.727   3.966  1.00  0.00     0.021 A 
ATOM     13  C   UNL     1      37.010  -2.925   3.835  1.00  0.00     0.016 A 
ATOM     14  C   UNL     1      37.632  -2.767   2.593  1.00  0.00     0.047 A 
ATOM     15  C   UNL     1      36.883  -2.399   1.472  1.00  0.00     0.115 A 
ATOM     16  C   UNL     1      34.881  -2.336   2.840  1.00  0.00     0.016 A 
ATOM     17  C   UNL     1      35.505  -2.181   1.598  1.00  0.00     0.047 A 
BRANCH  15  18
ATOM     18  O   UNL     1      37.516  -2.247   0.239  1.00  0.00    -0.508 OA
ATOM     19  H   UNL     1      38.250  -1.563   0.102  1.00  0.00     0.293 HD
ENDBRANCH  15  18
ENDBRANCH   1  12
BRANCH   2  20
ATOM     20  O   UNL     1      34.604  -5.248   4.967  1.00  0.00    -0.502 OA
ATOM     21  H   UNL     1      35.419  -5.434   4.396  1.00  0.00     0.293 HD
ENDBRANCH   2  20
BRANCH   6  22
ATOM     22  O   UNL     1      32.814  -4.056   9.839  1.00  0.00    -0.507 OA
ATOM     23  H   UNL     1      32.434  -4.903   9.447  1.00  0.00     0.293 HD
ENDBRANCH   6  22
BRANCH   8  24
ATOM     24  O   UNL     1      33.200   0.730   9.729  1.00  0.00    -0.508 OA
ATOM     25  H   UNL     1      33.446   0.870  10.702  1.00  0.00     0.293 HD
ENDBRANCH   8  24
TORSDOF 5
ENDMDL
MODEL 6
REMARK VINA RESULT:    -3.810      2.059      4.152
REMARK INTER + INTRA:          -4.766
REMARK INTER:                  -4.496
REMARK INTRA:                  -0.270
REMARK UNBOUND:                -0.288
REMARK SMILES O=c1c(O)c(-c2ccc(O)cc2)oc2cc(O)cc(O)c12
REMARK SMILES IDX 5 1 3 2 2 3 1 4 21 5 19 6 18 7 16 8 15 9 14 10 13 11 6 12
REMARK SMILES IDX 7 13 8 14 9 15 12 16 11 17 10 18 4 20 20 22 17 24
REMARK H PARENT 10 19 4 21 20 23 17 25
REMARK Flexibility Score: inf
ROOT
ATOM      1  C   UNL     1      34.949  -3.438   6.432  1.00  0.00     0.180 A 
ATOM      2  C   UNL     1      36.306  -3.337   6.789  1.00  0.00     0.208 A 
ATOM      3  C   UNL     1      37.256  -3.075   5.790  1.00  0.00     0.238 A 
ATOM      4  O   UNL     1      38.461  -2.933   6.124  1.00  0.00    -0.285 OA
ATOM      5  C   UNL     1      36.841  -2.931   4.444  1.00  0.00     0.111 A 
ATOM      6  C   UNL     1      37.722  -2.704   3.344  1.00  0.00     0.134 A 
ATOM      7  C   UNL     1      37.190  -2.447   2.075  1.00  0.00     0.093 A 
ATOM      8  C   UNL     1      35.811  -2.475   1.852  1.00  0.00     0.123 A 
ATOM      9  C   UNL     1      34.946  -2.756   2.907  1.00  0.00     0.094 A 
ATOM     10  C   UNL     1      35.445  -2.980   4.193  1.00  0.00     0.146 A 
ATOM     11  O   UNL     1      34.584  -3.232   5.172  1.00  0.00    -0.452 OA
ENDROOT
BRANCH   1  12
ATOM     12  C   UNL     1      33.893  -3.737   7.425  1.00  0.00     0.021 A 
ATOM     13  C   UNL     1      33.340  -2.728   8.236  1.00  0.00     0.016 A 
ATOM     14  C   UNL     1      32.363  -3.039   9.184  1.00  0.00     0.047 A 
ATOM     15  C   UNL     1      31.933  -4.359   9.346  1.00  0.00     0.115 A 
ATOM     16  C   UNL     1      33.472  -5.064   7.608  1.00  0.00     0.016 A 
ATOM     17  C   UNL     1      32.492  -5.373   8.557  1.00  0.00     0.047 A 
BRANCH  15  18
ATOM     18  O   UNL     1      30.955  -4.655  10.294  1.00  0.00    -0.508 OA
ATOM     19  H   UNL     1      31.080  -5.401  10.968  1.00  0.00     0.293 HD
ENDBRANCH  15  18
ENDBRANCH   1  12
BRANCH   2  20
ATOM     20  O   UNL     1      36.691  -3.461   8.127  1.00  0.00    -0.502 OA
ATOM     21  H   UNL     1      37.595  -3.153   8.464  1.00  0.00     0.293 HD
ENDBRANCH   2  20
BRANCH   6  22
ATOM     22  O   UNL     1      39.116  -2.746   3.440  1.00  0.00    -0.507 OA
ATOM     23  H   UNL     1      39.745  -2.120   2.960  1.00  0.00     0.293 HD
ENDBRANCH   6  22
BRANCH   8  24
ATOM     24  O   UNL     1      35.291  -2.235   0.582  1.00  0.00    -0.508 OA
ATOM     25  H   UNL     1      34.667  -2.894   0.131  1.00  0.00     0.293 HD
ENDBRANCH   8  24
TORSDOF 5
ENDMDL
MODEL 7
REMARK VINA RESULT:    -3.800      5.109      8.207
REMARK INTER + INTRA:          -4.754
REMARK INTER:                  -4.636
REMARK INTRA:                  -0.118
REMARK UNBOUND:                -0.288
REMARK SMILES O=c1c(O)c(-c2ccc(O)cc2)oc2cc(O)cc(O)c12
REMARK SMILES IDX 5 1 3 2 2 3 1 4 21 5 19 6 18 7 16 8 15 9 14 10 13 11 6 12
REMARK SMILES IDX 7 13 8 14 9 15 12 16 11 17 10 18 4 20 20 22 17 24
REMARK H PARENT 10 19 4 21 20 23 17 25
REMARK Flexibility Score: inf
ROOT
ATOM      1  C   UNL     1      37.194  -6.862   8.718  1.00  0.00     0.180 A 
ATOM      2  C   UNL     1      36.609  -6.235   9.833  1.00  0.00     0.208 A 
ATOM      3  C   UNL     1      35.689  -5.195   9.625  1.00  0.00     0.238 A 
ATOM      4  O   UNL     1      35.130  -4.674  10.624  1.00  0.00    -0.285 OA
ATOM      5  C   UNL     1      35.376  -4.785   8.306  1.00  0.00     0.111 A 
ATOM      6  C   UNL     1      34.489  -3.716   7.980  1.00  0.00     0.134 A 
ATOM      7  C   UNL     1      34.152  -3.483   6.640  1.00  0.00     0.093 A 
ATOM      8  C   UNL     1      34.722  -4.238   5.612  1.00  0.00     0.123 A 
ATOM      9  C   UNL     1      35.635  -5.244   5.917  1.00  0.00     0.094 A 
ATOM     10  C   UNL     1      35.963  -5.524   7.246  1.00  0.00     0.146 A 
ATOM     11  O   UNL     1      36.830  -6.500   7.493  1.00  0.00    -0.452 OA
ENDROOT
BRANCH   1  12
ATOM     12  C   UNL     1      38.190  -7.948   8.858  1.00  0.00     0.021 A 
ATOM     13  C   UNL     1      39.412  -7.741   9.524  1.00  0.00     0.016 A 
ATOM     14  C   UNL     1      40.348  -8.775   9.621  1.00  0.00     0.047 A 
ATOM     15  C   UNL     1      40.084 -10.021   9.045  1.00  0.00     0.115 A 
ATOM     16  C   UNL     1      37.941  -9.196   8.263  1.00  0.00     0.016 A 
ATOM     17  C   UNL     1      38.878 -10.229   8.364  1.00  0.00     0.047 A 
BRANCH  15  18
ATOM     18  O   UNL     1      41.025 -11.043   9.152  1.00  0.00    -0.508 OA
ATOM     19  H   UNL     1      41.741 -11.179   8.448  1.00  0.00     0.293 HD
ENDBRANCH  15  18
ENDBRANCH   1  12
BRANCH   2  20
ATOM     20  O   UNL     1      36.916  -6.670  11.125  1.00  0.00    -0.502 OA
ATOM     21  H   UNL     1      37.760  -7.188  11.339  1.00  0.00     0.293 HD
ENDBRANCH   2  20
BRANCH   6  22
ATOM     22  O   UNL     1      33.937  -2.844   8.923  1.00  0.00    -0.507 OA
ATOM     23  H   UNL     1      33.863  -1.845   8.808  1.00  0.00     0.293 HD
ENDBRANCH   6  22
BRANCH   8  24
ATOM     24  O   UNL     1      34.394  -3.988   4.281  1.00  0.00    -0.508 OA
ATOM     25  H   UNL     1      35.106  -3.925   3.563  1.00  0.00     0.293 HD
ENDBRANCH   8  24
TORSDOF 5
ENDMDL
MODEL 8
REMARK VINA RESULT:    -3.764     10.438     11.480
REMARK INTER + INTRA:          -4.713
REMARK INTER:                  -4.414
REMARK INTRA:                  -0.299
REMARK UNBOUND:                -0.288
REMARK SMILES O=c1c(O)c(-c2ccc(O)cc2)oc2cc(O)cc(O)c12
REMARK SMILES IDX 5 1 3 2 2 3 1 4 21 5 19 6 18 7 16 8 15 9 14 10 13 11 6 12
REMARK SMILES IDX 7 13 8 14 9 15 12 16 11 17 10 18 4 20 20 22 17 24
REMARK H PARENT 10 19 4 21 20 23 17 25
REMARK Flexibility Score: inf
ROOT
ATOM      1  C   UNL     1      30.293 -11.903   1.278  1.00  0.00     0.180 A 
ATOM      2  C   UNL     1      28.928 -11.715   1.000  1.00  0.00     0.208 A 
ATOM      3  C   UNL     1      28.549 -11.235  -0.264  1.00  0.00     0.238 A 
ATOM      4  O   UNL     1      27.324 -11.120  -0.525  1.00  0.00    -0.285 OA
ATOM      5  C   UNL     1      29.541 -10.933  -1.229  1.00  0.00     0.111 A 
ATOM      6  C   UNL     1      29.274 -10.403  -2.526  1.00  0.00     0.134 A 
ATOM      7  C   UNL     1      30.322 -10.267  -3.445  1.00  0.00     0.093 A 
ATOM      8  C   UNL     1      31.636 -10.580  -3.091  1.00  0.00     0.123 A 
ATOM      9  C   UNL     1      31.915 -11.041  -1.807  1.00  0.00     0.094 A 
ATOM     10  C   UNL     1      30.886 -11.222  -0.880  1.00  0.00     0.146 A 
ATOM     11  O   UNL     1      31.195 -11.675   0.330  1.00  0.00    -0.452 OA
ENDROOT
BRANCH   1  12
ATOM     12  C   UNL     1      30.770 -12.383   2.594  1.00  0.00     0.021 A 
ATOM     13  C   UNL     1      31.027 -11.490   3.652  1.00  0.00     0.016 A 
ATOM     14  C   UNL     1      31.501 -11.963   4.878  1.00  0.00     0.047 A 
ATOM     15  C   UNL     1      31.738 -13.329   5.061  1.00  0.00     0.115 A 
ATOM     16  C   UNL     1      31.031 -13.750   2.780  1.00  0.00     0.016 A 
ATOM     17  C   UNL     1      31.504 -14.222   4.009  1.00  0.00     0.047 A 
BRANCH  15  18
ATOM     18  O   UNL     1      32.209 -13.787   6.291  1.00  0.00    -0.508 OA
ATOM     19  H   UNL     1      33.141 -13.564   6.617  1.00  0.00     0.293 HD
ENDBRANCH  15  18
ENDBRANCH   1  12
BRANCH   2  20
ATOM     20  O   UNL     1      27.964 -12.039   1.959  1.00  0.00    -0.502 OA
ATOM     21  H   UNL     1      26.970 -11.953   1.783  1.00  0.00     0.293 HD
ENDBRANCH   2  20
BRANCH   6  22
ATOM     22  O   UNL     1      28.013  -9.974  -2.950  1.00  0.00    -0.507 OA
ATOM     23  H   UNL     1      27.232 -10.583  -3.140  1.00  0.00     0.293 HD
ENDBRANCH   6  22
BRANCH   8  24
ATOM     24  O   UNL     1      32.675 -10.425  -4.007  1.00  0.00    -0.508 OA
ATOM     25  H   UNL     1      33.198  -9.559  -4.074  1.00  0.00     0.293 HD
ENDBRANCH   8  24
TORSDOF 5
ENDMDL
MODEL 9
REMARK VINA RESULT:    -3.718      2.906      3.871
REMARK INTER + INTRA:          -4.658
REMARK INTER:                  -4.370
REMARK INTRA:                  -0.288
REMARK UNBOUND:                -0.288
REMARK SMILES O=c1c(O)c(-c2ccc(O)cc2)oc2cc(O)cc(O)c12
REMARK SMILES IDX 5 1 3 2 2 3 1 4 21 5 19 6 18 7 16 8 15 9 14 10 13 11 6 12
REMARK SMILES IDX 7 13 8 14 9 15 12 16 11 17 10 18 4 20 20 22 17 24
REMARK H PARENT 10 19 4 21 20 23 17 25
REMARK Flexibility Score: inf
ROOT
ATOM      1  C   UNL     1      37.518  -2.565   1.557  1.00  0.00     0.180 A 
ATOM      2  C   UNL     1      37.626  -3.098   0.260  1.00  0.00     0.208 A 
ATOM      3  C   UNL     1      38.754  -3.865  -0.070  1.00  0.00     0.238 A 
ATOM      4  O   UNL     1      38.820  -4.383  -1.215  1.00  0.00    -0.285 OA
ATOM      5  C   UNL     1      39.769  -4.078   0.894  1.00  0.00     0.111 A 
ATOM      6  C   UNL     1      40.974  -4.805   0.657  1.00  0.00     0.134 A 
ATOM      7  C   UNL     1      41.845  -5.063   1.723  1.00  0.00     0.093 A 
ATOM      8  C   UNL     1      41.587  -4.566   3.002  1.00  0.00     0.123 A 
ATOM      9  C   UNL     1      40.444  -3.804   3.230  1.00  0.00     0.094 A 
ATOM     10  C   UNL     1      39.537  -3.559   2.196  1.00  0.00     0.146 A 
ATOM     11  O   UNL     1      38.454  -2.838   2.459  1.00  0.00    -0.452 OA
ENDROOT
BRANCH   1  12
ATOM     12  C   UNL     1      36.371  -1.727   1.971  1.00  0.00     0.021 A 
ATOM     13  C   UNL     1      35.190  -2.298   2.481  1.00  0.00     0.016 A 
ATOM     14  C   UNL     1      34.111  -1.487   2.841  1.00  0.00     0.047 A 
ATOM     15  C   UNL     1      34.190  -0.100   2.686  1.00  0.00     0.115 A 
ATOM     16  C   UNL     1      36.435  -0.334   1.798  1.00  0.00     0.016 A 
ATOM     17  C   UNL     1      35.354   0.476   2.161  1.00  0.00     0.047 A 
BRANCH  15  18
ATOM     18  O   UNL     1      33.106   0.697   3.052  1.00  0.00    -0.508 OA
ATOM     19  H   UNL     1      33.185   1.395   3.782  1.00  0.00     0.293 HD
ENDBRANCH  15  18
ENDBRANCH   1  12
BRANCH   2  20
ATOM     20  O   UNL     1      36.604  -2.894  -0.671  1.00  0.00    -0.502 OA
ATOM     21  H   UNL     1      35.762  -2.375  -0.451  1.00  0.00     0.293 HD
ENDBRANCH   2  20
BRANCH   6  22
ATOM     22  O   UNL     1      41.371  -5.267  -0.601  1.00  0.00    -0.507 OA
ATOM     23  H   UNL     1      40.843  -5.911  -1.170  1.00  0.00     0.293 HD
ENDBRANCH   6  22
BRANCH   8  24
ATOM     24  O   UNL     1      42.468  -4.814   4.053  1.00  0.00    -0.508 OA
ATOM     25  H   UNL     1      42.177  -5.321   4.880  1.00  0.00     0.293 HD
ENDBRANCH   8  24
TORSDOF 5
ENDMDL
