MODEL 1
REMARK VINA RESULT:    -3.423      0.000      0.000
REMARK INTER + INTRA:          -9.257
REMARK INTER:                  -7.826
REMARK INTRA:                  -1.431
REMARK UNBOUND:                -1.431
REMARK SMILES CCCCCCCCCCCCCCCCCCCCCCCC(=O)[O-]
REMARK SMILES IDX 13 1 14 2 15 3 16 4 17 5 18 6 19 7 20 8 21 9 22 10 23 11
REMARK SMILES IDX 24 12 25 13 26 14 12 15 11 16 10 17 9 18 8 19 7 20 6 21 5 22
REMARK SMILES IDX 4 23 3 24 2 25 1 26
REMARK H PARENT
REMARK Flexibility Score: inf
ROOT
ATOM      1  C   UNL     1      -1.541  27.525  23.404  1.00  0.00     0.000 C 
ENDROOT
BRANCH   1   2
ATOM      2  C   UNL     1      -0.214  27.900  22.727  1.00  0.00     0.000 C 
BRANCH   2   3
ATOM      3  C   UNL     1      -0.283  27.809  21.193  1.00  0.00     0.000 C 
BRANCH   3   4
ATOM      4  C   UNL     1       1.111  27.750  20.544  1.00  0.00     0.000 C 
BRANCH   4   5
ATOM      5  C   UNL     1       1.079  27.145  19.130  1.00  0.00     0.000 C 
BRANCH   5   6
ATOM      6  C   UNL     1      -0.134  26.226  18.906  1.00  0.00     0.000 C 
BRANCH   6   7
ATOM      7  C   UNL     1       0.174  25.069  17.940  1.00  0.00     0.000 C 
BRANCH   7   8
ATOM      8  C   UNL     1       1.161  24.047  18.535  1.00  0.00     0.000 C 
BRANCH   8   9
ATOM      9  C   UNL     1       0.574  22.629  18.602  1.00  0.00     0.000 C 
BRANCH   9  10
ATOM     10  C   UNL     1       0.273  22.181  20.040  1.00  0.00     0.006 C 
BRANCH  10  11
ATOM     11  C   UNL     1       1.055  23.024  21.052  1.00  0.00     0.053 C 
BRANCH  11  12
ATOM     12  C   UNL     1       0.335  23.072  22.362  1.00  0.00     0.041 C 
ATOM     13  O   UNL     1      -0.456  22.147  22.684  1.00  0.00    -0.550 OA
ATOM     14  O   UNL     1       0.572  24.114  23.249  1.00  0.00    -0.550 OA
ENDBRANCH  11  12
ENDBRANCH  10  11
ENDBRANCH   9  10
ENDBRANCH   8   9
ENDBRANCH   7   8
ENDBRANCH   6   7
ENDBRANCH   5   6
ENDBRANCH   4   5
ENDBRANCH   3   4
ENDBRANCH   2   3
ENDBRANCH   1   2
BRANCH   1  15
ATOM     15  C   UNL     1      -1.294  26.827  24.747  1.00  0.00     0.000 C 
BRANCH  15  16
ATOM     16  C   UNL     1      -2.225  27.385  25.835  1.00  0.00     0.000 C 
BRANCH  16  17
ATOM     17  C   UNL     1      -3.490  26.533  26.029  1.00  0.00     0.000 C 
BRANCH  17  18
ATOM     18  C   UNL     1      -3.256  25.047  25.707  1.00  0.00    -0.000 C 
BRANCH  18  19
ATOM     19  C   UNL     1      -4.219  24.111  26.461  1.00  0.00    -0.000 C 
BRANCH  19  20
ATOM     20  C   UNL     1      -5.432  23.626  25.645  1.00  0.00    -0.000 C 
BRANCH  20  21
ATOM     21  C   UNL     1      -6.483  22.904  26.503  1.00  0.00    -0.000 C 
BRANCH  21  22
ATOM     22  C   UNL     1      -7.886  23.475  26.249  1.00  0.00    -0.000 C 
BRANCH  22  23
ATOM     23  C   UNL     1      -8.998  22.418  26.388  1.00  0.00    -0.000 C 
BRANCH  23  24
ATOM     24  C   UNL     1      -9.887  22.243  25.144  1.00  0.00    -0.000 C 
BRANCH  24  25
ATOM     25  C   UNL     1      -9.875  23.471  24.223  1.00  0.00    -0.003 C 
ATOM     26  C   UNL     1     -11.004  23.400  23.197  1.00  0.00     0.004 C 
ENDBRANCH  24  25
ENDBRANCH  23  24
ENDBRANCH  22  23
ENDBRANCH  21  22
ENDBRANCH  20  21
ENDBRANCH  19  20
ENDBRANCH  18  19
ENDBRANCH  17  18
ENDBRANCH  16  17
ENDBRANCH  15  16
ENDBRANCH   1  15
TORSDOF 22
ENDMDL
MODEL 2
REMARK VINA RESULT:    -3.362      3.028      9.170
REMARK INTER + INTRA:          -9.117
REMARK INTER:                  -7.094
REMARK INTRA:                  -2.024
REMARK UNBOUND:                -1.431
REMARK SMILES CCCCCCCCCCCCCCCCCCCCCCCC(=O)[O-]
REMARK SMILES IDX 13 1 14 2 15 3 16 4 17 5 18 6 19 7 20 8 21 9 22 10 23 11
REMARK SMILES IDX 24 12 25 13 26 14 12 15 11 16 10 17 9 18 8 19 7 20 6 21 5 22
REMARK SMILES IDX 4 23 3 24 2 25 1 26
REMARK H PARENT
REMARK Flexibility Score: inf
ROOT
ATOM      1  C   UNL     1      -0.614  27.451  23.997  1.00  0.00     0.000 C 
ENDROOT
BRANCH   1   2
ATOM      2  C   UNL     1      -2.008  27.800  24.540  1.00  0.00     0.000 C 
BRANCH   2   3
ATOM      3  C   UNL     1      -2.190  27.400  26.014  1.00  0.00     0.000 C 
BRANCH   3   4
ATOM      4  C   UNL     1      -3.502  26.636  26.259  1.00  0.00     0.000 C 
BRANCH   4   5
ATOM      5  C   UNL     1      -3.779  25.576  25.179  1.00  0.00     0.000 C 
BRANCH   5   6
ATOM      6  C   UNL     1      -3.560  24.140  25.688  1.00  0.00     0.000 C 
BRANCH   6   7
ATOM      7  C   UNL     1      -4.669  23.681  26.649  1.00  0.00     0.000 C 
BRANCH   7   8
ATOM      8  C   UNL     1      -6.046  23.590  25.965  1.00  0.00     0.000 C 
BRANCH   8   9
ATOM      9  C   UNL     1      -6.954  22.528  26.605  1.00  0.00     0.000 C 
BRANCH   9  10
ATOM     10  C   UNL     1      -8.436  22.934  26.595  1.00  0.00     0.006 C 
BRANCH  10  11
ATOM     11  C   UNL     1      -8.789  23.689  25.311  1.00  0.00     0.053 C 
BRANCH  11  12
ATOM     12  C   UNL     1      -9.863  22.969  24.559  1.00  0.00     0.041 C 
ATOM     13  O   UNL     1     -10.418  21.957  25.061  1.00  0.00    -0.550 OA
ATOM     14  O   UNL     1     -10.285  23.443  23.323  1.00  0.00    -0.550 OA
ENDBRANCH  11  12
ENDBRANCH  10  11
ENDBRANCH   9  10
ENDBRANCH   8   9
ENDBRANCH   7   8
ENDBRANCH   6   7
ENDBRANCH   5   6
ENDBRANCH   4   5
ENDBRANCH   3   4
ENDBRANCH   2   3
ENDBRANCH   1   2
BRANCH   1  15
ATOM     15  C   UNL     1      -0.510  27.775  22.502  1.00  0.00     0.000 C 
BRANCH  15  16
ATOM     16  C   UNL     1       0.714  27.089  21.876  1.00  0.00     0.000 C 
BRANCH  16  17
ATOM     17  C   UNL     1       0.626  26.999  20.343  1.00  0.00     0.000 C 
BRANCH  17  18
ATOM     18  C   UNL     1       1.853  26.310  19.721  1.00  0.00    -0.000 C 
BRANCH  18  19
ATOM     19  C   UNL     1       1.517  25.534  18.434  1.00  0.00    -0.000 C 
BRANCH  19  20
ATOM     20  C   UNL     1       0.121  24.884  18.409  1.00  0.00    -0.000 C 
BRANCH  20  21
ATOM     21  C   UNL     1       0.160  23.394  18.034  1.00  0.00    -0.000 C 
BRANCH  21  22
ATOM     22  C   UNL     1       1.103  22.618  18.965  1.00  0.00    -0.000 C 
BRANCH  22  23
ATOM     23  C   UNL     1       0.366  21.597  19.852  1.00  0.00    -0.000 C 
BRANCH  23  24
ATOM     24  C   UNL     1      -0.007  22.107  21.256  1.00  0.00    -0.000 C 
BRANCH  24  25
ATOM     25  C   UNL     1       0.860  23.288  21.713  1.00  0.00    -0.003 C 
ATOM     26  C   UNL     1       0.432  23.783  23.092  1.00  0.00     0.004 C 
ENDBRANCH  24  25
ENDBRANCH  23  24
ENDBRANCH  22  23
ENDBRANCH  21  22
ENDBRANCH  20  21
ENDBRANCH  19  20
ENDBRANCH  18  19
ENDBRANCH  17  18
ENDBRANCH  16  17
ENDBRANCH  15  16
ENDBRANCH   1  15
TORSDOF 22
ENDMDL
MODEL 3
REMARK VINA RESULT:    -3.234      2.233      3.142
REMARK INTER + INTRA:          -8.824
REMARK INTER:                  -7.595
REMARK INTRA:                  -1.229
REMARK UNBOUND:                -1.431
REMARK SMILES CCCCCCCCCCCCCCCCCCCCCCCC(=O)[O-]
REMARK SMILES IDX 13 1 14 2 15 3 16 4 17 5 18 6 19 7 20 8 21 9 22 10 23 11
REMARK SMILES IDX 24 12 25 13 26 14 12 15 11 16 10 17 9 18 8 19 7 20 6 21 5 22
REMARK SMILES IDX 4 23 3 24 2 25 1 26
REMARK H PARENT
REMARK Flexibility Score: inf
ROOT
ATOM      1  C   UNL     1      -1.579  27.394  25.879  1.00  0.00     0.000 C 
ENDROOT
BRANCH   1   2
ATOM      2  C   UNL     1      -0.646  27.988  24.813  1.00  0.00     0.000 C 
BRANCH   2   3
ATOM      3  C   UNL     1      -0.421  27.038  23.624  1.00  0.00     0.000 C 
BRANCH   3   4
ATOM      4  C   UNL     1       0.327  25.756  24.030  1.00  0.00     0.000 C 
BRANCH   4   5
ATOM      5  C   UNL     1       1.728  25.665  23.401  1.00  0.00     0.000 C 
BRANCH   5   6
ATOM      6  C   UNL     1       1.927  24.378  22.581  1.00  0.00     0.000 C 
BRANCH   6   7
ATOM      7  C   UNL     1       0.670  23.491  22.565  1.00  0.00     0.000 C 
BRANCH   7   8
ATOM      8  C   UNL     1       0.562  22.640  21.286  1.00  0.00     0.000 C 
BRANCH   8   9
ATOM      9  C   UNL     1       1.813  22.745  20.401  1.00  0.00     0.000 C 
BRANCH   9  10
ATOM     10  C   UNL     1       1.498  23.271  18.992  1.00  0.00     0.006 C 
BRANCH  10  11
ATOM     11  C   UNL     1       1.554  22.141  17.959  1.00  0.00     0.053 C 
BRANCH  11  12
ATOM     12  C   UNL     1       0.286  21.348  17.981  1.00  0.00     0.041 C 
ATOM     13  O   UNL     1       0.309  20.126  18.280  1.00  0.00    -0.550 OA
ATOM     14  O   UNL     1      -0.928  21.969  17.716  1.00  0.00    -0.550 OA
ENDBRANCH  11  12
ENDBRANCH  10  11
ENDBRANCH   9  10
ENDBRANCH   8   9
ENDBRANCH   7   8
ENDBRANCH   6   7
ENDBRANCH   5   6
ENDBRANCH   4   5
ENDBRANCH   3   4
ENDBRANCH   2   3
ENDBRANCH   1   2
BRANCH   1  15
ATOM     15  C   UNL     1      -2.904  26.937  25.256  1.00  0.00     0.000 C 
BRANCH  15  16
ATOM     16  C   UNL     1      -3.580  25.867  26.128  1.00  0.00     0.000 C 
BRANCH  16  17
ATOM     17  C   UNL     1      -3.783  24.536  25.384  1.00  0.00     0.000 C 
BRANCH  17  18
ATOM     18  C   UNL     1      -4.586  23.516  26.210  1.00  0.00    -0.000 C 
BRANCH  18  19
ATOM     19  C   UNL     1      -6.107  23.739  26.124  1.00  0.00    -0.000 C 
BRANCH  19  20
ATOM     20  C   UNL     1      -6.970  22.551  26.590  1.00  0.00    -0.000 C 
BRANCH  20  21
ATOM     21  C   UNL     1      -8.453  22.915  26.755  1.00  0.00    -0.000 C 
BRANCH  21  22
ATOM     22  C   UNL     1      -9.042  23.433  25.435  1.00  0.00    -0.000 C 
BRANCH  22  23
ATOM     23  C   UNL     1      -9.907  22.384  24.711  1.00  0.00    -0.000 C 
BRANCH  23  24
ATOM     24  C   UNL     1     -11.106  22.956  23.932  1.00  0.00    -0.000 C 
BRANCH  24  25
ATOM     25  C   UNL     1     -10.692  23.670  22.638  1.00  0.00    -0.003 C 
ATOM     26  C   UNL     1     -11.711  23.428  21.527  1.00  0.00     0.004 C 
ENDBRANCH  24  25
ENDBRANCH  23  24
ENDBRANCH  22  23
ENDBRANCH  21  22
ENDBRANCH  20  21
ENDBRANCH  19  20
ENDBRANCH  18  19
ENDBRANCH  17  18
ENDBRANCH  16  17
ENDBRANCH  15  16
ENDBRANCH   1  15
TORSDOF 22
ENDMDL
MODEL 4
REMARK VINA RESULT:    -3.223      3.322      9.316
REMARK INTER + INTRA:          -8.799
REMARK INTER:                  -7.328
REMARK INTRA:                  -1.471
REMARK UNBOUND:                -1.431
REMARK SMILES CCCCCCCCCCCCCCCCCCCCCCCC(=O)[O-]
REMARK SMILES IDX 13 1 14 2 15 3 16 4 17 5 18 6 19 7 20 8 21 9 22 10 23 11
REMARK SMILES IDX 24 12 25 13 26 14 12 15 11 16 10 17 9 18 8 19 7 20 6 21 5 22
REMARK SMILES IDX 4 23 3 24 2 25 1 26
REMARK H PARENT
REMARK Flexibility Score: inf
ROOT
ATOM      1  C   UNL     1       0.550  24.396  22.951  1.00  0.00     0.000 C 
ENDROOT
BRANCH   1   2
ATOM      2  C   UNL     1       1.177  25.771  22.671  1.00  0.00     0.000 C 
BRANCH   2   3
ATOM      3  C   UNL     1       0.208  26.933  22.948  1.00  0.00     0.000 C 
BRANCH   3   4
ATOM      4  C   UNL     1      -0.461  26.825  24.329  1.00  0.00     0.000 C 
BRANCH   4   5
ATOM      5  C   UNL     1      -1.995  26.888  24.249  1.00  0.00     0.000 C 
BRANCH   5   6
ATOM      6  C   UNL     1      -2.636  27.397  25.552  1.00  0.00     0.000 C 
BRANCH   6   7
ATOM      7  C   UNL     1      -3.470  26.316  26.260  1.00  0.00     0.000 C 
BRANCH   7   8
ATOM      8  C   UNL     1      -3.521  24.995  25.470  1.00  0.00     0.000 C 
BRANCH   8   9
ATOM      9  C   UNL     1      -4.325  23.905  26.194  1.00  0.00     0.000 C 
BRANCH   9  10
ATOM     10  C   UNL     1      -5.771  23.800  25.684  1.00  0.00     0.006 C 
BRANCH  10  11
ATOM     11  C   UNL     1      -6.594  22.852  26.561  1.00  0.00     0.053 C 
BRANCH  11  12
ATOM     12  C   UNL     1      -8.054  23.144  26.421  1.00  0.00     0.041 C 
ATOM     13  O   UNL     1      -8.475  23.813  25.442  1.00  0.00    -0.550 OA
ATOM     14  O   UNL     1      -8.957  22.636  27.347  1.00  0.00    -0.550 OA
ENDBRANCH  11  12
ENDBRANCH  10  11
ENDBRANCH   9  10
ENDBRANCH   8   9
ENDBRANCH   7   8
ENDBRANCH   6   7
ENDBRANCH   5   6
ENDBRANCH   4   5
ENDBRANCH   3   4
ENDBRANCH   2   3
ENDBRANCH   1   2
BRANCH   1  15
ATOM     15  C   UNL     1       1.206  23.309  22.091  1.00  0.00     0.000 C 
BRANCH  15  16
ATOM     16  C   UNL     1       0.162  22.293  21.601  1.00  0.00     0.000 C 
BRANCH  16  17
ATOM     17  C   UNL     1       0.242  22.042  20.086  1.00  0.00     0.000 C 
BRANCH  17  18
ATOM     18  C   UNL     1       0.451  23.339  19.284  1.00  0.00    -0.000 C 
BRANCH  18  19
ATOM     19  C   UNL     1       0.555  23.095  17.767  1.00  0.00    -0.000 C 
BRANCH  19  20
ATOM     20  C   UNL     1       1.048  21.694  17.362  1.00  0.00    -0.000 C 
BRANCH  20  21
ATOM     21  C   UNL     1      -0.099  20.698  17.125  1.00  0.00    -0.000 C 
BRANCH  21  22
ATOM     22  C   UNL     1       0.367  19.255  17.370  1.00  0.00    -0.000 C 
BRANCH  22  23
ATOM     23  C   UNL     1       1.757  19.177  18.028  1.00  0.00    -0.000 C 
BRANCH  23  24
ATOM     24  C   UNL     1       1.749  18.827  19.527  1.00  0.00    -0.000 C 
BRANCH  24  25
ATOM     25  C   UNL     1       0.684  17.782  19.891  1.00  0.00    -0.003 C 
ATOM     26  C   UNL     1       1.311  16.583  20.599  1.00  0.00     0.004 C 
ENDBRANCH  24  25
ENDBRANCH  23  24
ENDBRANCH  22  23
ENDBRANCH  21  22
ENDBRANCH  20  21
ENDBRANCH  19  20
ENDBRANCH  18  19
ENDBRANCH  17  18
ENDBRANCH  16  17
ENDBRANCH  15  16
ENDBRANCH   1  15
TORSDOF 22
ENDMDL
MODEL 5
REMARK VINA RESULT:    -3.176      3.346      9.476
REMARK INTER + INTRA:          -8.693
REMARK INTER:                  -7.375
REMARK INTRA:                  -1.318
REMARK UNBOUND:                -1.431
REMARK SMILES CCCCCCCCCCCCCCCCCCCCCCCC(=O)[O-]
REMARK SMILES IDX 13 1 14 2 15 3 16 4 17 5 18 6 19 7 20 8 21 9 22 10 23 11
REMARK SMILES IDX 24 12 25 13 26 14 12 15 11 16 10 17 9 18 8 19 7 20 6 21 5 22
REMARK SMILES IDX 4 23 3 24 2 25 1 26
REMARK H PARENT
REMARK Flexibility Score: inf
ROOT
ATOM      1  C   UNL     1      -0.240  27.351  25.242  1.00  0.00     0.000 C 
ENDROOT
BRANCH   1   2
ATOM      2  C   UNL     1      -1.453  27.815  26.063  1.00  0.00     0.000 C 
BRANCH   2   3
ATOM      3  C   UNL     1      -2.792  27.382  25.442  1.00  0.00     0.000 C 
BRANCH   3   4
ATOM      4  C   UNL     1      -3.471  26.252  26.236  1.00  0.00     0.000 C 
BRANCH   4   5
ATOM      5  C   UNL     1      -4.223  25.263  25.330  1.00  0.00     0.000 C 
BRANCH   5   6
ATOM      6  C   UNL     1      -4.047  23.800  25.777  1.00  0.00     0.000 C 
BRANCH   6   7
ATOM      7  C   UNL     1      -5.234  23.294  26.613  1.00  0.00     0.000 C 
BRANCH   7   8
ATOM      8  C   UNL     1      -6.584  23.462  25.891  1.00  0.00     0.000 C 
BRANCH   8   9
ATOM      9  C   UNL     1      -7.700  22.615  26.520  1.00  0.00     0.000 C 
BRANCH   9  10
ATOM     10  C   UNL     1      -9.101  23.175  26.233  1.00  0.00     0.006 C 
BRANCH  10  11
ATOM     11  C   UNL     1      -9.706  22.525  24.985  1.00  0.00     0.053 C 
BRANCH  11  12
ATOM     12  C   UNL     1     -10.063  23.567  23.973  1.00  0.00     0.041 C 
ATOM     13  O   UNL     1      -9.498  24.691  23.995  1.00  0.00    -0.550 OA
ATOM     14  O   UNL     1     -10.986  23.280  22.975  1.00  0.00    -0.550 OA
ENDBRANCH  11  12
ENDBRANCH  10  11
ENDBRANCH   9  10
ENDBRANCH   8   9
ENDBRANCH   7   8
ENDBRANCH   6   7
ENDBRANCH   5   6
ENDBRANCH   4   5
ENDBRANCH   3   4
ENDBRANCH   2   3
ENDBRANCH   1   2
BRANCH   1  15
ATOM     15  C   UNL     1      -0.685  26.697  23.928  1.00  0.00     0.000 C 
BRANCH  15  16
ATOM     16  C   UNL     1       0.020  25.347  23.721  1.00  0.00     0.000 C 
BRANCH  16  17
ATOM     17  C   UNL     1       1.485  25.502  23.283  1.00  0.00     0.000 C 
BRANCH  17  18
ATOM     18  C   UNL     1       1.909  24.439  22.255  1.00  0.00    -0.000 C 
BRANCH  18  19
ATOM     19  C   UNL     1       1.282  24.663  20.867  1.00  0.00    -0.000 C 
BRANCH  19  20
ATOM     20  C   UNL     1       1.467  23.504  19.870  1.00  0.00    -0.000 C 
BRANCH  20  21
ATOM     21  C   UNL     1       1.433  22.123  20.542  1.00  0.00    -0.000 C 
BRANCH  21  22
ATOM     22  C   UNL     1       1.625  21.004  19.507  1.00  0.00    -0.000 C 
BRANCH  22  23
ATOM     23  C   UNL     1       0.412  20.837  18.573  1.00  0.00    -0.000 C 
BRANCH  23  24
ATOM     24  C   UNL     1       0.484  19.625  17.625  1.00  0.00    -0.000 C 
BRANCH  24  25
ATOM     25  C   UNL     1       1.151  18.401  18.269  1.00  0.00    -0.003 C 
ATOM     26  C   UNL     1       0.160  17.627  19.134  1.00  0.00     0.004 C 
ENDBRANCH  24  25
ENDBRANCH  23  24
ENDBRANCH  22  23
ENDBRANCH  21  22
ENDBRANCH  20  21
ENDBRANCH  19  20
ENDBRANCH  18  19
ENDBRANCH  17  18
ENDBRANCH  16  17
ENDBRANCH  15  16
ENDBRANCH   1  15
TORSDOF 22
ENDMDL
MODEL 6
REMARK VINA RESULT:    -3.147      2.290      2.910
REMARK INTER + INTRA:          -8.626
REMARK INTER:                  -7.547
REMARK INTRA:                  -1.078
REMARK UNBOUND:                -1.431
REMARK SMILES CCCCCCCCCCCCCCCCCCCCCCCC(=O)[O-]
REMARK SMILES IDX 13 1 14 2 15 3 16 4 17 5 18 6 19 7 20 8 21 9 22 10 23 11
REMARK SMILES IDX 24 12 25 13 26 14 12 15 11 16 10 17 9 18 8 19 7 20 6 21 5 22
REMARK SMILES IDX 4 23 3 24 2 25 1 26
REMARK H PARENT
REMARK Flexibility Score: inf
ROOT
ATOM      1  C   UNL     1      -0.916  26.766  23.979  1.00  0.00     0.000 C 
ENDROOT
BRANCH   1   2
ATOM      2  C   UNL     1       0.520  27.019  23.495  1.00  0.00     0.000 C 
BRANCH   2   3
ATOM      3  C   UNL     1       0.622  27.113  21.963  1.00  0.00     0.000 C 
BRANCH   3   4
ATOM      4  C   UNL     1       1.857  26.380  21.410  1.00  0.00     0.000 C 
BRANCH   4   5
ATOM      5  C   UNL     1       1.485  25.139  20.581  1.00  0.00     0.000 C 
BRANCH   5   6
ATOM      6  C   UNL     1       1.229  23.898  21.454  1.00  0.00     0.000 C 
BRANCH   6   7
ATOM      7  C   UNL     1       1.565  22.586  20.725  1.00  0.00     0.000 C 
BRANCH   7   8
ATOM      8  C   UNL     1       0.310  21.774  20.356  1.00  0.00     0.000 C 
BRANCH   8   9
ATOM      9  C   UNL     1       0.230  21.463  18.854  1.00  0.00     0.000 C 
BRANCH   9  10
ATOM     10  C   UNL     1       0.422  19.969  18.549  1.00  0.00     0.006 C 
BRANCH  10  11
ATOM     11  C   UNL     1       1.044  19.241  19.744  1.00  0.00     0.053 C 
BRANCH  11  12
ATOM     12  C   UNL     1       0.560  17.827  19.807  1.00  0.00     0.041 C 
ATOM     13  O   UNL     1      -0.085  17.336  18.843  1.00  0.00    -0.550 OA
ATOM     14  O   UNL     1       0.860  17.036  20.908  1.00  0.00    -0.550 OA
ENDBRANCH  11  12
ENDBRANCH  10  11
ENDBRANCH   9  10
ENDBRANCH   8   9
ENDBRANCH   7   8
ENDBRANCH   6   7
ENDBRANCH   5   6
ENDBRANCH   4   5
ENDBRANCH   3   4
ENDBRANCH   2   3
ENDBRANCH   1   2
BRANCH   1  15
ATOM     15  C   UNL     1      -1.485  28.006  24.681  1.00  0.00     0.000 C 
BRANCH  15  16
ATOM     16  C   UNL     1      -2.815  27.680  25.378  1.00  0.00     0.000 C 
BRANCH  16  17
ATOM     17  C   UNL     1      -2.830  26.275  26.003  1.00  0.00     0.000 C 
BRANCH  17  18
ATOM     18  C   UNL     1      -3.941  25.383  25.421  1.00  0.00    -0.000 C 
BRANCH  18  19
ATOM     19  C   UNL     1      -3.814  23.910  25.852  1.00  0.00    -0.000 C 
BRANCH  19  20
ATOM     20  C   UNL     1      -5.053  23.324  26.554  1.00  0.00    -0.000 C 
BRANCH  20  21
ATOM     21  C   UNL     1      -6.371  23.700  25.859  1.00  0.00    -0.000 C 
BRANCH  21  22
ATOM     22  C   UNL     1      -7.563  23.002  26.529  1.00  0.00    -0.000 C 
BRANCH  22  23
ATOM     23  C   UNL     1      -8.860  23.107  25.706  1.00  0.00    -0.000 C 
BRANCH  23  24
ATOM     24  C   UNL     1      -8.932  24.318  24.758  1.00  0.00    -0.000 C 
BRANCH  24  25
ATOM     25  C   UNL     1     -10.065  24.205  23.728  1.00  0.00    -0.003 C 
ATOM     26  C   UNL     1     -10.699  22.817  23.759  1.00  0.00     0.004 C 
ENDBRANCH  24  25
ENDBRANCH  23  24
ENDBRANCH  22  23
ENDBRANCH  21  22
ENDBRANCH  20  21
ENDBRANCH  19  20
ENDBRANCH  18  19
ENDBRANCH  17  18
ENDBRANCH  16  17
ENDBRANCH  15  16
ENDBRANCH   1  15
TORSDOF 22
ENDMDL
MODEL 7
REMARK VINA RESULT:    -3.076      3.067      9.497
REMARK INTER + INTRA:          -8.464
REMARK INTER:                  -6.997
REMARK INTRA:                  -1.467
REMARK UNBOUND:                -1.431
REMARK SMILES CCCCCCCCCCCCCCCCCCCCCCCC(=O)[O-]
REMARK SMILES IDX 13 1 14 2 15 3 16 4 17 5 18 6 19 7 20 8 21 9 22 10 23 11
REMARK SMILES IDX 24 12 25 13 26 14 12 15 11 16 10 17 9 18 8 19 7 20 6 21 5 22
REMARK SMILES IDX 4 23 3 24 2 25 1 26
REMARK H PARENT
REMARK Flexibility Score: inf
ROOT
ATOM      1  C   UNL     1      -1.469  27.838  26.132  1.00  0.00     0.000 C 
ENDROOT
BRANCH   1   2
ATOM      2  C   UNL     1      -2.825  27.117  26.154  1.00  0.00     0.000 C 
BRANCH   2   3
ATOM      3  C   UNL     1      -2.963  26.077  25.029  1.00  0.00     0.000 C 
BRANCH   3   4
ATOM      4  C   UNL     1      -2.747  24.638  25.528  1.00  0.00     0.000 C 
BRANCH   4   5
ATOM      5  C   UNL     1      -3.886  24.151  26.439  1.00  0.00     0.000 C 
BRANCH   5   6
ATOM      6  C   UNL     1      -5.129  23.708  25.648  1.00  0.00     0.000 C 
BRANCH   6   7
ATOM      7  C   UNL     1      -6.122  22.910  26.510  1.00  0.00     0.000 C 
BRANCH   7   8
ATOM      8  C   UNL     1      -7.583  23.340  26.283  1.00  0.00     0.000 C 
BRANCH   8   9
ATOM      9  C   UNL     1      -8.565  22.161  26.369  1.00  0.00     0.000 C 
BRANCH   9  10
ATOM     10  C   UNL     1      -9.993  22.549  25.956  1.00  0.00     0.006 C 
BRANCH  10  11
ATOM     11  C   UNL     1     -10.271  22.149  24.504  1.00  0.00     0.053 C 
BRANCH  11  12
ATOM     12  C   UNL     1     -10.374  23.362  23.636  1.00  0.00     0.041 C 
ATOM     13  O   UNL     1      -9.849  24.447  24.000  1.00  0.00    -0.550 OA
ATOM     14  O   UNL     1     -11.008  23.284  22.403  1.00  0.00    -0.550 OA
ENDBRANCH  11  12
ENDBRANCH  10  11
ENDBRANCH   9  10
ENDBRANCH   8   9
ENDBRANCH   7   8
ENDBRANCH   6   7
ENDBRANCH   5   6
ENDBRANCH   4   5
ENDBRANCH   3   4
ENDBRANCH   2   3
ENDBRANCH   1   2
BRANCH   1  15
ATOM     15  C   UNL     1      -1.002  28.088  24.693  1.00  0.00     0.000 C 
BRANCH  15  16
ATOM     16  C   UNL     1       0.354  27.415  24.431  1.00  0.00     0.000 C 
BRANCH  16  17
ATOM     17  C   UNL     1       0.340  26.516  23.183  1.00  0.00     0.000 C 
BRANCH  17  18
ATOM     18  C   UNL     1       0.399  25.019  23.533  1.00  0.00    -0.000 C 
BRANCH  18  19
ATOM     19  C   UNL     1       1.511  24.270  22.778  1.00  0.00    -0.000 C 
BRANCH  19  20
ATOM     20  C   UNL     1       1.063  23.563  21.485  1.00  0.00    -0.000 C 
BRANCH  20  21
ATOM     21  C   UNL     1       0.941  24.520  20.289  1.00  0.00    -0.000 C 
BRANCH  21  22
ATOM     22  C   UNL     1       1.592  23.917  19.035  1.00  0.00    -0.000 C 
BRANCH  22  23
ATOM     23  C   UNL     1       1.707  24.924  17.876  1.00  0.00    -0.000 C 
BRANCH  23  24
ATOM     24  C   UNL     1       1.108  26.314  18.160  1.00  0.00    -0.000 C 
BRANCH  24  25
ATOM     25  C   UNL     1      -0.326  26.466  17.632  1.00  0.00    -0.003 C 
ATOM     26  C   UNL     1      -1.161  27.348  18.556  1.00  0.00     0.004 C 
ENDBRANCH  24  25
ENDBRANCH  23  24
ENDBRANCH  22  23
ENDBRANCH  21  22
ENDBRANCH  20  21
ENDBRANCH  19  20
ENDBRANCH  18  19
ENDBRANCH  17  18
ENDBRANCH  16  17
ENDBRANCH  15  16
ENDBRANCH   1  15
TORSDOF 22
ENDMDL
MODEL 8
REMARK VINA RESULT:    -3.052      2.677      4.017
REMARK INTER + INTRA:          -8.409
REMARK INTER:                  -7.109
REMARK INTRA:                  -1.300
REMARK UNBOUND:                -1.431
REMARK SMILES CCCCCCCCCCCCCCCCCCCCCCCC(=O)[O-]
REMARK SMILES IDX 13 1 14 2 15 3 16 4 17 5 18 6 19 7 20 8 21 9 22 10 23 11
REMARK SMILES IDX 24 12 25 13 26 14 12 15 11 16 10 17 9 18 8 19 7 20 6 21 5 22
REMARK SMILES IDX 4 23 3 24 2 25 1 26
REMARK H PARENT
REMARK Flexibility Score: inf
ROOT
ATOM      1  C   UNL     1       0.471  24.154  23.290  1.00  0.00     0.000 C 
ENDROOT
BRANCH   1   2
ATOM      2  C   UNL     1       1.696  23.700  22.481  1.00  0.00     0.000 C 
BRANCH   2   3
ATOM      3  C   UNL     1       1.525  23.921  20.969  1.00  0.00     0.000 C 
BRANCH   3   4
ATOM      4  C   UNL     1       0.551  22.913  20.334  1.00  0.00     0.000 C 
BRANCH   4   5
ATOM      5  C   UNL     1       0.394  23.119  18.817  1.00  0.00     0.000 C 
BRANCH   5   6
ATOM      6  C   UNL     1      -0.531  22.072  18.171  1.00  0.00     0.000 C 
BRANCH   6   7
ATOM      7  C   UNL     1       0.243  21.040  17.333  1.00  0.00     0.000 C 
BRANCH   7   8
ATOM      8  C   UNL     1       1.707  20.887  17.787  1.00  0.00     0.000 C 
BRANCH   8   9
ATOM      9  C   UNL     1       1.908  19.696  18.736  1.00  0.00     0.000 C 
BRANCH   9  10
ATOM     10  C   UNL     1       1.230  18.414  18.228  1.00  0.00     0.006 C 
BRANCH  10  11
ATOM     11  C   UNL     1       0.284  17.837  19.285  1.00  0.00     0.053 C 
BRANCH  11  12
ATOM     12  C   UNL     1       1.015  16.887  20.180  1.00  0.00     0.041 C 
ATOM     13  O   UNL     1       1.890  16.116  19.705  1.00  0.00    -0.550 OA
ATOM     14  O   UNL     1       0.763  16.884  21.546  1.00  0.00    -0.550 OA
ENDBRANCH  11  12
ENDBRANCH  10  11
ENDBRANCH   9  10
ENDBRANCH   8   9
ENDBRANCH   7   8
ENDBRANCH   6   7
ENDBRANCH   5   6
ENDBRANCH   4   5
ENDBRANCH   3   4
ENDBRANCH   2   3
ENDBRANCH   1   2
BRANCH   1  15
ATOM     15  C   UNL     1       0.319  25.679  23.245  1.00  0.00     0.000 C 
BRANCH  15  16
ATOM     16  C   UNL     1      -0.325  26.205  24.538  1.00  0.00     0.000 C 
BRANCH  16  17
ATOM     17  C   UNL     1      -1.757  26.720  24.323  1.00  0.00     0.000 C 
BRANCH  17  18
ATOM     18  C   UNL     1      -2.384  27.277  25.613  1.00  0.00    -0.000 C 
BRANCH  18  19
ATOM     19  C   UNL     1      -3.489  26.369  26.183  1.00  0.00    -0.000 C 
BRANCH  19  20
ATOM     20  C   UNL     1      -3.590  24.976  25.535  1.00  0.00    -0.000 C 
BRANCH  20  21
ATOM     21  C   UNL     1      -4.332  23.957  26.413  1.00  0.00    -0.000 C 
BRANCH  21  22
ATOM     22  C   UNL     1      -5.533  23.358  25.666  1.00  0.00    -0.000 C 
BRANCH  22  23
ATOM     23  C   UNL     1      -6.584  22.748  26.611  1.00  0.00    -0.000 C 
BRANCH  23  24
ATOM     24  C   UNL     1      -7.947  23.465  26.616  1.00  0.00    -0.000 C 
BRANCH  24  25
ATOM     25  C   UNL     1      -8.794  23.149  25.375  1.00  0.00    -0.003 C 
ATOM     26  C   UNL     1      -9.142  24.423  24.608  1.00  0.00     0.004 C 
ENDBRANCH  24  25
ENDBRANCH  23  24
ENDBRANCH  22  23
ENDBRANCH  21  22
ENDBRANCH  20  21
ENDBRANCH  19  20
ENDBRANCH  18  19
ENDBRANCH  17  18
ENDBRANCH  16  17
ENDBRANCH  15  16
ENDBRANCH   1  15
TORSDOF 22
ENDMDL
MODEL 9
REMARK VINA RESULT:    -3.035      2.948      9.672
REMARK INTER + INTRA:          -8.369
REMARK INTER:                  -7.230
REMARK INTRA:                  -1.139
REMARK UNBOUND:                -1.431
REMARK SMILES CCCCCCCCCCCCCCCCCCCCCCCC(=O)[O-]
REMARK SMILES IDX 13 1 14 2 15 3 16 4 17 5 18 6 19 7 20 8 21 9 22 10 23 11
REMARK SMILES IDX 24 12 25 13 26 14 12 15 11 16 10 17 9 18 8 19 7 20 6 21 5 22
REMARK SMILES IDX 4 23 3 24 2 25 1 26
REMARK H PARENT
REMARK Flexibility Score: inf
ROOT
ATOM      1  C   UNL     1      -1.427  26.380  24.483  1.00  0.00     0.000 C 
ENDROOT
BRANCH   1   2
ATOM      2  C   UNL     1      -2.258  27.120  25.543  1.00  0.00     0.000 C 
BRANCH   2   3
ATOM      3  C   UNL     1      -3.493  26.322  25.993  1.00  0.00     0.000 C 
BRANCH   3   4
ATOM      4  C   UNL     1      -3.444  24.854  25.535  1.00  0.00     0.000 C 
BRANCH   4   5
ATOM      5  C   UNL     1      -4.346  23.940  26.381  1.00  0.00     0.000 C 
BRANCH   5   6
ATOM      6  C   UNL     1      -5.656  23.572  25.662  1.00  0.00     0.000 C 
BRANCH   6   7
ATOM      7  C   UNL     1      -6.630  22.803  26.571  1.00  0.00     0.000 C 
BRANCH   7   8
ATOM      8  C   UNL     1      -8.035  23.433  26.602  1.00  0.00     0.000 C 
BRANCH   8   9
ATOM      9  C   UNL     1      -9.154  22.382  26.552  1.00  0.00     0.000 C 
BRANCH   9  10
ATOM     10  C   UNL     1      -9.470  21.921  25.120  1.00  0.00     0.006 C 
BRANCH  10  11
ATOM     11  C   UNL     1     -10.789  22.523  24.629  1.00  0.00     0.053 C 
BRANCH  11  12
ATOM     12  C   UNL     1     -10.540  23.506  23.529  1.00  0.00     0.041 C 
ATOM     13  O   UNL     1     -11.107  23.366  22.414  1.00  0.00    -0.550 OA
ATOM     14  O   UNL     1      -9.717  24.603  23.750  1.00  0.00    -0.550 OA
ENDBRANCH  11  12
ENDBRANCH  10  11
ENDBRANCH   9  10
ENDBRANCH   8   9
ENDBRANCH   7   8
ENDBRANCH   6   7
ENDBRANCH   5   6
ENDBRANCH   4   5
ENDBRANCH   3   4
ENDBRANCH   2   3
ENDBRANCH   1   2
BRANCH   1  15
ATOM     15  C   UNL     1      -1.059  27.314  23.324  1.00  0.00     0.000 C 
BRANCH  15  16
ATOM     16  C   UNL     1       0.407  27.121  22.907  1.00  0.00     0.000 C 
BRANCH  16  17
ATOM     17  C   UNL     1       0.731  27.768  21.550  1.00  0.00     0.000 C 
BRANCH  17  18
ATOM     18  C   UNL     1      -0.533  28.077  20.728  1.00  0.00    -0.000 C 
BRANCH  18  19
ATOM     19  C   UNL     1      -0.394  27.682  19.246  1.00  0.00    -0.000 C 
BRANCH  19  20
ATOM     20  C   UNL     1       0.374  26.374  18.986  1.00  0.00    -0.000 C 
BRANCH  20  21
ATOM     21  C   UNL     1      -0.329  25.455  17.975  1.00  0.00    -0.000 C 
BRANCH  21  22
ATOM     22  C   UNL     1       0.516  24.205  17.688  1.00  0.00    -0.000 C 
BRANCH  22  23
ATOM     23  C   UNL     1       0.866  23.412  18.961  1.00  0.00    -0.000 C 
BRANCH  23  24
ATOM     24  C   UNL     1      -0.064  22.222  19.262  1.00  0.00    -0.000 C 
BRANCH  24  25
ATOM     25  C   UNL     1       0.578  21.180  20.188  1.00  0.00    -0.003 C 
ATOM     26  C   UNL     1       0.643  19.812  19.515  1.00  0.00     0.004 C 
ENDBRANCH  24  25
ENDBRANCH  23  24
ENDBRANCH  22  23
ENDBRANCH  21  22
ENDBRANCH  20  21
ENDBRANCH  19  20
ENDBRANCH  18  19
ENDBRANCH  17  18
ENDBRANCH  16  17
ENDBRANCH  15  16
ENDBRANCH   1  15
TORSDOF 22
ENDMDL
