MODEL 1
REMARK VINA RESULT:    -3.942      0.000      0.000
REMARK INTER + INTRA:         -13.230
REMARK INTER:                  -9.013
REMARK INTRA:                  -4.217
REMARK UNBOUND:                -4.217
REMARK SMILES CCCCCCCCCCCCCCCCCCCCCCCC(=O)[O-]
REMARK SMILES IDX 13 1 14 2 15 3 16 4 17 5 18 6 19 7 20 8 21 9 22 10 23 11
REMARK SMILES IDX 24 12 25 13 26 14 12 15 11 16 10 17 9 18 8 19 7 20 6 21 5 22
REMARK SMILES IDX 4 23 3 24 2 25 1 26
REMARK H PARENT
REMARK Flexibility Score: inf
ROOT
ATOM      1  C   UNL     1       2.998   0.847  54.793  1.00  0.00     0.000 C 
ENDROOT
BRANCH   1   2
ATOM      2  C   UNL     1       2.924   0.053  53.475  1.00  0.00     0.000 C 
BRANCH   2   3
ATOM      3  C   UNL     1       2.769  -1.473  53.640  1.00  0.00     0.000 C 
BRANCH   3   4
ATOM      4  C   UNL     1       3.694  -2.117  54.692  1.00  0.00     0.000 C 
BRANCH   4   5
ATOM      5  C   UNL     1       3.669  -3.659  54.731  1.00  0.00     0.000 C 
BRANCH   5   6
ATOM      6  C   UNL     1       3.178  -4.267  56.059  1.00  0.00     0.000 C 
BRANCH   6   7
ATOM      7  C   UNL     1       1.902  -5.124  55.942  1.00  0.00     0.000 C 
BRANCH   7   8
ATOM      8  C   UNL     1       1.333  -5.199  54.506  1.00  0.00     0.000 C 
BRANCH   8   9
ATOM      9  C   UNL     1       0.195  -4.197  54.240  1.00  0.00     0.000 C 
BRANCH   9  10
ATOM     10  C   UNL     1      -0.129  -4.064  52.741  1.00  0.00     0.006 C 
BRANCH  10  11
ATOM     11  C   UNL     1      -0.465  -2.620  52.347  1.00  0.00     0.053 C 
BRANCH  11  12
ATOM     12  C   UNL     1      -1.889  -2.479  51.902  1.00  0.00     0.041 C 
ATOM     13  O   UNL     1      -2.224  -1.529  51.145  1.00  0.00    -0.550 OA
ATOM     14  O   UNL     1      -2.851  -3.371  52.354  1.00  0.00    -0.550 OA
ENDBRANCH  11  12
ENDBRANCH  10  11
ENDBRANCH   9  10
ENDBRANCH   8   9
ENDBRANCH   7   8
ENDBRANCH   6   7
ENDBRANCH   5   6
ENDBRANCH   4   5
ENDBRANCH   3   4
ENDBRANCH   2   3
ENDBRANCH   1   2
BRANCH   1  15
ATOM     15  C   UNL     1       1.683   1.528  55.215  1.00  0.00     0.000 C 
BRANCH  15  16
ATOM     16  C   UNL     1       1.063   0.941  56.501  1.00  0.00     0.000 C 
BRANCH  16  17
ATOM     17  C   UNL     1       0.356  -0.402  56.252  1.00  0.00     0.000 C 
BRANCH  17  18
ATOM     18  C   UNL     1       0.932  -1.541  57.110  1.00  0.00    -0.000 C 
BRANCH  18  19
ATOM     19  C   UNL     1       2.203  -1.123  57.869  1.00  0.00    -0.000 C 
BRANCH  19  20
ATOM     20  C   UNL     1       2.510  -2.044  59.061  1.00  0.00    -0.000 C 
BRANCH  20  21
ATOM     21  C   UNL     1       1.241  -2.495  59.800  1.00  0.00    -0.000 C 
BRANCH  21  22
ATOM     22  C   UNL     1       0.906  -1.539  60.951  1.00  0.00    -0.000 C 
BRANCH  22  23
ATOM     23  C   UNL     1      -0.453  -0.859  60.724  1.00  0.00    -0.000 C 
BRANCH  23  24
ATOM     24  C   UNL     1      -0.325   0.501  60.021  1.00  0.00    -0.000 C 
BRANCH  24  25
ATOM     25  C   UNL     1       0.405   1.544  60.879  1.00  0.00    -0.003 C 
ATOM     26  C   UNL     1       1.704   1.989  60.214  1.00  0.00     0.004 C 
ENDBRANCH  24  25
ENDBRANCH  23  24
ENDBRANCH  22  23
ENDBRANCH  21  22
ENDBRANCH  20  21
ENDBRANCH  19  20
ENDBRANCH  18  19
ENDBRANCH  17  18
ENDBRANCH  16  17
ENDBRANCH  15  16
ENDBRANCH   1  15
TORSDOF 22
ENDMDL
MODEL 2
REMARK VINA RESULT:    -3.897      9.092     11.383
REMARK INTER + INTRA:         -13.126
REMARK INTER:                  -8.609
REMARK INTRA:                  -4.516
REMARK UNBOUND:                -4.217
REMARK SMILES CCCCCCCCCCCCCCCCCCCCCCCC(=O)[O-]
REMARK SMILES IDX 13 1 14 2 15 3 16 4 17 5 18 6 19 7 20 8 21 9 22 10 23 11
REMARK SMILES IDX 24 12 25 13 26 14 12 15 11 16 10 17 9 18 8 19 7 20 6 21 5 22
REMARK SMILES IDX 4 23 3 24 2 25 1 26
REMARK H PARENT
REMARK Flexibility Score: inf
ROOT
ATOM      1  C   UNL     1      -6.105   4.290  54.797  1.00  0.00     0.000 C 
ENDROOT
BRANCH   1   2
ATOM      2  C   UNL     1      -6.962   3.150  54.215  1.00  0.00     0.000 C 
BRANCH   2   3
ATOM      3  C   UNL     1      -6.573   2.702  52.790  1.00  0.00     0.000 C 
BRANCH   3   4
ATOM      4  C   UNL     1      -7.429   3.305  51.658  1.00  0.00     0.000 C 
BRANCH   4   5
ATOM      5  C   UNL     1      -7.072   4.754  51.268  1.00  0.00     0.000 C 
BRANCH   5   6
ATOM      6  C   UNL     1      -8.088   5.818  51.725  1.00  0.00     0.000 C 
BRANCH   6   7
ATOM      7  C   UNL     1      -9.522   5.607  51.201  1.00  0.00     0.000 C 
BRANCH   7   8
ATOM      8  C   UNL     1     -10.514   5.120  52.282  1.00  0.00     0.000 C 
BRANCH   8   9
ATOM      9  C   UNL     1      -9.965   5.222  53.716  1.00  0.00     0.000 C 
BRANCH   9  10
ATOM     10  C   UNL     1     -10.521   4.122  54.637  1.00  0.00     0.006 C 
BRANCH  10  11
ATOM     11  C   UNL     1     -10.406   4.493  56.121  1.00  0.00     0.053 C 
BRANCH  11  12
ATOM     12  C   UNL     1     -10.816   5.911  56.376  1.00  0.00     0.041 C 
ATOM     13  O   UNL     1      -9.958   6.764  56.729  1.00  0.00    -0.550 OA
ATOM     14  O   UNL     1     -12.148   6.283  56.261  1.00  0.00    -0.550 OA
ENDBRANCH  11  12
ENDBRANCH  10  11
ENDBRANCH   9  10
ENDBRANCH   8   9
ENDBRANCH   7   8
ENDBRANCH   6   7
ENDBRANCH   5   6
ENDBRANCH   4   5
ENDBRANCH   3   4
ENDBRANCH   2   3
ENDBRANCH   1   2
BRANCH   1  15
ATOM     15  C   UNL     1      -6.866   5.278  55.702  1.00  0.00     0.000 C 
BRANCH  15  16
ATOM     16  C   UNL     1      -6.057   5.747  56.930  1.00  0.00     0.000 C 
BRANCH  16  17
ATOM     17  C   UNL     1      -6.897   5.755  58.219  1.00  0.00     0.000 C 
BRANCH  17  18
ATOM     18  C   UNL     1      -6.043   5.554  59.481  1.00  0.00    -0.000 C 
BRANCH  18  19
ATOM     19  C   UNL     1      -4.692   4.883  59.180  1.00  0.00    -0.000 C 
BRANCH  19  20
ATOM     20  C   UNL     1      -4.522   3.541  59.911  1.00  0.00    -0.000 C 
BRANCH  20  21
ATOM     21  C   UNL     1      -3.836   2.477  59.041  1.00  0.00    -0.000 C 
BRANCH  21  22
ATOM     22  C   UNL     1      -4.088   2.741  57.552  1.00  0.00    -0.000 C 
BRANCH  22  23
ATOM     23  C   UNL     1      -4.825   1.561  56.900  1.00  0.00    -0.000 C 
BRANCH  23  24
ATOM     24  C   UNL     1      -6.030   1.087  57.727  1.00  0.00    -0.000 C 
BRANCH  24  25
ATOM     25  C   UNL     1      -7.237   2.029  57.610  1.00  0.00    -0.003 C 
ATOM     26  C   UNL     1      -7.893   2.253  58.969  1.00  0.00     0.004 C 
ENDBRANCH  24  25
ENDBRANCH  23  24
ENDBRANCH  22  23
ENDBRANCH  21  22
ENDBRANCH  20  21
ENDBRANCH  19  20
ENDBRANCH  18  19
ENDBRANCH  17  18
ENDBRANCH  16  17
ENDBRANCH  15  16
ENDBRANCH   1  15
TORSDOF 22
ENDMDL
MODEL 3
REMARK VINA RESULT:    -3.892      9.139     11.478
REMARK INTER + INTRA:         -13.115
REMARK INTER:                  -8.889
REMARK INTRA:                  -4.226
REMARK UNBOUND:                -4.217
REMARK SMILES CCCCCCCCCCCCCCCCCCCCCCCC(=O)[O-]
REMARK SMILES IDX 13 1 14 2 15 3 16 4 17 5 18 6 19 7 20 8 21 9 22 10 23 11
REMARK SMILES IDX 24 12 25 13 26 14 12 15 11 16 10 17 9 18 8 19 7 20 6 21 5 22
REMARK SMILES IDX 4 23 3 24 2 25 1 26
REMARK H PARENT
REMARK Flexibility Score: inf
ROOT
ATOM      1  C   UNL     1      -5.892   3.217  54.869  1.00  0.00     0.000 C 
ENDROOT
BRANCH   1   2
ATOM      2  C   UNL     1      -5.923   3.503  53.356  1.00  0.00     0.000 C 
BRANCH   2   3
ATOM      3  C   UNL     1      -6.892   2.619  52.544  1.00  0.00     0.000 C 
BRANCH   3   4
ATOM      4  C   UNL     1      -7.619   3.333  51.387  1.00  0.00     0.000 C 
BRANCH   4   5
ATOM      5  C   UNL     1      -7.263   4.825  51.211  1.00  0.00     0.000 C 
BRANCH   5   6
ATOM      6  C   UNL     1      -8.302   5.810  51.777  1.00  0.00     0.000 C 
BRANCH   6   7
ATOM      7  C   UNL     1      -9.668   5.788  51.062  1.00  0.00     0.000 C 
BRANCH   7   8
ATOM      8  C   UNL     1     -10.793   5.129  51.892  1.00  0.00     0.000 C 
BRANCH   8   9
ATOM      9  C   UNL     1     -10.409   4.872  53.360  1.00  0.00     0.000 C 
BRANCH   9  10
ATOM     10  C   UNL     1     -10.462   3.377  53.726  1.00  0.00     0.006 C 
BRANCH  10  11
ATOM     11  C   UNL     1      -9.730   3.075  55.039  1.00  0.00     0.053 C 
BRANCH  11  12
ATOM     12  C   UNL     1      -9.299   1.643  55.123  1.00  0.00     0.041 C 
ATOM     13  O   UNL     1      -9.621   0.831  54.215  1.00  0.00    -0.550 OA
ATOM     14  O   UNL     1      -8.575   1.196  56.220  1.00  0.00    -0.550 OA
ENDBRANCH  11  12
ENDBRANCH  10  11
ENDBRANCH   9  10
ENDBRANCH   8   9
ENDBRANCH   7   8
ENDBRANCH   6   7
ENDBRANCH   5   6
ENDBRANCH   4   5
ENDBRANCH   3   4
ENDBRANCH   2   3
ENDBRANCH   1   2
BRANCH   1  15
ATOM     15  C   UNL     1      -6.173   4.437  55.766  1.00  0.00     0.000 C 
BRANCH  15  16
ATOM     16  C   UNL     1      -7.091   5.492  55.113  1.00  0.00     0.000 C 
BRANCH  16  17
ATOM     17  C   UNL     1      -7.570   6.557  56.116  1.00  0.00     0.000 C 
BRANCH  17  18
ATOM     18  C   UNL     1      -9.096   6.548  56.302  1.00  0.00    -0.000 C 
BRANCH  18  19
ATOM     19  C   UNL     1      -9.512   6.236  57.750  1.00  0.00    -0.000 C 
BRANCH  19  20
ATOM     20  C   UNL     1      -9.020   4.858  58.223  1.00  0.00    -0.000 C 
BRANCH  20  21
ATOM     21  C   UNL     1      -8.362   4.911  59.610  1.00  0.00    -0.000 C 
BRANCH  21  22
ATOM     22  C   UNL     1      -7.499   6.169  59.762  1.00  0.00    -0.000 C 
BRANCH  22  23
ATOM     23  C   UNL     1      -6.015   5.851  59.523  1.00  0.00    -0.000 C 
BRANCH  23  24
ATOM     24  C   UNL     1      -5.689   4.363  59.724  1.00  0.00    -0.000 C 
BRANCH  24  25
ATOM     25  C   UNL     1      -4.436   3.922  58.953  1.00  0.00    -0.003 C 
ATOM     26  C   UNL     1      -3.702   2.805  59.690  1.00  0.00     0.004 C 
ENDBRANCH  24  25
ENDBRANCH  23  24
ENDBRANCH  22  23
ENDBRANCH  21  22
ENDBRANCH  20  21
ENDBRANCH  19  20
ENDBRANCH  18  19
ENDBRANCH  17  18
ENDBRANCH  16  17
ENDBRANCH  15  16
ENDBRANCH   1  15
TORSDOF 22
ENDMDL
MODEL 4
REMARK VINA RESULT:    -3.833      8.914     11.405
REMARK INTER + INTRA:         -12.980
REMARK INTER:                  -8.914
REMARK INTRA:                  -4.066
REMARK UNBOUND:                -4.217
REMARK SMILES CCCCCCCCCCCCCCCCCCCCCCCC(=O)[O-]
REMARK SMILES IDX 13 1 14 2 15 3 16 4 17 5 18 6 19 7 20 8 21 9 22 10 23 11
REMARK SMILES IDX 24 12 25 13 26 14 12 15 11 16 10 17 9 18 8 19 7 20 6 21 5 22
REMARK SMILES IDX 4 23 3 24 2 25 1 26
REMARK H PARENT
REMARK Flexibility Score: inf
ROOT
ATOM      1  C   UNL     1      -9.630   4.291  58.647  1.00  0.00     0.000 C 
ENDROOT
BRANCH   1   2
ATOM      2  C   UNL     1      -9.442   4.831  57.217  1.00  0.00     0.000 C 
BRANCH   2   3
ATOM      3  C   UNL     1      -8.912   6.277  57.129  1.00  0.00     0.000 C 
BRANCH   3   4
ATOM      4  C   UNL     1      -7.738   6.487  56.152  1.00  0.00     0.000 C 
BRANCH   4   5
ATOM      5  C   UNL     1      -7.471   5.314  55.186  1.00  0.00     0.000 C 
BRANCH   5   6
ATOM      6  C   UNL     1      -6.227   4.468  55.521  1.00  0.00     0.000 C 
BRANCH   6   7
ATOM      7  C   UNL     1      -5.854   3.421  54.454  1.00  0.00     0.000 C 
BRANCH   7   8
ATOM      8  C   UNL     1      -6.078   3.906  53.002  1.00  0.00     0.000 C 
BRANCH   8   9
ATOM      9  C   UNL     1      -7.123   3.082  52.230  1.00  0.00     0.000 C 
BRANCH   9  10
ATOM     10  C   UNL     1      -7.644   3.818  50.983  1.00  0.00     0.006 C 
BRANCH  10  11
ATOM     11  C   UNL     1      -7.933   5.299  51.261  1.00  0.00     0.053 C 
BRANCH  11  12
ATOM     12  C   UNL     1      -9.365   5.529  51.638  1.00  0.00     0.041 C 
ATOM     13  O   UNL     1      -9.678   6.504  52.371  1.00  0.00    -0.550 OA
ATOM     14  O   UNL     1     -10.348   4.646  51.211  1.00  0.00    -0.550 OA
ENDBRANCH  11  12
ENDBRANCH  10  11
ENDBRANCH   9  10
ENDBRANCH   8   9
ENDBRANCH   7   8
ENDBRANCH   6   7
ENDBRANCH   5   6
ENDBRANCH   4   5
ENDBRANCH   3   4
ENDBRANCH   2   3
ENDBRANCH   1   2
BRANCH   1  15
ATOM     15  C   UNL     1      -9.703   5.370  59.744  1.00  0.00     0.000 C 
BRANCH  15  16
ATOM     16  C   UNL     1      -9.298   4.863  61.144  1.00  0.00     0.000 C 
BRANCH  16  17
ATOM     17  C   UNL     1      -7.850   5.234  61.508  1.00  0.00     0.000 C 
BRANCH  17  18
ATOM     18  C   UNL     1      -7.311   6.404  60.669  1.00  0.00    -0.000 C 
BRANCH  18  19
ATOM     19  C   UNL     1      -5.958   6.084  60.010  1.00  0.00    -0.000 C 
BRANCH  19  20
ATOM     20  C   UNL     1      -6.049   4.921  59.007  1.00  0.00    -0.000 C 
BRANCH  20  21
ATOM     21  C   UNL     1      -4.782   4.054  58.993  1.00  0.00    -0.000 C 
BRANCH  21  22
ATOM     22  C   UNL     1      -5.067   2.656  59.555  1.00  0.00    -0.000 C 
BRANCH  22  23
ATOM     23  C   UNL     1      -6.578   2.414  59.690  1.00  0.00    -0.000 C 
BRANCH  23  24
ATOM     24  C   UNL     1      -7.049   1.168  58.926  1.00  0.00    -0.000 C 
BRANCH  24  25
ATOM     25  C   UNL     1      -6.814   1.278  57.412  1.00  0.00    -0.003 C 
ATOM     26  C   UNL     1      -8.134   1.429  56.662  1.00  0.00     0.004 C 
ENDBRANCH  24  25
ENDBRANCH  23  24
ENDBRANCH  22  23
ENDBRANCH  21  22
ENDBRANCH  20  21
ENDBRANCH  19  20
ENDBRANCH  18  19
ENDBRANCH  17  18
ENDBRANCH  16  17
ENDBRANCH  15  16
ENDBRANCH   1  15
TORSDOF 22
ENDMDL
MODEL 5
REMARK VINA RESULT:    -3.822      1.691      3.821
REMARK INTER + INTRA:         -12.954
REMARK INTER:                  -8.500
REMARK INTRA:                  -4.455
REMARK UNBOUND:                -4.217
REMARK SMILES CCCCCCCCCCCCCCCCCCCCCCCC(=O)[O-]
REMARK SMILES IDX 13 1 14 2 15 3 16 4 17 5 18 6 19 7 20 8 21 9 22 10 23 11
REMARK SMILES IDX 24 12 25 13 26 14 12 15 11 16 10 17 9 18 8 19 7 20 6 21 5 22
REMARK SMILES IDX 4 23 3 24 2 25 1 26
REMARK H PARENT
REMARK Flexibility Score: inf
ROOT
ATOM      1  C   UNL     1       2.235   0.914  55.534  1.00  0.00     0.000 C 
ENDROOT
BRANCH   1   2
ATOM      2  C   UNL     1       1.028   1.630  56.170  1.00  0.00     0.000 C 
BRANCH   2   3
ATOM      3  C   UNL     1      -0.178   0.721  56.487  1.00  0.00     0.000 C 
BRANCH   3   4
ATOM      4  C   UNL     1      -1.306   1.388  57.298  1.00  0.00     0.000 C 
BRANCH   4   5
ATOM      5  C   UNL     1      -2.327   0.414  57.923  1.00  0.00     0.000 C 
BRANCH   5   6
ATOM      6  C   UNL     1      -1.804  -0.389  59.129  1.00  0.00     0.000 C 
BRANCH   6   7
ATOM      7  C   UNL     1      -1.949  -1.917  58.996  1.00  0.00     0.000 C 
BRANCH   7   8
ATOM      8  C   UNL     1      -2.063  -2.406  57.534  1.00  0.00     0.000 C 
BRANCH   8   9
ATOM      9  C   UNL     1      -0.727  -2.881  56.936  1.00  0.00     0.000 C 
BRANCH   9  10
ATOM     10  C   UNL     1      -0.877  -3.376  55.486  1.00  0.00     0.006 C 
BRANCH  10  11
ATOM     11  C   UNL     1      -1.367  -2.270  54.543  1.00  0.00     0.053 C 
BRANCH  11  12
ATOM     12  C   UNL     1      -1.479  -2.750  53.128  1.00  0.00     0.041 C 
ATOM     13  O   UNL     1      -2.299  -3.658  52.831  1.00  0.00    -0.550 OA
ATOM     14  O   UNL     1      -0.652  -2.221  52.146  1.00  0.00    -0.550 OA
ENDBRANCH  11  12
ENDBRANCH  10  11
ENDBRANCH   9  10
ENDBRANCH   8   9
ENDBRANCH   7   8
ENDBRANCH   6   7
ENDBRANCH   5   6
ENDBRANCH   4   5
ENDBRANCH   3   4
ENDBRANCH   2   3
ENDBRANCH   1   2
BRANCH   1  15
ATOM     15  C   UNL     1       2.305   0.998  53.997  1.00  0.00     0.000 C 
BRANCH  15  16
ATOM     16  C   UNL     1       2.528  -0.365  53.308  1.00  0.00     0.000 C 
BRANCH  16  17
ATOM     17  C   UNL     1       2.166  -1.550  54.220  1.00  0.00     0.000 C 
BRANCH  17  18
ATOM     18  C   UNL     1       3.332  -2.537  54.396  1.00  0.00    -0.000 C 
BRANCH  18  19
ATOM     19  C   UNL     1       3.938  -2.488  55.810  1.00  0.00    -0.000 C 
BRANCH  19  20
ATOM     20  C   UNL     1       2.867  -2.451  56.912  1.00  0.00    -0.000 C 
BRANCH  20  21
ATOM     21  C   UNL     1       3.228  -1.490  58.055  1.00  0.00    -0.000 C 
BRANCH  21  22
ATOM     22  C   UNL     1       1.971  -1.027  58.800  1.00  0.00    -0.000 C 
BRANCH  22  23
ATOM     23  C   UNL     1       2.330  -0.055  59.934  1.00  0.00    -0.000 C 
BRANCH  23  24
ATOM     24  C   UNL     1       1.580   1.281  59.828  1.00  0.00    -0.000 C 
BRANCH  24  25
ATOM     25  C   UNL     1       0.521   1.455  60.927  1.00  0.00    -0.003 C 
ATOM     26  C   UNL     1      -0.220   2.779  60.770  1.00  0.00     0.004 C 
ENDBRANCH  24  25
ENDBRANCH  23  24
ENDBRANCH  22  23
ENDBRANCH  21  22
ENDBRANCH  20  21
ENDBRANCH  19  20
ENDBRANCH  18  19
ENDBRANCH  17  18
ENDBRANCH  16  17
ENDBRANCH  15  16
ENDBRANCH   1  15
TORSDOF 22
ENDMDL
MODEL 6
REMARK VINA RESULT:    -3.821      8.992     12.333
REMARK INTER + INTRA:         -12.952
REMARK INTER:                  -8.712
REMARK INTRA:                  -4.240
REMARK UNBOUND:                -4.217
REMARK SMILES CCCCCCCCCCCCCCCCCCCCCCCC(=O)[O-]
REMARK SMILES IDX 13 1 14 2 15 3 16 4 17 5 18 6 19 7 20 8 21 9 22 10 23 11
REMARK SMILES IDX 24 12 25 13 26 14 12 15 11 16 10 17 9 18 8 19 7 20 6 21 5 22
REMARK SMILES IDX 4 23 3 24 2 25 1 26
REMARK H PARENT
REMARK Flexibility Score: inf
ROOT
ATOM      1  C   UNL     1      -6.073   4.518  55.597  1.00  0.00     0.000 C 
ENDROOT
BRANCH   1   2
ATOM      2  C   UNL     1      -7.063   5.594  55.113  1.00  0.00     0.000 C 
BRANCH   2   3
ATOM      3  C   UNL     1      -7.606   6.526  56.217  1.00  0.00     0.000 C 
BRANCH   3   4
ATOM      4  C   UNL     1      -8.768   5.948  57.049  1.00  0.00     0.000 C 
BRANCH   4   5
ATOM      5  C   UNL     1      -8.360   5.318  58.397  1.00  0.00     0.000 C 
BRANCH   5   6
ATOM      6  C   UNL     1      -7.726   6.296  59.404  1.00  0.00     0.000 C 
BRANCH   6   7
ATOM      7  C   UNL     1      -6.475   5.756  60.125  1.00  0.00     0.000 C 
BRANCH   7   8
ATOM      8  C   UNL     1      -5.455   5.082  59.180  1.00  0.00     0.000 C 
BRANCH   8   9
ATOM      9  C   UNL     1      -5.045   3.666  59.621  1.00  0.00     0.000 C 
BRANCH   9  10
ATOM     10  C   UNL     1      -5.347   2.607  58.545  1.00  0.00     0.006 C 
BRANCH  10  11
ATOM     11  C   UNL     1      -6.766   2.039  58.673  1.00  0.00     0.053 C 
BRANCH  11  12
ATOM     12  C   UNL     1      -6.760   0.624  59.165  1.00  0.00     0.041 C 
ATOM     13  O   UNL     1      -5.672   0.000  59.284  1.00  0.00    -0.550 OA
ATOM     14  O   UNL     1      -7.956  -0.017  59.457  1.00  0.00    -0.550 OA
ENDBRANCH  11  12
ENDBRANCH  10  11
ENDBRANCH   9  10
ENDBRANCH   8   9
ENDBRANCH   7   8
ENDBRANCH   6   7
ENDBRANCH   5   6
ENDBRANCH   4   5
ENDBRANCH   3   4
ENDBRANCH   2   3
ENDBRANCH   1   2
BRANCH   1  15
ATOM     15  C   UNL     1      -5.866   3.341  54.624  1.00  0.00     0.000 C 
BRANCH  15  16
ATOM     16  C   UNL     1      -6.016   3.729  53.138  1.00  0.00     0.000 C 
BRANCH  16  17
ATOM     17  C   UNL     1      -6.981   2.800  52.382  1.00  0.00     0.000 C 
BRANCH  17  18
ATOM     18  C   UNL     1      -7.682   3.503  51.209  1.00  0.00    -0.000 C 
BRANCH  18  19
ATOM     19  C   UNL     1      -7.535   5.034  51.266  1.00  0.00    -0.000 C 
BRANCH  19  20
ATOM     20  C   UNL     1      -8.891   5.757  51.318  1.00  0.00    -0.000 C 
BRANCH  20  21
ATOM     21  C   UNL     1     -10.079   4.783  51.311  1.00  0.00    -0.000 C 
BRANCH  21  22
ATOM     22  C   UNL     1     -10.995   5.026  52.516  1.00  0.00    -0.000 C 
BRANCH  22  23
ATOM     23  C   UNL     1     -10.293   4.645  53.828  1.00  0.00    -0.000 C 
BRANCH  23  24
ATOM     24  C   UNL     1     -10.248   3.127  54.056  1.00  0.00    -0.000 C 
BRANCH  24  25
ATOM     25  C   UNL     1      -9.392   2.735  55.269  1.00  0.00    -0.003 C 
ATOM     26  C   UNL     1     -10.184   1.868  56.243  1.00  0.00     0.004 C 
ENDBRANCH  24  25
ENDBRANCH  23  24
ENDBRANCH  22  23
ENDBRANCH  21  22
ENDBRANCH  20  21
ENDBRANCH  19  20
ENDBRANCH  18  19
ENDBRANCH  17  18
ENDBRANCH  16  17
ENDBRANCH  15  16
ENDBRANCH   1  15
TORSDOF 22
ENDMDL
MODEL 7
REMARK VINA RESULT:    -3.816      9.209     12.275
REMARK INTER + INTRA:         -12.941
REMARK INTER:                  -8.504
REMARK INTRA:                  -4.438
REMARK UNBOUND:                -4.217
REMARK SMILES CCCCCCCCCCCCCCCCCCCCCCCC(=O)[O-]
REMARK SMILES IDX 13 1 14 2 15 3 16 4 17 5 18 6 19 7 20 8 21 9 22 10 23 11
REMARK SMILES IDX 24 12 25 13 26 14 12 15 11 16 10 17 9 18 8 19 7 20 6 21 5 22
REMARK SMILES IDX 4 23 3 24 2 25 1 26
REMARK H PARENT
REMARK Flexibility Score: inf
ROOT
ATOM      1  C   UNL     1      -5.935   3.499  53.250  1.00  0.00     0.000 C 
ENDROOT
BRANCH   1   2
ATOM      2  C   UNL     1      -5.878   3.881  54.742  1.00  0.00     0.000 C 
BRANCH   2   3
ATOM      3  C   UNL     1      -6.615   5.186  55.110  1.00  0.00     0.000 C 
BRANCH   3   4
ATOM      4  C   UNL     1      -6.361   5.700  56.541  1.00  0.00     0.000 C 
BRANCH   4   5
ATOM      5  C   UNL     1      -7.628   6.084  57.333  1.00  0.00     0.000 C 
BRANCH   5   6
ATOM      6  C   UNL     1      -7.469   6.053  58.865  1.00  0.00     0.000 C 
BRANCH   6   7
ATOM      7  C   UNL     1      -8.675   5.468  59.626  1.00  0.00     0.000 C 
BRANCH   7   8
ATOM      8  C   UNL     1      -8.366   4.139  60.354  1.00  0.00     0.000 C 
BRANCH   8   9
ATOM      9  C   UNL     1      -6.880   3.741  60.308  1.00  0.00     0.000 C 
BRANCH   9  10
ATOM     10  C   UNL     1      -6.658   2.382  59.620  1.00  0.00     0.006 C 
BRANCH  10  11
ATOM     11  C   UNL     1      -6.030   2.532  58.228  1.00  0.00     0.053 C 
BRANCH  11  12
ATOM     12  C   UNL     1      -4.547   2.326  58.259  1.00  0.00     0.041 C 
ATOM     13  O   UNL     1      -3.819   2.839  57.368  1.00  0.00    -0.550 OA
ATOM     14  O   UNL     1      -3.973   1.538  59.247  1.00  0.00    -0.550 OA
ENDBRANCH  11  12
ENDBRANCH  10  11
ENDBRANCH   9  10
ENDBRANCH   8   9
ENDBRANCH   7   8
ENDBRANCH   6   7
ENDBRANCH   5   6
ENDBRANCH   4   5
ENDBRANCH   3   4
ENDBRANCH   2   3
ENDBRANCH   1   2
BRANCH   1  15
ATOM     15  C   UNL     1      -7.228   2.784  52.812  1.00  0.00     0.000 C 
BRANCH  15  16
ATOM     16  C   UNL     1      -7.744   3.227  51.426  1.00  0.00     0.000 C 
BRANCH  16  17
ATOM     17  C   UNL     1      -7.265   4.638  51.043  1.00  0.00     0.000 C 
BRANCH  17  18
ATOM     18  C   UNL     1      -8.135   5.745  51.661  1.00  0.00    -0.000 C 
BRANCH  18  19
ATOM     19  C   UNL     1      -9.624   5.596  51.300  1.00  0.00    -0.000 C 
BRANCH  19  20
ATOM     20  C   UNL     1     -10.554   5.912  52.483  1.00  0.00    -0.000 C 
BRANCH  20  21
ATOM     21  C   UNL     1      -9.787   6.121  53.797  1.00  0.00    -0.000 C 
BRANCH  21  22
ATOM     22  C   UNL     1     -10.403   5.293  54.931  1.00  0.00    -0.000 C 
BRANCH  22  23
ATOM     23  C   UNL     1     -10.148   3.793  54.718  1.00  0.00    -0.000 C 
BRANCH  23  24
ATOM     24  C   UNL     1      -9.388   3.150  55.888  1.00  0.00    -0.000 C 
BRANCH  24  25
ATOM     25  C   UNL     1     -10.219   3.100  57.178  1.00  0.00    -0.003 C 
ATOM     26  C   UNL     1      -9.957   1.810  57.950  1.00  0.00     0.004 C 
ENDBRANCH  24  25
ENDBRANCH  23  24
ENDBRANCH  22  23
ENDBRANCH  21  22
ENDBRANCH  20  21
ENDBRANCH  19  20
ENDBRANCH  18  19
ENDBRANCH  17  18
ENDBRANCH  16  17
ENDBRANCH  15  16
ENDBRANCH   1  15
TORSDOF 22
ENDMDL
MODEL 8
REMARK VINA RESULT:    -3.809      4.030      7.883
REMARK INTER + INTRA:         -12.924
REMARK INTER:                  -9.522
REMARK INTRA:                  -3.402
REMARK UNBOUND:                -4.217
REMARK SMILES CCCCCCCCCCCCCCCCCCCCCCCC(=O)[O-]
REMARK SMILES IDX 13 1 14 2 15 3 16 4 17 5 18 6 19 7 20 8 21 9 22 10 23 11
REMARK SMILES IDX 24 12 25 13 26 14 12 15 11 16 10 17 9 18 8 19 7 20 6 21 5 22
REMARK SMILES IDX 4 23 3 24 2 25 1 26
REMARK H PARENT
REMARK Flexibility Score: inf
ROOT
ATOM      1  C   UNL     1      -0.217   1.566  60.617  1.00  0.00     0.000 C 
ENDROOT
BRANCH   1   2
ATOM      2  C   UNL     1       1.086   2.318  60.285  1.00  0.00     0.000 C 
BRANCH   2   3
ATOM      3  C   UNL     1       2.366   1.458  60.334  1.00  0.00     0.000 C 
BRANCH   3   4
ATOM      4  C   UNL     1       2.364   0.226  59.407  1.00  0.00     0.000 C 
BRANCH   4   5
ATOM      5  C   UNL     1       3.355  -0.890  59.798  1.00  0.00     0.000 C 
BRANCH   5   6
ATOM      6  C   UNL     1       2.754  -2.021  60.655  1.00  0.00     0.000 C 
BRANCH   6   7
ATOM      7  C   UNL     1       1.214  -2.038  60.709  1.00  0.00     0.000 C 
BRANCH   7   8
ATOM      8  C   UNL     1       0.639  -1.764  62.118  1.00  0.00     0.000 C 
BRANCH   8   9
ATOM      9  C   UNL     1      -0.101  -2.967  62.728  1.00  0.00     0.000 C 
BRANCH   9  10
ATOM     10  C   UNL     1       0.492  -3.395  64.083  1.00  0.00     0.006 C 
BRANCH  10  11
ATOM     11  C   UNL     1       2.014  -3.210  64.134  1.00  0.00     0.053 C 
BRANCH  11  12
ATOM     12  C   UNL     1       2.743  -4.468  63.773  1.00  0.00     0.041 C 
ATOM     13  O   UNL     1       2.103  -5.479  63.377  1.00  0.00    -0.550 OA
ATOM     14  O   UNL     1       4.123  -4.537  63.908  1.00  0.00    -0.550 OA
ENDBRANCH  11  12
ENDBRANCH  10  11
ENDBRANCH   9  10
ENDBRANCH   8   9
ENDBRANCH   7   8
ENDBRANCH   6   7
ENDBRANCH   5   6
ENDBRANCH   4   5
ENDBRANCH   3   4
ENDBRANCH   2   3
ENDBRANCH   1   2
BRANCH   1  15
ATOM     15  C   UNL     1      -1.304   1.638  59.527  1.00  0.00     0.000 C 
BRANCH  15  16
ATOM     16  C   UNL     1      -1.125   0.598  58.400  1.00  0.00     0.000 C 
BRANCH  16  17
ATOM     17  C   UNL     1      -0.787   1.249  57.048  1.00  0.00     0.000 C 
BRANCH  17  18
ATOM     18  C   UNL     1       0.420   0.591  56.360  1.00  0.00    -0.000 C 
BRANCH  18  19
ATOM     19  C   UNL     1       1.436   1.622  55.836  1.00  0.00    -0.000 C 
BRANCH  19  20
ATOM     20  C   UNL     1       2.637   0.965  55.136  1.00  0.00    -0.000 C 
BRANCH  20  21
ATOM     21  C   UNL     1       2.387   0.722  53.640  1.00  0.00    -0.000 C 
BRANCH  21  22
ATOM     22  C   UNL     1       2.725  -0.723  53.255  1.00  0.00    -0.000 C 
BRANCH  22  23
ATOM     23  C   UNL     1       1.545  -1.661  53.549  1.00  0.00    -0.000 C 
BRANCH  23  24
ATOM     24  C   UNL     1       1.973  -2.934  54.295  1.00  0.00    -0.000 C 
BRANCH  24  25
ATOM     25  C   UNL     1       2.862  -2.638  55.511  1.00  0.00    -0.003 C 
ATOM     26  C   UNL     1       2.067  -2.739  56.810  1.00  0.00     0.004 C 
ENDBRANCH  24  25
ENDBRANCH  23  24
ENDBRANCH  22  23
ENDBRANCH  21  22
ENDBRANCH  20  21
ENDBRANCH  19  20
ENDBRANCH  18  19
ENDBRANCH  17  18
ENDBRANCH  16  17
ENDBRANCH  15  16
ENDBRANCH   1  15
TORSDOF 22
ENDMDL
MODEL 9
REMARK VINA RESULT:    -3.807      8.126     11.478
REMARK INTER + INTRA:         -12.921
REMARK INTER:                  -8.812
REMARK INTRA:                  -4.109
REMARK UNBOUND:                -4.217
REMARK SMILES CCCCCCCCCCCCCCCCCCCCCCCC(=O)[O-]
REMARK SMILES IDX 13 1 14 2 15 3 16 4 17 5 18 6 19 7 20 8 21 9 22 10 23 11
REMARK SMILES IDX 24 12 25 13 26 14 12 15 11 16 10 17 9 18 8 19 7 20 6 21 5 22
REMARK SMILES IDX 4 23 3 24 2 25 1 26
REMARK H PARENT
REMARK Flexibility Score: inf
ROOT
ATOM      1  C   UNL     1      -7.528   3.872  56.707  1.00  0.00     0.000 C 
ENDROOT
BRANCH   1   2
ATOM      2  C   UNL     1      -7.393   5.404  56.610  1.00  0.00     0.000 C 
BRANCH   2   3
ATOM      3  C   UNL     1      -7.615   6.164  57.934  1.00  0.00     0.000 C 
BRANCH   3   4
ATOM      4  C   UNL     1      -6.816   5.630  59.139  1.00  0.00     0.000 C 
BRANCH   4   5
ATOM      5  C   UNL     1      -5.293   5.866  59.072  1.00  0.00     0.000 C 
BRANCH   5   6
ATOM      6  C   UNL     1      -4.431   4.667  59.512  1.00  0.00     0.000 C 
BRANCH   6   7
ATOM      7  C   UNL     1      -5.229   3.401  59.879  1.00  0.00     0.000 C 
BRANCH   7   8
ATOM      8  C   UNL     1      -5.069   2.248  58.861  1.00  0.00     0.000 C 
BRANCH   8   9
ATOM      9  C   UNL     1      -4.037   2.537  57.758  1.00  0.00     0.000 C 
BRANCH   9  10
ATOM     10  C   UNL     1      -3.678   1.278  56.948  1.00  0.00     0.006 C 
BRANCH  10  11
ATOM     11  C   UNL     1      -2.617   0.419  57.649  1.00  0.00     0.053 C 
BRANCH  11  12
ATOM     12  C   UNL     1      -1.377   1.201  57.954  1.00  0.00     0.041 C 
ATOM     13  O   UNL     1      -1.053   1.434  59.149  1.00  0.00    -0.550 OA
ATOM     14  O   UNL     1      -0.598   1.704  56.920  1.00  0.00    -0.550 OA
ENDBRANCH  11  12
ENDBRANCH  10  11
ENDBRANCH   9  10
ENDBRANCH   8   9
ENDBRANCH   7   8
ENDBRANCH   6   7
ENDBRANCH   5   6
ENDBRANCH   4   5
ENDBRANCH   3   4
ENDBRANCH   2   3
ENDBRANCH   1   2
BRANCH   1  15
ATOM     15  C   UNL     1      -7.029   3.096  55.474  1.00  0.00     0.000 C 
BRANCH  15  16
ATOM     16  C   UNL     1      -5.829   3.759  54.765  1.00  0.00     0.000 C 
BRANCH  16  17
ATOM     17  C   UNL     1      -6.035   3.877  53.245  1.00  0.00     0.000 C 
BRANCH  17  18
ATOM     18  C   UNL     1      -6.872   2.722  52.671  1.00  0.00    -0.000 C 
BRANCH  18  19
ATOM     19  C   UNL     1      -7.632   3.121  51.394  1.00  0.00    -0.000 C 
BRANCH  19  20
ATOM     20  C   UNL     1      -7.592   4.636  51.131  1.00  0.00    -0.000 C 
BRANCH  20  21
ATOM     21  C   UNL     1      -8.979   5.288  51.228  1.00  0.00    -0.000 C 
BRANCH  21  22
ATOM     22  C   UNL     1      -9.091   6.157  52.487  1.00  0.00    -0.000 C 
BRANCH  22  23
ATOM     23  C   UNL     1      -9.517   5.316  53.700  1.00  0.00    -0.000 C 
BRANCH  23  24
ATOM     24  C   UNL     1     -10.601   4.284  53.353  1.00  0.00    -0.000 C 
BRANCH  24  25
ATOM     25  C   UNL     1     -10.479   2.996  54.182  1.00  0.00    -0.003 C 
ATOM     26  C   UNL     1     -10.477   1.763  53.283  1.00  0.00     0.004 C 
ENDBRANCH  24  25
ENDBRANCH  23  24
ENDBRANCH  22  23
ENDBRANCH  21  22
ENDBRANCH  20  21
ENDBRANCH  19  20
ENDBRANCH  18  19
ENDBRANCH  17  18
ENDBRANCH  16  17
ENDBRANCH  15  16
ENDBRANCH   1  15
TORSDOF 22
ENDMDL
