MODEL 1
REMARK VINA RESULT:    -4.303      0.000      0.000
REMARK INTER + INTRA:          -9.611
REMARK INTER:                  -7.824
REMARK INTRA:                  -1.787
REMARK UNBOUND:                -1.787
REMARK SMILES CCCCCCCCCCCCCCCC(=O)[O-]
REMARK SMILES IDX 9 1 10 2 11 3 12 4 13 5 14 6 15 7 16 8 17 9 18 10 8 11 7 12
REMARK SMILES IDX 6 13 5 14 4 15 3 16 2 17 1 18
REMARK H PARENT
REMARK Flexibility Score: inf
ROOT
ATOM      1  C   UNL     1      26.682  -0.372  -8.026  1.00  0.00     0.000 C 
ENDROOT
BRANCH   1   2
ATOM      2  C   UNL     1      25.976  -0.917  -9.278  1.00  0.00     0.000 C 
BRANCH   2   3
ATOM      3  C   UNL     1      24.532  -1.364  -8.994  1.00  0.00     0.000 C 
BRANCH   3   4
ATOM      4  C   UNL     1      23.662  -1.398 -10.260  1.00  0.00     0.000 C 
BRANCH   4   5
ATOM      5  C   UNL     1      24.529  -1.376 -11.523  1.00  0.00     0.000 C 
BRANCH   5   6
ATOM      6  C   UNL     1      24.146  -0.202 -12.436  1.00  0.00     0.006 C 
BRANCH   6   7
ATOM      7  C   UNL     1      24.782  -0.316 -13.827  1.00  0.00     0.053 C 
BRANCH   7   8
ATOM      8  C   UNL     1      25.439   0.964 -14.245  1.00  0.00     0.041 C 
ATOM      9  O   UNL     1      25.254   2.017 -13.579  1.00  0.00    -0.550 OA
ATOM     10  O   UNL     1      26.283   0.987 -15.348  1.00  0.00    -0.550 OA
ENDBRANCH   7   8
ENDBRANCH   6   7
ENDBRANCH   5   6
ENDBRANCH   4   5
ENDBRANCH   3   4
ENDBRANCH   2   3
ENDBRANCH   1   2
BRANCH   1  11
ATOM     11  C   UNL     1      27.741  -1.340  -7.465  1.00  0.00     0.000 C 
BRANCH  11  12
ATOM     12  C   UNL     1      27.675  -2.777  -8.014  1.00  0.00    -0.000 C 
BRANCH  12  13
ATOM     13  C   UNL     1      26.911  -3.739  -7.090  1.00  0.00    -0.000 C 
BRANCH  13  14
ATOM     14  C   UNL     1      25.771  -4.473  -7.814  1.00  0.00    -0.000 C 
BRANCH  14  15
ATOM     15  C   UNL     1      26.093  -4.760  -9.289  1.00  0.00    -0.000 C 
BRANCH  15  16
ATOM     16  C   UNL     1      24.808  -4.913 -10.111  1.00  0.00    -0.000 C 
BRANCH  16  17
ATOM     17  C   UNL     1      23.572  -4.919  -9.204  1.00  0.00    -0.003 C 
ATOM     18  C   UNL     1      22.674  -6.117  -9.505  1.00  0.00     0.004 C 
ENDBRANCH  16  17
ENDBRANCH  15  16
ENDBRANCH  14  15
ENDBRANCH  13  14
ENDBRANCH  12  13
ENDBRANCH  11  12
ENDBRANCH   1  11
TORSDOF 14
ENDMDL
MODEL 2
REMARK VINA RESULT:    -4.225      1.006      1.694
REMARK INTER + INTRA:          -9.470
REMARK INTER:                  -7.925
REMARK INTRA:                  -1.546
REMARK UNBOUND:                -1.787
REMARK SMILES CCCCCCCCCCCCCCCC(=O)[O-]
REMARK SMILES IDX 9 1 10 2 11 3 12 4 13 5 14 6 15 7 16 8 17 9 18 10 8 11 7 12
REMARK SMILES IDX 6 13 5 14 4 15 3 16 2 17 1 18
REMARK H PARENT
REMARK Flexibility Score: inf
ROOT
ATOM      1  C   UNL     1      26.803  -0.218  -7.922  1.00  0.00     0.000 C 
ENDROOT
BRANCH   1   2
ATOM      2  C   UNL     1      26.247  -0.923  -9.170  1.00  0.00     0.000 C 
BRANCH   2   3
ATOM      3  C   UNL     1      24.723  -1.117  -9.108  1.00  0.00     0.000 C 
BRANCH   3   4
ATOM      4  C   UNL     1      24.150  -1.733 -10.394  1.00  0.00     0.000 C 
BRANCH   4   5
ATOM      5  C   UNL     1      24.872  -1.188 -11.631  1.00  0.00     0.000 C 
BRANCH   5   6
ATOM      6  C   UNL     1      23.949  -0.272 -12.449  1.00  0.00     0.006 C 
BRANCH   6   7
ATOM      7  C   UNL     1      24.727   0.807 -13.212  1.00  0.00     0.053 C 
BRANCH   7   8
ATOM      8  C   UNL     1      25.129   0.342 -14.579  1.00  0.00     0.041 C 
ATOM      9  O   UNL     1      24.700  -0.755 -15.026  1.00  0.00    -0.550 OA
ATOM     10  O   UNL     1      25.948   1.136 -15.372  1.00  0.00    -0.550 OA
ENDBRANCH   7   8
ENDBRANCH   6   7
ENDBRANCH   5   6
ENDBRANCH   4   5
ENDBRANCH   3   4
ENDBRANCH   2   3
ENDBRANCH   1   2
BRANCH   1  11
ATOM     11  C   UNL     1      28.251  -0.630  -7.594  1.00  0.00     0.000 C 
BRANCH  11  12
ATOM     12  C   UNL     1      28.417  -1.505  -6.338  1.00  0.00    -0.000 C 
BRANCH  12  13
ATOM     13  C   UNL     1      29.005  -2.892  -6.647  1.00  0.00    -0.000 C 
BRANCH  13  14
ATOM     14  C   UNL     1      28.114  -3.715  -7.590  1.00  0.00    -0.000 C 
BRANCH  14  15
ATOM     15  C   UNL     1      26.980  -4.442  -6.851  1.00  0.00    -0.000 C 
BRANCH  15  16
ATOM     16  C   UNL     1      25.617  -4.103  -7.467  1.00  0.00    -0.000 C 
BRANCH  16  17
ATOM     17  C   UNL     1      25.333  -4.980  -8.691  1.00  0.00    -0.003 C 
ATOM     18  C   UNL     1      23.835  -5.077  -8.964  1.00  0.00     0.004 C 
ENDBRANCH  16  17
ENDBRANCH  15  16
ENDBRANCH  14  15
ENDBRANCH  13  14
ENDBRANCH  12  13
ENDBRANCH  11  12
ENDBRANCH   1  11
TORSDOF 14
ENDMDL
MODEL 3
REMARK VINA RESULT:    -4.187      3.473      6.045
REMARK INTER + INTRA:          -9.401
REMARK INTER:                  -7.612
REMARK INTRA:                  -1.789
REMARK UNBOUND:                -1.787
REMARK SMILES CCCCCCCCCCCCCCCC(=O)[O-]
REMARK SMILES IDX 9 1 10 2 11 3 12 4 13 5 14 6 15 7 16 8 17 9 18 10 8 11 7 12
REMARK SMILES IDX 6 13 5 14 4 15 3 16 2 17 1 18
REMARK H PARENT
REMARK Flexibility Score: inf
ROOT
ATOM      1  C   UNL     1      27.966  -1.791  -8.019  1.00  0.00     0.000 C 
ENDROOT
BRANCH   1   2
ATOM      2  C   UNL     1      27.781  -2.903  -6.973  1.00  0.00     0.000 C 
BRANCH   2   3
ATOM      3  C   UNL     1      26.926  -4.069  -7.497  1.00  0.00     0.000 C 
BRANCH   3   4
ATOM      4  C   UNL     1      27.165  -4.356  -8.987  1.00  0.00     0.000 C 
BRANCH   4   5
ATOM      5  C   UNL     1      25.863  -4.774  -9.680  1.00  0.00     0.000 C 
BRANCH   5   6
ATOM      6  C   UNL     1      24.802  -5.196  -8.653  1.00  0.00     0.006 C 
BRANCH   6   7
ATOM      7  C   UNL     1      23.384  -5.166  -9.236  1.00  0.00     0.053 C 
BRANCH   7   8
ATOM      8  C   UNL     1      22.954  -6.516  -9.724  1.00  0.00     0.041 C 
ATOM      9  O   UNL     1      21.758  -6.714 -10.068  1.00  0.00    -0.550 OA
ATOM     10  O   UNL     1      23.880  -7.546  -9.830  1.00  0.00    -0.550 OA
ENDBRANCH   7   8
ENDBRANCH   6   7
ENDBRANCH   5   6
ENDBRANCH   4   5
ENDBRANCH   3   4
ENDBRANCH   2   3
ENDBRANCH   1   2
BRANCH   1  11
ATOM     11  C   UNL     1      26.944  -0.648  -7.868  1.00  0.00     0.000 C 
BRANCH  11  12
ATOM     12  C   UNL     1      25.947  -0.501  -9.031  1.00  0.00    -0.000 C 
BRANCH  12  13
ATOM     13  C   UNL     1      24.715  -1.410  -8.885  1.00  0.00    -0.000 C 
BRANCH  13  14
ATOM     14  C   UNL     1      23.963  -1.604 -10.211  1.00  0.00    -0.000 C 
BRANCH  14  15
ATOM     15  C   UNL     1      24.755  -1.087 -11.423  1.00  0.00    -0.000 C 
BRANCH  15  16
ATOM     16  C   UNL     1      23.835  -0.361 -12.410  1.00  0.00    -0.000 C 
BRANCH  16  17
ATOM     17  C   UNL     1      24.580   0.770 -13.128  1.00  0.00    -0.003 C 
ATOM     18  C   UNL     1      25.209   0.278 -14.428  1.00  0.00     0.004 C 
ENDBRANCH  16  17
ENDBRANCH  15  16
ENDBRANCH  14  15
ENDBRANCH  13  14
ENDBRANCH  12  13
ENDBRANCH  11  12
ENDBRANCH   1  11
TORSDOF 14
ENDMDL
MODEL 4
REMARK VINA RESULT:    -4.128      3.423      6.250
REMARK INTER + INTRA:          -9.294
REMARK INTER:                  -7.081
REMARK INTRA:                  -2.212
REMARK UNBOUND:                -1.787
REMARK SMILES CCCCCCCCCCCCCCCC(=O)[O-]
REMARK SMILES IDX 9 1 10 2 11 3 12 4 13 5 14 6 15 7 16 8 17 9 18 10 8 11 7 12
REMARK SMILES IDX 6 13 5 14 4 15 3 16 2 17 1 18
REMARK H PARENT
REMARK Flexibility Score: inf
ROOT
ATOM      1  C   UNL     1      24.532  -4.067  -8.203  1.00  0.00     0.000 C 
ENDROOT
BRANCH   1   2
ATOM      2  C   UNL     1      23.897  -4.280  -9.587  1.00  0.00     0.000 C 
BRANCH   2   3
ATOM      3  C   UNL     1      24.889  -4.862 -10.608  1.00  0.00     0.000 C 
BRANCH   3   4
ATOM      4  C   UNL     1      26.179  -5.379  -9.952  1.00  0.00     0.000 C 
BRANCH   4   5
ATOM      5  C   UNL     1      27.391  -4.557 -10.404  1.00  0.00     0.000 C 
BRANCH   5   6
ATOM      6  C   UNL     1      28.434  -4.449  -9.281  1.00  0.00     0.006 C 
BRANCH   6   7
ATOM      7  C   UNL     1      28.324  -3.127  -8.511  1.00  0.00     0.053 C 
BRANCH   7   8
ATOM      8  C   UNL     1      28.308  -3.346  -7.029  1.00  0.00     0.041 C 
ATOM      9  O   UNL     1      28.752  -2.458  -6.253  1.00  0.00    -0.550 OA
ATOM     10  O   UNL     1      27.773  -4.515  -6.503  1.00  0.00    -0.550 OA
ENDBRANCH   7   8
ENDBRANCH   6   7
ENDBRANCH   5   6
ENDBRANCH   4   5
ENDBRANCH   3   4
ENDBRANCH   2   3
ENDBRANCH   1   2
BRANCH   1  11
ATOM     11  C   UNL     1      24.884  -2.593  -7.925  1.00  0.00     0.000 C 
BRANCH  11  12
ATOM     12  C   UNL     1      24.368  -1.585  -8.968  1.00  0.00    -0.000 C 
BRANCH  12  13
ATOM     13  C   UNL     1      25.481  -0.693  -9.543  1.00  0.00    -0.000 C 
BRANCH  13  14
ATOM     14  C   UNL     1      25.974  -1.177 -10.916  1.00  0.00    -0.000 C 
BRANCH  14  15
ATOM     15  C   UNL     1      24.822  -1.494 -11.882  1.00  0.00    -0.000 C 
BRANCH  15  16
ATOM     16  C   UNL     1      24.151  -0.208 -12.376  1.00  0.00    -0.000 C 
BRANCH  16  17
ATOM     17  C   UNL     1      24.783   0.274 -13.687  1.00  0.00    -0.003 C 
ATOM     18  C   UNL     1      24.965   1.790 -13.687  1.00  0.00     0.004 C 
ENDBRANCH  16  17
ENDBRANCH  15  16
ENDBRANCH  14  15
ENDBRANCH  13  14
ENDBRANCH  12  13
ENDBRANCH  11  12
ENDBRANCH   1  11
TORSDOF 14
ENDMDL
MODEL 5
REMARK VINA RESULT:    -4.118      3.379      6.147
REMARK INTER + INTRA:          -9.275
REMARK INTER:                  -7.935
REMARK INTRA:                  -1.339
REMARK UNBOUND:                -1.787
REMARK SMILES CCCCCCCCCCCCCCCC(=O)[O-]
REMARK SMILES IDX 9 1 10 2 11 3 12 4 13 5 14 6 15 7 16 8 17 9 18 10 8 11 7 12
REMARK SMILES IDX 6 13 5 14 4 15 3 16 2 17 1 18
REMARK H PARENT
REMARK Flexibility Score: inf
ROOT
ATOM      1  C   UNL     1      28.847  -1.039  -7.026  1.00  0.00     0.000 C 
ENDROOT
BRANCH   1   2
ATOM      2  C   UNL     1      28.563  -2.287  -6.174  1.00  0.00     0.000 C 
BRANCH   2   3
ATOM      3  C   UNL     1      28.940  -3.592  -6.895  1.00  0.00     0.000 C 
BRANCH   3   4
ATOM      4  C   UNL     1      27.934  -4.724  -6.637  1.00  0.00     0.000 C 
BRANCH   4   5
ATOM      5  C   UNL     1      26.502  -4.262  -6.928  1.00  0.00     0.000 C 
BRANCH   5   6
ATOM      6  C   UNL     1      26.027  -4.767  -8.299  1.00  0.00     0.006 C 
BRANCH   6   7
ATOM      7  C   UNL     1      24.500  -4.714  -8.440  1.00  0.00     0.053 C 
BRANCH   7   8
ATOM      8  C   UNL     1      23.964  -5.927  -9.137  1.00  0.00     0.041 C 
ATOM      9  O   UNL     1      22.815  -5.905  -9.653  1.00  0.00    -0.550 OA
ATOM     10  O   UNL     1      24.746  -7.070  -9.247  1.00  0.00    -0.550 OA
ENDBRANCH   7   8
ENDBRANCH   6   7
ENDBRANCH   5   6
ENDBRANCH   4   5
ENDBRANCH   3   4
ENDBRANCH   2   3
ENDBRANCH   1   2
BRANCH   1  11
ATOM     11  C   UNL     1      27.564  -0.357  -7.538  1.00  0.00     0.000 C 
BRANCH  11  12
ATOM     12  C   UNL     1      26.790  -1.137  -8.616  1.00  0.00    -0.000 C 
BRANCH  12  13
ATOM     13  C   UNL     1      25.529  -0.402  -9.101  1.00  0.00    -0.000 C 
BRANCH  13  14
ATOM     14  C   UNL     1      24.445  -1.363  -9.611  1.00  0.00    -0.000 C 
BRANCH  14  15
ATOM     15  C   UNL     1      24.470  -1.528 -11.139  1.00  0.00    -0.000 C 
BRANCH  15  16
ATOM     16  C   UNL     1      25.115  -0.311 -11.812  1.00  0.00    -0.000 C 
BRANCH  16  17
ATOM     17  C   UNL     1      24.189   0.282 -12.880  1.00  0.00    -0.003 C 
ATOM     18  C   UNL     1      24.859   1.446 -13.605  1.00  0.00     0.004 C 
ENDBRANCH  16  17
ENDBRANCH  15  16
ENDBRANCH  14  15
ENDBRANCH  13  14
ENDBRANCH  12  13
ENDBRANCH  11  12
ENDBRANCH   1  11
TORSDOF 14
ENDMDL
MODEL 6
REMARK VINA RESULT:    -4.085      1.530      2.439
REMARK INTER + INTRA:          -9.215
REMARK INTER:                  -6.915
REMARK INTRA:                  -2.300
REMARK UNBOUND:                -1.787
REMARK SMILES CCCCCCCCCCCCCCCC(=O)[O-]
REMARK SMILES IDX 9 1 10 2 11 3 12 4 13 5 14 6 15 7 16 8 17 9 18 10 8 11 7 12
REMARK SMILES IDX 6 13 5 14 4 15 3 16 2 17 1 18
REMARK H PARENT
REMARK Flexibility Score: inf
ROOT
ATOM      1  C   UNL     1      28.593  -1.515  -6.309  1.00  0.00     0.000 C 
ENDROOT
BRANCH   1   2
ATOM      2  C   UNL     1      28.341  -0.707  -7.593  1.00  0.00     0.000 C 
BRANCH   2   3
ATOM      3  C   UNL     1      26.867  -0.299  -7.753  1.00  0.00     0.000 C 
BRANCH   3   4
ATOM      4  C   UNL     1      26.239  -0.842  -9.046  1.00  0.00     0.000 C 
BRANCH   4   5
ATOM      5  C   UNL     1      24.861  -1.455  -8.770  1.00  0.00     0.000 C 
BRANCH   5   6
ATOM      6  C   UNL     1      24.300  -2.140 -10.025  1.00  0.00     0.006 C 
BRANCH   6   7
ATOM      7  C   UNL     1      25.275  -2.075 -11.207  1.00  0.00     0.053 C 
BRANCH   7   8
ATOM      8  C   UNL     1      24.766  -1.185 -12.300  1.00  0.00     0.041 C 
ATOM      9  O   UNL     1      23.750  -0.466 -12.109  1.00  0.00    -0.550 OA
ATOM     10  O   UNL     1      25.434  -1.123 -13.516  1.00  0.00    -0.550 OA
ENDBRANCH   7   8
ENDBRANCH   6   7
ENDBRANCH   5   6
ENDBRANCH   4   5
ENDBRANCH   3   4
ENDBRANCH   2   3
ENDBRANCH   1   2
BRANCH   1  11
ATOM     11  C   UNL     1      28.830  -3.013  -6.579  1.00  0.00     0.000 C 
BRANCH  11  12
ATOM     12  C   UNL     1      28.875  -3.414  -8.065  1.00  0.00    -0.000 C 
BRANCH  12  13
ATOM     13  C   UNL     1      27.653  -4.240  -8.500  1.00  0.00    -0.000 C 
BRANCH  13  14
ATOM     14  C   UNL     1      26.639  -4.439  -7.363  1.00  0.00    -0.000 C 
BRANCH  14  15
ATOM     15  C   UNL     1      25.303  -5.020  -7.853  1.00  0.00    -0.000 C 
BRANCH  15  16
ATOM     16  C   UNL     1      25.524  -6.003  -9.008  1.00  0.00    -0.000 C 
BRANCH  16  17
ATOM     17  C   UNL     1      24.363  -5.945 -10.008  1.00  0.00    -0.003 C 
ATOM     18  C   UNL     1      23.034  -5.712  -9.297  1.00  0.00     0.004 C 
ENDBRANCH  16  17
ENDBRANCH  15  16
ENDBRANCH  14  15
ENDBRANCH  13  14
ENDBRANCH  12  13
ENDBRANCH  11  12
ENDBRANCH   1  11
TORSDOF 14
ENDMDL
MODEL 7
REMARK VINA RESULT:    -4.056      1.258      2.128
REMARK INTER + INTRA:          -9.163
REMARK INTER:                  -7.605
REMARK INTRA:                  -1.557
REMARK UNBOUND:                -1.787
REMARK SMILES CCCCCCCCCCCCCCCC(=O)[O-]
REMARK SMILES IDX 9 1 10 2 11 3 12 4 13 5 14 6 15 7 16 8 17 9 18 10 8 11 7 12
REMARK SMILES IDX 6 13 5 14 4 15 3 16 2 17 1 18
REMARK H PARENT
REMARK Flexibility Score: inf
ROOT
ATOM      1  C   UNL     1      24.228  -1.566  -8.885  1.00  0.00     0.000 C 
ENDROOT
BRANCH   1   2
ATOM      2  C   UNL     1      23.845  -1.632 -10.373  1.00  0.00     0.000 C 
BRANCH   2   3
ATOM      3  C   UNL     1      25.074  -1.657 -11.298  1.00  0.00     0.000 C 
BRANCH   3   4
ATOM      4  C   UNL     1      25.423  -0.268 -11.857  1.00  0.00     0.000 C 
BRANCH   4   5
ATOM      5  C   UNL     1      24.326   0.234 -12.802  1.00  0.00     0.000 C 
BRANCH   5   6
ATOM      6  C   UNL     1      24.865   1.320 -13.745  1.00  0.00     0.006 C 
BRANCH   6   7
ATOM      7  C   UNL     1      25.157   0.777 -15.149  1.00  0.00     0.053 C 
BRANCH   7   8
ATOM      8  C   UNL     1      26.575   0.311 -15.282  1.00  0.00     0.041 C 
ATOM      9  O   UNL     1      27.478   1.120 -15.625  1.00  0.00    -0.550 OA
ATOM     10  O   UNL     1      26.906  -1.007 -14.993  1.00  0.00    -0.550 OA
ENDBRANCH   7   8
ENDBRANCH   6   7
ENDBRANCH   5   6
ENDBRANCH   4   5
ENDBRANCH   3   4
ENDBRANCH   2   3
ENDBRANCH   1   2
BRANCH   1  11
ATOM     11  C   UNL     1      25.747  -1.673  -8.651  1.00  0.00     0.000 C 
BRANCH  11  12
ATOM     12  C   UNL     1      26.188  -2.806  -7.705  1.00  0.00    -0.000 C 
BRANCH  12  13
ATOM     13  C   UNL     1      25.346  -4.082  -7.864  1.00  0.00    -0.000 C 
BRANCH  13  14
ATOM     14  C   UNL     1      25.793  -4.940  -9.058  1.00  0.00    -0.000 C 
BRANCH  14  15
ATOM     15  C   UNL     1      24.634  -5.291 -10.005  1.00  0.00    -0.000 C 
BRANCH  15  16
ATOM     16  C   UNL     1      23.288  -5.215  -9.275  1.00  0.00    -0.000 C 
BRANCH  16  17
ATOM     17  C   UNL     1      22.380  -6.383  -9.674  1.00  0.00    -0.003 C 
ATOM     18  C   UNL     1      23.197  -7.571 -10.175  1.00  0.00     0.004 C 
ENDBRANCH  16  17
ENDBRANCH  15  16
ENDBRANCH  14  15
ENDBRANCH  13  14
ENDBRANCH  12  13
ENDBRANCH  11  12
ENDBRANCH   1  11
TORSDOF 14
ENDMDL
MODEL 8
REMARK VINA RESULT:    -4.023      1.488      2.976
REMARK INTER + INTRA:          -9.103
REMARK INTER:                  -6.682
REMARK INTRA:                  -2.421
REMARK UNBOUND:                -1.787
REMARK SMILES CCCCCCCCCCCCCCCC(=O)[O-]
REMARK SMILES IDX 9 1 10 2 11 3 12 4 13 5 14 6 15 7 16 8 17 9 18 10 8 11 7 12
REMARK SMILES IDX 6 13 5 14 4 15 3 16 2 17 1 18
REMARK H PARENT
REMARK Flexibility Score: inf
ROOT
ATOM      1  C   UNL     1      26.365  -4.286  -6.878  1.00  0.00     0.000 C 
ENDROOT
BRANCH   1   2
ATOM      2  C   UNL     1      25.823  -2.985  -7.493  1.00  0.00     0.000 C 
BRANCH   2   3
ATOM      3  C   UNL     1      26.944  -2.027  -7.929  1.00  0.00     0.000 C 
BRANCH   3   4
ATOM      4  C   UNL     1      26.412  -0.659  -8.382  1.00  0.00     0.000 C 
BRANCH   4   5
ATOM      5  C   UNL     1      25.184  -0.819  -9.285  1.00  0.00     0.000 C 
BRANCH   5   6
ATOM      6  C   UNL     1      25.536  -0.531 -10.752  1.00  0.00     0.006 C 
BRANCH   6   7
ATOM      7  C   UNL     1      24.375  -0.848 -11.702  1.00  0.00     0.053 C 
BRANCH   7   8
ATOM      8  C   UNL     1      24.525  -0.148 -13.018  1.00  0.00     0.041 C 
ATOM      9  O   UNL     1      24.109  -0.691 -14.075  1.00  0.00    -0.550 OA
ATOM     10  O   UNL     1      25.092   1.119 -13.072  1.00  0.00    -0.550 OA
ENDBRANCH   7   8
ENDBRANCH   6   7
ENDBRANCH   5   6
ENDBRANCH   4   5
ENDBRANCH   3   4
ENDBRANCH   2   3
ENDBRANCH   1   2
BRANCH   1  11
ATOM     11  C   UNL     1      27.462  -4.944  -7.735  1.00  0.00     0.000 C 
BRANCH  11  12
ATOM     12  C   UNL     1      27.097  -6.317  -8.330  1.00  0.00    -0.000 C 
BRANCH  12  13
ATOM     13  C   UNL     1      25.632  -6.710  -8.076  1.00  0.00    -0.000 C 
BRANCH  13  14
ATOM     14  C   UNL     1      24.772  -6.634  -9.348  1.00  0.00    -0.000 C 
BRANCH  14  15
ATOM     15  C   UNL     1      23.762  -5.476  -9.313  1.00  0.00    -0.000 C 
BRANCH  15  16
ATOM     16  C   UNL     1      24.190  -4.347 -10.257  1.00  0.00    -0.000 C 
BRANCH  16  17
ATOM     17  C   UNL     1      25.267  -4.826 -11.236  1.00  0.00    -0.003 C 
ATOM     18  C   UNL     1      26.502  -3.931 -11.180  1.00  0.00     0.004 C 
ENDBRANCH  16  17
ENDBRANCH  15  16
ENDBRANCH  14  15
ENDBRANCH  13  14
ENDBRANCH  12  13
ENDBRANCH  11  12
ENDBRANCH   1  11
TORSDOF 14
ENDMDL
MODEL 9
REMARK VINA RESULT:    -4.004      1.363      3.174
REMARK INTER + INTRA:          -9.069
REMARK INTER:                  -6.681
REMARK INTRA:                  -2.387
REMARK UNBOUND:                -1.787
REMARK SMILES CCCCCCCCCCCCCCCC(=O)[O-]
REMARK SMILES IDX 9 1 10 2 11 3 12 4 13 5 14 6 15 7 16 8 17 9 18 10 8 11 7 12
REMARK SMILES IDX 6 13 5 14 4 15 3 16 2 17 1 18
REMARK H PARENT
REMARK Flexibility Score: inf
ROOT
ATOM      1  C   UNL     1      24.857  -2.761  -7.898  1.00  0.00     0.000 C 
ENDROOT
BRANCH   1   2
ATOM      2  C   UNL     1      24.458  -1.627  -8.856  1.00  0.00     0.000 C 
BRANCH   2   3
ATOM      3  C   UNL     1      25.668  -0.807  -9.336  1.00  0.00     0.000 C 
BRANCH   3   4
ATOM      4  C   UNL     1      25.777  -0.753 -10.868  1.00  0.00     0.000 C 
BRANCH   4   5
ATOM      5  C   UNL     1      24.405  -0.950 -11.523  1.00  0.00     0.000 C 
BRANCH   5   6
ATOM      6  C   UNL     1      24.174   0.079 -12.640  1.00  0.00     0.006 C 
BRANCH   6   7
ATOM      7  C   UNL     1      24.480  -0.494 -14.030  1.00  0.00     0.053 C 
BRANCH   7   8
ATOM      8  C   UNL     1      25.781   0.016 -14.569  1.00  0.00     0.041 C 
ATOM      9  O   UNL     1      26.799  -0.726 -14.575  1.00  0.00    -0.550 OA
ATOM     10  O   UNL     1      25.862   1.300 -15.095  1.00  0.00    -0.550 OA
ENDBRANCH   7   8
ENDBRANCH   6   7
ENDBRANCH   5   6
ENDBRANCH   4   5
ENDBRANCH   3   4
ENDBRANCH   2   3
ENDBRANCH   1   2
BRANCH   1  11
ATOM     11  C   UNL     1      24.542  -4.160  -8.460  1.00  0.00     0.000 C 
BRANCH  11  12
ATOM     12  C   UNL     1      24.032  -4.186  -9.913  1.00  0.00    -0.000 C 
BRANCH  12  13
ATOM     13  C   UNL     1      25.146  -4.471 -10.935  1.00  0.00    -0.000 C 
BRANCH  13  14
ATOM     14  C   UNL     1      26.464  -4.895 -10.267  1.00  0.00    -0.000 C 
BRANCH  14  15
ATOM     15  C   UNL     1      27.624  -3.939 -10.586  1.00  0.00    -0.000 C 
BRANCH  15  16
ATOM     16  C   UNL     1      28.295  -3.442  -9.300  1.00  0.00    -0.000 C 
BRANCH  16  17
ATOM     17  C   UNL     1      28.280  -4.527  -8.217  1.00  0.00    -0.003 C 
ATOM     18  C   UNL     1      28.264  -3.912  -6.820  1.00  0.00     0.004 C 
ENDBRANCH  16  17
ENDBRANCH  15  16
ENDBRANCH  14  15
ENDBRANCH  13  14
ENDBRANCH  12  13
ENDBRANCH  11  12
ENDBRANCH   1  11
TORSDOF 14
ENDMDL
