MODEL 1
REMARK VINA RESULT:    -8.178      0.000      0.000
REMARK INTER + INTRA:         -10.082
REMARK INTER:                  -9.851
REMARK INTRA:                  -0.231
REMARK UNBOUND:                -0.231
REMARK SMILES O=c1c(O)c(-c2ccc(O)c(O)c2)oc2cc(O)cc(O)c12
REMARK SMILES IDX 5 1 3 2 2 3 1 4 22 5 20 6 19 7 17 8 16 9 15 10 14 11 6 12
REMARK SMILES IDX 7 13 8 14 9 15 13 16 11 17 10 18 12 20 4 22 21 24 18 26
REMARK H PARENT 10 19 12 21 4 23 21 25 18 27
REMARK Flexibility Score: inf
ROOT
ATOM      1  C   UNL     1     -34.802  -3.847 -17.181  1.00  0.00     0.180 A 
ATOM      2  C   UNL     1     -35.760  -2.986 -16.618  1.00  0.00     0.208 A 
ATOM      3  C   UNL     1     -36.827  -3.537 -15.890  1.00  0.00     0.238 A 
ATOM      4  O   UNL     1     -37.651  -2.759 -15.342  1.00  0.00    -0.285 OA
ATOM      5  C   UNL     1     -36.931  -4.942 -15.749  1.00  0.00     0.111 A 
ATOM      6  C   UNL     1     -37.992  -5.611 -15.067  1.00  0.00     0.134 A 
ATOM      7  C   UNL     1     -37.925  -6.997 -14.876  1.00  0.00     0.093 A 
ATOM      8  C   UNL     1     -36.871  -7.745 -15.398  1.00  0.00     0.123 A 
ATOM      9  C   UNL     1     -35.859  -7.109 -16.118  1.00  0.00     0.094 A 
ATOM     10  C   UNL     1     -35.879  -5.723 -16.294  1.00  0.00     0.146 A 
ATOM     11  O   UNL     1     -34.891  -5.155 -16.975  1.00  0.00    -0.452 OA
ENDROOT
BRANCH   1  12
ATOM     12  C   UNL     1     -33.663  -3.342 -17.981  1.00  0.00     0.025 A 
ATOM     13  C   UNL     1     -32.354  -3.499 -17.498  1.00  0.00     0.016 A 
ATOM     14  C   UNL     1     -31.264  -3.049 -18.246  1.00  0.00     0.051 A 
ATOM     15  C   UNL     1     -31.464  -2.450 -19.497  1.00  0.00     0.157 A 
ATOM     16  C   UNL     1     -33.858  -2.759 -19.247  1.00  0.00     0.062 A 
ATOM     17  C   UNL     1     -32.768  -2.309 -20.000  1.00  0.00     0.158 A 
BRANCH  15  18
ATOM     18  O   UNL     1     -30.374  -2.000 -20.241  1.00  0.00    -0.504 OA
ATOM     19  H   UNL     1     -30.398  -1.972 -21.254  1.00  0.00     0.293 HD
ENDBRANCH  15  18
BRANCH  17  20
ATOM     20  O   UNL     1     -33.000  -1.730 -21.248  1.00  0.00    -0.504 OA
ATOM     21  H   UNL     1     -32.655  -2.144 -22.106  1.00  0.00     0.293 HD
ENDBRANCH  17  20
ENDBRANCH   1  12
BRANCH   2  22
ATOM     22  O   UNL     1     -35.625  -1.601 -16.751  1.00  0.00    -0.502 OA
ATOM     23  H   UNL     1     -36.125  -0.947 -16.162  1.00  0.00     0.293 HD
ENDBRANCH   2  22
BRANCH   6  24
ATOM     24  O   UNL     1     -39.138  -4.970 -14.586  1.00  0.00    -0.507 OA
ATOM     25  H   UNL     1     -40.056  -5.384 -14.551  1.00  0.00     0.293 HD
ENDBRANCH   6  24
BRANCH   8  26
ATOM     26  O   UNL     1     -36.844  -9.125 -15.203  1.00  0.00    -0.508 OA
ATOM     27  H   UNL     1     -36.363  -9.538 -14.413  1.00  0.00     0.293 HD
ENDBRANCH   8  26
TORSDOF 6
ENDMDL
MODEL 2
REMARK VINA RESULT:    -8.054      1.923      7.018
REMARK INTER + INTRA:          -9.933
REMARK INTER:                  -9.690
REMARK INTRA:                  -0.243
REMARK UNBOUND:                -0.231
REMARK SMILES O=c1c(O)c(-c2ccc(O)c(O)c2)oc2cc(O)cc(O)c12
REMARK SMILES IDX 5 1 3 2 2 3 1 4 22 5 20 6 19 7 17 8 16 9 15 10 14 11 6 12
REMARK SMILES IDX 7 13 8 14 9 15 13 16 11 17 10 18 12 20 4 22 21 24 18 26
REMARK H PARENT 10 19 12 21 4 23 21 25 18 27
REMARK Flexibility Score: inf
ROOT
ATOM      1  C   UNL     1     -36.099  -5.753 -16.473  1.00  0.00     0.180 A 
ATOM      2  C   UNL     1     -36.671  -5.091 -17.573  1.00  0.00     0.208 A 
ATOM      3  C   UNL     1     -35.859  -4.267 -18.370  1.00  0.00     0.238 A 
ATOM      4  O   UNL     1     -36.363  -3.720 -19.385  1.00  0.00    -0.285 OA
ATOM      5  C   UNL     1     -34.490  -4.104 -18.047  1.00  0.00     0.111 A 
ATOM      6  C   UNL     1     -33.584  -3.262 -18.760  1.00  0.00     0.134 A 
ATOM      7  C   UNL     1     -32.222  -3.278 -18.431  1.00  0.00     0.093 A 
ATOM      8  C   UNL     1     -31.746  -4.052 -17.375  1.00  0.00     0.123 A 
ATOM      9  C   UNL     1     -32.633  -4.833 -16.633  1.00  0.00     0.094 A 
ATOM     10  C   UNL     1     -33.990  -4.867 -16.959  1.00  0.00     0.146 A 
ATOM     11  O   UNL     1     -34.799  -5.631 -16.235  1.00  0.00    -0.452 OA
ENDROOT
BRANCH   1  12
ATOM     12  C   UNL     1     -36.896  -6.618 -15.574  1.00  0.00     0.025 A 
ATOM     13  C   UNL     1     -36.652  -8.000 -15.548  1.00  0.00     0.016 A 
ATOM     14  C   UNL     1     -37.377  -8.832 -14.692  1.00  0.00     0.051 A 
ATOM     15  C   UNL     1     -38.347  -8.292 -13.836  1.00  0.00     0.157 A 
ATOM     16  C   UNL     1     -37.855  -6.077 -14.698  1.00  0.00     0.062 A 
ATOM     17  C   UNL     1     -38.582  -6.908 -13.837  1.00  0.00     0.158 A 
BRANCH  15  18
ATOM     18  O   UNL     1     -39.070  -9.125 -12.984  1.00  0.00    -0.504 OA
ATOM     19  H   UNL     1     -39.797  -9.739 -13.333  1.00  0.00     0.293 HD
ENDBRANCH  15  18
BRANCH  17  20
ATOM     20  O   UNL     1     -39.530  -6.338 -12.987  1.00  0.00    -0.504 OA
ATOM     21  H   UNL     1     -39.906  -5.411 -13.145  1.00  0.00     0.293 HD
ENDBRANCH  17  20
ENDBRANCH   1  12
BRANCH   2  22
ATOM     22  O   UNL     1     -38.019  -5.285 -17.888  1.00  0.00    -0.502 OA
ATOM     23  H   UNL     1     -38.398  -5.081 -18.804  1.00  0.00     0.293 HD
ENDBRANCH   2  22
BRANCH   6  24
ATOM     24  O   UNL     1     -33.972  -2.379 -19.773  1.00  0.00    -0.507 OA
ATOM     25  H   UNL     1     -34.025  -2.615 -20.751  1.00  0.00     0.293 HD
ENDBRANCH   6  24
BRANCH   8  26
ATOM     26  O   UNL     1     -30.387  -4.031 -17.066  1.00  0.00    -0.508 OA
ATOM     27  H   UNL     1     -29.830  -3.193 -17.182  1.00  0.00     0.293 HD
ENDBRANCH   8  26
TORSDOF 6
ENDMDL
MODEL 3
REMARK VINA RESULT:    -7.628      1.345      3.039
REMARK INTER + INTRA:          -9.420
REMARK INTER:                  -9.194
REMARK INTRA:                  -0.226
REMARK UNBOUND:                -0.231
REMARK SMILES O=c1c(O)c(-c2ccc(O)c(O)c2)oc2cc(O)cc(O)c12
REMARK SMILES IDX 5 1 3 2 2 3 1 4 22 5 20 6 19 7 17 8 16 9 15 10 14 11 6 12
REMARK SMILES IDX 7 13 8 14 9 15 13 16 11 17 10 18 12 20 4 22 21 24 18 26
REMARK H PARENT 10 19 12 21 4 23 21 25 18 27
REMARK Flexibility Score: inf
ROOT
ATOM      1  C   UNL     1     -34.355  -3.850 -17.064  1.00  0.00     0.180 A 
ATOM      2  C   UNL     1     -34.533  -5.227 -16.841  1.00  0.00     0.208 A 
ATOM      3  C   UNL     1     -35.534  -5.649 -15.951  1.00  0.00     0.238 A 
ATOM      4  O   UNL     1     -35.725  -6.884 -15.797  1.00  0.00    -0.285 OA
ATOM      5  C   UNL     1     -36.333  -4.690 -15.284  1.00  0.00     0.111 A 
ATOM      6  C   UNL     1     -37.349  -5.003 -14.331  1.00  0.00     0.134 A 
ATOM      7  C   UNL     1     -38.166  -3.981 -13.831  1.00  0.00     0.093 A 
ATOM      8  C   UNL     1     -37.962  -2.652 -14.197  1.00  0.00     0.123 A 
ATOM      9  C   UNL     1     -36.933  -2.327 -15.083  1.00  0.00     0.094 A 
ATOM     10  C   UNL     1     -36.125  -3.328 -15.626  1.00  0.00     0.146 A 
ATOM     11  O   UNL     1     -35.164  -2.979 -16.474  1.00  0.00    -0.452 OA
ENDROOT
BRANCH   1  12
ATOM     12  C   UNL     1     -33.306  -3.329 -17.968  1.00  0.00     0.025 A 
ATOM     13  C   UNL     1     -31.956  -3.427 -17.592  1.00  0.00     0.016 A 
ATOM     14  C   UNL     1     -30.949  -2.962 -18.439  1.00  0.00     0.051 A 
ATOM     15  C   UNL     1     -31.273  -2.404 -19.683  1.00  0.00     0.157 A 
ATOM     16  C   UNL     1     -33.625  -2.788 -19.227  1.00  0.00     0.062 A 
ATOM     17  C   UNL     1     -32.618  -2.322 -20.079  1.00  0.00     0.158 A 
BRANCH  15  18
ATOM     18  O   UNL     1     -30.265  -1.937 -20.526  1.00  0.00    -0.504 OA
ATOM     19  H   UNL     1     -29.919  -2.495 -21.298  1.00  0.00     0.293 HD
ENDBRANCH  15  18
BRANCH  17  20
ATOM     20  O   UNL     1     -32.973  -1.786 -21.317  1.00  0.00    -0.504 OA
ATOM     21  H   UNL     1     -33.225  -2.371 -22.104  1.00  0.00     0.293 HD
ENDBRANCH  17  20
ENDBRANCH   1  12
BRANCH   2  22
ATOM     22  O   UNL     1     -33.748  -6.157 -17.528  1.00  0.00    -0.502 OA
ATOM     23  H   UNL     1     -33.129  -6.803 -17.053  1.00  0.00     0.293 HD
ENDBRANCH   2  22
BRANCH   6  24
ATOM     24  O   UNL     1     -37.577  -6.287 -13.827  1.00  0.00    -0.507 OA
ATOM     25  H   UNL     1     -37.655  -6.514 -12.848  1.00  0.00     0.293 HD
ENDBRANCH   6  24
BRANCH   8  26
ATOM     26  O   UNL     1     -38.784  -1.658 -13.668  1.00  0.00    -0.508 OA
ATOM     27  H   UNL     1     -39.306  -1.030 -14.266  1.00  0.00     0.293 HD
ENDBRANCH   8  26
TORSDOF 6
ENDMDL
MODEL 4
REMARK VINA RESULT:    -7.575      1.827      6.875
REMARK INTER + INTRA:          -9.356
REMARK INTER:                  -9.158
REMARK INTRA:                  -0.197
REMARK UNBOUND:                -0.231
REMARK SMILES O=c1c(O)c(-c2ccc(O)c(O)c2)oc2cc(O)cc(O)c12
REMARK SMILES IDX 5 1 3 2 2 3 1 4 22 5 20 6 19 7 17 8 16 9 15 10 14 11 6 12
REMARK SMILES IDX 7 13 8 14 9 15 13 16 11 17 10 18 12 20 4 22 21 24 18 26
REMARK H PARENT 10 19 12 21 4 23 21 25 18 27
REMARK Flexibility Score: inf
ROOT
ATOM      1  C   UNL     1     -34.791  -4.944 -16.912  1.00  0.00     0.180 A 
ATOM      2  C   UNL     1     -35.531  -4.326 -17.935  1.00  0.00     0.208 A 
ATOM      3  C   UNL     1     -34.864  -3.503 -18.857  1.00  0.00     0.238 A 
ATOM      4  O   UNL     1     -35.522  -2.996 -19.802  1.00  0.00    -0.285 OA
ATOM      5  C   UNL     1     -33.468  -3.295 -18.734  1.00  0.00     0.111 A 
ATOM      6  C   UNL     1     -32.697  -2.450 -19.586  1.00  0.00     0.134 A 
ATOM      7  C   UNL     1     -31.303  -2.421 -19.454  1.00  0.00     0.093 A 
ATOM      8  C   UNL     1     -30.659  -3.155 -18.459  1.00  0.00     0.123 A 
ATOM      9  C   UNL     1     -31.410  -3.939 -17.581  1.00  0.00     0.094 A 
ATOM     10  C   UNL     1     -32.798  -4.016 -17.711  1.00  0.00     0.146 A 
ATOM     11  O   UNL     1     -33.474  -4.782 -16.863  1.00  0.00    -0.452 OA
ENDROOT
BRANCH   1  12
ATOM     12  C   UNL     1     -35.428  -5.805 -15.890  1.00  0.00     0.025 A 
ATOM     13  C   UNL     1     -35.539  -5.343 -14.568  1.00  0.00     0.016 A 
ATOM     14  C   UNL     1     -36.156  -6.130 -13.593  1.00  0.00     0.051 A 
ATOM     15  C   UNL     1     -36.684  -7.384 -13.927  1.00  0.00     0.157 A 
ATOM     16  C   UNL     1     -35.979  -7.055 -16.225  1.00  0.00     0.062 A 
ATOM     17  C   UNL     1     -36.599  -7.845 -15.251  1.00  0.00     0.158 A 
BRANCH  15  18
ATOM     18  O   UNL     1     -37.298  -8.169 -12.950  1.00  0.00    -0.504 OA
ATOM     19  H   UNL     1     -37.704  -9.070 -13.172  1.00  0.00     0.293 HD
ENDBRANCH  15  18
BRANCH  17  20
ATOM     20  O   UNL     1     -37.128  -9.082 -15.618  1.00  0.00    -0.504 OA
ATOM     21  H   UNL     1     -37.182  -9.379 -16.585  1.00  0.00     0.293 HD
ENDBRANCH  17  20
ENDBRANCH   1  12
BRANCH   2  22
ATOM     22  O   UNL     1     -36.903  -4.563 -18.051  1.00  0.00    -0.502 OA
ATOM     23  H   UNL     1     -37.418  -5.119 -17.379  1.00  0.00     0.293 HD
ENDBRANCH   2  22
BRANCH   6  24
ATOM     24  O   UNL     1     -33.249  -1.604 -20.554  1.00  0.00    -0.507 OA
ATOM     25  H   UNL     1     -33.273  -0.598 -20.491  1.00  0.00     0.293 HD
ENDBRANCH   6  24
BRANCH   8  26
ATOM     26  O   UNL     1     -29.272  -3.091 -18.345  1.00  0.00    -0.508 OA
ATOM     27  H   UNL     1     -28.736  -3.864 -17.970  1.00  0.00     0.293 HD
ENDBRANCH   8  26
TORSDOF 6
ENDMDL
MODEL 5
REMARK VINA RESULT:    -7.541      3.000      6.853
REMARK INTER + INTRA:          -9.315
REMARK INTER:                  -9.070
REMARK INTRA:                  -0.245
REMARK UNBOUND:                -0.231
REMARK SMILES O=c1c(O)c(-c2ccc(O)c(O)c2)oc2cc(O)cc(O)c12
REMARK SMILES IDX 5 1 3 2 2 3 1 4 22 5 20 6 19 7 17 8 16 9 15 10 14 11 6 12
REMARK SMILES IDX 7 13 8 14 9 15 13 16 11 17 10 18 12 20 4 22 21 24 18 26
REMARK H PARENT 10 19 12 21 4 23 21 25 18 27
REMARK Flexibility Score: inf
ROOT
ATOM      1  C   UNL     1     -34.968  -3.064 -18.548  1.00  0.00     0.180 A 
ATOM      2  C   UNL     1     -34.419  -3.734 -17.441  1.00  0.00     0.208 A 
ATOM      3  C   UNL     1     -33.025  -3.891 -17.363  1.00  0.00     0.238 A 
ATOM      4  O   UNL     1     -32.535  -4.444 -16.345  1.00  0.00    -0.285 OA
ATOM      5  C   UNL     1     -32.201  -3.391 -18.401  1.00  0.00     0.111 A 
ATOM      6  C   UNL     1     -30.782  -3.529 -18.446  1.00  0.00     0.134 A 
ATOM      7  C   UNL     1     -30.056  -2.882 -19.454  1.00  0.00     0.093 A 
ATOM      8  C   UNL     1     -30.702  -2.157 -20.453  1.00  0.00     0.123 A 
ATOM      9  C   UNL     1     -32.095  -2.065 -20.453  1.00  0.00     0.094 A 
ATOM     10  C   UNL     1     -32.843  -2.669 -19.441  1.00  0.00     0.146 A 
ATOM     11  O   UNL     1     -34.165  -2.548 -19.470  1.00  0.00    -0.452 OA
ENDROOT
BRANCH   1  12
ATOM     12  C   UNL     1     -36.429  -2.880 -18.711  1.00  0.00     0.025 A 
ATOM     13  C   UNL     1     -37.097  -1.922 -17.932  1.00  0.00     0.016 A 
ATOM     14  C   UNL     1     -38.470  -1.718 -18.085  1.00  0.00     0.051 A 
ATOM     15  C   UNL     1     -39.194  -2.457 -19.031  1.00  0.00     0.157 A 
ATOM     16  C   UNL     1     -37.155  -3.605 -19.674  1.00  0.00     0.062 A 
ATOM     17  C   UNL     1     -38.530  -3.401 -19.831  1.00  0.00     0.158 A 
BRANCH  15  18
ATOM     18  O   UNL     1     -40.565  -2.252 -19.180  1.00  0.00    -0.504 OA
ATOM     19  H   UNL     1     -40.985  -1.342 -19.029  1.00  0.00     0.293 HD
ENDBRANCH  15  18
BRANCH  17  20
ATOM     20  O   UNL     1     -39.219  -4.142 -20.791  1.00  0.00    -0.504 OA
ATOM     21  H   UNL     1     -39.906  -4.842 -20.540  1.00  0.00     0.293 HD
ENDBRANCH  17  20
ENDBRANCH   1  12
BRANCH   2  22
ATOM     22  O   UNL     1     -35.249  -4.200 -16.418  1.00  0.00    -0.502 OA
ATOM     23  H   UNL     1     -34.888  -4.668 -15.596  1.00  0.00     0.293 HD
ENDBRANCH   2  22
BRANCH   6  24
ATOM     24  O   UNL     1     -30.045  -4.308 -17.548  1.00  0.00    -0.507 OA
ATOM     25  H   UNL     1     -29.407  -3.941 -16.859  1.00  0.00     0.293 HD
ENDBRANCH   6  24
BRANCH   8  26
ATOM     26  O   UNL     1     -29.949  -1.538 -21.450  1.00  0.00    -0.508 OA
ATOM     27  H   UNL     1     -29.788  -0.538 -21.448  1.00  0.00     0.293 HD
ENDBRANCH   8  26
TORSDOF 6
ENDMDL
MODEL 6
REMARK VINA RESULT:    -7.519      1.339      1.622
REMARK INTER + INTRA:          -9.289
REMARK INTER:                  -9.069
REMARK INTRA:                  -0.220
REMARK UNBOUND:                -0.231
REMARK SMILES O=c1c(O)c(-c2ccc(O)c(O)c2)oc2cc(O)cc(O)c12
REMARK SMILES IDX 5 1 3 2 2 3 1 4 22 5 20 6 19 7 17 8 16 9 15 10 14 11 6 12
REMARK SMILES IDX 7 13 8 14 9 15 13 16 11 17 10 18 12 20 4 22 21 24 18 26
REMARK H PARENT 10 19 12 21 4 23 21 25 18 27
REMARK Flexibility Score: inf
ROOT
ATOM      1  C   UNL     1     -35.576  -4.217 -15.925  1.00  0.00     0.180 A 
ATOM      2  C   UNL     1     -36.366  -3.221 -15.325  1.00  0.00     0.208 A 
ATOM      3  C   UNL     1     -37.456  -3.605 -14.526  1.00  0.00     0.238 A 
ATOM      4  O   UNL     1     -38.127  -2.711 -13.948  1.00  0.00    -0.285 OA
ATOM      5  C   UNL     1     -37.751  -4.979 -14.353  1.00  0.00     0.111 A 
ATOM      6  C   UNL     1     -38.854  -5.482 -13.599  1.00  0.00     0.134 A 
ATOM      7  C   UNL     1     -38.975  -6.861 -13.386  1.00  0.00     0.093 A 
ATOM      8  C   UNL     1     -38.071  -7.758 -13.952  1.00  0.00     0.123 A 
ATOM      9  C   UNL     1     -37.023  -7.281 -14.741  1.00  0.00     0.094 A 
ATOM     10  C   UNL     1     -36.856  -5.909 -14.942  1.00  0.00     0.146 A 
ATOM     11  O   UNL     1     -35.839  -5.496 -15.689  1.00  0.00    -0.452 OA
ENDROOT
BRANCH   1  12
ATOM     12  C   UNL     1     -34.427  -3.889 -16.799  1.00  0.00     0.025 A 
ATOM     13  C   UNL     1     -33.130  -4.250 -16.400  1.00  0.00     0.016 A 
ATOM     14  C   UNL     1     -32.034  -3.970 -17.219  1.00  0.00     0.051 A 
ATOM     15  C   UNL     1     -32.218  -3.339 -18.456  1.00  0.00     0.157 A 
ATOM     16  C   UNL     1     -34.610  -3.275 -18.051  1.00  0.00     0.062 A 
ATOM     17  C   UNL     1     -33.513  -2.995 -18.875  1.00  0.00     0.158 A 
BRANCH  15  18
ATOM     18  O   UNL     1     -31.121  -3.059 -19.271  1.00  0.00    -0.504 OA
ATOM     19  H   UNL     1     -30.202  -2.883 -18.881  1.00  0.00     0.293 HD
ENDBRANCH  15  18
BRANCH  17  20
ATOM     20  O   UNL     1     -33.733  -2.379 -20.107  1.00  0.00    -0.504 OA
ATOM     21  H   UNL     1     -34.357  -1.588 -20.211  1.00  0.00     0.293 HD
ENDBRANCH  17  20
ENDBRANCH   1  12
BRANCH   2  22
ATOM     22  O   UNL     1     -36.043  -1.872 -15.492  1.00  0.00    -0.502 OA
ATOM     23  H   UNL     1     -35.561  -1.336 -14.780  1.00  0.00     0.293 HD
ENDBRANCH   2  22
BRANCH   6  24
ATOM     24  O   UNL     1     -39.866  -4.677 -13.066  1.00  0.00    -0.507 OA
ATOM     25  H   UNL     1     -40.851  -4.885 -13.115  1.00  0.00     0.293 HD
ENDBRANCH   6  24
BRANCH   8  26
ATOM     26  O   UNL     1     -38.230  -9.125 -13.733  1.00  0.00    -0.508 OA
ATOM     27  H   UNL     1     -38.030  -9.804 -14.457  1.00  0.00     0.293 HD
ENDBRANCH   8  26
TORSDOF 6
ENDMDL
MODEL 7
REMARK VINA RESULT:    -7.432      5.191      6.848
REMARK INTER + INTRA:          -9.184
REMARK INTER:                  -8.961
REMARK INTRA:                  -0.223
REMARK UNBOUND:                -0.231
REMARK SMILES O=c1c(O)c(-c2ccc(O)c(O)c2)oc2cc(O)cc(O)c12
REMARK SMILES IDX 5 1 3 2 2 3 1 4 22 5 20 6 19 7 17 8 16 9 15 10 14 11 6 12
REMARK SMILES IDX 7 13 8 14 9 15 13 16 11 17 10 18 12 20 4 22 21 24 18 26
REMARK H PARENT 10 19 12 21 4 23 21 25 18 27
REMARK Flexibility Score: inf
ROOT
ATOM      1  C   UNL     1     -37.820  -4.169 -12.601  1.00  0.00     0.180 A 
ATOM      2  C   UNL     1     -36.672  -4.748 -13.168  1.00  0.00     0.208 A 
ATOM      3  C   UNL     1     -36.755  -6.048 -13.696  1.00  0.00     0.238 A 
ATOM      4  O   UNL     1     -35.739  -6.541 -14.252  1.00  0.00    -0.285 OA
ATOM      5  C   UNL     1     -37.980  -6.756 -13.634  1.00  0.00     0.111 A 
ATOM      6  C   UNL     1     -38.168  -8.092 -14.101  1.00  0.00     0.134 A 
ATOM      7  C   UNL     1     -39.454  -8.646 -14.109  1.00  0.00     0.093 A 
ATOM      8  C   UNL     1     -40.545  -7.940 -13.607  1.00  0.00     0.123 A 
ATOM      9  C   UNL     1     -40.363  -6.655 -13.094  1.00  0.00     0.094 A 
ATOM     10  C   UNL     1     -39.099  -6.061 -13.106  1.00  0.00     0.146 A 
ATOM     11  O   UNL     1     -38.970  -4.833 -12.618  1.00  0.00    -0.452 OA
ENDROOT
BRANCH   1  12
ATOM     12  C   UNL     1     -37.805  -2.814 -12.004  1.00  0.00     0.025 A 
ATOM     13  C   UNL     1     -37.848  -2.673 -10.607  1.00  0.00     0.016 A 
ATOM     14  C   UNL     1     -37.813  -1.406 -10.022  1.00  0.00     0.051 A 
ATOM     15  C   UNL     1     -37.717  -0.260 -10.823  1.00  0.00     0.157 A 
ATOM     16  C   UNL     1     -37.687  -1.663 -12.803  1.00  0.00     0.062 A 
ATOM     17  C   UNL     1     -37.649  -0.391 -12.219  1.00  0.00     0.158 A 
BRANCH  15  18
ATOM     18  O   UNL     1     -37.683   1.005 -10.236  1.00  0.00    -0.504 OA
ATOM     19  H   UNL     1     -38.406   1.311  -9.594  1.00  0.00     0.293 HD
ENDBRANCH  15  18
BRANCH  17  20
ATOM     20  O   UNL     1     -37.538   0.729 -13.044  1.00  0.00    -0.504 OA
ATOM     21  H   UNL     1     -37.184   0.668 -13.991  1.00  0.00     0.293 HD
ENDBRANCH  17  20
ENDBRANCH   1  12
BRANCH   2  22
ATOM     22  O   UNL     1     -35.480  -4.023 -13.239  1.00  0.00    -0.502 OA
ATOM     23  H   UNL     1     -34.796  -4.172 -13.971  1.00  0.00     0.293 HD
ENDBRANCH   2  22
BRANCH   6  24
ATOM     24  O   UNL     1     -37.128  -8.919 -14.537  1.00  0.00    -0.507 OA
ATOM     25  H   UNL     1     -37.252  -9.761 -15.078  1.00  0.00     0.293 HD
ENDBRANCH   6  24
BRANCH   8  26
ATOM     26  O   UNL     1     -41.809  -8.528 -13.617  1.00  0.00    -0.508 OA
ATOM     27  H   UNL     1     -42.586  -8.105 -14.108  1.00  0.00     0.293 HD
ENDBRANCH   8  26
TORSDOF 6
ENDMDL
MODEL 8
REMARK VINA RESULT:    -7.323      2.242      4.317
REMARK INTER + INTRA:          -9.053
REMARK INTER:                  -8.774
REMARK INTRA:                  -0.280
REMARK UNBOUND:                -0.231
REMARK SMILES O=c1c(O)c(-c2ccc(O)c(O)c2)oc2cc(O)cc(O)c12
REMARK SMILES IDX 5 1 3 2 2 3 1 4 22 5 20 6 19 7 17 8 16 9 15 10 14 11 6 12
REMARK SMILES IDX 7 13 8 14 9 15 13 16 11 17 10 18 12 20 4 22 21 24 18 26
REMARK H PARENT 10 19 12 21 4 23 21 25 18 27
REMARK Flexibility Score: inf
ROOT
ATOM      1  C   UNL     1     -36.540  -5.442 -15.556  1.00  0.00     0.180 A 
ATOM      2  C   UNL     1     -36.938  -6.791 -15.545  1.00  0.00     0.208 A 
ATOM      3  C   UNL     1     -38.007  -7.179 -14.720  1.00  0.00     0.238 A 
ATOM      4  O   UNL     1     -38.394  -8.376 -14.755  1.00  0.00    -0.285 OA
ATOM      5  C   UNL     1     -38.652  -6.217 -13.904  1.00  0.00     0.111 A 
ATOM      6  C   UNL     1     -39.717  -6.506 -13.000  1.00  0.00     0.134 A 
ATOM      7  C   UNL     1     -40.367  -5.456 -12.340  1.00  0.00     0.093 A 
ATOM      8  C   UNL     1     -39.949  -4.136 -12.500  1.00  0.00     0.123 A 
ATOM      9  C   UNL     1     -38.869  -3.849 -13.336  1.00  0.00     0.094 A 
ATOM     10  C   UNL     1     -38.223  -4.871 -14.036  1.00  0.00     0.146 A 
ATOM     11  O   UNL     1     -37.208  -4.554 -14.830  1.00  0.00    -0.452 OA
ENDROOT
BRANCH   1  12
ATOM     12  C   UNL     1     -35.408  -4.963 -16.381  1.00  0.00     0.025 A 
ATOM     13  C   UNL     1     -35.600  -4.735 -17.753  1.00  0.00     0.016 A 
ATOM     14  C   UNL     1     -34.553  -4.262 -18.545  1.00  0.00     0.051 A 
ATOM     15  C   UNL     1     -33.301  -3.994 -17.976  1.00  0.00     0.157 A 
ATOM     16  C   UNL     1     -34.157  -4.672 -15.809  1.00  0.00     0.062 A 
ATOM     17  C   UNL     1     -33.105  -4.196 -16.600  1.00  0.00     0.158 A 
BRANCH  15  18
ATOM     18  O   UNL     1     -32.255  -3.524 -18.770  1.00  0.00    -0.504 OA
ATOM     19  H   UNL     1     -32.099  -2.532 -18.909  1.00  0.00     0.293 HD
ENDBRANCH  15  18
BRANCH  17  20
ATOM     20  O   UNL     1     -31.875  -3.925 -16.000  1.00  0.00    -0.504 OA
ATOM     21  H   UNL     1     -31.025  -4.403 -16.274  1.00  0.00     0.293 HD
ENDBRANCH  17  20
ENDBRANCH   1  12
BRANCH   2  22
ATOM     22  O   UNL     1     -36.303  -7.718 -16.375  1.00  0.00    -0.502 OA
ATOM     23  H   UNL     1     -36.797  -8.232 -17.094  1.00  0.00     0.293 HD
ENDBRANCH   2  22
BRANCH   6  24
ATOM     24  O   UNL     1     -40.154  -7.800 -12.696  1.00  0.00    -0.507 OA
ATOM     25  H   UNL     1     -41.006  -8.214 -13.041  1.00  0.00     0.293 HD
ENDBRANCH   6  24
BRANCH   8  26
ATOM     26  O   UNL     1     -40.608  -3.117 -11.815  1.00  0.00    -0.508 OA
ATOM     27  H   UNL     1     -40.337  -2.147 -11.920  1.00  0.00     0.293 HD
ENDBRANCH   8  26
TORSDOF 6
ENDMDL
MODEL 9
REMARK VINA RESULT:    -7.317      2.155      3.355
REMARK INTER + INTRA:          -9.045
REMARK INTER:                  -8.844
REMARK INTRA:                  -0.201
REMARK UNBOUND:                -0.231
REMARK SMILES O=c1c(O)c(-c2ccc(O)c(O)c2)oc2cc(O)cc(O)c12
REMARK SMILES IDX 5 1 3 2 2 3 1 4 22 5 20 6 19 7 17 8 16 9 15 10 14 11 6 12
REMARK SMILES IDX 7 13 8 14 9 15 13 16 11 17 10 18 12 20 4 22 21 24 18 26
REMARK H PARENT 10 19 12 21 4 23 21 25 18 27
REMARK Flexibility Score: inf
ROOT
ATOM      1  C   UNL     1     -36.834  -4.769 -15.519  1.00  0.00     0.180 A 
ATOM      2  C   UNL     1     -37.130  -3.779 -14.567  1.00  0.00     0.208 A 
ATOM      3  C   UNL     1     -38.125  -4.032 -13.608  1.00  0.00     0.238 A 
ATOM      4  O   UNL     1     -38.348  -3.165 -12.724  1.00  0.00    -0.285 OA
ATOM      5  C   UNL     1     -38.822  -5.265 -13.626  1.00  0.00     0.111 A 
ATOM      6  C   UNL     1     -39.877  -5.612 -12.729  1.00  0.00     0.134 A 
ATOM      7  C   UNL     1     -40.406  -6.909 -12.754  1.00  0.00     0.093 A 
ATOM      8  C   UNL     1     -39.966  -7.848 -13.686  1.00  0.00     0.123 A 
ATOM      9  C   UNL     1     -38.977  -7.500 -14.607  1.00  0.00     0.094 A 
ATOM     10  C   UNL     1     -38.404  -6.226 -14.583  1.00  0.00     0.146 A 
ATOM     11  O   UNL     1     -37.458  -5.939 -15.469  1.00  0.00    -0.452 OA
ENDROOT
BRANCH   1  12
ATOM     12  C   UNL     1     -35.815  -4.565 -16.575  1.00  0.00     0.025 A 
ATOM     13  C   UNL     1     -36.046  -3.618 -17.585  1.00  0.00     0.016 A 
ATOM     14  C   UNL     1     -35.090  -3.394 -18.578  1.00  0.00     0.051 A 
ATOM     15  C   UNL     1     -33.880  -4.102 -18.567  1.00  0.00     0.157 A 
ATOM     16  C   UNL     1     -34.591  -5.258 -16.555  1.00  0.00     0.062 A 
ATOM     17  C   UNL     1     -33.630  -5.035 -17.548  1.00  0.00     0.158 A 
BRANCH  15  18
ATOM     18  O   UNL     1     -32.928  -3.878 -19.561  1.00  0.00    -0.504 OA
ATOM     19  H   UNL     1     -32.181  -4.540 -19.739  1.00  0.00     0.293 HD
ENDBRANCH  15  18
BRANCH  17  20
ATOM     20  O   UNL     1     -32.430  -5.745 -17.500  1.00  0.00    -0.504 OA
ATOM     21  H   UNL     1     -32.037  -6.193 -18.319  1.00  0.00     0.293 HD
ENDBRANCH  17  20
ENDBRANCH   1  12
BRANCH   2  22
ATOM     22  O   UNL     1     -36.414  -2.579 -14.553  1.00  0.00    -0.502 OA
ATOM     23  H   UNL     1     -36.790  -1.717 -14.928  1.00  0.00     0.293 HD
ENDBRANCH   2  22
BRANCH   6  24
ATOM     24  O   UNL     1     -40.454  -4.720 -11.820  1.00  0.00    -0.507 OA
ATOM     25  H   UNL     1     -40.477  -3.719 -11.934  1.00  0.00     0.293 HD
ENDBRANCH   6  24
BRANCH   8  26
ATOM     26  O   UNL     1     -40.526  -9.124 -13.693  1.00  0.00    -0.508 OA
ATOM     27  H   UNL     1     -40.681  -9.638 -12.834  1.00  0.00     0.293 HD
ENDBRANCH   8  26
TORSDOF 6
ENDMDL
