MODEL 1
REMARK VINA RESULT:    -4.709      0.000      0.000
REMARK INTER + INTRA:         -14.549
REMARK INTER:                 -11.866
REMARK INTRA:                  -2.684
REMARK UNBOUND:                -2.684
REMARK SMILES CCCCCCCCCCCCCCCCCCCCCCCCCCCC(=O)[O-]
REMARK SMILES IDX 15 1 16 2 17 3 18 4 19 5 20 6 21 7 22 8 23 9 24 10 25 11
REMARK SMILES IDX 26 12 27 13 28 14 29 15 30 16 14 17 13 18 12 19 11 20 10 21
REMARK SMILES IDX 9 22 8 23 7 24 6 25 5 26 4 27 3 28 2 29 1 30
REMARK H PARENT
REMARK Flexibility Score: inf
ROOT
ATOM      1  C   UNL     1      23.444 -14.977  26.359  1.00  0.00     0.000 C 
ENDROOT
BRANCH   1   2
ATOM      2  C   UNL     1      24.944 -14.909  26.688  1.00  0.00     0.000 C 
BRANCH   2   3
ATOM      3  C   UNL     1      25.646 -16.268  26.521  1.00  0.00     0.000 C 
BRANCH   3   4
ATOM      4  C   UNL     1      26.635 -16.287  25.345  1.00  0.00     0.000 C 
BRANCH   4   5
ATOM      5  C   UNL     1      26.446 -17.513  24.436  1.00  0.00     0.000 C 
BRANCH   5   6
ATOM      6  C   UNL     1      26.370 -18.831  25.225  1.00  0.00     0.000 C 
BRANCH   6   7
ATOM      7  C   UNL     1      27.574 -19.767  24.977  1.00  0.00     0.000 C 
BRANCH   7   8
ATOM      8  C   UNL     1      28.752 -19.029  24.316  1.00  0.00     0.000 C 
BRANCH   8   9
ATOM      9  C   UNL     1      29.840 -18.608  25.327  1.00  0.00     0.000 C 
BRANCH   9  10
ATOM     10  C   UNL     1      29.779 -19.365  26.667  1.00  0.00     0.000 C 
BRANCH  10  11
ATOM     11  C   UNL     1      29.519 -18.489  27.906  1.00  0.00     0.000 C 
BRANCH  11  12
ATOM     12  C   UNL     1      28.116 -18.636  28.531  1.00  0.00     0.006 C 
BRANCH  12  13
ATOM     13  C   UNL     1      27.619 -17.390  29.283  1.00  0.00     0.053 C 
BRANCH  13  14
ATOM     14  C   UNL     1      28.571 -16.968  30.360  1.00  0.00     0.041 C 
ATOM     15  O   UNL     1      28.924 -17.786  31.249  1.00  0.00    -0.550 OA
ATOM     16  O   UNL     1      29.093 -15.681  30.364  1.00  0.00    -0.550 OA
ENDBRANCH  13  14
ENDBRANCH  12  13
ENDBRANCH  11  12
ENDBRANCH  10  11
ENDBRANCH   9  10
ENDBRANCH   8   9
ENDBRANCH   7   8
ENDBRANCH   6   7
ENDBRANCH   5   6
ENDBRANCH   4   5
ENDBRANCH   3   4
ENDBRANCH   2   3
ENDBRANCH   1   2
BRANCH   1  17
ATOM     17  C   UNL     1      22.917 -16.423  26.312  1.00  0.00     0.000 C 
BRANCH  17  18
ATOM     18  C   UNL     1      22.129 -16.801  27.579  1.00  0.00     0.000 C 
BRANCH  18  19
ATOM     19  C   UNL     1      21.738 -15.586  28.452  1.00  0.00     0.000 C 
BRANCH  19  20
ATOM     20  C   UNL     1      20.736 -15.928  29.572  1.00  0.00     0.000 C 
BRANCH  20  21
ATOM     21  C   UNL     1      19.607 -14.900  29.758  1.00  0.00     0.000 C 
BRANCH  21  22
ATOM     22  C   UNL     1      18.517 -15.304  30.771  1.00  0.00    -0.000 C 
BRANCH  22  23
ATOM     23  C   UNL     1      19.064 -16.025  32.023  1.00  0.00    -0.000 C 
BRANCH  23  24
ATOM     24  C   UNL     1      18.193 -17.222  32.440  1.00  0.00    -0.000 C 
BRANCH  24  25
ATOM     25  C   UNL     1      17.348 -17.763  31.266  1.00  0.00    -0.000 C 
BRANCH  25  26
ATOM     26  C   UNL     1      15.833 -17.745  31.537  1.00  0.00    -0.000 C 
BRANCH  26  27
ATOM     27  C   UNL     1      15.029 -17.173  30.359  1.00  0.00    -0.000 C 
BRANCH  27  28
ATOM     28  C   UNL     1      13.507 -17.301  30.554  1.00  0.00    -0.000 C 
BRANCH  28  29
ATOM     29  C   UNL     1      12.842 -16.117  31.279  1.00  0.00    -0.003 C 
ATOM     30  C   UNL     1      11.652 -15.537  30.515  1.00  0.00     0.004 C 
ENDBRANCH  28  29
ENDBRANCH  27  28
ENDBRANCH  26  27
ENDBRANCH  25  26
ENDBRANCH  24  25
ENDBRANCH  23  24
ENDBRANCH  22  23
ENDBRANCH  21  22
ENDBRANCH  20  21
ENDBRANCH  19  20
ENDBRANCH  18  19
ENDBRANCH  17  18
ENDBRANCH   1  17
TORSDOF 26
ENDMDL
MODEL 2
REMARK VINA RESULT:    -4.573      3.956     11.164
REMARK INTER + INTRA:         -14.208
REMARK INTER:                 -11.417
REMARK INTRA:                  -2.790
REMARK UNBOUND:                -2.684
REMARK SMILES CCCCCCCCCCCCCCCCCCCCCCCCCCCC(=O)[O-]
REMARK SMILES IDX 15 1 16 2 17 3 18 4 19 5 20 6 21 7 22 8 23 9 24 10 25 11
REMARK SMILES IDX 26 12 27 13 28 14 29 15 30 16 14 17 13 18 12 19 11 20 10 21
REMARK SMILES IDX 9 22 8 23 7 24 6 25 5 26 4 27 3 28 2 29 1 30
REMARK H PARENT
REMARK Flexibility Score: inf
ROOT
ATOM      1  C   UNL     1      25.206 -16.609  26.745  1.00  0.00     0.000 C 
ENDROOT
BRANCH   1   2
ATOM      2  C   UNL     1      23.724 -16.536  26.341  1.00  0.00     0.000 C 
BRANCH   2   3
ATOM      3  C   UNL     1      23.120 -15.139  26.567  1.00  0.00     0.000 C 
BRANCH   3   4
ATOM      4  C   UNL     1      22.165 -15.091  27.770  1.00  0.00     0.000 C 
BRANCH   4   5
ATOM      5  C   UNL     1      21.779 -16.491  28.273  1.00  0.00     0.000 C 
BRANCH   5   6
ATOM      6  C   UNL     1      20.739 -16.450  29.405  1.00  0.00     0.000 C 
BRANCH   6   7
ATOM      7  C   UNL     1      20.181 -15.036  29.678  1.00  0.00     0.000 C 
BRANCH   7   8
ATOM      8  C   UNL     1      19.162 -15.030  30.832  1.00  0.00     0.000 C 
BRANCH   8   9
ATOM      9  C   UNL     1      19.327 -16.233  31.785  1.00  0.00     0.000 C 
BRANCH   9  10
ATOM     10  C   UNL     1      17.996 -16.823  32.288  1.00  0.00     0.000 C 
BRANCH  10  11
ATOM     11  C   UNL     1      17.652 -18.224  31.750  1.00  0.00     0.000 C 
BRANCH  11  12
ATOM     12  C   UNL     1      17.702 -18.368  30.215  1.00  0.00     0.006 C 
BRANCH  12  13
ATOM     13  C   UNL     1      16.666 -17.519  29.460  1.00  0.00     0.053 C 
BRANCH  13  14
ATOM     14  C   UNL     1      15.264 -17.850  29.868  1.00  0.00     0.041 C 
ATOM     15  O   UNL     1      14.810 -19.011  29.690  1.00  0.00    -0.550 OA
ATOM     16  O   UNL     1      14.468 -16.887  30.476  1.00  0.00    -0.550 OA
ENDBRANCH  13  14
ENDBRANCH  12  13
ENDBRANCH  11  12
ENDBRANCH  10  11
ENDBRANCH   9  10
ENDBRANCH   8   9
ENDBRANCH   7   8
ENDBRANCH   6   7
ENDBRANCH   5   6
ENDBRANCH   4   5
ENDBRANCH   3   4
ENDBRANCH   2   3
ENDBRANCH   1   2
BRANCH   1  17
ATOM     17  C   UNL     1      26.144 -16.107  25.632  1.00  0.00     0.000 C 
BRANCH  17  18
ATOM     18  C   UNL     1      26.624 -17.245  24.713  1.00  0.00     0.000 C 
BRANCH  18  19
ATOM     19  C   UNL     1      26.605 -18.637  25.387  1.00  0.00     0.000 C 
BRANCH  19  20
ATOM     20  C   UNL     1      27.808 -19.523  25.009  1.00  0.00     0.000 C 
BRANCH  20  21
ATOM     21  C   UNL     1      29.178 -18.839  25.154  1.00  0.00     0.000 C 
BRANCH  21  22
ATOM     22  C   UNL     1      29.531 -18.382  26.584  1.00  0.00    -0.000 C 
BRANCH  22  23
ATOM     23  C   UNL     1      29.441 -19.506  27.638  1.00  0.00    -0.000 C 
BRANCH  23  24
ATOM     24  C   UNL     1      28.427 -19.188  28.751  1.00  0.00    -0.000 C 
BRANCH  24  25
ATOM     25  C   UNL     1      27.989 -17.708  28.732  1.00  0.00    -0.000 C 
BRANCH  25  26
ATOM     26  C   UNL     1      27.972 -17.052  30.124  1.00  0.00    -0.000 C 
BRANCH  26  27
ATOM     27  C   UNL     1      29.282 -16.315  30.446  1.00  0.00    -0.000 C 
BRANCH  27  28
ATOM     28  C   UNL     1      29.121 -15.267  31.562  1.00  0.00    -0.000 C 
BRANCH  28  29
ATOM     29  C   UNL     1      29.708 -13.880  31.244  1.00  0.00    -0.003 C 
ATOM     30  C   UNL     1      29.202 -12.785  32.183  1.00  0.00     0.004 C 
ENDBRANCH  28  29
ENDBRANCH  27  28
ENDBRANCH  26  27
ENDBRANCH  25  26
ENDBRANCH  24  25
ENDBRANCH  23  24
ENDBRANCH  22  23
ENDBRANCH  21  22
ENDBRANCH  20  21
ENDBRANCH  19  20
ENDBRANCH  18  19
ENDBRANCH  17  18
ENDBRANCH   1  17
TORSDOF 26
ENDMDL
MODEL 3
REMARK VINA RESULT:    -4.562      4.084     11.624
REMARK INTER + INTRA:         -14.179
REMARK INTER:                 -11.323
REMARK INTRA:                  -2.856
REMARK UNBOUND:                -2.684
REMARK SMILES CCCCCCCCCCCCCCCCCCCCCCCCCCCC(=O)[O-]
REMARK SMILES IDX 15 1 16 2 17 3 18 4 19 5 20 6 21 7 22 8 23 9 24 10 25 11
REMARK SMILES IDX 26 12 27 13 28 14 29 15 30 16 14 17 13 18 12 19 11 20 10 21
REMARK SMILES IDX 9 22 8 23 7 24 6 25 5 26 4 27 3 28 2 29 1 30
REMARK H PARENT
REMARK Flexibility Score: inf
ROOT
ATOM      1  C   UNL     1      22.963 -14.979  26.407  1.00  0.00     0.000 C 
ENDROOT
BRANCH   1   2
ATOM      2  C   UNL     1      22.129 -14.974  27.698  1.00  0.00     0.000 C 
BRANCH   2   3
ATOM      3  C   UNL     1      21.779 -16.392  28.179  1.00  0.00     0.000 C 
BRANCH   3   4
ATOM      4  C   UNL     1      20.780 -16.396  29.347  1.00  0.00     0.000 C 
BRANCH   4   5
ATOM      5  C   UNL     1      20.273 -14.986  29.693  1.00  0.00     0.000 C 
BRANCH   5   6
ATOM      6  C   UNL     1      19.169 -14.999  30.764  1.00  0.00     0.000 C 
BRANCH   6   7
ATOM      7  C   UNL     1      18.124 -16.117  30.559  1.00  0.00     0.000 C 
BRANCH   7   8
ATOM      8  C   UNL     1      18.196 -17.185  31.666  1.00  0.00     0.000 C 
BRANCH   8   9
ATOM      9  C   UNL     1      17.456 -18.488  31.293  1.00  0.00     0.000 C 
BRANCH   9  10
ATOM     10  C   UNL     1      17.335 -18.728  29.776  1.00  0.00     0.000 C 
BRANCH  10  11
ATOM     11  C   UNL     1      15.923 -18.540  29.190  1.00  0.00     0.000 C 
BRANCH  11  12
ATOM     12  C   UNL     1      14.785 -18.476  30.230  1.00  0.00     0.006 C 
BRANCH  12  13
ATOM     13  C   UNL     1      13.947 -17.188  30.180  1.00  0.00     0.053 C 
BRANCH  13  14
ATOM     14  C   UNL     1      13.826 -16.545  31.526  1.00  0.00     0.041 C 
ATOM     15  O   UNL     1      14.753 -16.662  32.369  1.00  0.00    -0.550 OA
ATOM     16  O   UNL     1      12.704 -15.788  31.840  1.00  0.00    -0.550 OA
ENDBRANCH  13  14
ENDBRANCH  12  13
ENDBRANCH  11  12
ENDBRANCH  10  11
ENDBRANCH   9  10
ENDBRANCH   8   9
ENDBRANCH   7   8
ENDBRANCH   6   7
ENDBRANCH   5   6
ENDBRANCH   4   5
ENDBRANCH   3   4
ENDBRANCH   2   3
ENDBRANCH   1   2
BRANCH   1  17
ATOM     17  C   UNL     1      24.475 -15.062  26.684  1.00  0.00     0.000 C 
BRANCH  17  18
ATOM     18  C   UNL     1      25.071 -16.423  26.281  1.00  0.00     0.000 C 
BRANCH  18  19
ATOM     19  C   UNL     1      26.411 -16.313  25.518  1.00  0.00     0.000 C 
BRANCH  19  20
ATOM     20  C   UNL     1      26.599 -17.399  24.441  1.00  0.00     0.000 C 
BRANCH  20  21
ATOM     21  C   UNL     1      26.927 -18.797  24.991  1.00  0.00     0.000 C 
BRANCH  21  22
ATOM     22  C   UNL     1      28.244 -19.410  24.474  1.00  0.00    -0.000 C 
BRANCH  22  23
ATOM     23  C   UNL     1      29.510 -18.679  24.973  1.00  0.00    -0.000 C 
BRANCH  23  24
ATOM     24  C   UNL     1      30.391 -19.572  25.864  1.00  0.00    -0.000 C 
BRANCH  24  25
ATOM     25  C   UNL     1      29.837 -19.688  27.300  1.00  0.00    -0.000 C 
BRANCH  25  26
ATOM     26  C   UNL     1      29.757 -18.342  28.042  1.00  0.00    -0.000 C 
BRANCH  26  27
ATOM     27  C   UNL     1      28.743 -18.362  29.196  1.00  0.00    -0.000 C 
BRANCH  27  28
ATOM     28  C   UNL     1      27.401 -17.705  28.826  1.00  0.00    -0.000 C 
BRANCH  28  29
ATOM     29  C   UNL     1      26.152 -18.541  29.156  1.00  0.00    -0.003 C 
ATOM     30  C   UNL     1      26.073 -19.843  28.359  1.00  0.00     0.004 C 
ENDBRANCH  28  29
ENDBRANCH  27  28
ENDBRANCH  26  27
ENDBRANCH  25  26
ENDBRANCH  24  25
ENDBRANCH  23  24
ENDBRANCH  22  23
ENDBRANCH  21  22
ENDBRANCH  20  21
ENDBRANCH  19  20
ENDBRANCH  18  19
ENDBRANCH  17  18
ENDBRANCH   1  17
TORSDOF 26
ENDMDL
MODEL 4
REMARK VINA RESULT:    -4.559      3.951     11.440
REMARK INTER + INTRA:         -14.172
REMARK INTER:                 -11.353
REMARK INTRA:                  -2.819
REMARK UNBOUND:                -2.684
REMARK SMILES CCCCCCCCCCCCCCCCCCCCCCCCCCCC(=O)[O-]
REMARK SMILES IDX 15 1 16 2 17 3 18 4 19 5 20 6 21 7 22 8 23 9 24 10 25 11
REMARK SMILES IDX 26 12 27 13 28 14 29 15 30 16 14 17 13 18 12 19 11 20 10 21
REMARK SMILES IDX 9 22 8 23 7 24 6 25 5 26 4 27 3 28 2 29 1 30
REMARK H PARENT
REMARK Flexibility Score: inf
ROOT
ATOM      1  C   UNL     1      24.803 -14.870  26.577  1.00  0.00     0.000 C 
ENDROOT
BRANCH   1   2
ATOM      2  C   UNL     1      23.289 -14.989  26.333  1.00  0.00     0.000 C 
BRANCH   2   3
ATOM      3  C   UNL     1      22.796 -16.445  26.389  1.00  0.00     0.000 C 
BRANCH   3   4
ATOM      4  C   UNL     1      22.150 -16.804  27.736  1.00  0.00     0.000 C 
BRANCH   4   5
ATOM      5  C   UNL     1      21.602 -15.572  28.474  1.00  0.00     0.000 C 
BRANCH   5   6
ATOM      6  C   UNL     1      20.793 -15.942  29.729  1.00  0.00     0.000 C 
BRANCH   6   7
ATOM      7  C   UNL     1      19.318 -15.489  29.667  1.00  0.00     0.000 C 
BRANCH   7   8
ATOM      8  C   UNL     1      18.746 -15.193  31.065  1.00  0.00     0.000 C 
BRANCH   8   9
ATOM      9  C   UNL     1      19.126 -16.265  32.109  1.00  0.00     0.000 C 
BRANCH   9  10
ATOM     10  C   UNL     1      17.970 -17.209  32.489  1.00  0.00     0.000 C 
BRANCH  10  11
ATOM     11  C   UNL     1      16.564 -16.720  32.096  1.00  0.00     0.000 C 
BRANCH  11  12
ATOM     12  C   UNL     1      15.397 -17.569  32.642  1.00  0.00     0.006 C 
BRANCH  12  13
ATOM     13  C   UNL     1      14.648 -18.385  31.576  1.00  0.00     0.053 C 
BRANCH  13  14
ATOM     14  C   UNL     1      14.335 -17.567  30.361  1.00  0.00     0.041 C 
ATOM     15  O   UNL     1      14.908 -17.813  29.267  1.00  0.00    -0.550 OA
ATOM     16  O   UNL     1      13.386 -16.554  30.427  1.00  0.00    -0.550 OA
ENDBRANCH  13  14
ENDBRANCH  12  13
ENDBRANCH  11  12
ENDBRANCH  10  11
ENDBRANCH   9  10
ENDBRANCH   8   9
ENDBRANCH   7   8
ENDBRANCH   6   7
ENDBRANCH   5   6
ENDBRANCH   4   5
ENDBRANCH   3   4
ENDBRANCH   2   3
ENDBRANCH   1   2
BRANCH   1  17
ATOM     17  C   UNL     1      25.533 -16.215  26.408  1.00  0.00     0.000 C 
BRANCH  17  18
ATOM     18  C   UNL     1      26.584 -16.173  25.284  1.00  0.00     0.000 C 
BRANCH  18  19
ATOM     19  C   UNL     1      26.697 -17.495  24.490  1.00  0.00     0.000 C 
BRANCH  19  20
ATOM     20  C   UNL     1      26.799 -18.746  25.385  1.00  0.00     0.000 C 
BRANCH  20  21
ATOM     21  C   UNL     1      28.142 -19.490  25.296  1.00  0.00     0.000 C 
BRANCH  21  22
ATOM     22  C   UNL     1      29.321 -18.649  24.764  1.00  0.00    -0.000 C 
BRANCH  22  23
ATOM     23  C   UNL     1      30.689 -19.047  25.359  1.00  0.00    -0.000 C 
BRANCH  23  24
ATOM     24  C   UNL     1      30.557 -19.734  26.729  1.00  0.00    -0.000 C 
BRANCH  24  25
ATOM     25  C   UNL     1      30.646 -18.727  27.896  1.00  0.00    -0.000 C 
BRANCH  25  26
ATOM     26  C   UNL     1      29.595 -18.960  28.994  1.00  0.00    -0.000 C 
BRANCH  26  27
ATOM     27  C   UNL     1      28.913 -17.659  29.446  1.00  0.00    -0.000 C 
BRANCH  27  28
ATOM     28  C   UNL     1      27.427 -17.592  29.050  1.00  0.00    -0.000 C 
BRANCH  28  29
ATOM     29  C   UNL     1      26.729 -18.956  28.908  1.00  0.00    -0.003 C 
ATOM     30  C   UNL     1      25.207 -18.867  29.020  1.00  0.00     0.004 C 
ENDBRANCH  28  29
ENDBRANCH  27  28
ENDBRANCH  26  27
ENDBRANCH  25  26
ENDBRANCH  24  25
ENDBRANCH  23  24
ENDBRANCH  22  23
ENDBRANCH  21  22
ENDBRANCH  20  21
ENDBRANCH  19  20
ENDBRANCH  18  19
ENDBRANCH  17  18
ENDBRANCH   1  17
TORSDOF 26
ENDMDL
MODEL 5
REMARK VINA RESULT:    -4.434      1.803      2.339
REMARK INTER + INTRA:         -13.857
REMARK INTER:                 -10.687
REMARK INTRA:                  -3.170
REMARK UNBOUND:                -2.684
REMARK SMILES CCCCCCCCCCCCCCCCCCCCCCCCCCCC(=O)[O-]
REMARK SMILES IDX 15 1 16 2 17 3 18 4 19 5 20 6 21 7 22 8 23 9 24 10 25 11
REMARK SMILES IDX 26 12 27 13 28 14 29 15 30 16 14 17 13 18 12 19 11 20 10 21
REMARK SMILES IDX 9 22 8 23 7 24 6 25 5 26 4 27 3 28 2 29 1 30
REMARK H PARENT
REMARK Flexibility Score: inf
ROOT
ATOM      1  C   UNL     1      23.487 -14.788  26.869  1.00  0.00     0.000 C 
ENDROOT
BRANCH   1   2
ATOM      2  C   UNL     1      25.003 -14.905  26.640  1.00  0.00     0.000 C 
BRANCH   2   3
ATOM      3  C   UNL     1      25.419 -16.301  26.146  1.00  0.00     0.000 C 
BRANCH   3   4
ATOM      4  C   UNL     1      26.667 -16.269  25.251  1.00  0.00     0.000 C 
BRANCH   4   5
ATOM      5  C   UNL     1      26.751 -17.485  24.313  1.00  0.00     0.000 C 
BRANCH   5   6
ATOM      6  C   UNL     1      26.472 -18.813  25.036  1.00  0.00     0.000 C 
BRANCH   6   7
ATOM      7  C   UNL     1      27.681 -19.775  25.044  1.00  0.00     0.000 C 
BRANCH   7   8
ATOM      8  C   UNL     1      29.013 -19.030  24.841  1.00  0.00     0.000 C 
BRANCH   8   9
ATOM      9  C   UNL     1      29.902 -19.036  26.103  1.00  0.00     0.000 C 
BRANCH   9  10
ATOM     10  C   UNL     1      29.143 -19.354  27.404  1.00  0.00     0.000 C 
BRANCH  10  11
ATOM     11  C   UNL     1      28.688 -18.129  28.218  1.00  0.00     0.000 C 
BRANCH  11  12
ATOM     12  C   UNL     1      27.250 -18.207  28.771  1.00  0.00     0.006 C 
BRANCH  12  13
ATOM     13  C   UNL     1      26.566 -19.571  28.583  1.00  0.00     0.053 C 
BRANCH  13  14
ATOM     14  C   UNL     1      25.080 -19.482  28.750  1.00  0.00     0.041 C 
ATOM     15  O   UNL     1      24.327 -19.513  27.742  1.00  0.00    -0.550 OA
ATOM     16  O   UNL     1      24.526 -19.397  30.021  1.00  0.00    -0.550 OA
ENDBRANCH  13  14
ENDBRANCH  12  13
ENDBRANCH  11  12
ENDBRANCH  10  11
ENDBRANCH   9  10
ENDBRANCH   8   9
ENDBRANCH   7   8
ENDBRANCH   6   7
ENDBRANCH   5   6
ENDBRANCH   4   5
ENDBRANCH   3   4
ENDBRANCH   2   3
ENDBRANCH   1   2
BRANCH   1  17
ATOM     17  C   UNL     1      22.725 -16.042  26.403  1.00  0.00     0.000 C 
BRANCH  17  18
ATOM     18  C   UNL     1      22.132 -16.837  27.580  1.00  0.00     0.000 C 
BRANCH  18  19
ATOM     19  C   UNL     1      21.441 -15.952  28.643  1.00  0.00     0.000 C 
BRANCH  19  20
ATOM     20  C   UNL     1      20.618 -16.751  29.673  1.00  0.00     0.000 C 
BRANCH  20  21
ATOM     21  C   UNL     1      19.192 -16.223  29.903  1.00  0.00     0.000 C 
BRANCH  21  22
ATOM     22  C   UNL     1      18.933 -15.635  31.305  1.00  0.00    -0.000 C 
BRANCH  22  23
ATOM     23  C   UNL     1      18.671 -16.702  32.390  1.00  0.00    -0.000 C 
BRANCH  23  24
ATOM     24  C   UNL     1      17.334 -17.434  32.185  1.00  0.00    -0.000 C 
BRANCH  24  25
ATOM     25  C   UNL     1      16.133 -16.463  32.195  1.00  0.00    -0.000 C 
BRANCH  25  26
ATOM     26  C   UNL     1      14.769 -17.167  32.089  1.00  0.00    -0.000 C 
BRANCH  26  27
ATOM     27  C   UNL     1      14.156 -17.058  30.684  1.00  0.00    -0.000 C 
BRANCH  27  28
ATOM     28  C   UNL     1      14.013 -18.422  29.984  1.00  0.00    -0.000 C 
BRANCH  28  29
ATOM     29  C   UNL     1      15.306 -18.969  29.352  1.00  0.00    -0.003 C 
ATOM     30  C   UNL     1      16.124 -17.895  28.636  1.00  0.00     0.004 C 
ENDBRANCH  28  29
ENDBRANCH  27  28
ENDBRANCH  26  27
ENDBRANCH  25  26
ENDBRANCH  24  25
ENDBRANCH  23  24
ENDBRANCH  22  23
ENDBRANCH  21  22
ENDBRANCH  20  21
ENDBRANCH  19  20
ENDBRANCH  18  19
ENDBRANCH  17  18
ENDBRANCH   1  17
TORSDOF 26
ENDMDL
MODEL 6
REMARK VINA RESULT:    -4.430      4.485     11.882
REMARK INTER + INTRA:         -13.846
REMARK INTER:                 -10.552
REMARK INTRA:                  -3.293
REMARK UNBOUND:                -2.684
REMARK SMILES CCCCCCCCCCCCCCCCCCCCCCCCCCCC(=O)[O-]
REMARK SMILES IDX 15 1 16 2 17 3 18 4 19 5 20 6 21 7 22 8 23 9 24 10 25 11
REMARK SMILES IDX 26 12 27 13 28 14 29 15 30 16 14 17 13 18 12 19 11 20 10 21
REMARK SMILES IDX 9 22 8 23 7 24 6 25 5 26 4 27 3 28 2 29 1 30
REMARK H PARENT
REMARK Flexibility Score: inf
ROOT
ATOM      1  C   UNL     1      22.461 -17.323  25.459  1.00  0.00     0.000 C 
ENDROOT
BRANCH   1   2
ATOM      2  C   UNL     1      22.590 -15.891  26.005  1.00  0.00     0.000 C 
BRANCH   2   3
ATOM      3  C   UNL     1      22.769 -15.859  27.533  1.00  0.00     0.000 C 
BRANCH   3   4
ATOM      4  C   UNL     1      21.564 -15.244  28.261  1.00  0.00     0.000 C 
BRANCH   4   5
ATOM      5  C   UNL     1      21.004 -16.167  29.356  1.00  0.00     0.000 C 
BRANCH   5   6
ATOM      6  C   UNL     1      19.930 -15.482  30.218  1.00  0.00     0.000 C 
BRANCH   6   7
ATOM      7  C   UNL     1      19.898 -15.986  31.678  1.00  0.00     0.000 C 
BRANCH   7   8
ATOM      8  C   UNL     1      18.511 -16.527  32.072  1.00  0.00     0.000 C 
BRANCH   8   9
ATOM      9  C   UNL     1      18.014 -17.646  31.132  1.00  0.00     0.000 C 
BRANCH   9  10
ATOM     10  C   UNL     1      16.610 -18.178  31.476  1.00  0.00     0.000 C 
BRANCH  10  11
ATOM     11  C   UNL     1      15.863 -18.864  30.318  1.00  0.00     0.000 C 
BRANCH  11  12
ATOM     12  C   UNL     1      14.668 -18.073  29.748  1.00  0.00     0.006 C 
BRANCH  12  13
ATOM     13  C   UNL     1      14.306 -16.805  30.539  1.00  0.00     0.053 C 
BRANCH  13  14
ATOM     14  C   UNL     1      13.027 -16.965  31.302  1.00  0.00     0.041 C 
ATOM     15  O   UNL     1      12.501 -18.103  31.424  1.00  0.00    -0.550 OA
ATOM     16  O   UNL     1      12.433 -15.865  31.907  1.00  0.00    -0.550 OA
ENDBRANCH  13  14
ENDBRANCH  12  13
ENDBRANCH  11  12
ENDBRANCH  10  11
ENDBRANCH   9  10
ENDBRANCH   8   9
ENDBRANCH   7   8
ENDBRANCH   6   7
ENDBRANCH   5   6
ENDBRANCH   4   5
ENDBRANCH   3   4
ENDBRANCH   2   3
ENDBRANCH   1   2
BRANCH   1  17
ATOM     17  C   UNL     1      22.244 -18.361  26.574  1.00  0.00     0.000 C 
BRANCH  17  18
ATOM     18  C   UNL     1      23.426 -19.339  26.702  1.00  0.00     0.000 C 
BRANCH  18  19
ATOM     19  C   UNL     1      23.868 -19.591  28.162  1.00  0.00     0.000 C 
BRANCH  19  20
ATOM     20  C   UNL     1      24.994 -18.651  28.637  1.00  0.00     0.000 C 
BRANCH  20  21
ATOM     21  C   UNL     1      26.080 -18.369  27.586  1.00  0.00     0.000 C 
BRANCH  21  22
ATOM     22  C   UNL     1      26.299 -16.879  27.256  1.00  0.00    -0.000 C 
BRANCH  22  23
ATOM     23  C   UNL     1      26.268 -16.564  25.744  1.00  0.00    -0.000 C 
BRANCH  23  24
ATOM     24  C   UNL     1      26.204 -17.835  24.880  1.00  0.00    -0.000 C 
BRANCH  24  25
ATOM     25  C   UNL     1      27.496 -18.047  24.061  1.00  0.00    -0.000 C 
BRANCH  25  26
ATOM     26  C   UNL     1      28.462 -19.069  24.685  1.00  0.00    -0.000 C 
BRANCH  26  27
ATOM     27  C   UNL     1      29.677 -18.405  25.351  1.00  0.00    -0.000 C 
BRANCH  27  28
ATOM     28  C   UNL     1      30.766 -19.416  25.755  1.00  0.00    -0.000 C 
BRANCH  28  29
ATOM     29  C   UNL     1      30.699 -19.898  27.215  1.00  0.00    -0.003 C 
ATOM     30  C   UNL     1      29.805 -19.024  28.095  1.00  0.00     0.004 C 
ENDBRANCH  28  29
ENDBRANCH  27  28
ENDBRANCH  26  27
ENDBRANCH  25  26
ENDBRANCH  24  25
ENDBRANCH  23  24
ENDBRANCH  22  23
ENDBRANCH  21  22
ENDBRANCH  20  21
ENDBRANCH  19  20
ENDBRANCH  18  19
ENDBRANCH  17  18
ENDBRANCH   1  17
TORSDOF 26
ENDMDL
MODEL 7
REMARK VINA RESULT:    -4.427      1.455      3.679
REMARK INTER + INTRA:         -13.840
REMARK INTER:                 -11.120
REMARK INTRA:                  -2.721
REMARK UNBOUND:                -2.684
REMARK SMILES CCCCCCCCCCCCCCCCCCCCCCCCCCCC(=O)[O-]
REMARK SMILES IDX 15 1 16 2 17 3 18 4 19 5 20 6 21 7 22 8 23 9 24 10 25 11
REMARK SMILES IDX 26 12 27 13 28 14 29 15 30 16 14 17 13 18 12 19 11 20 10 21
REMARK SMILES IDX 9 22 8 23 7 24 6 25 5 26 4 27 3 28 2 29 1 30
REMARK H PARENT
REMARK Flexibility Score: inf
ROOT
ATOM      1  C   UNL     1      26.517 -17.517  24.501  1.00  0.00     0.000 C 
ENDROOT
BRANCH   1   2
ATOM      2  C   UNL     1      26.639 -18.741  25.424  1.00  0.00     0.000 C 
BRANCH   2   3
ATOM      3  C   UNL     1      27.690 -19.749  24.928  1.00  0.00     0.000 C 
BRANCH   3   4
ATOM      4  C   UNL     1      28.832 -19.084  24.145  1.00  0.00     0.000 C 
BRANCH   4   5
ATOM      5  C   UNL     1      30.009 -18.680  25.048  1.00  0.00     0.000 C 
BRANCH   5   6
ATOM      6  C   UNL     1      30.139 -19.577  26.290  1.00  0.00     0.000 C 
BRANCH   6   7
ATOM      7  C   UNL     1      31.005 -18.957  27.409  1.00  0.00     0.000 C 
BRANCH   7   8
ATOM      8  C   UNL     1      30.162 -18.540  28.628  1.00  0.00     0.000 C 
BRANCH   8   9
ATOM      9  C   UNL     1      28.664 -18.875  28.465  1.00  0.00     0.000 C 
BRANCH   9  10
ATOM     10  C   UNL     1      27.727 -17.982  29.300  1.00  0.00     0.000 C 
BRANCH  10  11
ATOM     11  C   UNL     1      27.880 -18.113  30.827  1.00  0.00     0.000 C 
BRANCH  11  12
ATOM     12  C   UNL     1      27.692 -16.804  31.620  1.00  0.00     0.006 C 
BRANCH  12  13
ATOM     13  C   UNL     1      29.003 -16.103  32.014  1.00  0.00     0.053 C 
BRANCH  13  14
ATOM     14  C   UNL     1      29.342 -14.982  31.080  1.00  0.00     0.041 C 
ATOM     15  O   UNL     1      28.427 -14.362  30.477  1.00  0.00    -0.550 OA
ATOM     16  O   UNL     1      30.666 -14.600  30.900  1.00  0.00    -0.550 OA
ENDBRANCH  13  14
ENDBRANCH  12  13
ENDBRANCH  11  12
ENDBRANCH  10  11
ENDBRANCH   9  10
ENDBRANCH   8   9
ENDBRANCH   7   8
ENDBRANCH   6   7
ENDBRANCH   5   6
ENDBRANCH   4   5
ENDBRANCH   3   4
ENDBRANCH   2   3
ENDBRANCH   1   2
BRANCH   1  17
ATOM     17  C   UNL     1      26.651 -16.188  25.266  1.00  0.00     0.000 C 
BRANCH  17  18
ATOM     18  C   UNL     1      25.884 -16.200  26.600  1.00  0.00     0.000 C 
BRANCH  18  19
ATOM     19  C   UNL     1      24.353 -16.058  26.438  1.00  0.00     0.000 C 
BRANCH  19  20
ATOM     20  C   UNL     1      23.554 -17.199  27.100  1.00  0.00     0.000 C 
BRANCH  20  21
ATOM     21  C   UNL     1      22.155 -16.797  27.596  1.00  0.00     0.000 C 
BRANCH  21  22
ATOM     22  C   UNL     1      21.996 -15.309  27.967  1.00  0.00    -0.000 C 
BRANCH  22  23
ATOM     23  C   UNL     1      20.966 -15.053  29.089  1.00  0.00    -0.000 C 
BRANCH  23  24
ATOM     24  C   UNL     1      20.567 -16.343  29.827  1.00  0.00    -0.000 C 
BRANCH  24  25
ATOM     25  C   UNL     1      19.885 -16.051  31.181  1.00  0.00    -0.000 C 
BRANCH  25  26
ATOM     26  C   UNL     1      18.422 -15.593  31.049  1.00  0.00    -0.000 C 
BRANCH  26  27
ATOM     27  C   UNL     1      17.673 -16.324  29.923  1.00  0.00    -0.000 C 
BRANCH  27  28
ATOM     28  C   UNL     1      16.767 -17.455  30.442  1.00  0.00    -0.000 C 
BRANCH  28  29
ATOM     29  C   UNL     1      15.368 -17.010  30.905  1.00  0.00    -0.003 C 
ATOM     30  C   UNL     1      15.210 -17.010  32.425  1.00  0.00     0.004 C 
ENDBRANCH  28  29
ENDBRANCH  27  28
ENDBRANCH  26  27
ENDBRANCH  25  26
ENDBRANCH  24  25
ENDBRANCH  23  24
ENDBRANCH  22  23
ENDBRANCH  21  22
ENDBRANCH  20  21
ENDBRANCH  19  20
ENDBRANCH  18  19
ENDBRANCH  17  18
ENDBRANCH   1  17
TORSDOF 26
ENDMDL
MODEL 8
REMARK VINA RESULT:    -4.422      3.529      9.848
REMARK INTER + INTRA:         -13.828
REMARK INTER:                  -9.851
REMARK INTRA:                  -3.976
REMARK UNBOUND:                -2.684
REMARK SMILES CCCCCCCCCCCCCCCCCCCCCCCCCCCC(=O)[O-]
REMARK SMILES IDX 15 1 16 2 17 3 18 4 19 5 20 6 21 7 22 8 23 9 24 10 25 11
REMARK SMILES IDX 26 12 27 13 28 14 29 15 30 16 14 17 13 18 12 19 11 20 10 21
REMARK SMILES IDX 9 22 8 23 7 24 6 25 5 26 4 27 3 28 2 29 1 30
REMARK H PARENT
REMARK Flexibility Score: inf
ROOT
ATOM      1  C   UNL     1      27.669 -17.435  29.543  1.00  0.00     0.000 C 
ENDROOT
BRANCH   1   2
ATOM      2  C   UNL     1      26.495 -18.412  29.369  1.00  0.00     0.000 C 
BRANCH   2   3
ATOM      3  C   UNL     1      26.841 -19.588  28.439  1.00  0.00     0.000 C 
BRANCH   3   4
ATOM      4  C   UNL     1      25.671 -19.990  27.527  1.00  0.00     0.000 C 
BRANCH   4   5
ATOM      5  C   UNL     1      24.303 -19.640  28.134  1.00  0.00     0.000 C 
BRANCH   5   6
ATOM      6  C   UNL     1      23.162 -19.703  27.105  1.00  0.00     0.000 C 
BRANCH   6   7
ATOM      7  C   UNL     1      22.302 -18.420  27.058  1.00  0.00     0.000 C 
BRANCH   7   8
ATOM      8  C   UNL     1      22.524 -17.531  28.296  1.00  0.00     0.000 C 
BRANCH   8   9
ATOM      9  C   UNL     1      21.205 -17.105  28.973  1.00  0.00     0.000 C 
BRANCH   9  10
ATOM     10  C   UNL     1      21.029 -15.579  29.100  1.00  0.00     0.000 C 
BRANCH  10  11
ATOM     11  C   UNL     1      20.079 -15.117  30.220  1.00  0.00     0.000 C 
BRANCH  11  12
ATOM     12  C   UNL     1      20.001 -16.054  31.443  1.00  0.00     0.006 C 
BRANCH  12  13
ATOM     13  C   UNL     1      18.589 -16.225  32.027  1.00  0.00     0.053 C 
BRANCH  13  14
ATOM     14  C   UNL     1      18.015 -17.574  31.722  1.00  0.00     0.041 C 
ATOM     15  O   UNL     1      17.242 -18.134  32.543  1.00  0.00    -0.550 OA
ATOM     16  O   UNL     1      18.306 -18.198  30.515  1.00  0.00    -0.550 OA
ENDBRANCH  13  14
ENDBRANCH  12  13
ENDBRANCH  11  12
ENDBRANCH  10  11
ENDBRANCH   9  10
ENDBRANCH   8   9
ENDBRANCH   7   8
ENDBRANCH   6   7
ENDBRANCH   5   6
ENDBRANCH   4   5
ENDBRANCH   3   4
ENDBRANCH   2   3
ENDBRANCH   1   2
BRANCH   1  17
ATOM     17  C   UNL     1      28.920 -18.116  30.128  1.00  0.00     0.000 C 
BRANCH  17  18
ATOM     18  C   UNL     1      30.193 -17.789  29.327  1.00  0.00     0.000 C 
BRANCH  18  19
ATOM     19  C   UNL     1      31.014 -19.038  28.929  1.00  0.00     0.000 C 
BRANCH  19  20
ATOM     20  C   UNL     1      30.764 -19.505  27.482  1.00  0.00     0.000 C 
BRANCH  20  21
ATOM     21  C   UNL     1      30.965 -18.417  26.413  1.00  0.00     0.000 C 
BRANCH  21  22
ATOM     22  C   UNL     1      30.233 -18.669  25.079  1.00  0.00    -0.000 C 
BRANCH  22  23
ATOM     23  C   UNL     1      28.749 -19.066  25.248  1.00  0.00    -0.000 C 
BRANCH  23  24
ATOM     24  C   UNL     1      27.859 -18.500  24.127  1.00  0.00    -0.000 C 
BRANCH  24  25
ATOM     25  C   UNL     1      26.504 -17.991  24.663  1.00  0.00    -0.000 C 
BRANCH  25  26
ATOM     26  C   UNL     1      26.635 -16.902  25.741  1.00  0.00    -0.000 C 
BRANCH  26  27
ATOM     27  C   UNL     1      25.273 -16.366  26.209  1.00  0.00    -0.000 C 
BRANCH  27  28
ATOM     28  C   UNL     1      25.383 -15.032  26.970  1.00  0.00    -0.000 C 
BRANCH  28  29
ATOM     29  C   UNL     1      24.306 -13.990  26.617  1.00  0.00    -0.003 C 
ATOM     30  C   UNL     1      22.981 -14.619  26.185  1.00  0.00     0.004 C 
ENDBRANCH  28  29
ENDBRANCH  27  28
ENDBRANCH  26  27
ENDBRANCH  25  26
ENDBRANCH  24  25
ENDBRANCH  23  24
ENDBRANCH  22  23
ENDBRANCH  21  22
ENDBRANCH  20  21
ENDBRANCH  19  20
ENDBRANCH  18  19
ENDBRANCH  17  18
ENDBRANCH   1  17
TORSDOF 26
ENDMDL
MODEL 9
REMARK VINA RESULT:    -4.391      2.184      3.527
REMARK INTER + INTRA:         -13.750
REMARK INTER:                 -10.578
REMARK INTRA:                  -3.172
REMARK UNBOUND:                -2.684
REMARK SMILES CCCCCCCCCCCCCCCCCCCCCCCCCCCC(=O)[O-]
REMARK SMILES IDX 15 1 16 2 17 3 18 4 19 5 20 6 21 7 22 8 23 9 24 10 25 11
REMARK SMILES IDX 26 12 27 13 28 14 29 15 30 16 14 17 13 18 12 19 11 20 10 21
REMARK SMILES IDX 9 22 8 23 7 24 6 25 5 26 4 27 3 28 2 29 1 30
REMARK H PARENT
REMARK Flexibility Score: inf
ROOT
ATOM      1  C   UNL     1      23.405 -19.155  27.330  1.00  0.00     0.000 C 
ENDROOT
BRANCH   1   2
ATOM      2  C   UNL     1      24.160 -18.892  28.643  1.00  0.00     0.000 C 
BRANCH   2   3
ATOM      3  C   UNL     1      25.599 -19.433  28.613  1.00  0.00     0.000 C 
BRANCH   3   4
ATOM      4  C   UNL     1      26.594 -18.522  29.349  1.00  0.00     0.000 C 
BRANCH   4   5
ATOM      5  C   UNL     1      27.748 -18.057  28.446  1.00  0.00     0.000 C 
BRANCH   5   6
ATOM      6  C   UNL     1      28.600 -19.226  27.922  1.00  0.00     0.000 C 
BRANCH   6   7
ATOM      7  C   UNL     1      29.557 -18.826  26.778  1.00  0.00     0.000 C 
BRANCH   7   8
ATOM      8  C   UNL     1      28.827 -18.074  25.650  1.00  0.00     0.000 C 
BRANCH   8   9
ATOM      9  C   UNL     1      27.726 -18.922  24.978  1.00  0.00     0.000 C 
BRANCH   9  10
ATOM     10  C   UNL     1      26.333 -18.263  24.988  1.00  0.00     0.000 C 
BRANCH  10  11
ATOM     11  C   UNL     1      26.321 -16.754  25.289  1.00  0.00     0.000 C 
BRANCH  11  12
ATOM     12  C   UNL     1      25.150 -16.270  26.169  1.00  0.00     0.006 C 
BRANCH  12  13
ATOM     13  C   UNL     1      25.428 -14.972  26.945  1.00  0.00     0.053 C 
BRANCH  13  14
ATOM     14  C   UNL     1      24.322 -13.975  26.785  1.00  0.00     0.041 C 
ATOM     15  O   UNL     1      24.417 -12.835  27.311  1.00  0.00    -0.550 OA
ATOM     16  O   UNL     1      23.201 -14.291  26.028  1.00  0.00    -0.550 OA
ENDBRANCH  13  14
ENDBRANCH  12  13
ENDBRANCH  11  12
ENDBRANCH  10  11
ENDBRANCH   9  10
ENDBRANCH   8   9
ENDBRANCH   7   8
ENDBRANCH   6   7
ENDBRANCH   5   6
ENDBRANCH   4   5
ENDBRANCH   3   4
ENDBRANCH   2   3
ENDBRANCH   1   2
BRANCH   1  17
ATOM     17  C   UNL     1      22.148 -18.278  27.188  1.00  0.00     0.000 C 
BRANCH  17  18
ATOM     18  C   UNL     1      21.731 -17.632  28.521  1.00  0.00     0.000 C 
BRANCH  18  19
ATOM     19  C   UNL     1      21.706 -16.086  28.481  1.00  0.00     0.000 C 
BRANCH  19  20
ATOM     20  C   UNL     1      20.582 -15.464  29.332  1.00  0.00     0.000 C 
BRANCH  20  21
ATOM     21  C   UNL     1      20.520 -15.972  30.783  1.00  0.00     0.000 C 
BRANCH  21  22
ATOM     22  C   UNL     1      19.229 -15.613  31.546  1.00  0.00    -0.000 C 
BRANCH  22  23
ATOM     23  C   UNL     1      18.689 -16.758  32.431  1.00  0.00    -0.000 C 
BRANCH  23  24
ATOM     24  C   UNL     1      17.226 -17.108  32.110  1.00  0.00    -0.000 C 
BRANCH  24  25
ATOM     25  C   UNL     1      16.840 -16.727  30.665  1.00  0.00    -0.000 C 
BRANCH  25  26
ATOM     26  C   UNL     1      15.521 -17.361  30.190  1.00  0.00    -0.000 C 
BRANCH  26  27
ATOM     27  C   UNL     1      14.518 -17.567  31.336  1.00  0.00    -0.000 C 
BRANCH  27  28
ATOM     28  C   UNL     1      13.610 -16.344  31.564  1.00  0.00    -0.000 C 
BRANCH  28  29
ATOM     29  C   UNL     1      12.384 -16.261  30.637  1.00  0.00    -0.003 C 
ATOM     30  C   UNL     1      11.916 -17.627  30.137  1.00  0.00     0.004 C 
ENDBRANCH  28  29
ENDBRANCH  27  28
ENDBRANCH  26  27
ENDBRANCH  25  26
ENDBRANCH  24  25
ENDBRANCH  23  24
ENDBRANCH  22  23
ENDBRANCH  21  22
ENDBRANCH  20  21
ENDBRANCH  19  20
ENDBRANCH  18  19
ENDBRANCH  17  18
ENDBRANCH   1  17
TORSDOF 26
ENDMDL
