MODEL 1
REMARK VINA RESULT:    -7.744      0.000      0.000
REMARK INTER + INTRA:         -14.428
REMARK INTER:                 -12.724
REMARK INTRA:                  -1.704
REMARK UNBOUND:                -1.704
REMARK SMILES C[C@H]1O[C@@H](OC[C@@H]2O[C@H](Oc3c(-c4ccc(O)c(O)c4)oc4cc(O)cc(O)c4c3=O)[C@H](O)[C@@H](O)[C@@H]2O)[C@@H](O)[C@@H](O)[C@H]1O
REMARK SMILES IDX 7 1 36 2 34 3 32 4 9 5 8 6 6 7 5 8 4 9 1 10 2 11 42 12 3 13
REMARK SMILES IDX 40 14 38 15 43 16 41 18 39 20 37 22 35 24 10 26 11 27 12 28
REMARK SMILES IDX 30 29 21 30 29 31 31 32 22 33 27 34 23 35 26 36 24 37 13 38
REMARK SMILES IDX 20 39 14 40 18 41 15 42 16 43 19 44 17 46 28 48 25 50 33 52
REMARK H PARENT 43 17 41 19 39 21 37 23 35 25 19 45 17 47 28 49 25 51 33 53
REMARK Flexibility Score: inf
ROOT
ATOM      1  C   UNL     1     -41.604   3.236  77.601  1.00  0.00     0.180 C 
ATOM      2  C   UNL     1     -42.205   3.464  79.138  1.00  0.00     0.177 C 
ATOM      3  C   UNL     1     -41.157   3.311  80.285  1.00  0.00     0.180 C 
ATOM      4  C   UNL     1     -39.637   3.504  79.840  1.00  0.00     0.214 C 
ATOM      5  C   UNL     1     -39.538   4.389  78.518  1.00  0.00     0.339 C 
ATOM      6  O   UNL     1     -40.113   3.451  77.557  1.00  0.00    -0.332 OA
ENDROOT
BRANCH   1   7
ATOM      7  C   UNL     1     -42.288   1.963  76.953  1.00  0.00     0.198 C 
BRANCH   7   8
ATOM      8  O   UNL     1     -43.592   1.855  76.390  1.00  0.00    -0.347 OA
BRANCH   8   9
ATOM      9  C   UNL     1     -43.945   1.458  74.986  1.00  0.00     0.281 C 
ATOM     10  C   UNL     1     -45.601   3.332  72.134  1.00  0.00     0.041 C 
ATOM     11  C   UNL     1     -45.172   2.025  72.939  1.00  0.00     0.150 C 
ATOM     12  C   UNL     1     -46.398   0.799  73.627  1.00  0.00     0.174 C 
ATOM     13  O   UNL     1     -44.183   2.471  73.953  1.00  0.00    -0.344 OA
ATOM     14  C   UNL     1     -45.859  -0.191  73.943  1.00  0.00     0.179 C 
ATOM     15  C   UNL     1     -45.309   0.993  75.193  1.00  0.00     0.202 C 
BRANCH  12  16
ATOM     16  O   UNL     1     -47.563   0.824  74.788  1.00  0.00    -0.388 OA
ATOM     17  H   UNL     1     -48.139   1.602  74.362  1.00  0.00     0.211 HD
ENDBRANCH  12  16
BRANCH  14  18
ATOM     18  O   UNL     1     -46.503  -1.191  74.756  1.00  0.00    -0.387 OA
ATOM     19  H   UNL     1     -46.765  -2.002  74.274  1.00  0.00     0.211 HD
ENDBRANCH  14  18
BRANCH  15  20
ATOM     20  O   UNL     1     -45.961   2.475  75.233  1.00  0.00    -0.385 OA
ATOM     21  H   UNL     1     -46.034   3.158  76.072  1.00  0.00     0.211 HD
ENDBRANCH  15  20
ENDBRANCH   8   9
ENDBRANCH   7   8
ENDBRANCH   1   7
BRANCH   2  22
ATOM     22  O   UNL     1     -43.215   2.514  79.458  1.00  0.00    -0.387 OA
ATOM     23  H   UNL     1     -43.974   2.707  78.810  1.00  0.00     0.211 HD
ENDBRANCH   2  22
BRANCH   3  24
ATOM     24  O   UNL     1     -41.465   4.285  81.376  1.00  0.00    -0.387 OA
ATOM     25  H   UNL     1     -41.968   4.961  80.757  1.00  0.00     0.211 HD
ENDBRANCH   3  24
BRANCH   5  26
ATOM     26  O   UNL     1     -38.088   4.720  78.379  1.00  0.00    -0.454 OA
BRANCH  26  27
ATOM     27  C   UNL     1     -37.403   6.044  78.627  1.00  0.00     0.214 A 
ATOM     28  C   UNL     1     -36.520   6.712  77.630  1.00  0.00     0.180 A 
ATOM     29  C   UNL     1     -38.072   7.006  79.332  1.00  0.00     0.239 A 
ATOM     30  O   UNL     1     -37.122   7.599  76.854  1.00  0.00    -0.452 OA
ATOM     31  C   UNL     1     -38.677   8.028  78.582  1.00  0.00     0.111 A 
ATOM     32  O   UNL     1     -38.506   6.811  80.525  1.00  0.00    -0.285 OA
ATOM     33  C   UNL     1     -38.139   8.332  77.289  1.00  0.00     0.146 A 
ATOM     34  C   UNL     1     -39.985   8.403  78.790  1.00  0.00     0.134 A 
ATOM     35  C   UNL     1     -38.930   9.092  76.340  1.00  0.00     0.094 A 
ATOM     36  C   UNL     1     -40.507   9.483  78.146  1.00  0.00     0.093 A 
ATOM     37  C   UNL     1     -40.245   9.407  76.753  1.00  0.00     0.123 A 
BRANCH  28  38
ATOM     38  C   UNL     1     -35.024   7.242  78.004  1.00  0.00     0.025 A 
ATOM     39  C   UNL     1     -34.469   8.661  78.102  1.00  0.00     0.062 A 
ATOM     40  C   UNL     1     -34.395   6.305  78.869  1.00  0.00     0.016 A 
ATOM     41  C   UNL     1     -33.473   8.962  79.084  1.00  0.00     0.158 A 
ATOM     42  C   UNL     1     -33.138   6.559  79.507  1.00  0.00     0.051 A 
ATOM     43  C   UNL     1     -32.613   7.893  79.565  1.00  0.00     0.157 A 
BRANCH  41  44
ATOM     44  O   UNL     1     -33.732   9.949  80.033  1.00  0.00    -0.504 OA
ATOM     45  H   UNL     1     -34.603   9.789  80.536  1.00  0.00     0.293 HD
ENDBRANCH  41  44
BRANCH  43  46
ATOM     46  O   UNL     1     -31.511   8.161  80.370  1.00  0.00    -0.504 OA
ATOM     47  H   UNL     1     -30.741   8.717  79.952  1.00  0.00     0.293 HD
ENDBRANCH  43  46
ENDBRANCH  28  38
BRANCH  34  48
ATOM     48  O   UNL     1     -40.905   7.566  79.465  1.00  0.00    -0.507 OA
ATOM     49  H   UNL     1     -40.611   7.475  80.460  1.00  0.00     0.293 HD
ENDBRANCH  34  48
BRANCH  37  50
ATOM     50  O   UNL     1     -41.399   9.425  75.859  1.00  0.00    -0.508 OA
ATOM     51  H   UNL     1     -42.309   9.444  76.275  1.00  0.00     0.293 HD
ENDBRANCH  37  50
ENDBRANCH  26  27
ENDBRANCH   5  26
BRANCH   4  52
ATOM     52  O   UNL     1     -39.048   2.228  79.569  1.00  0.00    -0.384 OA
ATOM     53  H   UNL     1     -38.133   2.413  79.132  1.00  0.00     0.211 HD
ENDBRANCH   4  52
TORSDOF 16
ENDMDL
MODEL 2
REMARK VINA RESULT:    -7.525      7.800     14.068
REMARK INTER + INTRA:         -14.069
REMARK INTER:                 -12.231
REMARK INTRA:                  -1.838
REMARK UNBOUND:                -1.704
REMARK SMILES C[C@H]1O[C@@H](OC[C@@H]2O[C@H](Oc3c(-c4ccc(O)c(O)c4)oc4cc(O)cc(O)c4c3=O)[C@H](O)[C@@H](O)[C@@H]2O)[C@@H](O)[C@@H](O)[C@H]1O
REMARK SMILES IDX 7 1 36 2 34 3 32 4 9 5 8 6 6 7 5 8 4 9 1 10 2 11 42 12 3 13
REMARK SMILES IDX 40 14 38 15 43 16 41 18 39 20 37 22 35 24 10 26 11 27 12 28
REMARK SMILES IDX 30 29 21 30 29 31 31 32 22 33 27 34 23 35 26 36 24 37 13 38
REMARK SMILES IDX 20 39 14 40 18 41 15 42 16 43 19 44 17 46 28 48 25 50 33 52
REMARK H PARENT 43 17 41 19 39 21 37 23 35 25 19 45 17 47 28 49 25 51 33 53
REMARK Flexibility Score: inf
ROOT
ATOM      1  C   UNL     1     -39.517  -1.659  83.652  1.00  0.00     0.180 C 
ATOM      2  C   UNL     1     -38.359  -2.822  83.362  1.00  0.00     0.177 C 
ATOM      3  C   UNL     1     -38.793  -4.284  83.701  1.00  0.00     0.180 C 
ATOM      4  C   UNL     1     -40.369  -4.527  83.741  1.00  0.00     0.214 C 
ATOM      5  C   UNL     1     -41.135  -3.445  82.856  1.00  0.00     0.339 C 
ATOM      6  O   UNL     1     -40.901  -2.257  83.673  1.00  0.00    -0.332 OA
ENDROOT
BRANCH   1   7
ATOM      7  C   UNL     1     -39.007  -0.681  84.789  1.00  0.00     0.198 C 
BRANCH   7   8
ATOM      8  O   UNL     1     -39.340   0.689  84.986  1.00  0.00    -0.347 OA
BRANCH   8   9
ATOM      9  C   UNL     1     -38.598   1.888  84.470  1.00  0.00     0.281 C 
ATOM     10  C   UNL     1     -39.171   5.617  84.859  1.00  0.00     0.041 C 
ATOM     11  C   UNL     1     -38.605   4.317  84.131  1.00  0.00     0.150 C 
ATOM     12  C   UNL     1     -39.084   3.826  82.395  1.00  0.00     0.174 C 
ATOM     13  O   UNL     1     -38.758   3.202  85.100  1.00  0.00    -0.344 OA
ATOM     14  C   UNL     1     -38.362   3.002  81.985  1.00  0.00     0.179 C 
ATOM     15  C   UNL     1     -39.328   2.119  83.231  1.00  0.00     0.202 C 
BRANCH  12  16
ATOM     16  O   UNL     1     -40.465   3.335  81.650  1.00  0.00    -0.388 OA
ATOM     17  H   UNL     1     -40.695   4.263  81.200  1.00  0.00     0.211 HD
ENDBRANCH  12  16
BRANCH  14  18
ATOM     18  O   UNL     1     -38.658   2.241  80.798  1.00  0.00    -0.387 OA
ATOM     19  H   UNL     1     -38.946   1.320  80.965  1.00  0.00     0.211 HD
ENDBRANCH  14  18
BRANCH  15  20
ATOM     20  O   UNL     1     -40.584   2.855  83.940  1.00  0.00    -0.385 OA
ATOM     21  H   UNL     1     -41.015   3.823  83.713  1.00  0.00     0.211 HD
ENDBRANCH  15  20
ENDBRANCH   8   9
ENDBRANCH   7   8
ENDBRANCH   1   7
BRANCH   2  22
ATOM     22  O   UNL     1     -37.191  -2.613  84.149  1.00  0.00    -0.387 OA
ATOM     23  H   UNL     1     -37.001  -3.512  84.583  1.00  0.00     0.211 HD
ENDBRANCH   2  22
BRANCH   3  24
ATOM     24  O   UNL     1     -38.186  -5.226  82.713  1.00  0.00    -0.387 OA
ATOM     25  H   UNL     1     -38.372  -6.086  83.278  1.00  0.00     0.211 HD
ENDBRANCH   3  24
BRANCH   5  26
ATOM     26  O   UNL     1     -42.539  -3.947  82.754  1.00  0.00    -0.454 OA
BRANCH  26  27
ATOM     27  C   UNL     1     -43.042  -5.174  82.031  1.00  0.00     0.214 A 
ATOM     28  C   UNL     1     -42.734  -5.471  80.604  1.00  0.00     0.180 A 
ATOM     29  C   UNL     1     -43.116  -6.355  82.717  1.00  0.00     0.239 A 
ATOM     30  O   UNL     1     -41.684  -6.251  80.407  1.00  0.00    -0.452 OA
ATOM     31  C   UNL     1     -42.072  -7.271  82.504  1.00  0.00     0.111 A 
ATOM     32  O   UNL     1     -43.812  -6.490  83.788  1.00  0.00    -0.285 OA
ATOM     33  C   UNL     1     -41.351  -7.205  81.267  1.00  0.00     0.146 A 
ATOM     34  C   UNL     1     -41.413  -7.875  83.550  1.00  0.00     0.134 A 
ATOM     35  C   UNL     1     -40.058  -7.853  81.151  1.00  0.00     0.094 A 
ATOM     36  C   UNL     1     -40.498  -8.858  83.319  1.00  0.00     0.093 A 
ATOM     37  C   UNL     1     -39.562  -8.444  82.335  1.00  0.00     0.123 A 
BRANCH  28  38
ATOM     38  C   UNL     1     -43.894  -5.837  79.518  1.00  0.00     0.025 A 
ATOM     39  C   UNL     1     -45.359  -6.220  79.721  1.00  0.00     0.062 A 
ATOM     40  C   UNL     1     -43.630  -5.155  78.298  1.00  0.00     0.016 A 
ATOM     41  C   UNL     1     -46.337  -5.798  78.766  1.00  0.00     0.158 A 
ATOM     42  C   UNL     1     -44.552  -5.139  77.202  1.00  0.00     0.051 A 
ATOM     43  C   UNL     1     -45.917  -5.532  77.400  1.00  0.00     0.157 A 
BRANCH  41  44
ATOM     44  O   UNL     1     -47.406  -5.012  79.192  1.00  0.00    -0.504 OA
ATOM     45  H   UNL     1     -48.193  -5.567  79.521  1.00  0.00     0.293 HD
ENDBRANCH  41  44
BRANCH  43  46
ATOM     46  O   UNL     1     -46.849  -5.306  76.391  1.00  0.00    -0.504 OA
ATOM     47  H   UNL     1     -46.860  -5.972  75.596  1.00  0.00     0.293 HD
ENDBRANCH  43  46
ENDBRANCH  28  38
BRANCH  34  48
ATOM     48  O   UNL     1     -41.456  -7.351  84.864  1.00  0.00    -0.507 OA
ATOM     49  H   UNL     1     -42.124  -7.917  85.430  1.00  0.00     0.293 HD
ENDBRANCH  34  48
BRANCH  37  50
ATOM     50  O   UNL     1     -38.153  -8.443  82.720  1.00  0.00    -0.508 OA
ATOM     51  H   UNL     1     -37.555  -7.764  82.292  1.00  0.00     0.293 HD
ENDBRANCH  37  50
ENDBRANCH  26  27
ENDBRANCH   5  26
BRANCH   4  52
ATOM     52  O   UNL     1     -40.841  -4.418  85.088  1.00  0.00    -0.384 OA
ATOM     53  H   UNL     1     -40.934  -5.380  85.446  1.00  0.00     0.211 HD
ENDBRANCH   4  52
TORSDOF 16
ENDMDL
MODEL 3
REMARK VINA RESULT:    -7.447      9.551     12.337
REMARK INTER + INTRA:         -13.940
REMARK INTER:                 -12.561
REMARK INTRA:                  -1.378
REMARK UNBOUND:                -1.704
REMARK SMILES C[C@H]1O[C@@H](OC[C@@H]2O[C@H](Oc3c(-c4ccc(O)c(O)c4)oc4cc(O)cc(O)c4c3=O)[C@H](O)[C@@H](O)[C@@H]2O)[C@@H](O)[C@@H](O)[C@H]1O
REMARK SMILES IDX 7 1 36 2 34 3 32 4 9 5 8 6 6 7 5 8 4 9 1 10 2 11 42 12 3 13
REMARK SMILES IDX 40 14 38 15 43 16 41 18 39 20 37 22 35 24 10 26 11 27 12 28
REMARK SMILES IDX 30 29 21 30 29 31 31 32 22 33 27 34 23 35 26 36 24 37 13 38
REMARK SMILES IDX 20 39 14 40 18 41 15 42 16 43 19 44 17 46 28 48 25 50 33 52
REMARK H PARENT 43 17 41 19 39 21 37 23 35 25 19 45 17 47 28 49 25 51 33 53
REMARK Flexibility Score: inf
ROOT
ATOM      1  C   UNL     1     -43.712  -5.508  81.182  1.00  0.00     0.180 C 
ATOM      2  C   UNL     1     -44.414  -7.013  81.055  1.00  0.00     0.177 C 
ATOM      3  C   UNL     1     -43.534  -8.095  80.353  1.00  0.00     0.180 C 
ATOM      4  C   UNL     1     -41.967  -7.795  80.356  1.00  0.00     0.214 C 
ATOM      5  C   UNL     1     -41.575  -6.824  81.559  1.00  0.00     0.339 C 
ATOM      6  O   UNL     1     -42.209  -5.594  81.091  1.00  0.00    -0.332 OA
ENDROOT
BRANCH   1   7
ATOM      7  C   UNL     1     -44.546  -4.465  80.330  1.00  0.00     0.198 C 
BRANCH   7   8
ATOM      8  O   UNL     1     -45.604  -4.724  79.413  1.00  0.00    -0.347 OA
BRANCH   8   9
ATOM      9  C   UNL     1     -45.703  -4.264  77.987  1.00  0.00     0.281 C 
ATOM     10  C   UNL     1     -47.697  -5.530  75.020  1.00  0.00     0.041 C 
ATOM     11  C   UNL     1     -46.484  -4.766  75.718  1.00  0.00     0.150 C 
ATOM     12  C   UNL     1     -44.698  -5.245  75.473  1.00  0.00     0.174 C 
ATOM     13  O   UNL     1     -46.848  -4.639  77.151  1.00  0.00    -0.344 OA
ATOM     14  C   UNL     1     -43.987  -4.403  75.864  1.00  0.00     0.179 C 
ATOM     15  C   UNL     1     -44.674  -5.099  77.384  1.00  0.00     0.202 C 
BRANCH  12  16
ATOM     16  O   UNL     1     -43.766  -6.546  75.850  1.00  0.00    -0.388 OA
ATOM     17  H   UNL     1     -42.856  -6.017  75.951  1.00  0.00     0.211 HD
ENDBRANCH  12  16
BRANCH  14  18
ATOM     18  O   UNL     1     -42.577  -4.616  76.061  1.00  0.00    -0.387 OA
ATOM     19  H   UNL     1     -42.082  -3.825  76.360  1.00  0.00     0.211 HD
ENDBRANCH  14  18
BRANCH  15  20
ATOM     20  O   UNL     1     -45.595  -6.429  77.309  1.00  0.00    -0.385 OA
ATOM     21  H   UNL     1     -45.367  -7.429  77.658  1.00  0.00     0.211 HD
ENDBRANCH  15  20
ENDBRANCH   8   9
ENDBRANCH   7   8
ENDBRANCH   1   7
BRANCH   2  22
ATOM     22  O   UNL     1     -45.607  -6.977  80.280  1.00  0.00    -0.387 OA
ATOM     23  H   UNL     1     -46.017  -7.901  80.384  1.00  0.00     0.211 HD
ENDBRANCH   2  22
BRANCH   3  24
ATOM     24  O   UNL     1     -43.769  -9.424  80.996  1.00  0.00    -0.387 OA
ATOM     25  H   UNL     1     -44.220  -9.855  80.156  1.00  0.00     0.211 HD
ENDBRANCH   3  24
BRANCH   5  26
ATOM     26  O   UNL     1     -40.082  -6.854  81.613  1.00  0.00    -0.454 OA
BRANCH  26  27
ATOM     27  C   UNL     1     -39.187  -6.683  82.817  1.00  0.00     0.214 A 
ATOM     28  C   UNL     1     -37.754  -6.286  82.727  1.00  0.00     0.180 A 
ATOM     29  C   UNL     1     -39.718  -6.145  83.958  1.00  0.00     0.239 A 
ATOM     30  O   UNL     1     -37.522  -4.989  82.844  1.00  0.00    -0.452 OA
ATOM     31  C   UNL     1     -39.454  -4.785  84.193  1.00  0.00     0.111 A 
ATOM     32  O   UNL     1     -40.723  -6.666  84.564  1.00  0.00    -0.285 OA
ATOM     33  C   UNL     1     -38.276  -4.211  83.610  1.00  0.00     0.146 A 
ATOM     34  C   UNL     1     -40.453  -3.899  84.521  1.00  0.00     0.134 A 
ATOM     35  C   UNL     1     -38.155  -2.769  83.505  1.00  0.00     0.094 A 
ATOM     36  C   UNL     1     -40.155  -2.618  84.875  1.00  0.00     0.093 A 
ATOM     37  C   UNL     1     -39.284  -2.028  83.923  1.00  0.00     0.123 A 
BRANCH  28  38
ATOM     38  C   UNL     1     -36.568  -7.120  83.474  1.00  0.00     0.025 A 
ATOM     39  C   UNL     1     -35.775  -8.343  83.017  1.00  0.00     0.062 A 
ATOM     40  C   UNL     1     -35.853  -6.249  84.342  1.00  0.00     0.016 A 
ATOM     41  C   UNL     1     -34.401  -8.472  83.390  1.00  0.00     0.158 A 
ATOM     42  C   UNL     1     -34.651  -6.639  85.016  1.00  0.00     0.051 A 
ATOM     43  C   UNL     1     -33.933  -7.808  84.596  1.00  0.00     0.157 A 
BRANCH  41  44
ATOM     44  O   UNL     1     -33.433  -8.577  82.392  1.00  0.00    -0.504 OA
ATOM     45  H   UNL     1     -32.994  -7.683  82.179  1.00  0.00     0.293 HD
ENDBRANCH  41  44
BRANCH  43  46
ATOM     46  O   UNL     1     -32.663  -8.053  85.108  1.00  0.00    -0.504 OA
ATOM     47  H   UNL     1     -32.094  -7.230  85.381  1.00  0.00     0.293 HD
ENDBRANCH  43  46
ENDBRANCH  28  38
BRANCH  34  48
ATOM     48  O   UNL     1     -41.817  -4.182  84.271  1.00  0.00    -0.507 OA
ATOM     49  H   UNL     1     -41.878  -4.906  83.524  1.00  0.00     0.293 HD
ENDBRANCH  34  48
BRANCH  37  50
ATOM     50  O   UNL     1     -39.744  -0.806  83.270  1.00  0.00    -0.508 OA
ATOM     51  H   UNL     1     -39.148  -0.003  83.312  1.00  0.00     0.293 HD
ENDBRANCH  37  50
ENDBRANCH  26  27
ENDBRANCH   5  26
BRANCH   4  52
ATOM     52  O   UNL     1     -41.594  -7.159  79.129  1.00  0.00    -0.384 OA
ATOM     53  H   UNL     1     -40.583  -6.970  79.191  1.00  0.00     0.211 HD
ENDBRANCH   4  52
TORSDOF 16
ENDMDL
MODEL 4
REMARK VINA RESULT:    -7.307      4.419     10.115
REMARK INTER + INTRA:         -13.709
REMARK INTER:                 -11.307
REMARK INTRA:                  -2.402
REMARK UNBOUND:                -1.704
REMARK SMILES C[C@H]1O[C@@H](OC[C@@H]2O[C@H](Oc3c(-c4ccc(O)c(O)c4)oc4cc(O)cc(O)c4c3=O)[C@H](O)[C@@H](O)[C@@H]2O)[C@@H](O)[C@@H](O)[C@H]1O
REMARK SMILES IDX 7 1 36 2 34 3 32 4 9 5 8 6 6 7 5 8 4 9 1 10 2 11 42 12 3 13
REMARK SMILES IDX 40 14 38 15 43 16 41 18 39 20 37 22 35 24 10 26 11 27 12 28
REMARK SMILES IDX 30 29 21 30 29 31 31 32 22 33 27 34 23 35 26 36 24 37 13 38
REMARK SMILES IDX 20 39 14 40 18 41 15 42 16 43 19 44 17 46 28 48 25 50 33 52
REMARK H PARENT 43 17 41 19 39 21 37 23 35 25 19 45 17 47 28 49 25 51 33 53
REMARK Flexibility Score: inf
ROOT
ATOM      1  C   UNL     1     -39.234   6.009  80.924  1.00  0.00     0.180 C 
ATOM      2  C   UNL     1     -39.574   5.773  79.310  1.00  0.00     0.177 C 
ATOM      3  C   UNL     1     -39.779   4.283  78.890  1.00  0.00     0.180 C 
ATOM      4  C   UNL     1     -40.172   3.295  80.079  1.00  0.00     0.214 C 
ATOM      5  C   UNL     1     -40.858   4.091  81.278  1.00  0.00     0.339 C 
ATOM      6  O   UNL     1     -39.703   4.845  81.759  1.00  0.00    -0.332 OA
ENDROOT
BRANCH   1   7
ATOM      7  C   UNL     1     -37.779   6.616  81.071  1.00  0.00     0.198 C 
BRANCH   7   8
ATOM      8  O   UNL     1     -37.230   7.756  80.417  1.00  0.00    -0.347 OA
BRANCH   8   9
ATOM      9  C   UNL     1     -35.780   8.042  80.155  1.00  0.00     0.281 C 
ATOM     10  C   UNL     1     -33.855   8.809  76.978  1.00  0.00     0.041 C 
ATOM     11  C   UNL     1     -34.008   8.292  78.478  1.00  0.00     0.150 C 
ATOM     12  C   UNL     1     -33.602   6.549  79.005  1.00  0.00     0.174 C 
ATOM     13  O   UNL     1     -35.356   8.723  78.927  1.00  0.00    -0.344 OA
ATOM     14  C   UNL     1     -33.542   6.474  80.171  1.00  0.00     0.179 C 
ATOM     15  C   UNL     1     -35.309   6.695  79.864  1.00  0.00     0.202 C 
BRANCH  12  16
ATOM     16  O   UNL     1     -34.210   5.054  78.694  1.00  0.00    -0.388 OA
ATOM     17  H   UNL     1     -34.720   4.938  79.614  1.00  0.00     0.211 HD
ENDBRANCH  12  16
BRANCH  14  18
ATOM     18  O   UNL     1     -33.525   5.209  80.860  1.00  0.00    -0.387 OA
ATOM     19  H   UNL     1     -34.087   4.516  80.456  1.00  0.00     0.211 HD
ENDBRANCH  14  18
BRANCH  15  20
ATOM     20  O   UNL     1     -35.866   6.674  78.344  1.00  0.00    -0.385 OA
ATOM     21  H   UNL     1     -36.356   7.468  77.793  1.00  0.00     0.211 HD
ENDBRANCH  15  20
ENDBRANCH   8   9
ENDBRANCH   7   8
ENDBRANCH   1   7
BRANCH   2  22
ATOM     22  O   UNL     1     -38.516   6.229  78.474  1.00  0.00    -0.387 OA
ATOM     23  H   UNL     1     -38.667   7.230  78.380  1.00  0.00     0.211 HD
ENDBRANCH   2  22
BRANCH   3  24
ATOM     24  O   UNL     1     -40.831   4.203  77.832  1.00  0.00    -0.387 OA
ATOM     25  H   UNL     1     -40.624   5.144  77.424  1.00  0.00     0.211 HD
ENDBRANCH   3  24
BRANCH   5  26
ATOM     26  O   UNL     1     -41.418   3.037  82.176  1.00  0.00    -0.454 OA
BRANCH  26  27
ATOM     27  C   UNL     1     -40.721   2.291  83.289  1.00  0.00     0.214 A 
ATOM     28  C   UNL     1     -39.762   1.175  83.056  1.00  0.00     0.180 A 
ATOM     29  C   UNL     1     -40.319   2.989  84.395  1.00  0.00     0.239 A 
ATOM     30  O   UNL     1     -38.488   1.530  83.009  1.00  0.00    -0.452 OA
ATOM     31  C   UNL     1     -38.959   3.340  84.455  1.00  0.00     0.111 A 
ATOM     32  O   UNL     1     -41.136   3.659  85.124  1.00  0.00    -0.285 OA
ATOM     33  C   UNL     1     -38.017   2.538  83.732  1.00  0.00     0.146 A 
ATOM     34  C   UNL     1     -38.555   4.622  84.749  1.00  0.00     0.134 A 
ATOM     35  C   UNL     1     -36.691   3.058  83.455  1.00  0.00     0.094 A 
ATOM     36  C   UNL     1     -37.236   4.907  84.934  1.00  0.00     0.093 A 
ATOM     37  C   UNL     1     -36.461   4.392  83.863  1.00  0.00     0.123 A 
BRANCH  28  38
ATOM     38  C   UNL     1     -39.897  -0.265  83.809  1.00  0.00     0.025 A 
ATOM     39  C   UNL     1     -40.806  -1.457  83.516  1.00  0.00     0.062 A 
ATOM     40  C   UNL     1     -38.648  -0.611  84.395  1.00  0.00     0.016 A 
ATOM     41  C   UNL     1     -40.324  -2.784  83.743  1.00  0.00     0.158 A 
ATOM     42  C   UNL     1     -38.395  -1.890  84.987  1.00  0.00     0.051 A 
ATOM     43  C   UNL     1     -39.275  -2.993  84.728  1.00  0.00     0.157 A 
BRANCH  41  44
ATOM     44  O   UNL     1     -40.287  -3.684  82.679  1.00  0.00    -0.504 OA
ATOM     45  H   UNL     1     -39.469  -3.556  82.087  1.00  0.00     0.293 HD
ENDBRANCH  41  44
BRANCH  43  46
ATOM     46  O   UNL     1     -38.904  -4.274  85.125  1.00  0.00    -0.504 OA
ATOM     47  H   UNL     1     -39.340  -5.072  84.626  1.00  0.00     0.293 HD
ENDBRANCH  43  46
ENDBRANCH  28  38
BRANCH  34  48
ATOM     48  O   UNL     1     -39.428   5.729  84.627  1.00  0.00    -0.507 OA
ATOM     49  H   UNL     1     -39.441   6.249  85.529  1.00  0.00     0.293 HD
ENDBRANCH  34  48
BRANCH  37  50
ATOM     50  O   UNL     1     -35.653   5.347  83.109  1.00  0.00    -0.508 OA
ATOM     51  H   UNL     1     -34.669   5.176  83.046  1.00  0.00     0.293 HD
ENDBRANCH  37  50
ENDBRANCH  26  27
ENDBRANCH   5  26
BRANCH   4  52
ATOM     52  O   UNL     1     -38.996   2.654  80.584  1.00  0.00    -0.384 OA
ATOM     53  H   UNL     1     -38.493   3.360  81.142  1.00  0.00     0.211 HD
ENDBRANCH   4  52
TORSDOF 16
ENDMDL
MODEL 5
REMARK VINA RESULT:    -7.264      3.871      6.742
REMARK INTER + INTRA:         -13.638
REMARK INTER:                 -11.234
REMARK INTRA:                  -2.404
REMARK UNBOUND:                -1.704
REMARK SMILES C[C@H]1O[C@@H](OC[C@@H]2O[C@H](Oc3c(-c4ccc(O)c(O)c4)oc4cc(O)cc(O)c4c3=O)[C@H](O)[C@@H](O)[C@@H]2O)[C@@H](O)[C@@H](O)[C@H]1O
REMARK SMILES IDX 7 1 36 2 34 3 32 4 9 5 8 6 6 7 5 8 4 9 1 10 2 11 42 12 3 13
REMARK SMILES IDX 40 14 38 15 43 16 41 18 39 20 37 22 35 24 10 26 11 27 12 28
REMARK SMILES IDX 30 29 21 30 29 31 31 32 22 33 27 34 23 35 26 36 24 37 13 38
REMARK SMILES IDX 20 39 14 40 18 41 15 42 16 43 19 44 17 46 28 48 25 50 33 52
REMARK H PARENT 43 17 41 19 39 21 37 23 35 25 19 45 17 47 28 49 25 51 33 53
REMARK Flexibility Score: inf
ROOT
ATOM      1  C   UNL     1     -39.284   4.235  84.246  1.00  0.00     0.180 C 
ATOM      2  C   UNL     1     -38.101   3.063  84.295  1.00  0.00     0.177 C 
ATOM      3  C   UNL     1     -36.905   3.291  83.317  1.00  0.00     0.180 C 
ATOM      4  C   UNL     1     -36.704   4.800  82.839  1.00  0.00     0.214 C 
ATOM      5  C   UNL     1     -37.333   5.820  83.890  1.00  0.00     0.339 C 
ATOM      6  O   UNL     1     -38.751   5.529  83.687  1.00  0.00    -0.332 OA
ENDROOT
BRANCH   1   7
ATOM      7  C   UNL     1     -40.639   3.593  83.735  1.00  0.00     0.198 C 
BRANCH   7   8
ATOM      8  O   UNL     1     -40.912   3.010  82.465  1.00  0.00    -0.347 OA
BRANCH   8   9
ATOM      9  C   UNL     1     -41.405   3.710  81.232  1.00  0.00     0.281 C 
ATOM     10  C   UNL     1     -41.790   2.586  77.630  1.00  0.00     0.041 C 
ATOM     11  C   UNL     1     -41.606   3.666  78.788  1.00  0.00     0.150 C 
ATOM     12  C   UNL     1     -40.139   4.814  78.892  1.00  0.00     0.174 C 
ATOM     13  O   UNL     1     -41.859   2.949  80.063  1.00  0.00    -0.344 OA
ATOM     14  C   UNL     1     -40.343   5.675  79.657  1.00  0.00     0.179 C 
ATOM     15  C   UNL     1     -40.144   4.224  80.715  1.00  0.00     0.202 C 
BRANCH  12  16
ATOM     16  O   UNL     1     -38.524   4.641  79.143  1.00  0.00    -0.388 OA
ATOM     17  H   UNL     1     -38.247   4.597  78.124  1.00  0.00     0.211 HD
ENDBRANCH  12  16
BRANCH  14  18
ATOM     18  O   UNL     1     -39.295   6.534  80.146  1.00  0.00    -0.387 OA
ATOM     19  H   UNL     1     -39.600   7.257  80.732  1.00  0.00     0.211 HD
ENDBRANCH  14  18
BRANCH  15  20
ATOM     20  O   UNL     1     -39.673   2.818  80.065  1.00  0.00    -0.385 OA
ATOM     21  H   UNL     1     -38.942   2.111  80.442  1.00  0.00     0.211 HD
ENDBRANCH  15  20
ENDBRANCH   8   9
ENDBRANCH   7   8
ENDBRANCH   1   7
BRANCH   2  22
ATOM     22  O   UNL     1     -38.609   1.783  83.934  1.00  0.00    -0.387 OA
ATOM     23  H   UNL     1     -38.829   1.857  82.945  1.00  0.00     0.211 HD
ENDBRANCH   2  22
BRANCH   3  24
ATOM     24  O   UNL     1     -35.641   2.816  83.955  1.00  0.00    -0.387 OA
ATOM     25  H   UNL     1     -35.041   3.568  83.544  1.00  0.00     0.211 HD
ENDBRANCH   3  24
BRANCH   5  26
ATOM     26  O   UNL     1     -36.837   7.165  83.473  1.00  0.00    -0.454 OA
BRANCH  26  27
ATOM     27  C   UNL     1     -35.461   7.541  82.976  1.00  0.00     0.214 A 
ATOM     28  C   UNL     1     -34.229   6.772  83.306  1.00  0.00     0.180 A 
ATOM     29  C   UNL     1     -35.336   8.043  81.709  1.00  0.00     0.239 A 
ATOM     30  O   UNL     1     -33.885   5.854  82.418  1.00  0.00    -0.452 OA
ATOM     31  C   UNL     1     -34.902   7.146  80.719  1.00  0.00     0.111 A 
ATOM     32  O   UNL     1     -35.953   9.100  81.321  1.00  0.00    -0.285 OA
ATOM     33  C   UNL     1     -34.120   6.014  81.122  1.00  0.00     0.146 A 
ATOM     34  C   UNL     1     -35.556   7.024  79.514  1.00  0.00     0.134 A 
ATOM     35  C   UNL     1     -33.971   4.885  80.223  1.00  0.00     0.094 A 
ATOM     36  C   UNL     1     -35.041   6.249  78.521  1.00  0.00     0.093 A 
ATOM     37  C   UNL     1     -34.704   4.963  79.017  1.00  0.00     0.123 A 
BRANCH  28  38
ATOM     38  C   UNL     1     -32.887   7.484  83.900  1.00  0.00     0.025 A 
ATOM     39  C   UNL     1     -31.988   7.088  85.069  1.00  0.00     0.062 A 
ATOM     40  C   UNL     1     -32.218   8.176  82.854  1.00  0.00     0.016 A 
ATOM     41  C   UNL     1     -30.581   7.335  84.992  1.00  0.00     0.158 A 
ATOM     42  C   UNL     1     -30.923   8.766  83.017  1.00  0.00     0.051 A 
ATOM     43  C   UNL     1     -30.101   8.408  84.137  1.00  0.00     0.157 A 
BRANCH  41  44
ATOM     44  O   UNL     1     -29.697   6.263  85.103  1.00  0.00    -0.504 OA
ATOM     45  H   UNL     1     -29.980   5.463  84.541  1.00  0.00     0.293 HD
ENDBRANCH  41  44
BRANCH  43  46
ATOM     46  O   UNL     1     -28.771   8.816  84.169  1.00  0.00    -0.504 OA
ATOM     47  H   UNL     1     -28.464   9.495  83.447  1.00  0.00     0.293 HD
ENDBRANCH  43  46
ENDBRANCH  28  38
BRANCH  34  48
ATOM     48  O   UNL     1     -36.886   7.475  79.336  1.00  0.00    -0.507 OA
ATOM     49  H   UNL     1     -37.193   7.243  78.368  1.00  0.00     0.293 HD
ENDBRANCH  34  48
BRANCH  37  50
ATOM     50  O   UNL     1     -35.341   3.816  78.375  1.00  0.00    -0.508 OA
ATOM     51  H   UNL     1     -35.201   3.697  77.392  1.00  0.00     0.293 HD
ENDBRANCH  37  50
ENDBRANCH  26  27
ENDBRANCH   5  26
BRANCH   4  52
ATOM     52  O   UNL     1     -37.353   4.998  81.579  1.00  0.00    -0.384 OA
ATOM     53  H   UNL     1     -38.314   5.306  81.789  1.00  0.00     0.211 HD
ENDBRANCH   4  52
TORSDOF 16
ENDMDL
MODEL 6
REMARK VINA RESULT:    -7.176      2.027      2.589
REMARK INTER + INTRA:         -13.495
REMARK INTER:                 -11.979
REMARK INTRA:                  -1.516
REMARK UNBOUND:                -1.704
REMARK SMILES C[C@H]1O[C@@H](OC[C@@H]2O[C@H](Oc3c(-c4ccc(O)c(O)c4)oc4cc(O)cc(O)c4c3=O)[C@H](O)[C@@H](O)[C@@H]2O)[C@@H](O)[C@@H](O)[C@H]1O
REMARK SMILES IDX 7 1 36 2 34 3 32 4 9 5 8 6 6 7 5 8 4 9 1 10 2 11 42 12 3 13
REMARK SMILES IDX 40 14 38 15 43 16 41 18 39 20 37 22 35 24 10 26 11 27 12 28
REMARK SMILES IDX 30 29 21 30 29 31 31 32 22 33 27 34 23 35 26 36 24 37 13 38
REMARK SMILES IDX 20 39 14 40 18 41 15 42 16 43 19 44 17 46 28 48 25 50 33 52
REMARK H PARENT 43 17 41 19 39 21 37 23 35 25 19 45 17 47 28 49 25 51 33 53
REMARK Flexibility Score: inf
ROOT
ATOM      1  C   UNL     1     -41.542   3.315  77.638  1.00  0.00     0.180 C 
ATOM      2  C   UNL     1     -42.164   3.548  79.166  1.00  0.00     0.177 C 
ATOM      3  C   UNL     1     -41.140   3.364  80.331  1.00  0.00     0.180 C 
ATOM      4  C   UNL     1     -39.609   3.526  79.913  1.00  0.00     0.214 C 
ATOM      5  C   UNL     1     -39.467   4.417  78.598  1.00  0.00     0.339 C 
ATOM      6  O   UNL     1     -40.046   3.497  77.622  1.00  0.00    -0.332 OA
ENDROOT
BRANCH   1   7
ATOM      7  C   UNL     1     -42.243   2.061  76.970  1.00  0.00     0.198 C 
BRANCH   7   8
ATOM      8  O   UNL     1     -43.542   1.983  76.394  1.00  0.00    -0.347 OA
BRANCH   8   9
ATOM      9  C   UNL     1     -43.902   1.458  75.033  1.00  0.00     0.281 C 
ATOM     10  C   UNL     1     -45.616   3.047  72.046  1.00  0.00     0.041 C 
ATOM     11  C   UNL     1     -45.157   1.823  72.958  1.00  0.00     0.150 C 
ATOM     12  C   UNL     1     -46.356   0.643  73.766  1.00  0.00     0.174 C 
ATOM     13  O   UNL     1     -44.167   2.373  73.918  1.00  0.00    -0.344 OA
ATOM     14  C   UNL     1     -45.798  -0.306  74.162  1.00  0.00     0.179 C 
ATOM     15  C   UNL     1     -45.256   0.992  75.296  1.00  0.00     0.202 C 
BRANCH  12  16
ATOM     16  O   UNL     1     -47.510   0.752  74.932  1.00  0.00    -0.388 OA
ATOM     17  H   UNL     1     -46.901   1.217  75.660  1.00  0.00     0.211 HD
ENDBRANCH  12  16
BRANCH  14  18
ATOM     18  O   UNL     1     -46.417  -1.241  75.067  1.00  0.00    -0.387 OA
ATOM     19  H   UNL     1     -46.519  -2.147  74.710  1.00  0.00     0.211 HD
ENDBRANCH  14  18
BRANCH  15  20
ATOM     20  O   UNL     1     -45.932   2.461  75.212  1.00  0.00    -0.385 OA
ATOM     21  H   UNL     1     -46.029   3.205  75.995  1.00  0.00     0.211 HD
ENDBRANCH  15  20
ENDBRANCH   8   9
ENDBRANCH   7   8
ENDBRANCH   1   7
BRANCH   2  22
ATOM     22  O   UNL     1     -43.200   2.618  79.463  1.00  0.00    -0.387 OA
ATOM     23  H   UNL     1     -44.016   2.965  78.966  1.00  0.00     0.211 HD
ENDBRANCH   2  22
BRANCH   3  24
ATOM     24  O   UNL     1     -41.445   4.338  81.421  1.00  0.00    -0.387 OA
ATOM     25  H   UNL     1     -41.110   5.177  80.894  1.00  0.00     0.211 HD
ENDBRANCH   3  24
BRANCH   5  26
ATOM     26  O   UNL     1     -38.008   4.716  78.486  1.00  0.00    -0.454 OA
BRANCH  26  27
ATOM     27  C   UNL     1     -37.141   5.512  79.433  1.00  0.00     0.214 A 
ATOM     28  C   UNL     1     -35.652   5.505  79.387  1.00  0.00     0.180 A 
ATOM     29  C   UNL     1     -37.561   6.756  79.817  1.00  0.00     0.239 A 
ATOM     30  O   UNL     1     -35.108   6.478  78.674  1.00  0.00    -0.452 OA
ATOM     31  C   UNL     1     -36.973   7.848  79.157  1.00  0.00     0.111 A 
ATOM     32  O   UNL     1     -38.685   6.954  80.406  1.00  0.00    -0.285 OA
ATOM     33  C   UNL     1     -35.671   7.676  78.585  1.00  0.00     0.146 A 
ATOM     34  C   UNL     1     -37.731   8.868  78.628  1.00  0.00     0.134 A 
ATOM     35  C   UNL     1     -35.190   8.620  77.593  1.00  0.00     0.094 A 
ATOM     36  C   UNL     1     -37.136   9.979  78.113  1.00  0.00     0.093 A 
ATOM     37  C   UNL     1     -36.112   9.616  77.199  1.00  0.00     0.123 A 
BRANCH  28  38
ATOM     38  C   UNL     1     -34.738   5.223  80.708  1.00  0.00     0.025 A 
ATOM     39  C   UNL     1     -33.882   6.171  81.544  1.00  0.00     0.062 A 
ATOM     40  C   UNL     1     -35.287   4.131  81.436  1.00  0.00     0.016 A 
ATOM     41  C   UNL     1     -33.779   5.967  82.956  1.00  0.00     0.158 A 
ATOM     42  C   UNL     1     -34.810   3.742  82.729  1.00  0.00     0.051 A 
ATOM     43  C   UNL     1     -33.980   4.631  83.491  1.00  0.00     0.157 A 
BRANCH  41  44
ATOM     44  O   UNL     1     -34.175   6.987  83.820  1.00  0.00    -0.504 OA
ATOM     45  H   UNL     1     -34.287   6.665  84.779  1.00  0.00     0.293 HD
ENDBRANCH  41  44
BRANCH  43  46
ATOM     46  O   UNL     1     -33.706   4.338  84.824  1.00  0.00    -0.504 OA
ATOM     47  H   UNL     1     -32.715   4.384  85.126  1.00  0.00     0.293 HD
ENDBRANCH  43  46
ENDBRANCH  28  38
BRANCH  34  48
ATOM     48  O   UNL     1     -39.113   8.713  78.364  1.00  0.00    -0.507 OA
ATOM     49  H   UNL     1     -39.588   9.628  78.511  1.00  0.00     0.293 HD
ENDBRANCH  34  48
BRANCH  37  50
ATOM     50  O   UNL     1     -36.230  10.125  75.835  1.00  0.00    -0.508 OA
ATOM     51  H   UNL     1     -37.126  10.068  75.393  1.00  0.00     0.293 HD
ENDBRANCH  37  50
ENDBRANCH  26  27
ENDBRANCH   5  26
BRANCH   4  52
ATOM     52  O   UNL     1     -39.043   2.239  79.643  1.00  0.00    -0.384 OA
ATOM     53  H   UNL     1     -39.268   1.643  80.453  1.00  0.00     0.211 HD
ENDBRANCH   4  52
TORSDOF 16
ENDMDL
MODEL 7
REMARK VINA RESULT:    -7.120      4.948      7.446
REMARK INTER + INTRA:         -13.403
REMARK INTER:                 -11.214
REMARK INTRA:                  -2.189
REMARK UNBOUND:                -1.704
REMARK SMILES C[C@H]1O[C@@H](OC[C@@H]2O[C@H](Oc3c(-c4ccc(O)c(O)c4)oc4cc(O)cc(O)c4c3=O)[C@H](O)[C@@H](O)[C@@H]2O)[C@@H](O)[C@@H](O)[C@H]1O
REMARK SMILES IDX 7 1 36 2 34 3 32 4 9 5 8 6 6 7 5 8 4 9 1 10 2 11 42 12 3 13
REMARK SMILES IDX 40 14 38 15 43 16 41 18 39 20 37 22 35 24 10 26 11 27 12 28
REMARK SMILES IDX 30 29 21 30 29 31 31 32 22 33 27 34 23 35 26 36 24 37 13 38
REMARK SMILES IDX 20 39 14 40 18 41 15 42 16 43 19 44 17 46 28 48 25 50 33 52
REMARK H PARENT 43 17 41 19 39 21 37 23 35 25 19 45 17 47 28 49 25 51 33 53
REMARK Flexibility Score: inf
ROOT
ATOM      1  C   UNL     1     -38.783   0.605  83.929  1.00  0.00     0.180 C 
ATOM      2  C   UNL     1     -40.209   0.832  83.098  1.00  0.00     0.177 C 
ATOM      3  C   UNL     1     -40.780   2.285  83.152  1.00  0.00     0.180 C 
ATOM      4  C   UNL     1     -39.709   3.417  83.493  1.00  0.00     0.214 C 
ATOM      5  C   UNL     1     -38.236   2.943  83.109  1.00  0.00     0.339 C 
ATOM      6  O   UNL     1     -38.046   1.906  84.120  1.00  0.00    -0.332 OA
ENDROOT
BRANCH   1   7
ATOM      7  C   UNL     1     -39.027  -0.406  85.124  1.00  0.00     0.198 C 
BRANCH   7   8
ATOM      8  O   UNL     1     -39.169  -1.821  85.065  1.00  0.00    -0.347 OA
BRANCH   8   9
ATOM      9  C   UNL     1     -39.294  -2.671  83.833  1.00  0.00     0.281 C 
ATOM     10  C   UNL     1     -42.273  -4.277  82.121  1.00  0.00     0.041 C 
ATOM     11  C   UNL     1     -40.728  -4.135  82.486  1.00  0.00     0.150 C 
ATOM     12  C   UNL     1     -39.753  -5.472  83.347  1.00  0.00     0.174 C 
ATOM     13  O   UNL     1     -40.580  -2.811  83.141  1.00  0.00    -0.344 OA
ATOM     14  C   UNL     1     -38.605  -5.256  83.277  1.00  0.00     0.179 C 
ATOM     15  C   UNL     1     -39.191  -3.994  84.430  1.00  0.00     0.202 C 
BRANCH  12  16
ATOM     16  O   UNL     1     -39.779  -6.177  84.832  1.00  0.00    -0.388 OA
ATOM     17  H   UNL     1     -40.505  -5.535  85.257  1.00  0.00     0.211 HD
ENDBRANCH  12  16
BRANCH  14  18
ATOM     18  O   UNL     1     -37.640  -5.959  84.083  1.00  0.00    -0.387 OA
ATOM     19  H   UNL     1     -36.804  -5.472  84.235  1.00  0.00     0.211 HD
ENDBRANCH  14  18
BRANCH  15  20
ATOM     20  O   UNL     1     -40.723  -4.036  84.951  1.00  0.00    -0.385 OA
ATOM     21  H   UNL     1     -41.188  -3.443  85.731  1.00  0.00     0.211 HD
ENDBRANCH  15  20
ENDBRANCH   8   9
ENDBRANCH   7   8
ENDBRANCH   1   7
BRANCH   2  22
ATOM     22  O   UNL     1     -41.260   0.025  83.619  1.00  0.00    -0.387 OA
ATOM     23  H   UNL     1     -41.264   0.211  84.618  1.00  0.00     0.211 HD
ENDBRANCH   2  22
BRANCH   3  24
ATOM     24  O   UNL     1     -41.427   2.615  81.846  1.00  0.00    -0.387 OA
ATOM     25  H   UNL     1     -41.747   3.567  82.139  1.00  0.00     0.211 HD
ENDBRANCH   3  24
BRANCH   5  26
ATOM     26  O   UNL     1     -37.391   4.171  83.213  1.00  0.00    -0.454 OA
BRANCH  26  27
ATOM     27  C   UNL     1     -36.839   5.023  82.094  1.00  0.00     0.214 A 
ATOM     28  C   UNL     1     -35.728   4.588  81.201  1.00  0.00     0.180 A 
ATOM     29  C   UNL     1     -37.705   5.796  81.370  1.00  0.00     0.239 A 
ATOM     30  O   UNL     1     -36.108   4.018  80.070  1.00  0.00    -0.452 OA
ATOM     31  C   UNL     1     -38.099   5.292  80.118  1.00  0.00     0.111 A 
ATOM     32  O   UNL     1     -38.452   6.688  81.911  1.00  0.00    -0.285 OA
ATOM     33  C   UNL     1     -37.225   4.374  79.449  1.00  0.00     0.146 A 
ATOM     34  C   UNL     1     -39.421   5.245  79.740  1.00  0.00     0.134 A 
ATOM     35  C   UNL     1     -37.736   3.552  78.367  1.00  0.00     0.094 A 
ATOM     36  C   UNL     1     -39.768   4.879  78.475  1.00  0.00     0.093 A 
ATOM     37  C   UNL     1     -39.121   3.669  78.112  1.00  0.00     0.123 A 
BRANCH  28  38
ATOM     38  C   UNL     1     -34.413   5.512  80.930  1.00  0.00     0.025 A 
ATOM     39  C   UNL     1     -33.529   5.643  79.690  1.00  0.00     0.062 A 
ATOM     40  C   UNL     1     -34.495   6.694  81.718  1.00  0.00     0.016 A 
ATOM     41  C   UNL     1     -32.955   6.911  79.364  1.00  0.00     0.158 A 
ATOM     42  C   UNL     1     -33.575   7.783  81.582  1.00  0.00     0.051 A 
ATOM     43  C   UNL     1     -32.729   7.876  80.428  1.00  0.00     0.157 A 
BRANCH  41  44
ATOM     44  O   UNL     1     -33.244   7.490  78.129  1.00  0.00    -0.504 OA
ATOM     45  H   UNL     1     -32.883   6.945  77.348  1.00  0.00     0.293 HD
ENDBRANCH  41  44
BRANCH  43  46
ATOM     46  O   UNL     1     -32.004   9.042  80.202  1.00  0.00    -0.504 OA
ATOM     47  H   UNL     1     -30.982   9.007  80.375  1.00  0.00     0.293 HD
ENDBRANCH  43  46
ENDBRANCH  28  38
BRANCH  34  48
ATOM     48  O   UNL     1     -40.472   5.323  80.684  1.00  0.00    -0.507 OA
ATOM     49  H   UNL     1     -41.309   4.838  80.297  1.00  0.00     0.293 HD
ENDBRANCH  34  48
BRANCH  37  50
ATOM     50  O   UNL     1     -39.976   2.551  77.723  1.00  0.00    -0.508 OA
ATOM     51  H   UNL     1     -40.960   2.641  77.882  1.00  0.00     0.293 HD
ENDBRANCH  37  50
ENDBRANCH  26  27
ENDBRANCH   5  26
BRANCH   4  52
ATOM     52  O   UNL     1     -39.735   3.700  84.896  1.00  0.00    -0.384 OA
ATOM     53  H   UNL     1     -39.448   4.684  85.003  1.00  0.00     0.211 HD
ENDBRANCH   4  52
TORSDOF 16
ENDMDL
MODEL 8
REMARK VINA RESULT:    -7.009      1.986      3.353
REMARK INTER + INTRA:         -13.220
REMARK INTER:                 -11.264
REMARK INTRA:                  -1.956
REMARK UNBOUND:                -1.704
REMARK SMILES C[C@H]1O[C@@H](OC[C@@H]2O[C@H](Oc3c(-c4ccc(O)c(O)c4)oc4cc(O)cc(O)c4c3=O)[C@H](O)[C@@H](O)[C@@H]2O)[C@@H](O)[C@@H](O)[C@H]1O
REMARK SMILES IDX 7 1 36 2 34 3 32 4 9 5 8 6 6 7 5 8 4 9 1 10 2 11 42 12 3 13
REMARK SMILES IDX 40 14 38 15 43 16 41 18 39 20 37 22 35 24 10 26 11 27 12 28
REMARK SMILES IDX 30 29 21 30 29 31 31 32 22 33 27 34 23 35 26 36 24 37 13 38
REMARK SMILES IDX 20 39 14 40 18 41 15 42 16 43 19 44 17 46 28 48 25 50 33 52
REMARK H PARENT 43 17 41 19 39 21 37 23 35 25 19 45 17 47 28 49 25 51 33 53
REMARK Flexibility Score: inf
ROOT
ATOM      1  C   UNL     1     -41.569   3.332  77.607  1.00  0.00     0.180 C 
ATOM      2  C   UNL     1     -42.205   3.559  79.130  1.00  0.00     0.177 C 
ATOM      3  C   UNL     1     -41.193   3.367  80.304  1.00  0.00     0.180 C 
ATOM      4  C   UNL     1     -39.657   3.526  79.902  1.00  0.00     0.214 C 
ATOM      5  C   UNL     1     -39.500   4.423  78.593  1.00  0.00     0.339 C 
ATOM      6  O   UNL     1     -40.072   3.510  77.606  1.00  0.00    -0.332 OA
ENDROOT
BRANCH   1   7
ATOM      7  C   UNL     1     -42.266   2.084  76.927  1.00  0.00     0.198 C 
BRANCH   7   8
ATOM      8  O   UNL     1     -43.575   2.001  76.372  1.00  0.00    -0.347 OA
BRANCH   8   9
ATOM      9  C   UNL     1     -43.956   1.476  75.018  1.00  0.00     0.281 C 
ATOM     10  C   UNL     1     -45.704   3.069  72.053  1.00  0.00     0.041 C 
ATOM     11  C   UNL     1     -45.239   1.843  72.960  1.00  0.00     0.150 C 
ATOM     12  C   UNL     1     -46.432   0.670  73.785  1.00  0.00     0.174 C 
ATOM     13  O   UNL     1     -44.233   2.390  73.905  1.00  0.00    -0.344 OA
ATOM     14  C   UNL     1     -45.873  -0.281  74.175  1.00  0.00     0.179 C 
ATOM     15  C   UNL     1     -45.309   1.016  75.300  1.00  0.00     0.202 C 
BRANCH  12  16
ATOM     16  O   UNL     1     -47.569   0.787  74.967  1.00  0.00    -0.388 OA
ATOM     17  H   UNL     1     -47.308   1.759  75.290  1.00  0.00     0.211 HD
ENDBRANCH  12  16
BRANCH  14  18
ATOM     18  O   UNL     1     -46.483  -1.211  75.089  1.00  0.00    -0.387 OA
ATOM     19  H   UNL     1     -46.165  -1.143  76.013  1.00  0.00     0.211 HD
ENDBRANCH  14  18
BRANCH  15  20
ATOM     20  O   UNL     1     -45.979   2.488  75.224  1.00  0.00    -0.385 OA
ATOM     21  H   UNL     1     -46.536   2.935  74.408  1.00  0.00     0.211 HD
ENDBRANCH  15  20
ENDBRANCH   8   9
ENDBRANCH   7   8
ENDBRANCH   1   7
BRANCH   2  22
ATOM     22  O   UNL     1     -43.247   2.630  79.412  1.00  0.00    -0.387 OA
ATOM     23  H   UNL     1     -43.717   3.003  80.233  1.00  0.00     0.211 HD
ENDBRANCH   2  22
BRANCH   3  24
ATOM     24  O   UNL     1     -41.506   4.336  81.397  1.00  0.00    -0.387 OA
ATOM     25  H   UNL     1     -41.060   5.156  80.925  1.00  0.00     0.211 HD
ENDBRANCH   3  24
BRANCH   5  26
ATOM     26  O   UNL     1     -38.039   4.719  78.496  1.00  0.00    -0.454 OA
BRANCH  26  27
ATOM     27  C   UNL     1     -37.197   5.580  79.408  1.00  0.00     0.214 A 
ATOM     28  C   UNL     1     -37.509   7.005  79.714  1.00  0.00     0.180 A 
ATOM     29  C   UNL     1     -36.639   5.007  80.518  1.00  0.00     0.239 A 
ATOM     30  O   UNL     1     -38.221   7.200  80.811  1.00  0.00    -0.452 OA
ATOM     31  C   UNL     1     -37.297   5.232  81.739  1.00  0.00     0.111 A 
ATOM     32  O   UNL     1     -35.844   4.001  80.451  1.00  0.00    -0.285 OA
ATOM     33  C   UNL     1     -38.106   6.408  81.869  1.00  0.00     0.146 A 
ATOM     34  C   UNL     1     -37.593   4.202  82.603  1.00  0.00     0.134 A 
ATOM     35  C   UNL     1     -39.083   6.496  82.939  1.00  0.00     0.094 A 
ATOM     36  C   UNL     1     -38.109   4.459  83.837  1.00  0.00     0.093 A 
ATOM     37  C   UNL     1     -39.219   5.338  83.739  1.00  0.00     0.123 A 
BRANCH  28  38
ATOM     38  C   UNL     1     -36.402   8.193  79.565  1.00  0.00     0.025 A 
ATOM     39  C   UNL     1     -35.842   9.164  80.602  1.00  0.00     0.062 A 
ATOM     40  C   UNL     1     -35.496   7.864  78.519  1.00  0.00     0.016 A 
ATOM     41  C   UNL     1     -34.475   9.577  80.515  1.00  0.00     0.158 A 
ATOM     42  C   UNL     1     -34.313   8.625  78.249  1.00  0.00     0.051 A 
ATOM     43  C   UNL     1     -33.815   9.557  79.219  1.00  0.00     0.157 A 
BRANCH  41  44
ATOM     44  O   UNL     1     -33.621   9.328  81.588  1.00  0.00    -0.504 OA
ATOM     45  H   UNL     1     -33.206  10.179  81.962  1.00  0.00     0.293 HD
ENDBRANCH  41  44
BRANCH  43  46
ATOM     46  O   UNL     1     -32.557  10.124  79.042  1.00  0.00    -0.504 OA
ATOM     47  H   UNL     1     -32.218  10.769  79.781  1.00  0.00     0.293 HD
ENDBRANCH  43  46
ENDBRANCH  28  38
BRANCH  34  48
ATOM     48  O   UNL     1     -37.619   2.853  82.177  1.00  0.00    -0.507 OA
ATOM     49  H   UNL     1     -38.407   2.726  81.508  1.00  0.00     0.293 HD
ENDBRANCH  34  48
BRANCH  37  50
ATOM     50  O   UNL     1     -40.491   4.863  84.277  1.00  0.00    -0.508 OA
ATOM     51  H   UNL     1     -40.470   4.071  84.888  1.00  0.00     0.293 HD
ENDBRANCH  37  50
ENDBRANCH  26  27
ENDBRANCH   5  26
BRANCH   4  52
ATOM     52  O   UNL     1     -39.092   2.239  79.631  1.00  0.00    -0.384 OA
ATOM     53  H   UNL     1     -39.838   1.675  79.199  1.00  0.00     0.211 HD
ENDBRANCH   4  52
TORSDOF 16
ENDMDL
MODEL 9
REMARK VINA RESULT:    -5.812      3.712      6.773
REMARK INTER + INTRA:         -11.253
REMARK INTER:                  -8.577
REMARK INTRA:                  -2.676
REMARK UNBOUND:                -1.704
REMARK SMILES C[C@H]1O[C@@H](OC[C@@H]2O[C@H](Oc3c(-c4ccc(O)c(O)c4)oc4cc(O)cc(O)c4c3=O)[C@H](O)[C@@H](O)[C@@H]2O)[C@@H](O)[C@@H](O)[C@H]1O
REMARK SMILES IDX 7 1 36 2 34 3 32 4 9 5 8 6 6 7 5 8 4 9 1 10 2 11 42 12 3 13
REMARK SMILES IDX 40 14 38 15 43 16 41 18 39 20 37 22 35 24 10 26 11 27 12 28
REMARK SMILES IDX 30 29 21 30 29 31 31 32 22 33 27 34 23 35 26 36 24 37 13 38
REMARK SMILES IDX 20 39 14 40 18 41 15 42 16 43 19 44 17 46 28 48 25 50 33 52
REMARK H PARENT 43 17 41 19 39 21 37 23 35 25 19 45 17 47 28 49 25 51 33 53
REMARK Flexibility Score: inf
ROOT
ATOM      1  C   UNL     1     -37.417   6.780  78.287  1.00  0.00     0.180 C 
ATOM      2  C   UNL     1     -38.139   7.864  79.325  1.00  0.00     0.177 C 
ATOM      3  C   UNL     1     -38.122   7.448  80.830  1.00  0.00     0.180 C 
ATOM      4  C   UNL     1     -36.996   6.388  81.224  1.00  0.00     0.214 C 
ATOM      5  C   UNL     1     -35.779   6.441  80.196  1.00  0.00     0.339 C 
ATOM      6  O   UNL     1     -36.439   5.892  79.014  1.00  0.00    -0.332 OA
ENDROOT
BRANCH   1   7
ATOM      7  C   UNL     1     -38.506   6.196  77.296  1.00  0.00     0.198 C 
BRANCH   7   8
ATOM      8  O   UNL     1     -39.363   5.075  77.492  1.00  0.00    -0.347 OA
BRANCH   8   9
ATOM      9  C   UNL     1     -40.392   4.897  78.571  1.00  0.00     0.281 C 
ATOM     10  C   UNL     1     -40.323   3.084  81.902  1.00  0.00     0.041 C 
ATOM     11  C   UNL     1     -41.033   3.713  80.621  1.00  0.00     0.150 C 
ATOM     12  C   UNL     1     -42.063   2.713  79.429  1.00  0.00     0.174 C 
ATOM     13  O   UNL     1     -39.999   4.527  79.935  1.00  0.00    -0.344 OA
ATOM     14  C   UNL     1     -42.684   3.416  78.730  1.00  0.00     0.179 C 
ATOM     15  C   UNL     1     -40.991   3.641  78.140  1.00  0.00     0.202 C 
BRANCH  12  16
ATOM     16  O   UNL     1     -41.778   1.496  78.361  1.00  0.00    -0.388 OA
ATOM     17  H   UNL     1     -42.626   1.667  77.754  1.00  0.00     0.211 HD
ENDBRANCH  12  16
BRANCH  14  18
ATOM     18  O   UNL     1     -43.342   2.934  77.542  1.00  0.00    -0.387 OA
ATOM     19  H   UNL     1     -43.595   3.633  76.904  1.00  0.00     0.211 HD
ENDBRANCH  14  18
BRANCH  15  20
ATOM     20  O   UNL     1     -39.807   2.708  78.730  1.00  0.00    -0.385 OA
ATOM     21  H   UNL     1     -38.868   2.433  78.264  1.00  0.00     0.211 HD
ENDBRANCH  15  20
ENDBRANCH   8   9
ENDBRANCH   7   8
ENDBRANCH   1   7
BRANCH   2  22
ATOM     22  O   UNL     1     -39.519   8.043  79.028  1.00  0.00    -0.387 OA
ATOM     23  H   UNL     1     -40.004   7.846  79.899  1.00  0.00     0.211 HD
ENDBRANCH   2  22
BRANCH   3  24
ATOM     24  O   UNL     1     -37.955   8.664  81.682  1.00  0.00    -0.387 OA
ATOM     25  H   UNL     1     -38.508   9.293  81.055  1.00  0.00     0.211 HD
ENDBRANCH   3  24
BRANCH   5  26
ATOM     26  O   UNL     1     -34.700   5.623  80.827  1.00  0.00    -0.454 OA
BRANCH  26  27
ATOM     27  C   UNL     1     -34.183   5.691  82.244  1.00  0.00     0.214 A 
ATOM     28  C   UNL     1     -34.162   6.943  83.053  1.00  0.00     0.180 A 
ATOM     29  C   UNL     1     -34.421   4.635  83.081  1.00  0.00     0.239 A 
ATOM     30  O   UNL     1     -35.217   7.126  83.830  1.00  0.00    -0.452 OA
ATOM     31  C   UNL     1     -35.481   4.782  83.991  1.00  0.00     0.111 A 
ATOM     32  O   UNL     1     -34.031   3.441  82.814  1.00  0.00    -0.285 OA
ATOM     33  C   UNL     1     -35.862   6.107  84.383  1.00  0.00     0.146 A 
ATOM     34  C   UNL     1     -36.444   3.811  84.144  1.00  0.00     0.134 A 
ATOM     35  C   UNL     1     -37.154   6.331  85.004  1.00  0.00     0.094 A 
ATOM     36  C   UNL     1     -37.383   3.915  85.125  1.00  0.00     0.093 A 
ATOM     37  C   UNL     1     -37.992   5.197  85.097  1.00  0.00     0.123 A 
BRANCH  28  38
ATOM     38  C   UNL     1     -32.822   7.465  83.821  1.00  0.00     0.025 A 
ATOM     39  C   UNL     1     -32.062   6.871  85.005  1.00  0.00     0.062 A 
ATOM     40  C   UNL     1     -32.011   8.196  82.910  1.00  0.00     0.016 A 
ATOM     41  C   UNL     1     -30.639   6.995  85.062  1.00  0.00     0.158 A 
ATOM     42  C   UNL     1     -30.690   8.645  83.235  1.00  0.00     0.051 A 
ATOM     43  C   UNL     1     -30.000   8.101  84.368  1.00  0.00     0.157 A 
BRANCH  41  44
ATOM     44  O   UNL     1     -29.859   5.841  85.124  1.00  0.00    -0.504 OA
ATOM     45  H   UNL     1     -28.877   6.022  84.925  1.00  0.00     0.293 HD
ENDBRANCH  41  44
BRANCH  43  46
ATOM     46  O   UNL     1     -28.648   8.380  84.546  1.00  0.00    -0.504 OA
ATOM     47  H   UNL     1     -28.165   7.910  85.335  1.00  0.00     0.293 HD
ENDBRANCH  43  46
ENDBRANCH  28  38
BRANCH  34  48
ATOM     48  O   UNL     1     -36.664   2.814  83.164  1.00  0.00    -0.507 OA
ATOM     49  H   UNL     1     -35.794   2.251  83.056  1.00  0.00     0.293 HD
ENDBRANCH  34  48
BRANCH  37  50
ATOM     50  O   UNL     1     -39.442   5.238  84.926  1.00  0.00    -0.508 OA
ATOM     51  H   UNL     1     -39.996   5.505  85.716  1.00  0.00     0.293 HD
ENDBRANCH  37  50
ENDBRANCH  26  27
ENDBRANCH   5  26
BRANCH   4  52
ATOM     52  O   UNL     1     -37.546   5.066  81.198  1.00  0.00    -0.384 OA
ATOM     53  H   UNL     1     -38.456   5.136  80.718  1.00  0.00     0.211 HD
ENDBRANCH   4  52
TORSDOF 16
ENDMDL
