MODEL 1
REMARK VINA RESULT:    -6.728      0.000      0.000
REMARK INTER + INTRA:          -8.450
REMARK INTER:                  -8.104
REMARK INTRA:                  -0.346
REMARK UNBOUND:                -0.346
REMARK SMILES O=c1c(O)c(-c2ccc(O)cc2O)oc2cc(O)cc(O)c12
REMARK SMILES IDX 5 1 3 2 2 3 1 4 22 5 20 6 19 7 17 8 16 9 15 10 14 11 6 12
REMARK SMILES IDX 8 13 7 14 9 15 11 16 12 17 10 18 13 20 4 22 21 24 18 26
REMARK H PARENT 10 19 13 21 4 23 21 25 18 27
REMARK Flexibility Score: inf
ROOT
ATOM      1  C   UNL     1      31.797 -38.460  33.719  1.00  0.00     0.184 A 
ATOM      2  C   UNL     1      32.611 -38.164  34.822  1.00  0.00     0.208 A 
ATOM      3  C   UNL     1      34.002 -38.088  34.643  1.00  0.00     0.238 A 
ATOM      4  O   UNL     1      34.730 -37.883  35.648  1.00  0.00    -0.285 OA
ATOM      5  C   UNL     1      34.555 -38.283  33.354  1.00  0.00     0.111 A 
ATOM      6  C   UNL     1      35.947 -38.191  33.047  1.00  0.00     0.134 A 
ATOM      7  C   UNL     1      36.394 -38.523  31.762  1.00  0.00     0.093 A 
ATOM      8  C   UNL     1      35.498 -38.880  30.757  1.00  0.00     0.123 A 
ATOM      9  C   UNL     1      34.129 -38.917  31.030  1.00  0.00     0.094 A 
ATOM     10  C   UNL     1      33.655 -38.627  32.311  1.00  0.00     0.146 A 
ATOM     11  O   UNL     1      32.348 -38.688  32.532  1.00  0.00    -0.451 OA
ENDROOT
BRANCH   1  12
ATOM     12  C   UNL     1      30.326 -38.529  33.843  1.00  0.00     0.063 A 
ATOM     13  C   UNL     1      28.144 -37.589  33.317  1.00  0.00     0.047 A 
ATOM     14  C   UNL     1      29.537 -37.521  33.262  1.00  0.00     0.020 A 
ATOM     15  C   UNL     1      27.517 -38.670  33.948  1.00  0.00     0.119 A 
ATOM     16  C   UNL     1      28.293 -39.678  34.528  1.00  0.00     0.093 A 
ATOM     17  C   UNL     1      29.691 -39.615  34.489  1.00  0.00     0.130 A 
BRANCH  15  18
ATOM     18  O   UNL     1      26.128 -38.751  34.004  1.00  0.00    -0.508 OA
ATOM     19  H   UNL     1      25.564 -37.968  34.310  1.00  0.00     0.293 HD
ENDBRANCH  15  18
BRANCH  17  20
ATOM     20  O   UNL     1      30.414 -40.632  35.116  1.00  0.00    -0.507 OA
ATOM     21  H   UNL     1      29.976 -41.437  35.545  1.00  0.00     0.293 HD
ENDBRANCH  17  20
ENDBRANCH   1  12
BRANCH   2  22
ATOM     22  O   UNL     1      32.037 -37.973  36.081  1.00  0.00    -0.502 OA
ATOM     23  H   UNL     1      32.580 -37.691  36.890  1.00  0.00     0.293 HD
ENDBRANCH   2  22
BRANCH   6  24
ATOM     24  O   UNL     1      36.920 -37.757  33.952  1.00  0.00    -0.507 OA
ATOM     25  H   UNL     1      37.884 -38.057  33.948  1.00  0.00     0.293 HD
ENDBRANCH   6  24
BRANCH   8  26
ATOM     26  O   UNL     1      35.976 -39.189  29.485  1.00  0.00    -0.508 OA
ATOM     27  H   UNL     1      35.721 -40.050  29.017  1.00  0.00     0.293 HD
ENDBRANCH   8  26
TORSDOF 6
ENDMDL
MODEL 2
REMARK VINA RESULT:    -6.292      4.019      5.832
REMARK INTER + INTRA:          -7.925
REMARK INTER:                  -7.518
REMARK INTRA:                  -0.407
REMARK UNBOUND:                -0.346
REMARK SMILES O=c1c(O)c(-c2ccc(O)cc2O)oc2cc(O)cc(O)c12
REMARK SMILES IDX 5 1 3 2 2 3 1 4 22 5 20 6 19 7 17 8 16 9 15 10 14 11 6 12
REMARK SMILES IDX 8 13 7 14 9 15 11 16 12 17 10 18 13 20 4 22 21 24 18 26
REMARK H PARENT 10 19 13 21 4 23 21 25 18 27
REMARK Flexibility Score: inf
ROOT
ATOM      1  C   UNL     1      32.477 -35.219  35.383  1.00  0.00     0.184 A 
ATOM      2  C   UNL     1      31.531 -35.449  34.373  1.00  0.00     0.208 A 
ATOM      3  C   UNL     1      31.701 -36.551  33.519  1.00  0.00     0.238 A 
ATOM      4  O   UNL     1      30.884 -36.716  32.577  1.00  0.00    -0.285 OA
ATOM      5  C   UNL     1      32.800 -37.424  33.708  1.00  0.00     0.111 A 
ATOM      6  C   UNL     1      33.049 -38.594  32.929  1.00  0.00     0.134 A 
ATOM      7  C   UNL     1      34.233 -39.315  33.126  1.00  0.00     0.093 A 
ATOM      8  C   UNL     1      35.144 -38.949  34.114  1.00  0.00     0.123 A 
ATOM      9  C   UNL     1      34.883 -37.841  34.922  1.00  0.00     0.094 A 
ATOM     10  C   UNL     1      33.728 -37.079  34.726  1.00  0.00     0.146 A 
ATOM     11  O   UNL     1      33.525 -36.025  35.506  1.00  0.00    -0.451 OA
ENDROOT
BRANCH   1  12
ATOM     12  C   UNL     1      32.337 -34.089  36.326  1.00  0.00     0.063 A 
ATOM     13  C   UNL     1      31.479 -33.227  38.434  1.00  0.00     0.047 A 
ATOM     14  C   UNL     1      31.582 -34.259  37.499  1.00  0.00     0.020 A 
ATOM     15  C   UNL     1      32.134 -32.010  38.212  1.00  0.00     0.119 A 
ATOM     16  C   UNL     1      32.888 -31.831  37.048  1.00  0.00     0.093 A 
ATOM     17  C   UNL     1      32.990 -32.855  36.099  1.00  0.00     0.130 A 
BRANCH  15  18
ATOM     18  O   UNL     1      32.042 -30.975  39.139  1.00  0.00    -0.508 OA
ATOM     19  H   UNL     1      31.155 -30.538  39.359  1.00  0.00     0.293 HD
ENDBRANCH  15  18
BRANCH  17  20
ATOM     20  O   UNL     1      33.727 -32.607  34.939  1.00  0.00    -0.507 OA
ATOM     21  H   UNL     1      34.738 -32.645  34.908  1.00  0.00     0.293 HD
ENDBRANCH  17  20
ENDBRANCH   1  12
BRANCH   2  22
ATOM     22  O   UNL     1      30.455 -34.573  34.211  1.00  0.00    -0.502 OA
ATOM     23  H   UNL     1      30.466 -33.626  34.573  1.00  0.00     0.293 HD
ENDBRANCH   2  22
BRANCH   6  24
ATOM     24  O   UNL     1      32.162 -39.102  31.975  1.00  0.00    -0.507 OA
ATOM     25  H   UNL     1      31.506 -38.546  31.446  1.00  0.00     0.293 HD
ENDBRANCH   6  24
BRANCH   8  26
ATOM     26  O   UNL     1      36.305 -39.700  34.294  1.00  0.00    -0.508 OA
ATOM     27  H   UNL     1      36.478 -40.543  33.760  1.00  0.00     0.293 HD
ENDBRANCH   8  26
TORSDOF 6
ENDMDL
MODEL 3
REMARK VINA RESULT:    -6.121      1.675      6.848
REMARK INTER + INTRA:          -7.718
REMARK INTER:                  -7.316
REMARK INTRA:                  -0.402
REMARK UNBOUND:                -0.346
REMARK SMILES O=c1c(O)c(-c2ccc(O)cc2O)oc2cc(O)cc(O)c12
REMARK SMILES IDX 5 1 3 2 2 3 1 4 22 5 20 6 19 7 17 8 16 9 15 10 14 11 6 12
REMARK SMILES IDX 8 13 7 14 9 15 11 16 12 17 10 18 13 20 4 22 21 24 18 26
REMARK H PARENT 10 19 13 21 4 23 21 25 18 27
REMARK Flexibility Score: inf
ROOT
ATOM      1  C   UNL     1      31.154 -38.152  33.885  1.00  0.00     0.184 A 
ATOM      2  C   UNL     1      30.349 -39.244  34.241  1.00  0.00     0.208 A 
ATOM      3  C   UNL     1      28.955 -39.128  34.129  1.00  0.00     0.238 A 
ATOM      4  O   UNL     1      28.237 -40.088  34.509  1.00  0.00    -0.285 OA
ATOM      5  C   UNL     1      28.387 -37.928  33.635  1.00  0.00     0.111 A 
ATOM      6  C   UNL     1      26.989 -37.713  33.442  1.00  0.00     0.134 A 
ATOM      7  C   UNL     1      26.531 -36.445  33.063  1.00  0.00     0.093 A 
ATOM      8  C   UNL     1      27.422 -35.404  32.807  1.00  0.00     0.123 A 
ATOM      9  C   UNL     1      28.795 -35.620  32.937  1.00  0.00     0.094 A 
ATOM     10  C   UNL     1      29.281 -36.863  33.349  1.00  0.00     0.146 A 
ATOM     11  O   UNL     1      30.592 -37.021  33.473  1.00  0.00    -0.451 OA
ENDROOT
BRANCH   1  12
ATOM     12  C   UNL     1      32.629 -38.225  33.960  1.00  0.00     0.063 A 
ATOM     13  C   UNL     1      34.667 -37.930  35.257  1.00  0.00     0.047 A 
ATOM     14  C   UNL     1      33.280 -37.820  35.138  1.00  0.00     0.020 A 
ATOM     15  C   UNL     1      35.424 -38.453  34.201  1.00  0.00     0.119 A 
ATOM     16  C   UNL     1      34.785 -38.859  33.026  1.00  0.00     0.093 A 
ATOM     17  C   UNL     1      33.396 -38.744  32.891  1.00  0.00     0.130 A 
BRANCH  15  18
ATOM     18  O   UNL     1      36.807 -38.572  34.310  1.00  0.00    -0.508 OA
ATOM     19  H   UNL     1      37.286 -39.428  34.059  1.00  0.00     0.293 HD
ENDBRANCH  15  18
BRANCH  17  20
ATOM     20  O   UNL     1      32.817 -39.132  31.681  1.00  0.00    -0.507 OA
ATOM     21  H   UNL     1      32.293 -38.499  31.091  1.00  0.00     0.293 HD
ENDBRANCH  17  20
ENDBRANCH   1  12
BRANCH   2  22
ATOM     22  O   UNL     1      30.938 -40.416  34.723  1.00  0.00    -0.502 OA
ATOM     23  H   UNL     1      31.417 -40.457  35.615  1.00  0.00     0.293 HD
ENDBRANCH   2  22
BRANCH   6  24
ATOM     24  O   UNL     1      26.017 -38.709  33.583  1.00  0.00    -0.507 OA
ATOM     25  H   UNL     1      25.226 -38.657  34.207  1.00  0.00     0.293 HD
ENDBRANCH   6  24
BRANCH   8  26
ATOM     26  O   UNL     1      26.933 -34.159  32.416  1.00  0.00    -0.508 OA
ATOM     27  H   UNL     1      25.973 -34.037  32.117  1.00  0.00     0.293 HD
ENDBRANCH   8  26
TORSDOF 6
ENDMDL
MODEL 4
REMARK VINA RESULT:    -6.115      4.217      6.300
REMARK INTER + INTRA:          -7.711
REMARK INTER:                  -7.309
REMARK INTRA:                  -0.402
REMARK UNBOUND:                -0.346
REMARK SMILES O=c1c(O)c(-c2ccc(O)cc2O)oc2cc(O)cc(O)c12
REMARK SMILES IDX 5 1 3 2 2 3 1 4 22 5 20 6 19 7 17 8 16 9 15 10 14 11 6 12
REMARK SMILES IDX 8 13 7 14 9 15 11 16 12 17 10 18 13 20 4 22 21 24 18 26
REMARK H PARENT 10 19 13 21 4 23 21 25 18 27
REMARK Flexibility Score: inf
ROOT
ATOM      1  C   UNL     1      31.798 -35.170  35.909  1.00  0.00     0.184 A 
ATOM      2  C   UNL     1      32.649 -35.071  34.797  1.00  0.00     0.208 A 
ATOM      3  C   UNL     1      32.706 -36.138  33.886  1.00  0.00     0.238 A 
ATOM      4  O   UNL     1      33.516 -36.069  32.926  1.00  0.00    -0.285 OA
ATOM      5  C   UNL     1      31.889 -37.277  34.085  1.00  0.00     0.111 A 
ATOM      6  C   UNL     1      31.836 -38.400  33.205  1.00  0.00     0.134 A 
ATOM      7  C   UNL     1      31.082 -39.525  33.565  1.00  0.00     0.093 A 
ATOM      8  C   UNL     1      30.331 -39.543  34.739  1.00  0.00     0.123 A 
ATOM      9  C   UNL     1      30.330 -38.428  35.578  1.00  0.00     0.094 A 
ATOM     10  C   UNL     1      31.100 -37.305  35.265  1.00  0.00     0.146 A 
ATOM     11  O   UNL     1      31.081 -36.272  36.098  1.00  0.00    -0.451 OA
ENDROOT
BRANCH   1  12
ATOM     12  C   UNL     1      31.679 -34.069  36.888  1.00  0.00     0.063 A 
ATOM     13  C   UNL     1      32.469 -32.998  38.926  1.00  0.00     0.047 A 
ATOM     14  C   UNL     1      32.521 -34.054  38.014  1.00  0.00     0.020 A 
ATOM     15  C   UNL     1      31.578 -31.937  38.722  1.00  0.00     0.119 A 
ATOM     16  C   UNL     1      30.738 -31.943  37.605  1.00  0.00     0.093 A 
ATOM     17  C   UNL     1      30.774 -33.001  36.689  1.00  0.00     0.130 A 
BRANCH  15  18
ATOM     18  O   UNL     1      31.521 -30.876  39.623  1.00  0.00    -0.508 OA
ATOM     19  H   UNL     1      31.155 -29.972  39.352  1.00  0.00     0.293 HD
ENDBRANCH  15  18
BRANCH  17  20
ATOM     20  O   UNL     1      29.886 -32.971  35.612  1.00  0.00    -0.507 OA
ATOM     21  H   UNL     1      28.958 -32.572  35.672  1.00  0.00     0.293 HD
ENDBRANCH  17  20
ENDBRANCH   1  12
BRANCH   2  22
ATOM     22  O   UNL     1      33.441 -33.934  34.624  1.00  0.00    -0.502 OA
ATOM     23  H   UNL     1      33.133 -33.134  34.084  1.00  0.00     0.293 HD
ENDBRANCH   2  22
BRANCH   6  24
ATOM     24  O   UNL     1      32.477 -38.452  31.963  1.00  0.00    -0.507 OA
ATOM     25  H   UNL     1      32.843 -39.291  31.540  1.00  0.00     0.293 HD
ENDBRANCH   6  24
BRANCH   8  26
ATOM     26  O   UNL     1      29.580 -40.673  35.058  1.00  0.00    -0.508 OA
ATOM     27  H   UNL     1      30.000 -41.593  35.103  1.00  0.00     0.293 HD
ENDBRANCH   8  26
TORSDOF 6
ENDMDL
MODEL 5
REMARK VINA RESULT:    -6.112      3.750      6.849
REMARK INTER + INTRA:          -7.708
REMARK INTER:                  -7.307
REMARK INTRA:                  -0.401
REMARK UNBOUND:                -0.346
REMARK SMILES O=c1c(O)c(-c2ccc(O)cc2O)oc2cc(O)cc(O)c12
REMARK SMILES IDX 5 1 3 2 2 3 1 4 22 5 20 6 19 7 17 8 16 9 15 10 14 11 6 12
REMARK SMILES IDX 8 13 7 14 9 15 11 16 12 17 10 18 13 20 4 22 21 24 18 26
REMARK H PARENT 10 19 13 21 4 23 21 25 18 27
REMARK Flexibility Score: inf
ROOT
ATOM      1  C   UNL     1      32.281 -36.749  35.574  1.00  0.00     0.184 A 
ATOM      2  C   UNL     1      31.076 -37.164  36.162  1.00  0.00     0.208 A 
ATOM      3  C   UNL     1      30.416 -36.299  37.048  1.00  0.00     0.238 A 
ATOM      4  O   UNL     1      29.370 -36.701  37.618  1.00  0.00    -0.285 OA
ATOM      5  C   UNL     1      30.957 -35.016  37.312  1.00  0.00     0.111 A 
ATOM      6  C   UNL     1      30.353 -34.042  38.162  1.00  0.00     0.134 A 
ATOM      7  C   UNL     1      31.038 -32.854  38.446  1.00  0.00     0.093 A 
ATOM      8  C   UNL     1      32.273 -32.577  37.862  1.00  0.00     0.123 A 
ATOM      9  C   UNL     1      32.846 -33.498  36.984  1.00  0.00     0.094 A 
ATOM     10  C   UNL     1      32.205 -34.707  36.709  1.00  0.00     0.146 A 
ATOM     11  O   UNL     1      32.791 -35.561  35.879  1.00  0.00    -0.451 OA
ENDROOT
BRANCH   1  12
ATOM     12  C   UNL     1      33.007 -37.608  34.616  1.00  0.00     0.063 A 
ATOM     13  C   UNL     1      33.194 -38.533  32.372  1.00  0.00     0.047 A 
ATOM     14  C   UNL     1      32.500 -37.772  33.315  1.00  0.00     0.020 A 
ATOM     15  C   UNL     1      34.410 -39.137  32.714  1.00  0.00     0.119 A 
ATOM     16  C   UNL     1      34.922 -38.980  34.005  1.00  0.00     0.093 A 
ATOM     17  C   UNL     1      34.231 -38.228  34.962  1.00  0.00     0.130 A 
BRANCH  15  18
ATOM     18  O   UNL     1      35.113 -39.895  31.781  1.00  0.00    -0.508 OA
ATOM     19  H   UNL     1      34.705 -40.715  31.349  1.00  0.00     0.293 HD
ENDBRANCH  15  18
BRANCH  17  20
ATOM     20  O   UNL     1      34.773 -38.135  36.245  1.00  0.00    -0.507 OA
ATOM     21  H   UNL     1      34.954 -38.943  36.828  1.00  0.00     0.293 HD
ENDBRANCH  17  20
ENDBRANCH   1  12
BRANCH   2  22
ATOM     22  O   UNL     1      30.565 -38.434  35.880  1.00  0.00    -0.502 OA
ATOM     23  H   UNL     1      29.833 -38.586  35.196  1.00  0.00     0.293 HD
ENDBRANCH   2  22
BRANCH   6  24
ATOM     24  O   UNL     1      29.081 -34.177  38.727  1.00  0.00    -0.507 OA
ATOM     25  H   UNL     1      28.688 -35.045  39.059  1.00  0.00     0.293 HD
ENDBRANCH   6  24
BRANCH   8  26
ATOM     26  O   UNL     1      32.919 -31.377  38.155  1.00  0.00    -0.508 OA
ATOM     27  H   UNL     1      33.531 -31.287  38.957  1.00  0.00     0.293 HD
ENDBRANCH   8  26
TORSDOF 6
ENDMDL
MODEL 6
REMARK VINA RESULT:    -6.071      5.447      6.660
REMARK INTER + INTRA:          -7.659
REMARK INTER:                  -7.287
REMARK INTRA:                  -0.372
REMARK UNBOUND:                -0.346
REMARK SMILES O=c1c(O)c(-c2ccc(O)cc2O)oc2cc(O)cc(O)c12
REMARK SMILES IDX 5 1 3 2 2 3 1 4 22 5 20 6 19 7 17 8 16 9 15 10 14 11 6 12
REMARK SMILES IDX 8 13 7 14 9 15 11 16 12 17 10 18 13 20 4 22 21 24 18 26
REMARK H PARENT 10 19 13 21 4 23 21 25 18 27
REMARK Flexibility Score: inf
ROOT
ATOM      1  C   UNL     1      32.024 -33.666  36.929  1.00  0.00     0.184 A 
ATOM      2  C   UNL     1      32.922 -32.982  36.095  1.00  0.00     0.208 A 
ATOM      3  C   UNL     1      33.536 -33.677  35.040  1.00  0.00     0.238 A 
ATOM      4  O   UNL     1      34.385 -33.074  34.334  1.00  0.00    -0.285 OA
ATOM      5  C   UNL     1      33.220 -35.039  34.817  1.00  0.00     0.111 A 
ATOM      6  C   UNL     1      33.751 -35.831  33.755  1.00  0.00     0.134 A 
ATOM      7  C   UNL     1      33.463 -37.200  33.703  1.00  0.00     0.093 A 
ATOM      8  C   UNL     1      32.613 -37.793  34.635  1.00  0.00     0.123 A 
ATOM      9  C   UNL     1      32.042 -37.017  35.645  1.00  0.00     0.094 A 
ATOM     10  C   UNL     1      32.339 -35.656  35.744  1.00  0.00     0.146 A 
ATOM     11  O   UNL     1      31.785 -34.957  36.727  1.00  0.00    -0.451 OA
ENDROOT
BRANCH   1  12
ATOM     12  C   UNL     1      31.331 -32.981  38.040  1.00  0.00     0.063 A 
ATOM     13  C   UNL     1      29.300 -31.971  38.922  1.00  0.00     0.047 A 
ATOM     14  C   UNL     1      29.996 -32.571  37.871  1.00  0.00     0.020 A 
ATOM     15  C   UNL     1      29.924 -31.778  40.160  1.00  0.00     0.119 A 
ATOM     16  C   UNL     1      31.250 -32.183  40.337  1.00  0.00     0.093 A 
ATOM     17  C   UNL     1      31.962 -32.776  39.288  1.00  0.00     0.130 A 
BRANCH  15  18
ATOM     18  O   UNL     1      29.237 -31.185  41.217  1.00  0.00    -0.508 OA
ATOM     19  H   UNL     1      29.584 -30.350  41.671  1.00  0.00     0.293 HD
ENDBRANCH  15  18
BRANCH  17  20
ATOM     20  O   UNL     1      33.295 -33.128  39.513  1.00  0.00    -0.507 OA
ATOM     21  H   UNL     1      33.833 -32.782  40.297  1.00  0.00     0.293 HD
ENDBRANCH  17  20
ENDBRANCH   1  12
BRANCH   2  22
ATOM     22  O   UNL     1      33.212 -31.637  36.336  1.00  0.00    -0.502 OA
ATOM     23  H   UNL     1      34.063 -31.339  36.799  1.00  0.00     0.293 HD
ENDBRANCH   2  22
BRANCH   6  24
ATOM     24  O   UNL     1      34.539 -35.321  32.718  1.00  0.00    -0.507 OA
ATOM     25  H   UNL     1      34.446 -34.396  32.327  1.00  0.00     0.293 HD
ENDBRANCH   6  24
BRANCH   8  26
ATOM     26  O   UNL     1      32.335 -39.156  34.545  1.00  0.00    -0.508 OA
ATOM     27  H   UNL     1      32.680 -39.814  35.233  1.00  0.00     0.293 HD
ENDBRANCH   8  26
TORSDOF 6
ENDMDL
MODEL 7
REMARK VINA RESULT:    -6.023      2.287      6.722
REMARK INTER + INTRA:          -7.600
REMARK INTER:                  -7.191
REMARK INTRA:                  -0.410
REMARK UNBOUND:                -0.346
REMARK SMILES O=c1c(O)c(-c2ccc(O)cc2O)oc2cc(O)cc(O)c12
REMARK SMILES IDX 5 1 3 2 2 3 1 4 22 5 20 6 19 7 17 8 16 9 15 10 14 11 6 12
REMARK SMILES IDX 8 13 7 14 9 15 11 16 12 17 10 18 13 20 4 22 21 24 18 26
REMARK H PARENT 10 19 13 21 4 23 21 25 18 27
REMARK Flexibility Score: inf
ROOT
ATOM      1  C   UNL     1      31.862 -37.560  33.015  1.00  0.00     0.184 A 
ATOM      2  C   UNL     1      32.030 -38.831  33.586  1.00  0.00     0.208 A 
ATOM      3  C   UNL     1      30.905 -39.513  34.074  1.00  0.00     0.238 A 
ATOM      4  O   UNL     1      31.071 -40.624  34.641  1.00  0.00    -0.285 OA
ATOM      5  C   UNL     1      29.621 -38.926  33.957  1.00  0.00     0.111 A 
ATOM      6  C   UNL     1      28.406 -39.543  34.381  1.00  0.00     0.134 A 
ATOM      7  C   UNL     1      27.208 -38.819  34.328  1.00  0.00     0.093 A 
ATOM      8  C   UNL     1      27.170 -37.527  33.808  1.00  0.00     0.123 A 
ATOM      9  C   UNL     1      28.343 -36.935  33.337  1.00  0.00     0.094 A 
ATOM     10  C   UNL     1      29.559 -37.617  33.410  1.00  0.00     0.146 A 
ATOM     11  O   UNL     1      30.653 -37.012  32.964  1.00  0.00    -0.451 OA
ENDROOT
BRANCH   1  12
ATOM     12  C   UNL     1      33.007 -36.806  32.463  1.00  0.00     0.063 A 
ATOM     13  C   UNL     1      34.322 -36.133  30.529  1.00  0.00     0.047 A 
ATOM     14  C   UNL     1      33.281 -36.878  31.086  1.00  0.00     0.020 A 
ATOM     15  C   UNL     1      35.101 -35.298  31.339  1.00  0.00     0.119 A 
ATOM     16  C   UNL     1      34.835 -35.219  32.709  1.00  0.00     0.093 A 
ATOM     17  C   UNL     1      33.801 -35.969  33.281  1.00  0.00     0.130 A 
BRANCH  15  18
ATOM     18  O   UNL     1      36.139 -34.546  30.794  1.00  0.00    -0.508 OA
ATOM     19  H   UNL     1      36.288 -34.499  29.793  1.00  0.00     0.293 HD
ENDBRANCH  15  18
BRANCH  17  20
ATOM     20  O   UNL     1      33.605 -35.877  34.661  1.00  0.00    -0.507 OA
ATOM     21  H   UNL     1      34.367 -35.854  35.327  1.00  0.00     0.293 HD
ENDBRANCH  17  20
ENDBRANCH   1  12
BRANCH   2  22
ATOM     22  O   UNL     1      33.308 -39.387  33.685  1.00  0.00    -0.502 OA
ATOM     23  H   UNL     1      33.486 -40.372  33.528  1.00  0.00     0.293 HD
ENDBRANCH   2  22
BRANCH   6  24
ATOM     24  O   UNL     1      28.315 -40.863  34.834  1.00  0.00    -0.507 OA
ATOM     25  H   UNL     1      27.493 -41.274  35.249  1.00  0.00     0.293 HD
ENDBRANCH   6  24
BRANCH   8  26
ATOM     26  O   UNL     1      25.958 -36.841  33.755  1.00  0.00    -0.508 OA
ATOM     27  H   UNL     1      25.583 -36.365  34.566  1.00  0.00     0.293 HD
ENDBRANCH   8  26
TORSDOF 6
ENDMDL
MODEL 8
REMARK VINA RESULT:    -5.985      4.858      7.222
REMARK INTER + INTRA:          -7.555
REMARK INTER:                  -7.178
REMARK INTRA:                  -0.377
REMARK UNBOUND:                -0.346
REMARK SMILES O=c1c(O)c(-c2ccc(O)cc2O)oc2cc(O)cc(O)c12
REMARK SMILES IDX 5 1 3 2 2 3 1 4 22 5 20 6 19 7 17 8 16 9 15 10 14 11 6 12
REMARK SMILES IDX 8 13 7 14 9 15 11 16 12 17 10 18 13 20 4 22 21 24 18 26
REMARK H PARENT 10 19 13 21 4 23 21 25 18 27
REMARK Flexibility Score: inf
ROOT
ATOM      1  C   UNL     1      31.906 -35.092  35.756  1.00  0.00     0.184 A 
ATOM      2  C   UNL     1      32.795 -34.029  35.541  1.00  0.00     0.208 A 
ATOM      3  C   UNL     1      32.816 -32.963  36.455  1.00  0.00     0.238 A 
ATOM      4  O   UNL     1      33.572 -31.984  36.224  1.00  0.00    -0.285 OA
ATOM      5  C   UNL     1      31.965 -32.991  37.587  1.00  0.00     0.111 A 
ATOM      6  C   UNL     1      31.930 -31.984  38.599  1.00  0.00     0.134 A 
ATOM      7  C   UNL     1      30.963 -32.055  39.609  1.00  0.00     0.093 A 
ATOM      8  C   UNL     1      30.074 -33.125  39.682  1.00  0.00     0.123 A 
ATOM      9  C   UNL     1      30.137 -34.144  38.731  1.00  0.00     0.094 A 
ATOM     10  C   UNL     1      31.066 -34.085  37.690  1.00  0.00     0.146 A 
ATOM     11  O   UNL     1      31.083 -35.067  36.799  1.00  0.00    -0.451 OA
ENDROOT
BRANCH   1  12
ATOM     12  C   UNL     1      31.856 -36.252  34.841  1.00  0.00     0.063 A 
ATOM     13  C   UNL     1      31.068 -37.229  32.756  1.00  0.00     0.047 A 
ATOM     14  C   UNL     1      31.089 -36.170  33.665  1.00  0.00     0.020 A 
ATOM     15  C   UNL     1      31.820 -38.384  33.004  1.00  0.00     0.119 A 
ATOM     16  C   UNL     1      32.586 -38.474  34.169  1.00  0.00     0.093 A 
ATOM     17  C   UNL     1      32.607 -37.423  35.094  1.00  0.00     0.130 A 
BRANCH  15  18
ATOM     18  O   UNL     1      31.811 -39.445  32.102  1.00  0.00    -0.508 OA
ATOM     19  H   UNL     1      32.536 -40.151  32.108  1.00  0.00     0.293 HD
ENDBRANCH  15  18
BRANCH  17  20
ATOM     20  O   UNL     1      33.362 -37.584  36.258  1.00  0.00    -0.507 OA
ATOM     21  H   UNL     1      33.704 -38.482  36.576  1.00  0.00     0.293 HD
ENDBRANCH  17  20
ENDBRANCH   1  12
BRANCH   2  22
ATOM     22  O   UNL     1      33.625 -34.030  34.418  1.00  0.00    -0.502 OA
ATOM     23  H   UNL     1      33.654 -34.803  33.764  1.00  0.00     0.293 HD
ENDBRANCH   2  22
BRANCH   6  24
ATOM     24  O   UNL     1      32.832 -30.918  38.673  1.00  0.00    -0.507 OA
ATOM     25  H   UNL     1      33.038 -30.285  37.915  1.00  0.00     0.293 HD
ENDBRANCH   6  24
BRANCH   8  26
ATOM     26  O   UNL     1      29.134 -33.171  40.711  1.00  0.00    -0.508 OA
ATOM     27  H   UNL     1      28.762 -34.050  41.049  1.00  0.00     0.293 HD
ENDBRANCH   8  26
TORSDOF 6
ENDMDL
MODEL 9
REMARK VINA RESULT:    -5.948      1.959      6.846
REMARK INTER + INTRA:          -7.510
REMARK INTER:                  -7.128
REMARK INTRA:                  -0.382
REMARK UNBOUND:                -0.346
REMARK SMILES O=c1c(O)c(-c2ccc(O)cc2O)oc2cc(O)cc(O)c12
REMARK SMILES IDX 5 1 3 2 2 3 1 4 22 5 20 6 19 7 17 8 16 9 15 10 14 11 6 12
REMARK SMILES IDX 8 13 7 14 9 15 11 16 12 17 10 18 13 20 4 22 21 24 18 26
REMARK H PARENT 10 19 13 21 4 23 21 25 18 27
REMARK Flexibility Score: inf
ROOT
ATOM      1  C   UNL     1      33.972 -38.272  33.075  1.00  0.00     0.184 A 
ATOM      2  C   UNL     1      33.464 -37.122  32.452  1.00  0.00     0.208 A 
ATOM      3  C   UNL     1      32.081 -36.879  32.493  1.00  0.00     0.238 A 
ATOM      4  O   UNL     1      31.626 -35.880  31.880  1.00  0.00    -0.285 OA
ATOM      5  C   UNL     1      31.231 -37.778  33.182  1.00  0.00     0.111 A 
ATOM      6  C   UNL     1      29.819 -37.611  33.321  1.00  0.00     0.134 A 
ATOM      7  C   UNL     1      29.061 -38.625  33.919  1.00  0.00     0.093 A 
ATOM      8  C   UNL     1      29.666 -39.768  34.439  1.00  0.00     0.123 A 
ATOM      9  C   UNL     1      31.052 -39.914  34.359  1.00  0.00     0.094 A 
ATOM     10  C   UNL     1      31.833 -38.938  33.737  1.00  0.00     0.146 A 
ATOM     11  O   UNL     1      33.145 -39.123  33.670  1.00  0.00    -0.451 OA
ENDROOT
BRANCH   1  12
ATOM     12  C   UNL     1      35.421 -38.566  33.085  1.00  0.00     0.063 A 
ATOM     13  C   UNL     1      37.653 -38.018  33.885  1.00  0.00     0.047 A 
ATOM     14  C   UNL     1      36.288 -37.733  33.813  1.00  0.00     0.020 A 
ATOM     15  C   UNL     1      38.171 -39.145  33.235  1.00  0.00     0.119 A 
ATOM     16  C   UNL     1      37.316 -39.979  32.509  1.00  0.00     0.093 A 
ATOM     17  C   UNL     1      35.948 -39.698  32.421  1.00  0.00     0.130 A 
BRANCH  15  18
ATOM     18  O   UNL     1      39.530 -39.443  33.304  1.00  0.00    -0.508 OA
ATOM     19  H   UNL     1      39.857 -40.387  33.467  1.00  0.00     0.293 HD
ENDBRANCH  15  18
BRANCH  17  20
ATOM     20  O   UNL     1      35.149 -40.546  31.652  1.00  0.00    -0.507 OA
ATOM     21  H   UNL     1      34.139 -40.562  31.716  1.00  0.00     0.293 HD
ENDBRANCH  17  20
ENDBRANCH   1  12
BRANCH   2  22
ATOM     22  O   UNL     1      34.328 -36.252  31.782  1.00  0.00    -0.502 OA
ATOM     23  H   UNL     1      34.873 -36.539  30.978  1.00  0.00     0.293 HD
ENDBRANCH   2  22
BRANCH   6  24
ATOM     24  O   UNL     1      29.123 -36.468  32.918  1.00  0.00    -0.507 OA
ATOM     25  H   UNL     1      29.471 -35.524  32.998  1.00  0.00     0.293 HD
ENDBRANCH   6  24
BRANCH   8  26
ATOM     26  O   UNL     1      28.882 -40.749  35.041  1.00  0.00    -0.508 OA
ATOM     27  H   UNL     1      28.413 -41.462  34.496  1.00  0.00     0.293 HD
ENDBRANCH   8  26
TORSDOF 6
ENDMDL
