MODEL 1
REMARK VINA RESULT:    -4.733      0.000      0.000
REMARK INTER + INTRA:         -12.333
REMARK INTER:                 -10.267
REMARK INTRA:                  -2.066
REMARK UNBOUND:                -2.066
REMARK SMILES CCCCCCCCCCCCCCCCCCCCCC(=O)[O-]
REMARK SMILES IDX 12 1 11 2 10 3 9 4 8 5 7 6 6 7 5 8 4 9 3 10 2 11 1 12 13 13
REMARK SMILES IDX 14 14 15 15 16 16 17 17 18 18 19 19 20 20 21 21 22 22 23 23
REMARK SMILES IDX 24 24
REMARK H PARENT
REMARK Flexibility Score: inf
ROOT
ATOM      1  C   UNL     1       3.855  -2.327   7.265  1.00  0.00     0.000 C 
ENDROOT
BRANCH   1   2
ATOM      2  C   UNL     1       2.724  -2.915   6.403  1.00  0.00     0.000 C 
BRANCH   2   3
ATOM      3  C   UNL     1       2.318  -1.993   5.238  1.00  0.00     0.000 C 
BRANCH   3   4
ATOM      4  C   UNL     1       0.819  -1.646   5.171  1.00  0.00    -0.000 C 
BRANCH   4   5
ATOM      5  C   UNL     1      -0.068  -2.673   5.890  1.00  0.00    -0.000 C 
BRANCH   5   6
ATOM      6  C   UNL     1      -1.553  -2.438   5.566  1.00  0.00    -0.000 C 
BRANCH   6   7
ATOM      7  C   UNL     1      -2.117  -3.477   4.580  1.00  0.00    -0.000 C 
BRANCH   7   8
ATOM      8  C   UNL     1      -3.012  -2.883   3.477  1.00  0.00    -0.000 C 
BRANCH   8   9
ATOM      9  C   UNL     1      -3.508  -1.467   3.818  1.00  0.00    -0.000 C 
BRANCH   9  10
ATOM     10  C   UNL     1      -4.887  -1.470   4.502  1.00  0.00    -0.000 C 
BRANCH  10  11
ATOM     11  C   UNL     1      -4.895  -0.855   5.914  1.00  0.00    -0.003 C 
ATOM     12  C   UNL     1      -6.310  -0.622   6.448  1.00  0.00     0.004 C 
ENDBRANCH  10  11
ENDBRANCH   9  10
ENDBRANCH   8   9
ENDBRANCH   7   8
ENDBRANCH   6   7
ENDBRANCH   5   6
ENDBRANCH   4   5
ENDBRANCH   3   4
ENDBRANCH   2   3
ENDBRANCH   1   2
BRANCH   1  13
ATOM     13  C   UNL     1       3.495  -0.964   7.886  1.00  0.00     0.000 C 
BRANCH  13  14
ATOM     14  C   UNL     1       2.196  -0.934   8.711  1.00  0.00     0.000 C 
BRANCH  14  15
ATOM     15  C   UNL     1       1.235   0.188   8.280  1.00  0.00     0.000 C 
BRANCH  15  16
ATOM     16  C   UNL     1       1.826   1.095   7.184  1.00  0.00     0.000 C 
BRANCH  16  17
ATOM     17  C   UNL     1       2.045   2.563   7.596  1.00  0.00     0.000 C 
BRANCH  17  18
ATOM     18  C   UNL     1       1.108   3.020   8.726  1.00  0.00     0.000 C 
BRANCH  18  19
ATOM     19  C   UNL     1       0.117   4.109   8.256  1.00  0.00     0.000 C 
BRANCH  19  20
ATOM     20  C   UNL     1       0.341   4.555   6.798  1.00  0.00     0.006 C 
BRANCH  20  21
ATOM     21  C   UNL     1      -0.252   5.932   6.467  1.00  0.00     0.053 C 
BRANCH  21  22
ATOM     22  C   UNL     1      -0.549   6.073   5.006  1.00  0.00     0.041 C 
ATOM     23  O   UNL     1      -0.064   5.261   4.176  1.00  0.00    -0.550 OA
ATOM     24  O   UNL     1      -1.378   7.094   4.562  1.00  0.00    -0.550 OA
ENDBRANCH  21  22
ENDBRANCH  20  21
ENDBRANCH  19  20
ENDBRANCH  18  19
ENDBRANCH  17  18
ENDBRANCH  16  17
ENDBRANCH  15  16
ENDBRANCH  14  15
ENDBRANCH  13  14
ENDBRANCH   1  13
TORSDOF 20
ENDMDL
MODEL 2
REMARK VINA RESULT:    -4.461      1.421      2.673
REMARK INTER + INTRA:         -11.742
REMARK INTER:                  -9.204
REMARK INTRA:                  -2.538
REMARK UNBOUND:                -2.066
REMARK SMILES CCCCCCCCCCCCCCCCCCCCCC(=O)[O-]
REMARK SMILES IDX 12 1 11 2 10 3 9 4 8 5 7 6 6 7 5 8 4 9 3 10 2 11 1 12 13 13
REMARK SMILES IDX 14 14 15 15 16 16 17 17 18 18 19 19 20 20 21 21 22 22 23 23
REMARK SMILES IDX 24 24
REMARK H PARENT
REMARK Flexibility Score: inf
ROOT
ATOM      1  C   UNL     1       1.312  -3.816   8.154  1.00  0.00     0.000 C 
ENDROOT
BRANCH   1   2
ATOM      2  C   UNL     1       0.195  -2.814   8.495  1.00  0.00     0.000 C 
BRANCH   2   3
ATOM      3  C   UNL     1      -1.006  -2.906   7.534  1.00  0.00     0.000 C 
BRANCH   3   4
ATOM      4  C   UNL     1      -0.910  -4.018   6.473  1.00  0.00    -0.000 C 
BRANCH   4   5
ATOM      5  C   UNL     1      -2.070  -3.989   5.466  1.00  0.00    -0.000 C 
BRANCH   5   6
ATOM      6  C   UNL     1      -1.682  -3.196   4.207  1.00  0.00    -0.000 C 
BRANCH   6   7
ATOM      7  C   UNL     1      -2.173  -1.736   4.251  1.00  0.00    -0.000 C 
BRANCH   7   8
ATOM      8  C   UNL     1      -3.624  -1.542   3.776  1.00  0.00    -0.000 C 
BRANCH   8   9
ATOM      9  C   UNL     1      -4.507  -0.862   4.836  1.00  0.00    -0.000 C 
BRANCH   9  10
ATOM     10  C   UNL     1      -4.606  -1.678   6.138  1.00  0.00    -0.000 C 
BRANCH  10  11
ATOM     11  C   UNL     1      -5.368  -0.971   7.273  1.00  0.00    -0.003 C 
ATOM     12  C   UNL     1      -6.315   0.116   6.761  1.00  0.00     0.004 C 
ENDBRANCH  10  11
ENDBRANCH   9  10
ENDBRANCH   8   9
ENDBRANCH   7   8
ENDBRANCH   6   7
ENDBRANCH   5   6
ENDBRANCH   4   5
ENDBRANCH   3   4
ENDBRANCH   2   3
ENDBRANCH   1   2
BRANCH   1  13
ATOM     13  C   UNL     1       2.591  -3.138   7.630  1.00  0.00     0.000 C 
BRANCH  13  14
ATOM     14  C   UNL     1       2.866  -3.313   6.125  1.00  0.00     0.000 C 
BRANCH  14  15
ATOM     15  C   UNL     1       2.746  -1.998   5.335  1.00  0.00     0.000 C 
BRANCH  15  16
ATOM     16  C   UNL     1       1.307  -1.447   5.301  1.00  0.00     0.000 C 
BRANCH  16  17
ATOM     17  C   UNL     1       1.174   0.053   5.621  1.00  0.00     0.000 C 
BRANCH  17  18
ATOM     18  C   UNL     1       1.577   0.403   7.064  1.00  0.00     0.000 C 
BRANCH  18  19
ATOM     19  C   UNL     1       2.181   1.821   7.172  1.00  0.00     0.000 C 
BRANCH  19  20
ATOM     20  C   UNL     1       1.181   2.942   6.825  1.00  0.00     0.006 C 
BRANCH  20  21
ATOM     21  C   UNL     1       1.572   3.767   5.590  1.00  0.00     0.053 C 
BRANCH  21  22
ATOM     22  C   UNL     1       0.703   4.977   5.433  1.00  0.00     0.041 C 
ATOM     23  O   UNL     1       0.644   5.841   6.346  1.00  0.00    -0.550 OA
ATOM     24  O   UNL     1      -0.028   5.159   4.268  1.00  0.00    -0.550 OA
ENDBRANCH  21  22
ENDBRANCH  20  21
ENDBRANCH  19  20
ENDBRANCH  18  19
ENDBRANCH  17  18
ENDBRANCH  16  17
ENDBRANCH  15  16
ENDBRANCH  14  15
ENDBRANCH  13  14
ENDBRANCH   1  13
TORSDOF 20
ENDMDL
MODEL 3
REMARK VINA RESULT:    -4.456      1.178      2.710
REMARK INTER + INTRA:         -11.731
REMARK INTER:                  -9.677
REMARK INTRA:                  -2.054
REMARK UNBOUND:                -2.066
REMARK SMILES CCCCCCCCCCCCCCCCCCCCCC(=O)[O-]
REMARK SMILES IDX 12 1 11 2 10 3 9 4 8 5 7 6 6 7 5 8 4 9 3 10 2 11 1 12 13 13
REMARK SMILES IDX 14 14 15 15 16 16 17 17 18 18 19 19 20 20 21 21 22 22 23 23
REMARK SMILES IDX 24 24
REMARK H PARENT
REMARK Flexibility Score: inf
ROOT
ATOM      1  C   UNL     1       2.154  -1.848   5.228  1.00  0.00     0.000 C 
ENDROOT
BRANCH   1   2
ATOM      2  C   UNL     1       0.696  -1.357   5.284  1.00  0.00     0.000 C 
BRANCH   2   3
ATOM      3  C   UNL     1      -0.206  -2.259   6.147  1.00  0.00     0.000 C 
BRANCH   3   4
ATOM      4  C   UNL     1      -1.595  -2.559   5.550  1.00  0.00    -0.000 C 
BRANCH   4   5
ATOM      5  C   UNL     1      -1.828  -1.869   4.197  1.00  0.00    -0.000 C 
BRANCH   5   6
ATOM      6  C   UNL     1      -3.315  -1.915   3.807  1.00  0.00    -0.000 C 
BRANCH   6   7
ATOM      7  C   UNL     1      -4.153  -0.849   4.538  1.00  0.00    -0.000 C 
BRANCH   7   8
ATOM      8  C   UNL     1      -5.295  -1.421   5.397  1.00  0.00    -0.000 C 
BRANCH   8   9
ATOM      9  C   UNL     1      -4.901  -1.577   6.876  1.00  0.00    -0.000 C 
BRANCH   9  10
ATOM     10  C   UNL     1      -5.828  -0.794   7.823  1.00  0.00    -0.000 C 
BRANCH  10  11
ATOM     11  C   UNL     1      -6.643   0.318   7.137  1.00  0.00    -0.003 C 
ATOM     12  C   UNL     1      -6.792   1.565   8.010  1.00  0.00     0.004 C 
ENDBRANCH  10  11
ENDBRANCH   9  10
ENDBRANCH   8   9
ENDBRANCH   7   8
ENDBRANCH   6   7
ENDBRANCH   5   6
ENDBRANCH   4   5
ENDBRANCH   3   4
ENDBRANCH   2   3
ENDBRANCH   1   2
BRANCH   1  13
ATOM     13  C   UNL     1       2.648  -2.424   6.567  1.00  0.00     0.000 C 
BRANCH  13  14
ATOM     14  C   UNL     1       4.012  -1.897   7.053  1.00  0.00     0.000 C 
BRANCH  14  15
ATOM     15  C   UNL     1       3.996  -1.456   8.527  1.00  0.00     0.000 C 
BRANCH  15  16
ATOM     16  C   UNL     1       2.591  -1.059   9.019  1.00  0.00     0.000 C 
BRANCH  16  17
ATOM     17  C   UNL     1       2.389   0.447   9.275  1.00  0.00     0.000 C 
BRANCH  17  18
ATOM     18  C   UNL     1       1.203   1.039   8.494  1.00  0.00     0.000 C 
BRANCH  18  19
ATOM     19  C   UNL     1       1.656   1.735   7.190  1.00  0.00     0.000 C 
BRANCH  19  20
ATOM     20  C   UNL     1       1.245   3.218   7.111  1.00  0.00     0.006 C 
BRANCH  20  21
ATOM     21  C   UNL     1       1.455   3.852   5.729  1.00  0.00     0.053 C 
BRANCH  21  22
ATOM     22  C   UNL     1       0.391   4.856   5.410  1.00  0.00     0.041 C 
ATOM     23  O   UNL     1      -0.242   5.429   6.336  1.00  0.00    -0.550 OA
ATOM     24  O   UNL     1       0.108   5.173   4.089  1.00  0.00    -0.550 OA
ENDBRANCH  21  22
ENDBRANCH  20  21
ENDBRANCH  19  20
ENDBRANCH  18  19
ENDBRANCH  17  18
ENDBRANCH  16  17
ENDBRANCH  15  16
ENDBRANCH  14  15
ENDBRANCH  13  14
ENDBRANCH   1  13
TORSDOF 20
ENDMDL
MODEL 4
REMARK VINA RESULT:    -4.382      2.680      6.481
REMARK INTER + INTRA:         -11.570
REMARK INTER:                  -8.800
REMARK INTRA:                  -2.771
REMARK UNBOUND:                -2.066
REMARK SMILES CCCCCCCCCCCCCCCCCCCCCC(=O)[O-]
REMARK SMILES IDX 12 1 11 2 10 3 9 4 8 5 7 6 6 7 5 8 4 9 3 10 2 11 1 12 13 13
REMARK SMILES IDX 14 14 15 15 16 16 17 17 18 18 19 19 20 20 21 21 22 22 23 23
REMARK SMILES IDX 24 24
REMARK H PARENT
REMARK Flexibility Score: inf
ROOT
ATOM      1  C   UNL     1       4.217  -2.168   7.063  1.00  0.00     0.000 C 
ENDROOT
BRANCH   1   2
ATOM      2  C   UNL     1       3.426  -3.340   7.670  1.00  0.00     0.000 C 
BRANCH   2   3
ATOM      3  C   UNL     1       2.647  -2.943   8.938  1.00  0.00     0.000 C 
BRANCH   3   4
ATOM      4  C   UNL     1       1.113  -2.944   8.790  1.00  0.00    -0.000 C 
BRANCH   4   5
ATOM      5  C   UNL     1       0.478  -1.585   9.126  1.00  0.00    -0.000 C 
BRANCH   5   6
ATOM      6  C   UNL     1       1.555  -0.497   9.270  1.00  0.00    -0.000 C 
BRANCH   6   7
ATOM      7  C   UNL     1       1.106   0.861   8.699  1.00  0.00    -0.000 C 
BRANCH   7   8
ATOM      8  C   UNL     1       2.161   1.560   7.823  1.00  0.00    -0.000 C 
BRANCH   8   9
ATOM      9  C   UNL     1       1.536   2.531   6.806  1.00  0.00    -0.000 C 
BRANCH   9  10
ATOM     10  C   UNL     1       0.756   3.675   7.479  1.00  0.00    -0.000 C 
BRANCH  10  11
ATOM     11  C   UNL     1       0.330   4.801   6.520  1.00  0.00    -0.003 C 
ATOM     12  C   UNL     1       0.940   4.651   5.125  1.00  0.00     0.004 C 
ENDBRANCH  10  11
ENDBRANCH   9  10
ENDBRANCH   8   9
ENDBRANCH   7   8
ENDBRANCH   6   7
ENDBRANCH   5   6
ENDBRANCH   4   5
ENDBRANCH   3   4
ENDBRANCH   2   3
ENDBRANCH   1   2
BRANCH   1  13
ATOM     13  C   UNL     1       3.919  -1.947   5.568  1.00  0.00     0.000 C 
BRANCH  13  14
ATOM     14  C   UNL     1       2.462  -2.199   5.139  1.00  0.00     0.000 C 
BRANCH  14  15
ATOM     15  C   UNL     1       1.507  -1.066   5.554  1.00  0.00     0.000 C 
BRANCH  15  16
ATOM     16  C   UNL     1       0.068  -1.278   5.046  1.00  0.00     0.000 C 
BRANCH  16  17
ATOM     17  C   UNL     1      -0.646  -2.524   5.603  1.00  0.00     0.000 C 
BRANCH  17  18
ATOM     18  C   UNL     1      -2.005  -2.791   4.934  1.00  0.00     0.000 C 
BRANCH  18  19
ATOM     19  C   UNL     1      -2.454  -1.616   4.037  1.00  0.00     0.000 C 
BRANCH  19  20
ATOM     20  C   UNL     1      -3.962  -1.314   4.129  1.00  0.00     0.006 C 
BRANCH  20  21
ATOM     21  C   UNL     1      -4.686  -2.083   5.244  1.00  0.00     0.053 C 
BRANCH  21  22
ATOM     22  C   UNL     1      -5.020  -1.197   6.404  1.00  0.00     0.041 C 
ATOM     23  O   UNL     1      -5.030  -1.658   7.575  1.00  0.00    -0.550 OA
ATOM     24  O   UNL     1      -5.305   0.145   6.193  1.00  0.00    -0.550 OA
ENDBRANCH  21  22
ENDBRANCH  20  21
ENDBRANCH  19  20
ENDBRANCH  18  19
ENDBRANCH  17  18
ENDBRANCH  16  17
ENDBRANCH  15  16
ENDBRANCH  14  15
ENDBRANCH  13  14
ENDBRANCH   1  13
TORSDOF 20
ENDMDL
MODEL 5
REMARK VINA RESULT:    -4.321      1.446      2.806
REMARK INTER + INTRA:         -11.439
REMARK INTER:                  -9.756
REMARK INTRA:                  -1.683
REMARK UNBOUND:                -2.066
REMARK SMILES CCCCCCCCCCCCCCCCCCCCCC(=O)[O-]
REMARK SMILES IDX 12 1 11 2 10 3 9 4 8 5 7 6 6 7 5 8 4 9 3 10 2 11 1 12 13 13
REMARK SMILES IDX 14 14 15 15 16 16 17 17 18 18 19 19 20 20 21 21 22 22 23 23
REMARK SMILES IDX 24 24
REMARK H PARENT
REMARK Flexibility Score: inf
ROOT
ATOM      1  C   UNL     1      -0.026  -2.331   6.225  1.00  0.00     0.000 C 
ENDROOT
BRANCH   1   2
ATOM      2  C   UNL     1      -0.731  -2.487   4.866  1.00  0.00     0.000 C 
BRANCH   2   3
ATOM      3  C   UNL     1      -1.968  -1.580   4.726  1.00  0.00     0.000 C 
BRANCH   3   4
ATOM      4  C   UNL     1      -2.891  -1.912   3.538  1.00  0.00    -0.000 C 
BRANCH   4   5
ATOM      5  C   UNL     1      -2.740  -3.361   3.048  1.00  0.00    -0.000 C 
BRANCH   5   6
ATOM      6  C   UNL     1      -4.109  -3.961   2.682  1.00  0.00    -0.000 C 
BRANCH   6   7
ATOM      7  C   UNL     1      -5.119  -3.881   3.842  1.00  0.00    -0.000 C 
BRANCH   7   8
ATOM      8  C   UNL     1      -6.325  -2.963   3.569  1.00  0.00    -0.000 C 
BRANCH   8   9
ATOM      9  C   UNL     1      -6.840  -2.270   4.842  1.00  0.00    -0.000 C 
BRANCH   9  10
ATOM     10  C   UNL     1      -5.729  -2.035   5.881  1.00  0.00    -0.000 C 
BRANCH  10  11
ATOM     11  C   UNL     1      -5.284  -0.567   6.013  1.00  0.00    -0.003 C 
ATOM     12  C   UNL     1      -6.115   0.211   7.035  1.00  0.00     0.004 C 
ENDBRANCH  10  11
ENDBRANCH   9  10
ENDBRANCH   8   9
ENDBRANCH   7   8
ENDBRANCH   6   7
ENDBRANCH   5   6
ENDBRANCH   4   5
ENDBRANCH   3   4
ENDBRANCH   2   3
ENDBRANCH   1   2
BRANCH   1  13
ATOM     13  C   UNL     1       1.437  -1.868   6.097  1.00  0.00     0.000 C 
BRANCH  13  14
ATOM     14  C   UNL     1       1.643  -0.347   5.980  1.00  0.00     0.000 C 
BRANCH  14  15
ATOM     15  C   UNL     1       1.464   0.390   7.319  1.00  0.00     0.000 C 
BRANCH  15  16
ATOM     16  C   UNL     1       1.937   1.856   7.264  1.00  0.00     0.000 C 
BRANCH  16  17
ATOM     17  C   UNL     1       1.000   2.871   7.944  1.00  0.00     0.000 C 
BRANCH  17  18
ATOM     18  C   UNL     1       0.816   4.164   7.131  1.00  0.00     0.000 C 
BRANCH  18  19
ATOM     19  C   UNL     1       1.267   3.996   5.662  1.00  0.00     0.000 C 
BRANCH  19  20
ATOM     20  C   UNL     1       0.791   5.135   4.740  1.00  0.00     0.006 C 
BRANCH  20  21
ATOM     21  C   UNL     1      -0.646   5.602   5.014  1.00  0.00     0.053 C 
BRANCH  21  22
ATOM     22  C   UNL     1      -0.713   7.077   5.264  1.00  0.00     0.041 C 
ATOM     23  O   UNL     1      -1.050   7.516   6.395  1.00  0.00    -0.550 OA
ATOM     24  O   UNL     1      -0.387   7.968   4.252  1.00  0.00    -0.550 OA
ENDBRANCH  21  22
ENDBRANCH  20  21
ENDBRANCH  19  20
ENDBRANCH  18  19
ENDBRANCH  17  18
ENDBRANCH  16  17
ENDBRANCH  15  16
ENDBRANCH  14  15
ENDBRANCH  13  14
ENDBRANCH   1  13
TORSDOF 20
ENDMDL
MODEL 6
REMARK VINA RESULT:    -4.296      5.268      9.527
REMARK INTER + INTRA:         -11.384
REMARK INTER:                  -9.764
REMARK INTRA:                  -1.620
REMARK UNBOUND:                -2.066
REMARK SMILES CCCCCCCCCCCCCCCCCCCCCC(=O)[O-]
REMARK SMILES IDX 12 1 11 2 10 3 9 4 8 5 7 6 6 7 5 8 4 9 3 10 2 11 1 12 13 13
REMARK SMILES IDX 14 14 15 15 16 16 17 17 18 18 19 19 20 20 21 21 22 22 23 23
REMARK SMILES IDX 24 24
REMARK H PARENT
REMARK Flexibility Score: inf
ROOT
ATOM      1  C   UNL     1      -4.118  -1.156   4.012  1.00  0.00     0.000 C 
ENDROOT
BRANCH   1   2
ATOM      2  C   UNL     1      -4.647  -0.843   5.423  1.00  0.00     0.000 C 
BRANCH   2   3
ATOM      3  C   UNL     1      -5.473  -1.998   6.021  1.00  0.00     0.000 C 
BRANCH   3   4
ATOM      4  C   UNL     1      -4.647  -3.157   6.609  1.00  0.00    -0.000 C 
BRANCH   4   5
ATOM      5  C   UNL     1      -3.677  -2.704   7.710  1.00  0.00    -0.000 C 
BRANCH   5   6
ATOM      6  C   UNL     1      -2.233  -2.647   7.180  1.00  0.00    -0.000 C 
BRANCH   6   7
ATOM      7  C   UNL     1      -1.191  -2.988   8.262  1.00  0.00    -0.000 C 
BRANCH   7   8
ATOM      8  C   UNL     1       0.271  -2.852   7.797  1.00  0.00    -0.000 C 
BRANCH   8   9
ATOM      9  C   UNL     1       0.386  -2.523   6.299  1.00  0.00    -0.000 C 
BRANCH   9  10
ATOM     10  C   UNL     1       1.712  -1.826   5.945  1.00  0.00    -0.000 C 
BRANCH  10  11
ATOM     11  C   UNL     1       2.871  -2.790   5.632  1.00  0.00    -0.003 C 
ATOM     12  C   UNL     1       3.905  -2.183   4.682  1.00  0.00     0.004 C 
ENDBRANCH  10  11
ENDBRANCH   9  10
ENDBRANCH   8   9
ENDBRANCH   7   8
ENDBRANCH   6   7
ENDBRANCH   5   6
ENDBRANCH   4   5
ENDBRANCH   3   4
ENDBRANCH   2   3
ENDBRANCH   1   2
BRANCH   1  13
ATOM     13  C   UNL     1      -2.616  -1.498   3.993  1.00  0.00     0.000 C 
BRANCH  13  14
ATOM     14  C   UNL     1      -2.273  -2.957   3.640  1.00  0.00     0.000 C 
BRANCH  14  15
ATOM     15  C   UNL     1      -3.442  -3.707   2.979  1.00  0.00     0.000 C 
BRANCH  15  16
ATOM     16  C   UNL     1      -2.975  -4.810   2.009  1.00  0.00     0.000 C 
BRANCH  16  17
ATOM     17  C   UNL     1      -3.883  -5.033   0.785  1.00  0.00     0.000 C 
BRANCH  17  18
ATOM     18  C   UNL     1      -3.269  -5.982  -0.259  1.00  0.00     0.000 C 
BRANCH  18  19
ATOM     19  C   UNL     1      -2.698  -5.217  -1.474  1.00  0.00     0.000 C 
BRANCH  19  20
ATOM     20  C   UNL     1      -1.427  -4.409  -1.149  1.00  0.00     0.006 C 
BRANCH  20  21
ATOM     21  C   UNL     1      -0.693  -3.875  -2.387  1.00  0.00     0.053 C 
BRANCH  21  22
ATOM     22  C   UNL     1       0.425  -4.780  -2.805  1.00  0.00     0.041 C 
ATOM     23  O   UNL     1       1.313  -5.118  -1.978  1.00  0.00    -0.550 OA
ATOM     24  O   UNL     1       0.478  -5.265  -4.103  1.00  0.00    -0.550 OA
ENDBRANCH  21  22
ENDBRANCH  20  21
ENDBRANCH  19  20
ENDBRANCH  18  19
ENDBRANCH  17  18
ENDBRANCH  16  17
ENDBRANCH  15  16
ENDBRANCH  14  15
ENDBRANCH  13  14
ENDBRANCH   1  13
TORSDOF 20
ENDMDL
MODEL 7
REMARK VINA RESULT:    -4.288      1.382      2.834
REMARK INTER + INTRA:         -11.368
REMARK INTER:                  -8.692
REMARK INTRA:                  -2.676
REMARK UNBOUND:                -2.066
REMARK SMILES CCCCCCCCCCCCCCCCCCCCCC(=O)[O-]
REMARK SMILES IDX 12 1 11 2 10 3 9 4 8 5 7 6 6 7 5 8 4 9 3 10 2 11 1 12 13 13
REMARK SMILES IDX 14 14 15 15 16 16 17 17 18 18 19 19 20 20 21 21 22 22 23 23
REMARK SMILES IDX 24 24
REMARK H PARENT
REMARK Flexibility Score: inf
ROOT
ATOM      1  C   UNL     1       1.200  -0.092   5.881  1.00  0.00     0.000 C 
ENDROOT
BRANCH   1   2
ATOM      2  C   UNL     1       1.487  -1.461   5.238  1.00  0.00     0.000 C 
BRANCH   2   3
ATOM      3  C   UNL     1       2.889  -2.000   5.581  1.00  0.00     0.000 C 
BRANCH   3   4
ATOM      4  C   UNL     1       2.911  -3.389   6.246  1.00  0.00    -0.000 C 
BRANCH   4   5
ATOM      5  C   UNL     1       3.046  -3.320   7.775  1.00  0.00    -0.000 C 
BRANCH   5   6
ATOM      6  C   UNL     1       1.797  -3.898   8.462  1.00  0.00    -0.000 C 
BRANCH   6   7
ATOM      7  C   UNL     1       0.745  -4.399   7.455  1.00  0.00    -0.000 C 
BRANCH   7   8
ATOM      8  C   UNL     1      -0.540  -3.554   7.408  1.00  0.00    -0.000 C 
BRANCH   8   9
ATOM      9  C   UNL     1      -1.263  -3.650   6.053  1.00  0.00    -0.000 C 
BRANCH   9  10
ATOM     10  C   UNL     1      -2.195  -2.454   5.791  1.00  0.00    -0.000 C 
BRANCH  10  11
ATOM     11  C   UNL     1      -2.840  -2.448   4.393  1.00  0.00    -0.003 C 
ATOM     12  C   UNL     1      -3.769  -1.252   4.177  1.00  0.00     0.004 C 
ENDBRANCH  10  11
ENDBRANCH   9  10
ENDBRANCH   8   9
ENDBRANCH   7   8
ENDBRANCH   6   7
ENDBRANCH   5   6
ENDBRANCH   4   5
ENDBRANCH   3   4
ENDBRANCH   2   3
ENDBRANCH   1   2
BRANCH   1  13
ATOM     13  C   UNL     1       1.976   0.135   7.191  1.00  0.00     0.000 C 
BRANCH  13  14
ATOM     14  C   UNL     1       1.197  -0.166   8.485  1.00  0.00     0.000 C 
BRANCH  14  15
ATOM     15  C   UNL     1       0.963   1.084   9.351  1.00  0.00     0.000 C 
BRANCH  15  16
ATOM     16  C   UNL     1       1.542   2.366   8.722  1.00  0.00     0.000 C 
BRANCH  16  17
ATOM     17  C   UNL     1       0.495   3.377   8.218  1.00  0.00     0.000 C 
BRANCH  17  18
ATOM     18  C   UNL     1       1.067   4.385   7.207  1.00  0.00     0.000 C 
BRANCH  18  19
ATOM     19  C   UNL     1       1.185   3.783   5.788  1.00  0.00     0.000 C 
BRANCH  19  20
ATOM     20  C   UNL     1       0.994   4.819   4.664  1.00  0.00     0.006 C 
BRANCH  20  21
ATOM     21  C   UNL     1       0.802   6.257   5.165  1.00  0.00     0.053 C 
BRANCH  21  22
ATOM     22  C   UNL     1      -0.587   6.755   4.909  1.00  0.00     0.041 C 
ATOM     23  O   UNL     1      -0.773   7.870   4.356  1.00  0.00    -0.550 OA
ATOM     24  O   UNL     1      -1.679   5.977   5.267  1.00  0.00    -0.550 OA
ENDBRANCH  21  22
ENDBRANCH  20  21
ENDBRANCH  19  20
ENDBRANCH  18  19
ENDBRANCH  17  18
ENDBRANCH  16  17
ENDBRANCH  15  16
ENDBRANCH  14  15
ENDBRANCH  13  14
ENDBRANCH   1  13
TORSDOF 20
ENDMDL
MODEL 8
REMARK VINA RESULT:    -4.250      1.306      2.177
REMARK INTER + INTRA:         -11.284
REMARK INTER:                  -9.093
REMARK INTRA:                  -2.191
REMARK UNBOUND:                -2.066
REMARK SMILES CCCCCCCCCCCCCCCCCCCCCC(=O)[O-]
REMARK SMILES IDX 12 1 11 2 10 3 9 4 8 5 7 6 6 7 5 8 4 9 3 10 2 11 1 12 13 13
REMARK SMILES IDX 14 14 15 15 16 16 17 17 18 18 19 19 20 20 21 21 22 22 23 23
REMARK SMILES IDX 24 24
REMARK H PARENT
REMARK Flexibility Score: inf
ROOT
ATOM      1  C   UNL     1       1.136  -0.910   5.589  1.00  0.00     0.000 C 
ENDROOT
BRANCH   1   2
ATOM      2  C   UNL     1       0.041  -1.930   5.231  1.00  0.00     0.000 C 
BRANCH   2   3
ATOM      3  C   UNL     1      -0.717  -2.453   6.466  1.00  0.00     0.000 C 
BRANCH   3   4
ATOM      4  C   UNL     1      -0.505  -3.945   6.781  1.00  0.00    -0.000 C 
BRANCH   4   5
ATOM      5  C   UNL     1      -1.819  -4.697   7.041  1.00  0.00    -0.000 C 
BRANCH   5   6
ATOM      6  C   UNL     1      -2.165  -5.620   5.860  1.00  0.00    -0.000 C 
BRANCH   6   7
ATOM      7  C   UNL     1      -3.204  -4.999   4.907  1.00  0.00    -0.000 C 
BRANCH   7   8
ATOM      8  C   UNL     1      -2.638  -4.584   3.536  1.00  0.00    -0.000 C 
BRANCH   8   9
ATOM      9  C   UNL     1      -2.682  -3.063   3.315  1.00  0.00    -0.000 C 
BRANCH   9  10
ATOM     10  C   UNL     1      -4.079  -2.466   3.563  1.00  0.00    -0.000 C 
BRANCH  10  11
ATOM     11  C   UNL     1      -4.083  -1.210   4.453  1.00  0.00    -0.003 C 
ATOM     12  C   UNL     1      -4.370  -1.528   5.922  1.00  0.00     0.004 C 
ENDBRANCH  10  11
ENDBRANCH   9  10
ENDBRANCH   8   9
ENDBRANCH   7   8
ENDBRANCH   6   7
ENDBRANCH   5   6
ENDBRANCH   4   5
ENDBRANCH   3   4
ENDBRANCH   2   3
ENDBRANCH   1   2
BRANCH   1  13
ATOM     13  C   UNL     1       1.294  -0.701   7.106  1.00  0.00     0.000 C 
BRANCH  13  14
ATOM     14  C   UNL     1       2.697  -0.271   7.574  1.00  0.00     0.000 C 
BRANCH  14  15
ATOM     15  C   UNL     1       2.750   1.190   8.053  1.00  0.00     0.000 C 
BRANCH  15  16
ATOM     16  C   UNL     1       1.357   1.843   8.141  1.00  0.00     0.000 C 
BRANCH  16  17
ATOM     17  C   UNL     1       1.118   3.010   7.165  1.00  0.00     0.000 C 
BRANCH  17  18
ATOM     18  C   UNL     1       1.147   4.387   7.850  1.00  0.00     0.000 C 
BRANCH  18  19
ATOM     19  C   UNL     1      -0.256   4.832   8.321  1.00  0.00     0.000 C 
BRANCH  19  20
ATOM     20  C   UNL     1      -0.861   5.961   7.465  1.00  0.00     0.006 C 
BRANCH  20  21
ATOM     21  C   UNL     1       0.088   6.507   6.389  1.00  0.00     0.053 C 
BRANCH  21  22
ATOM     22  C   UNL     1      -0.459   6.301   5.009  1.00  0.00     0.041 C 
ATOM     23  O   UNL     1      -1.277   7.124   4.520  1.00  0.00    -0.550 OA
ATOM     24  O   UNL     1      -0.053   5.209   4.257  1.00  0.00    -0.550 OA
ENDBRANCH  21  22
ENDBRANCH  20  21
ENDBRANCH  19  20
ENDBRANCH  18  19
ENDBRANCH  17  18
ENDBRANCH  16  17
ENDBRANCH  15  16
ENDBRANCH  14  15
ENDBRANCH  13  14
ENDBRANCH   1  13
TORSDOF 20
ENDMDL
MODEL 9
REMARK VINA RESULT:    -4.224      1.520      2.391
REMARK INTER + INTRA:         -11.229
REMARK INTER:                  -8.936
REMARK INTRA:                  -2.293
REMARK UNBOUND:                -2.066
REMARK SMILES CCCCCCCCCCCCCCCCCCCCCC(=O)[O-]
REMARK SMILES IDX 12 1 11 2 10 3 9 4 8 5 7 6 6 7 5 8 4 9 3 10 2 11 1 12 13 13
REMARK SMILES IDX 14 14 15 15 16 16 17 17 18 18 19 19 20 20 21 21 22 22 23 23
REMARK SMILES IDX 24 24
REMARK H PARENT
REMARK Flexibility Score: inf
ROOT
ATOM      1  C   UNL     1       0.386  -1.744   5.274  1.00  0.00     0.000 C 
ENDROOT
BRANCH   1   2
ATOM      2  C   UNL     1       0.120  -2.824   6.338  1.00  0.00     0.000 C 
BRANCH   2   3
ATOM      3  C   UNL     1      -1.380  -3.025   6.626  1.00  0.00     0.000 C 
BRANCH   3   4
ATOM      4  C   UNL     1      -1.880  -4.477   6.506  1.00  0.00    -0.000 C 
BRANCH   4   5
ATOM      5  C   UNL     1      -2.846  -4.683   5.329  1.00  0.00    -0.000 C 
BRANCH   5   6
ATOM      6  C   UNL     1      -2.273  -4.074   4.037  1.00  0.00    -0.000 C 
BRANCH   6   7
ATOM      7  C   UNL     1      -3.253  -3.100   3.357  1.00  0.00    -0.000 C 
BRANCH   7   8
ATOM      8  C   UNL     1      -3.115  -1.638   3.820  1.00  0.00    -0.000 C 
BRANCH   8   9
ATOM      9  C   UNL     1      -4.477  -0.967   4.071  1.00  0.00    -0.000 C 
BRANCH   9  10
ATOM     10  C   UNL     1      -4.764  -0.749   5.568  1.00  0.00    -0.000 C 
BRANCH  10  11
ATOM     11  C   UNL     1      -5.264  -2.004   6.306  1.00  0.00    -0.003 C 
ATOM     12  C   UNL     1      -4.729  -2.099   7.736  1.00  0.00     0.004 C 
ENDBRANCH  10  11
ENDBRANCH   9  10
ENDBRANCH   8   9
ENDBRANCH   7   8
ENDBRANCH   6   7
ENDBRANCH   5   6
ENDBRANCH   4   5
ENDBRANCH   3   4
ENDBRANCH   2   3
ENDBRANCH   1   2
BRANCH   1  13
ATOM     13  C   UNL     1       1.481  -0.745   5.688  1.00  0.00     0.000 C 
BRANCH  13  14
ATOM     14  C   UNL     1       1.521  -0.386   7.185  1.00  0.00     0.000 C 
BRANCH  14  15
ATOM     15  C   UNL     1       2.309   0.903   7.474  1.00  0.00     0.000 C 
BRANCH  15  16
ATOM     16  C   UNL     1       1.542   2.178   7.070  1.00  0.00     0.000 C 
BRANCH  16  17
ATOM     17  C   UNL     1       2.325   3.493   7.238  1.00  0.00     0.000 C 
BRANCH  17  18
ATOM     18  C   UNL     1       1.554   4.558   8.036  1.00  0.00     0.000 C 
BRANCH  18  19
ATOM     19  C   UNL     1       0.066   4.627   7.628  1.00  0.00     0.000 C 
BRANCH  19  20
ATOM     20  C   UNL     1      -0.247   5.763   6.634  1.00  0.00     0.006 C 
BRANCH  20  21
ATOM     21  C   UNL     1      -0.120   5.355   5.159  1.00  0.00     0.053 C 
BRANCH  21  22
ATOM     22  C   UNL     1       1.155   5.853   4.552  1.00  0.00     0.041 C 
ATOM     23  O   UNL     1       1.881   6.671   5.176  1.00  0.00    -0.550 OA
ATOM     24  O   UNL     1       1.552   5.399   3.303  1.00  0.00    -0.550 OA
ENDBRANCH  21  22
ENDBRANCH  20  21
ENDBRANCH  19  20
ENDBRANCH  18  19
ENDBRANCH  17  18
ENDBRANCH  16  17
ENDBRANCH  15  16
ENDBRANCH  14  15
ENDBRANCH  13  14
ENDBRANCH   1  13
TORSDOF 20
ENDMDL
