MODEL 1
REMARK VINA RESULT:    -4.028      0.000      0.000
REMARK INTER + INTRA:          -4.475
REMARK INTER:                  -4.734
REMARK INTRA:                   0.259
REMARK UNBOUND:                 0.259
REMARK SMILES O=c1c(O)c(-c2ccc(O)cc2)oc2cc(O)cc(O)c12
REMARK SMILES IDX 5 1 3 2 2 3 1 4 21 5 19 6 18 7 16 8 15 9 14 10 13 11 6 12
REMARK SMILES IDX 7 13 8 14 9 15 12 16 11 17 10 18 4 20 20 22 17 24
REMARK H PARENT 10 19 4 21 20 23 17 25
REMARK Flexibility Score: inf
ROOT
ATOM      1  C   UNL     1      33.039  24.775  38.028  1.00  0.00     0.180 A 
ATOM      2  C   UNL     1      34.378  24.623  37.619  1.00  0.00     0.208 A 
ATOM      3  C   UNL     1      34.924  25.558  36.726  1.00  0.00     0.238 A 
ATOM      4  O   UNL     1      36.125  25.439  36.361  1.00  0.00    -0.285 OA
ATOM      5  C   UNL     1      34.122  26.612  36.243  1.00  0.00     0.111 A 
ATOM      6  C   UNL     1      34.594  27.593  35.339  1.00  0.00     0.134 A 
ATOM      7  C   UNL     1      33.730  28.606  34.897  1.00  0.00     0.093 A 
ATOM      8  C   UNL     1      32.406  28.656  35.340  1.00  0.00     0.123 A 
ATOM      9  C   UNL     1      31.933  27.690  36.235  1.00  0.00     0.094 A 
ATOM     10  C   UNL     1      32.780  26.674  36.688  1.00  0.00     0.146 A 
ATOM     11  O   UNL     1      32.308  25.772  37.541  1.00  0.00    -0.452 OA
ENDROOT
BRANCH   1  12
ATOM     12  C   UNL     1      32.398  23.841  38.982  1.00  0.00     0.021 A 
ATOM     13  C   UNL     1      31.477  24.336  39.921  1.00  0.00     0.016 A 
ATOM     14  C   UNL     1      30.877  23.476  40.847  1.00  0.00     0.047 A 
ATOM     15  C   UNL     1      31.201  22.114  40.855  1.00  0.00     0.115 A 
ATOM     16  C   UNL     1      32.734  22.475  39.011  1.00  0.00     0.016 A 
ATOM     17  C   UNL     1      32.133  21.618  39.938  1.00  0.00     0.047 A 
BRANCH  15  18
ATOM     18  O   UNL     1      30.610  21.248  41.771  1.00  0.00    -0.508 OA
ATOM     19  H   UNL     1      31.074  20.995  42.636  1.00  0.00     0.293 HD
ENDBRANCH  15  18
ENDBRANCH   1  12
BRANCH   2  20
ATOM     20  O   UNL     1      35.137  23.541  38.074  1.00  0.00    -0.502 OA
ATOM     21  H   UNL     1      35.380  22.760  37.477  1.00  0.00     0.293 HD
ENDBRANCH   2  20
BRANCH   6  22
ATOM     22  O   UNL     1      35.910  27.568  34.875  1.00  0.00    -0.507 OA
ATOM     23  H   UNL     1      36.142  27.802  33.917  1.00  0.00     0.293 HD
ENDBRANCH   6  22
BRANCH   8  24
ATOM     24  O   UNL     1      31.568  29.671  34.885  1.00  0.00    -0.508 OA
ATOM     25  H   UNL     1      31.319  29.754  33.906  1.00  0.00     0.293 HD
ENDBRANCH   8  24
TORSDOF 5
ENDMDL
MODEL 2
REMARK VINA RESULT:    -3.630      1.148      6.453
REMARK INTER + INTRA:          -4.007
REMARK INTER:                  -4.505
REMARK INTRA:                   0.498
REMARK UNBOUND:                 0.259
REMARK SMILES O=c1c(O)c(-c2ccc(O)cc2)oc2cc(O)cc(O)c12
REMARK SMILES IDX 5 1 3 2 2 3 1 4 21 5 19 6 18 7 16 8 15 9 14 10 13 11 6 12
REMARK SMILES IDX 7 13 8 14 9 15 12 16 11 17 10 18 4 20 20 22 17 24
REMARK H PARENT 10 19 4 21 20 23 17 25
REMARK Flexibility Score: inf
ROOT
ATOM      1  C   UNL     1      33.363  25.138  37.531  1.00  0.00     0.180 A 
ATOM      2  C   UNL     1      34.630  24.542  37.389  1.00  0.00     0.208 A 
ATOM      3  C   UNL     1      34.899  23.348  38.077  1.00  0.00     0.238 A 
ATOM      4  O   UNL     1      36.027  22.799  37.948  1.00  0.00    -0.285 OA
ATOM      5  C   UNL     1      33.910  22.784  38.906  1.00  0.00     0.111 A 
ATOM      6  C   UNL     1      34.101  21.586  39.637  1.00  0.00     0.134 A 
ATOM      7  C   UNL     1      33.070  21.093  40.449  1.00  0.00     0.093 A 
ATOM      8  C   UNL     1      31.854  21.773  40.547  1.00  0.00     0.123 A 
ATOM      9  C   UNL     1      31.657  22.957  39.828  1.00  0.00     0.094 A 
ATOM     10  C   UNL     1      32.672  23.463  39.011  1.00  0.00     0.146 A 
ATOM     11  O   UNL     1      32.459  24.586  38.334  1.00  0.00    -0.452 OA
ENDROOT
BRANCH   1  12
ATOM     12  C   UNL     1      32.997  26.386  36.824  1.00  0.00     0.021 A 
ATOM     13  C   UNL     1      34.011  27.211  36.307  1.00  0.00     0.016 A 
ATOM     14  C   UNL     1      33.690  28.406  35.656  1.00  0.00     0.047 A 
ATOM     15  C   UNL     1      32.353  28.799  35.525  1.00  0.00     0.115 A 
ATOM     16  C   UNL     1      31.656  26.799  36.707  1.00  0.00     0.016 A 
ATOM     17  C   UNL     1      31.339  27.994  36.056  1.00  0.00     0.047 A 
BRANCH  15  18
ATOM     18  O   UNL     1      32.020  29.986  34.878  1.00  0.00    -0.508 OA
ATOM     19  H   UNL     1      32.288  30.888  35.256  1.00  0.00     0.293 HD
ENDBRANCH  15  18
ENDBRANCH   1  12
BRANCH   2  20
ATOM     20  O   UNL     1      35.611  25.148  36.599  1.00  0.00    -0.502 OA
ATOM     21  H   UNL     1      35.909  26.106  36.743  1.00  0.00     0.293 HD
ENDBRANCH   2  20
BRANCH   6  22
ATOM     22  O   UNL     1      35.306  20.885  39.562  1.00  0.00    -0.507 OA
ATOM     23  H   UNL     1      35.331  19.874  39.491  1.00  0.00     0.293 HD
ENDBRANCH   6  22
BRANCH   8  24
ATOM     24  O   UNL     1      30.845  21.264  41.362  1.00  0.00    -0.508 OA
ATOM     25  H   UNL     1      30.862  20.304  41.688  1.00  0.00     0.293 HD
ENDBRANCH   8  24
TORSDOF 5
ENDMDL
MODEL 3
REMARK VINA RESULT:    -3.534      2.345      6.720
REMARK INTER + INTRA:          -3.895
REMARK INTER:                  -3.670
REMARK INTRA:                  -0.224
REMARK UNBOUND:                 0.259
REMARK SMILES O=c1c(O)c(-c2ccc(O)cc2)oc2cc(O)cc(O)c12
REMARK SMILES IDX 5 1 3 2 2 3 1 4 21 5 19 6 18 7 16 8 15 9 14 10 13 11 6 12
REMARK SMILES IDX 7 13 8 14 9 15 12 16 11 17 10 18 4 20 20 22 17 24
REMARK H PARENT 10 19 4 21 20 23 17 25
REMARK Flexibility Score: inf
ROOT
ATOM      1  C   UNL     1      33.274  26.080  36.911  1.00  0.00     0.180 A 
ATOM      2  C   UNL     1      32.913  26.004  38.270  1.00  0.00     0.208 A 
ATOM      3  C   UNL     1      32.234  24.865  38.729  1.00  0.00     0.238 A 
ATOM      4  O   UNL     1      31.915  24.782  39.946  1.00  0.00    -0.285 OA
ATOM      5  C   UNL     1      31.910  23.835  37.824  1.00  0.00     0.111 A 
ATOM      6  C   UNL     1      31.224  22.657  38.204  1.00  0.00     0.134 A 
ATOM      7  C   UNL     1      30.930  21.680  37.241  1.00  0.00     0.093 A 
ATOM      8  C   UNL     1      31.307  21.859  35.908  1.00  0.00     0.123 A 
ATOM      9  C   UNL     1      31.986  23.021  35.525  1.00  0.00     0.094 A 
ATOM     10  C   UNL     1      32.290  24.005  36.471  1.00  0.00     0.146 A 
ATOM     11  O   UNL     1      32.939  25.096  36.083  1.00  0.00    -0.452 OA
ENDROOT
BRANCH   1  12
ATOM     12  C   UNL     1      34.008  27.240  36.356  1.00  0.00     0.021 A 
ATOM     13  C   UNL     1      35.373  27.399  36.649  1.00  0.00     0.016 A 
ATOM     14  C   UNL     1      36.081  28.498  36.154  1.00  0.00     0.047 A 
ATOM     15  C   UNL     1      35.430  29.461  35.374  1.00  0.00     0.115 A 
ATOM     16  C   UNL     1      33.356  28.223  35.588  1.00  0.00     0.016 A 
ATOM     17  C   UNL     1      34.067  29.321  35.096  1.00  0.00     0.047 A 
BRANCH  15  18
ATOM     18  O   UNL     1      36.125  30.560  34.875  1.00  0.00    -0.508 OA
ATOM     19  H   UNL     1      35.640  31.382  34.532  1.00  0.00     0.293 HD
ENDBRANCH  15  18
ENDBRANCH   1  12
BRANCH   2  20
ATOM     20  O   UNL     1      33.202  27.062  39.137  1.00  0.00    -0.502 OA
ATOM     21  H   UNL     1      32.871  27.084  40.095  1.00  0.00     0.293 HD
ENDBRANCH   2  20
BRANCH   6  22
ATOM     22  O   UNL     1      30.832  22.449  39.527  1.00  0.00    -0.507 OA
ATOM     23  H   UNL     1      30.736  23.218  40.181  1.00  0.00     0.293 HD
ENDBRANCH   6  22
BRANCH   8  24
ATOM     24  O   UNL     1      31.002  20.875  34.970  1.00  0.00    -0.508 OA
ATOM     25  H   UNL     1      31.052  19.889  35.201  1.00  0.00     0.293 HD
ENDBRANCH   8  24
TORSDOF 5
ENDMDL
MODEL 4
REMARK VINA RESULT:    -3.334      1.765      7.062
REMARK INTER + INTRA:          -3.660
REMARK INTER:                  -4.109
REMARK INTRA:                   0.450
REMARK UNBOUND:                 0.259
REMARK SMILES O=c1c(O)c(-c2ccc(O)cc2)oc2cc(O)cc(O)c12
REMARK SMILES IDX 5 1 3 2 2 3 1 4 21 5 19 6 18 7 16 8 15 9 14 10 13 11 6 12
REMARK SMILES IDX 7 13 8 14 9 15 12 16 11 17 10 18 4 20 20 22 17 24
REMARK H PARENT 10 19 4 21 20 23 17 25
REMARK Flexibility Score: inf
ROOT
ATOM      1  C   UNL     1      33.443  25.981  37.270  1.00  0.00     0.180 A 
ATOM      2  C   UNL     1      32.041  25.884  37.351  1.00  0.00     0.208 A 
ATOM      3  C   UNL     1      31.474  24.774  37.996  1.00  0.00     0.238 A 
ATOM      4  O   UNL     1      30.220  24.682  38.084  1.00  0.00    -0.285 OA
ATOM      5  C   UNL     1      32.313  23.774  38.528  1.00  0.00     0.111 A 
ATOM      6  C   UNL     1      31.822  22.622  39.189  1.00  0.00     0.134 A 
ATOM      7  C   UNL     1      32.722  21.667  39.683  1.00  0.00     0.093 A 
ATOM      8  C   UNL     1      34.100  21.839  39.529  1.00  0.00     0.123 A 
ATOM      9  C   UNL     1      34.592  22.976  38.878  1.00  0.00     0.094 A 
ATOM     10  C   UNL     1      33.710  23.940  38.380  1.00  0.00     0.146 A 
ATOM     11  O   UNL     1      34.203  25.012  37.770  1.00  0.00    -0.452 OA
ENDROOT
BRANCH   1  12
ATOM     12  C   UNL     1      34.115  27.131  36.623  1.00  0.00     0.021 A 
ATOM     13  C   UNL     1      35.475  27.373  36.882  1.00  0.00     0.016 A 
ATOM     14  C   UNL     1      36.124  28.466  36.300  1.00  0.00     0.047 A 
ATOM     15  C   UNL     1      35.419  29.340  35.464  1.00  0.00     0.115 A 
ATOM     16  C   UNL     1      33.408  28.027  35.798  1.00  0.00     0.016 A 
ATOM     17  C   UNL     1      34.060  29.119  35.219  1.00  0.00     0.047 A 
BRANCH  15  18
ATOM     18  O   UNL     1      36.055  30.432  34.879  1.00  0.00    -0.508 OA
ATOM     19  H   UNL     1      36.573  30.340  34.012  1.00  0.00     0.293 HD
ENDBRANCH  15  18
ENDBRANCH   1  12
BRANCH   2  20
ATOM     20  O   UNL     1      31.230  26.865  36.772  1.00  0.00    -0.502 OA
ATOM     21  H   UNL     1      31.612  27.660  36.274  1.00  0.00     0.293 HD
ENDBRANCH   2  20
BRANCH   6  22
ATOM     22  O   UNL     1      30.452  22.420  39.356  1.00  0.00    -0.507 OA
ATOM     23  H   UNL     1      29.970  22.702  40.202  1.00  0.00     0.293 HD
ENDBRANCH   6  22
BRANCH   8  24
ATOM     24  O   UNL     1      34.973  20.875  40.028  1.00  0.00    -0.508 OA
ATOM     25  H   UNL     1      35.765  20.548  39.488  1.00  0.00     0.293 HD
ENDBRANCH   8  24
TORSDOF 5
ENDMDL
MODEL 5
REMARK VINA RESULT:    -3.319      1.321      3.001
REMARK INTER + INTRA:          -3.642
REMARK INTER:                  -3.882
REMARK INTRA:                   0.240
REMARK UNBOUND:                 0.259
REMARK SMILES O=c1c(O)c(-c2ccc(O)cc2)oc2cc(O)cc(O)c12
REMARK SMILES IDX 5 1 3 2 2 3 1 4 21 5 19 6 18 7 16 8 15 9 14 10 13 11 6 12
REMARK SMILES IDX 7 13 8 14 9 15 12 16 11 17 10 18 4 20 20 22 17 24
REMARK H PARENT 10 19 4 21 20 23 17 25
REMARK Flexibility Score: inf
ROOT
ATOM      1  C   UNL     1      32.083  25.416  38.077  1.00  0.00     0.180 A 
ATOM      2  C   UNL     1      30.935  26.187  37.812  1.00  0.00     0.208 A 
ATOM      3  C   UNL     1      31.045  27.298  36.961  1.00  0.00     0.238 A 
ATOM      4  O   UNL     1      30.021  27.989  36.708  1.00  0.00    -0.285 OA
ATOM      5  C   UNL     1      32.298  27.630  36.408  1.00  0.00     0.111 A 
ATOM      6  C   UNL     1      32.496  28.735  35.545  1.00  0.00     0.134 A 
ATOM      7  C   UNL     1      33.777  29.006  35.043  1.00  0.00     0.093 A 
ATOM      8  C   UNL     1      34.862  28.196  35.386  1.00  0.00     0.123 A 
ATOM      9  C   UNL     1      34.674  27.103  36.238  1.00  0.00     0.094 A 
ATOM     10  C   UNL     1      33.404  26.815  36.748  1.00  0.00     0.146 A 
ATOM     11  O   UNL     1      33.252  25.768  37.550  1.00  0.00    -0.452 OA
ENDROOT
BRANCH   1  12
ATOM     12  C   UNL     1      32.043  24.220  38.948  1.00  0.00     0.021 A 
ATOM     13  C   UNL     1      31.252  24.236  40.110  1.00  0.00     0.016 A 
ATOM     14  C   UNL     1      31.217  23.126  40.959  1.00  0.00     0.047 A 
ATOM     15  C   UNL     1      31.984  21.992  40.667  1.00  0.00     0.115 A 
ATOM     16  C   UNL     1      32.827  23.084  38.673  1.00  0.00     0.016 A 
ATOM     17  C   UNL     1      32.790  21.976  39.525  1.00  0.00     0.047 A 
BRANCH  15  18
ATOM     18  O   UNL     1      31.956  20.880  41.505  1.00  0.00    -0.508 OA
ATOM     19  H   UNL     1      31.101  20.360  41.667  1.00  0.00     0.293 HD
ENDBRANCH  15  18
ENDBRANCH   1  12
BRANCH   2  20
ATOM     20  O   UNL     1      29.714  25.865  38.412  1.00  0.00    -0.502 OA
ATOM     21  H   UNL     1      29.629  25.139  39.114  1.00  0.00     0.293 HD
ENDBRANCH   2  20
BRANCH   6  22
ATOM     22  O   UNL     1      31.432  29.563  35.185  1.00  0.00    -0.507 OA
ATOM     23  H   UNL     1      31.431  30.554  35.402  1.00  0.00     0.293 HD
ENDBRANCH   6  22
BRANCH   8  24
ATOM     24  O   UNL     1      36.125  28.487  34.875  1.00  0.00    -0.508 OA
ATOM     25  H   UNL     1      36.717  27.765  34.481  1.00  0.00     0.293 HD
ENDBRANCH   8  24
TORSDOF 5
ENDMDL
MODEL 6
REMARK VINA RESULT:    -2.720      1.998      6.651
REMARK INTER + INTRA:          -2.939
REMARK INTER:                  -2.700
REMARK INTRA:                  -0.239
REMARK UNBOUND:                 0.259
REMARK SMILES O=c1c(O)c(-c2ccc(O)cc2)oc2cc(O)cc(O)c12
REMARK SMILES IDX 5 1 3 2 2 3 1 4 21 5 19 6 18 7 16 8 15 9 14 10 13 11 6 12
REMARK SMILES IDX 7 13 8 14 9 15 12 16 11 17 10 18 4 20 20 22 17 24
REMARK H PARENT 10 19 4 21 20 23 17 25
REMARK Flexibility Score: inf
ROOT
ATOM      1  C   UNL     1      33.377  25.329  37.196  1.00  0.00     0.180 A 
ATOM      2  C   UNL     1      33.034  24.386  36.207  1.00  0.00     0.208 A 
ATOM      3  C   UNL     1      32.343  23.225  36.586  1.00  0.00     0.238 A 
ATOM      4  O   UNL     1      32.022  22.380  35.708  1.00  0.00    -0.285 OA
ATOM      5  C   UNL     1      32.025  23.016  37.943  1.00  0.00     0.111 A 
ATOM      6  C   UNL     1      31.334  21.872  38.410  1.00  0.00     0.134 A 
ATOM      7  C   UNL     1      31.062  21.732  39.779  1.00  0.00     0.093 A 
ATOM      8  C   UNL     1      31.468  22.712  40.689  1.00  0.00     0.123 A 
ATOM      9  C   UNL     1      32.150  23.845  40.235  1.00  0.00     0.094 A 
ATOM     10  C   UNL     1      32.429  24.004  38.874  1.00  0.00     0.146 A 
ATOM     11  O   UNL     1      33.073  25.091  38.468  1.00  0.00    -0.452 OA
ENDROOT
BRANCH   1  12
ATOM     12  C   UNL     1      34.088  26.586  36.871  1.00  0.00     0.021 A 
ATOM     13  C   UNL     1      33.385  27.644  36.271  1.00  0.00     0.016 A 
ATOM     14  C   UNL     1      34.041  28.831  35.935  1.00  0.00     0.047 A 
ATOM     15  C   UNL     1      35.413  28.971  36.180  1.00  0.00     0.115 A 
ATOM     16  C   UNL     1      35.471  26.726  37.095  1.00  0.00     0.016 A 
ATOM     17  C   UNL     1      36.125  27.914  36.757  1.00  0.00     0.047 A 
BRANCH  15  18
ATOM     18  O   UNL     1      36.078  30.149  35.850  1.00  0.00    -0.508 OA
ATOM     19  H   UNL     1      35.601  30.914  35.386  1.00  0.00     0.293 HD
ENDBRANCH  15  18
ENDBRANCH   1  12
BRANCH   2  20
ATOM     20  O   UNL     1      33.405  24.594  34.875  1.00  0.00    -0.502 OA
ATOM     21  H   UNL     1      33.264  23.893  34.157  1.00  0.00     0.293 HD
ENDBRANCH   2  20
BRANCH   6  22
ATOM     22  O   UNL     1      30.918  20.875  37.526  1.00  0.00    -0.507 OA
ATOM     23  H   UNL     1      30.896  21.026  36.524  1.00  0.00     0.293 HD
ENDBRANCH   6  22
BRANCH   8  24
ATOM     24  O   UNL     1      31.187  22.549  42.043  1.00  0.00    -0.508 OA
ATOM     25  H   UNL     1      31.924  22.407  42.724  1.00  0.00     0.293 HD
ENDBRANCH   8  24
TORSDOF 5
ENDMDL
