MODEL 1
REMARK VINA RESULT:    -5.636      0.000      0.000
REMARK INTER + INTRA:         -13.402
REMARK INTER:                 -12.226
REMARK INTRA:                  -1.176
REMARK UNBOUND:                -1.176
REMARK SMILES CCCCCCCCCCCCCCCCCCCCCC(=O)[O-]
REMARK SMILES IDX 12 1 11 2 10 3 9 4 8 5 7 6 6 7 5 8 4 9 3 10 2 11 1 12 13 13
REMARK SMILES IDX 14 14 15 15 16 16 17 17 18 18 19 19 20 20 21 21 22 22 23 23
REMARK SMILES IDX 24 24
REMARK H PARENT
REMARK Flexibility Score: inf
ROOT
ATOM      1  C   UNL     1      11.015 -12.098   4.257  1.00  0.00     0.000 C 
ENDROOT
BRANCH   1   2
ATOM      2  C   UNL     1       9.947 -12.925   4.993  1.00  0.00     0.000 C 
BRANCH   2   3
ATOM      3  C   UNL     1       8.988 -12.049   5.816  1.00  0.00     0.000 C 
BRANCH   3   4
ATOM      4  C   UNL     1       8.216 -12.851   6.878  1.00  0.00    -0.000 C 
BRANCH   4   5
ATOM      5  C   UNL     1       8.762 -14.279   7.057  1.00  0.00    -0.000 C 
BRANCH   5   6
ATOM      6  C   UNL     1       7.728 -15.400   6.832  1.00  0.00    -0.000 C 
BRANCH   6   7
ATOM      7  C   UNL     1       7.592 -15.885   5.374  1.00  0.00    -0.000 C 
BRANCH   7   8
ATOM      8  C   UNL     1       6.577 -15.109   4.517  1.00  0.00    -0.000 C 
BRANCH   8   9
ATOM      9  C   UNL     1       5.739 -16.024   3.608  1.00  0.00    -0.000 C 
BRANCH   9  10
ATOM     10  C   UNL     1       4.487 -16.582   4.309  1.00  0.00    -0.000 C 
BRANCH  10  11
ATOM     11  C   UNL     1       3.577 -17.452   3.422  1.00  0.00    -0.003 C 
ATOM     12  C   UNL     1       4.031 -18.909   3.343  1.00  0.00     0.004 C 
ENDBRANCH  10  11
ENDBRANCH   9  10
ENDBRANCH   8   9
ENDBRANCH   7   8
ENDBRANCH   6   7
ENDBRANCH   5   6
ENDBRANCH   4   5
ENDBRANCH   3   4
ENDBRANCH   2   3
ENDBRANCH   1   2
BRANCH   1  13
ATOM     13  C   UNL     1      11.783 -11.154   5.195  1.00  0.00     0.000 C 
BRANCH  13  14
ATOM     14  C   UNL     1      12.887 -10.367   4.468  1.00  0.00     0.000 C 
BRANCH  14  15
ATOM     15  C   UNL     1      12.572  -8.865   4.365  1.00  0.00     0.000 C 
BRANCH  15  16
ATOM     16  C   UNL     1      12.103  -8.455   2.960  1.00  0.00     0.000 C 
BRANCH  16  17
ATOM     17  C   UNL     1      12.841  -9.208   1.840  1.00  0.00     0.000 C 
BRANCH  17  18
ATOM     18  C   UNL     1      12.883  -8.440   0.502  1.00  0.00     0.000 C 
BRANCH  18  19
ATOM     19  C   UNL     1      14.004  -8.947  -0.422  1.00  0.00     0.000 C 
BRANCH  19  20
ATOM     20  C   UNL     1      14.491  -7.874  -1.409  1.00  0.00     0.006 C 
BRANCH  20  21
ATOM     21  C   UNL     1      13.389  -7.416  -2.373  1.00  0.00     0.053 C 
BRANCH  21  22
ATOM     22  C   UNL     1      13.179  -8.434  -3.448  1.00  0.00     0.041 C 
ATOM     23  O   UNL     1      12.215  -8.318  -4.251  1.00  0.00    -0.550 OA
ATOM     24  O   UNL     1      14.075  -9.485  -3.598  1.00  0.00    -0.550 OA
ENDBRANCH  21  22
ENDBRANCH  20  21
ENDBRANCH  19  20
ENDBRANCH  18  19
ENDBRANCH  17  18
ENDBRANCH  16  17
ENDBRANCH  15  16
ENDBRANCH  14  15
ENDBRANCH  13  14
ENDBRANCH   1  13
TORSDOF 20
ENDMDL
MODEL 2
REMARK VINA RESULT:    -5.604      6.474     11.058
REMARK INTER + INTRA:         -13.332
REMARK INTER:                 -11.802
REMARK INTRA:                  -1.530
REMARK UNBOUND:                -1.176
REMARK SMILES CCCCCCCCCCCCCCCCCCCCCC(=O)[O-]
REMARK SMILES IDX 12 1 11 2 10 3 9 4 8 5 7 6 6 7 5 8 4 9 3 10 2 11 1 12 13 13
REMARK SMILES IDX 14 14 15 15 16 16 17 17 18 18 19 19 20 20 21 21 22 22 23 23
REMARK SMILES IDX 24 24
REMARK H PARENT
REMARK Flexibility Score: inf
ROOT
ATOM      1  C   UNL     1      12.100 -10.203  -4.697  1.00  0.00     0.000 C 
ENDROOT
BRANCH   1   2
ATOM      2  C   UNL     1      12.901  -9.382  -3.672  1.00  0.00     0.000 C 
BRANCH   2   3
ATOM      3  C   UNL     1      12.541  -7.888  -3.702  1.00  0.00     0.000 C 
BRANCH   3   4
ATOM      4  C   UNL     1      13.429  -7.044  -2.772  1.00  0.00    -0.000 C 
BRANCH   4   5
ATOM      5  C   UNL     1      14.426  -7.898  -1.968  1.00  0.00    -0.000 C 
BRANCH   5   6
ATOM      6  C   UNL     1      14.201  -7.891  -0.443  1.00  0.00    -0.000 C 
BRANCH   6   7
ATOM      7  C   UNL     1      12.956  -8.662   0.042  1.00  0.00    -0.000 C 
BRANCH   7   8
ATOM      8  C   UNL     1      13.246  -9.880   0.937  1.00  0.00    -0.000 C 
BRANCH   8   9
ATOM      9  C   UNL     1      12.092 -10.199   1.903  1.00  0.00    -0.000 C 
BRANCH   9  10
ATOM     10  C   UNL     1      11.585  -8.959   2.661  1.00  0.00    -0.000 C 
BRANCH  10  11
ATOM     11  C   UNL     1      12.468  -8.507   3.838  1.00  0.00    -0.003 C 
ATOM     12  C   UNL     1      12.882  -9.659   4.753  1.00  0.00     0.004 C 
ENDBRANCH  10  11
ENDBRANCH   9  10
ENDBRANCH   8   9
ENDBRANCH   7   8
ENDBRANCH   6   7
ENDBRANCH   5   6
ENDBRANCH   4   5
ENDBRANCH   3   4
ENDBRANCH   2   3
ENDBRANCH   1   2
BRANCH   1  13
ATOM     13  C   UNL     1      11.491  -9.332  -5.806  1.00  0.00     0.000 C 
BRANCH  13  14
ATOM     14  C   UNL     1      12.154  -9.569  -7.174  1.00  0.00     0.000 C 
BRANCH  14  15
ATOM     15  C   UNL     1      11.196 -10.212  -8.191  1.00  0.00     0.000 C 
BRANCH  15  16
ATOM     16  C   UNL     1       9.726  -9.848  -7.929  1.00  0.00     0.000 C 
BRANCH  16  17
ATOM     17  C   UNL     1       8.855 -11.075  -7.608  1.00  0.00     0.000 C 
BRANCH  17  18
ATOM     18  C   UNL     1       9.657 -12.388  -7.485  1.00  0.00     0.000 C 
BRANCH  18  19
ATOM     19  C   UNL     1       8.741 -13.621  -7.394  1.00  0.00     0.000 C 
BRANCH  19  20
ATOM     20  C   UNL     1       7.707 -13.678  -8.529  1.00  0.00     0.006 C 
BRANCH  20  21
ATOM     21  C   UNL     1       7.006 -15.039  -8.622  1.00  0.00     0.053 C 
BRANCH  21  22
ATOM     22  C   UNL     1       5.766 -15.046  -7.786  1.00  0.00     0.041 C 
ATOM     23  O   UNL     1       5.691 -15.787  -6.771  1.00  0.00    -0.550 OA
ATOM     24  O   UNL     1       4.711 -14.197  -8.097  1.00  0.00    -0.550 OA
ENDBRANCH  21  22
ENDBRANCH  20  21
ENDBRANCH  19  20
ENDBRANCH  18  19
ENDBRANCH  17  18
ENDBRANCH  16  17
ENDBRANCH  15  16
ENDBRANCH  14  15
ENDBRANCH  13  14
ENDBRANCH   1  13
TORSDOF 20
ENDMDL
MODEL 3
REMARK VINA RESULT:    -5.598      4.779     10.620
REMARK INTER + INTRA:         -13.320
REMARK INTER:                 -11.949
REMARK INTRA:                  -1.371
REMARK UNBOUND:                -1.176
REMARK SMILES CCCCCCCCCCCCCCCCCCCCCC(=O)[O-]
REMARK SMILES IDX 12 1 11 2 10 3 9 4 8 5 7 6 6 7 5 8 4 9 3 10 2 11 1 12 13 13
REMARK SMILES IDX 14 14 15 15 16 16 17 17 18 18 19 19 20 20 21 21 22 22 23 23
REMARK SMILES IDX 24 24
REMARK H PARENT
REMARK Flexibility Score: inf
ROOT
ATOM      1  C   UNL     1       5.645 -16.096   3.571  1.00  0.00     0.000 C 
ENDROOT
BRANCH   1   2
ATOM      2  C   UNL     1       6.925 -16.492   4.328  1.00  0.00     0.000 C 
BRANCH   2   3
ATOM      3  C   UNL     1       7.627 -15.283   4.969  1.00  0.00     0.000 C 
BRANCH   3   4
ATOM      4  C   UNL     1       7.708 -15.390   6.502  1.00  0.00    -0.000 C 
BRANCH   4   5
ATOM      5  C   UNL     1       8.292 -14.123   7.155  1.00  0.00    -0.000 C 
BRANCH   5   6
ATOM      6  C   UNL     1       8.105 -12.829   6.338  1.00  0.00    -0.000 C 
BRANCH   6   7
ATOM      7  C   UNL     1       9.411 -12.121   5.921  1.00  0.00    -0.000 C 
BRANCH   7   8
ATOM      8  C   UNL     1      10.013 -12.590   4.584  1.00  0.00    -0.000 C 
BRANCH   8   9
ATOM      9  C   UNL     1      11.376 -11.945   4.285  1.00  0.00    -0.000 C 
BRANCH   9  10
ATOM     10  C   UNL     1      11.436 -10.458   4.681  1.00  0.00    -0.000 C 
BRANCH  10  11
ATOM     11  C   UNL     1      12.788  -9.989   5.248  1.00  0.00    -0.003 C 
ATOM     12  C   UNL     1      13.953 -10.209   4.283  1.00  0.00     0.004 C 
ENDBRANCH  10  11
ENDBRANCH   9  10
ENDBRANCH   8   9
ENDBRANCH   7   8
ENDBRANCH   6   7
ENDBRANCH   5   6
ENDBRANCH   4   5
ENDBRANCH   3   4
ENDBRANCH   2   3
ENDBRANCH   1   2
BRANCH   1  13
ATOM     13  C   UNL     1       4.380 -16.245   4.432  1.00  0.00     0.000 C 
BRANCH  13  14
ATOM     14  C   UNL     1       3.442 -17.350   3.916  1.00  0.00     0.000 C 
BRANCH  14  15
ATOM     15  C   UNL     1       4.177 -18.677   3.663  1.00  0.00     0.000 C 
BRANCH  15  16
ATOM     16  C   UNL     1       3.794 -19.318   2.319  1.00  0.00     0.000 C 
BRANCH  16  17
ATOM     17  C   UNL     1       3.541 -18.279   1.212  1.00  0.00     0.000 C 
BRANCH  17  18
ATOM     18  C   UNL     1       4.526 -18.385   0.029  1.00  0.00     0.000 C 
BRANCH  18  19
ATOM     19  C   UNL     1       4.120 -17.478  -1.146  1.00  0.00     0.000 C 
BRANCH  19  20
ATOM     20  C   UNL     1       2.700 -17.766  -1.656  1.00  0.00     0.006 C 
BRANCH  20  21
ATOM     21  C   UNL     1       2.557 -17.539  -3.166  1.00  0.00     0.053 C 
BRANCH  21  22
ATOM     22  C   UNL     1       3.379 -18.532  -3.924  1.00  0.00     0.041 C 
ATOM     23  O   UNL     1       3.179 -19.767  -3.773  1.00  0.00    -0.550 OA
ATOM     24  O   UNL     1       4.333 -18.097  -4.835  1.00  0.00    -0.550 OA
ENDBRANCH  21  22
ENDBRANCH  20  21
ENDBRANCH  19  20
ENDBRANCH  18  19
ENDBRANCH  17  18
ENDBRANCH  16  17
ENDBRANCH  15  16
ENDBRANCH  14  15
ENDBRANCH  13  14
ENDBRANCH   1  13
TORSDOF 20
ENDMDL
MODEL 4
REMARK VINA RESULT:    -5.589      6.679     11.553
REMARK INTER + INTRA:         -13.300
REMARK INTER:                 -12.128
REMARK INTRA:                  -1.172
REMARK UNBOUND:                -1.176
REMARK SMILES CCCCCCCCCCCCCCCCCCCCCC(=O)[O-]
REMARK SMILES IDX 12 1 11 2 10 3 9 4 8 5 7 6 6 7 5 8 4 9 3 10 2 11 1 12 13 13
REMARK SMILES IDX 14 14 15 15 16 16 17 17 18 18 19 19 20 20 21 21 22 22 23 23
REMARK SMILES IDX 24 24
REMARK H PARENT
REMARK Flexibility Score: inf
ROOT
ATOM      1  C   UNL     1       4.415 -18.597   0.994  1.00  0.00     0.000 C 
ENDROOT
BRANCH   1   2
ATOM      2  C   UNL     1       3.627 -17.726  -0.000  1.00  0.00     0.000 C 
BRANCH   2   3
ATOM      3  C   UNL     1       4.025 -17.993  -1.461  1.00  0.00     0.000 C 
BRANCH   3   4
ATOM      4  C   UNL     1       2.828 -17.918  -2.425  1.00  0.00    -0.000 C 
BRANCH   4   5
ATOM      5  C   UNL     1       3.095 -18.638  -3.760  1.00  0.00    -0.000 C 
BRANCH   5   6
ATOM      6  C   UNL     1       4.269 -18.067  -4.579  1.00  0.00    -0.000 C 
BRANCH   6   7
ATOM      7  C   UNL     1       4.196 -16.553  -4.866  1.00  0.00    -0.000 C 
BRANCH   7   8
ATOM      8  C   UNL     1       4.942 -16.087  -6.128  1.00  0.00    -0.000 C 
BRANCH   8   9
ATOM      9  C   UNL     1       6.461 -15.974  -5.916  1.00  0.00    -0.000 C 
BRANCH   9  10
ATOM     10  C   UNL     1       7.273 -16.435  -7.140  1.00  0.00    -0.000 C 
BRANCH  10  11
ATOM     11  C   UNL     1       6.779 -15.890  -8.493  1.00  0.00    -0.003 C 
ATOM     12  C   UNL     1       7.174 -14.433  -8.734  1.00  0.00     0.004 C 
ENDBRANCH  10  11
ENDBRANCH   9  10
ENDBRANCH   8   9
ENDBRANCH   7   8
ENDBRANCH   6   7
ENDBRANCH   5   6
ENDBRANCH   4   5
ENDBRANCH   3   4
ENDBRANCH   2   3
ENDBRANCH   1   2
BRANCH   1  13
ATOM     13  C   UNL     1       3.528 -19.168   2.112  1.00  0.00     0.000 C 
BRANCH  13  14
ATOM     14  C   UNL     1       3.965 -18.698   3.510  1.00  0.00     0.000 C 
BRANCH  14  15
ATOM     15  C   UNL     1       3.499 -17.266   3.823  1.00  0.00     0.000 C 
BRANCH  15  16
ATOM     16  C   UNL     1       4.644 -16.367   4.317  1.00  0.00     0.000 C 
BRANCH  16  17
ATOM     17  C   UNL     1       5.956 -16.592   3.546  1.00  0.00     0.000 C 
BRANCH  17  18
ATOM     18  C   UNL     1       7.210 -16.587   4.445  1.00  0.00     0.000 C 
BRANCH  18  19
ATOM     19  C   UNL     1       7.437 -15.221   5.117  1.00  0.00     0.000 C 
BRANCH  19  20
ATOM     20  C   UNL     1       7.694 -15.337   6.627  1.00  0.00     0.006 C 
BRANCH  20  21
ATOM     21  C   UNL     1       8.766 -14.358   7.121  1.00  0.00     0.053 C 
BRANCH  21  22
ATOM     22  C   UNL     1       8.469 -12.973   6.641  1.00  0.00     0.041 C 
ATOM     23  O   UNL     1       7.453 -12.360   7.063  1.00  0.00    -0.550 OA
ATOM     24  O   UNL     1       9.341 -12.337   5.766  1.00  0.00    -0.550 OA
ENDBRANCH  21  22
ENDBRANCH  20  21
ENDBRANCH  19  20
ENDBRANCH  18  19
ENDBRANCH  17  18
ENDBRANCH  16  17
ENDBRANCH  15  16
ENDBRANCH  14  15
ENDBRANCH  13  14
ENDBRANCH   1  13
TORSDOF 20
ENDMDL
MODEL 5
REMARK VINA RESULT:    -5.578      6.707     10.272
REMARK INTER + INTRA:         -13.276
REMARK INTER:                 -11.702
REMARK INTRA:                  -1.574
REMARK UNBOUND:                -1.176
REMARK SMILES CCCCCCCCCCCCCCCCCCCCCC(=O)[O-]
REMARK SMILES IDX 12 1 11 2 10 3 9 4 8 5 7 6 6 7 5 8 4 9 3 10 2 11 1 12 13 13
REMARK SMILES IDX 14 14 15 15 16 16 17 17 18 18 19 19 20 20 21 21 22 22 23 23
REMARK SMILES IDX 24 24
REMARK H PARENT
REMARK Flexibility Score: inf
ROOT
ATOM      1  C   UNL     1       4.094 -17.431  -1.110  1.00  0.00     0.000 C 
ENDROOT
BRANCH   1   2
ATOM      2  C   UNL     1       4.382 -17.050   0.353  1.00  0.00     0.000 C 
BRANCH   2   3
ATOM      3  C   UNL     1       4.907 -18.237   1.177  1.00  0.00     0.000 C 
BRANCH   3   4
ATOM      4  C   UNL     1       3.806 -18.910   2.015  1.00  0.00    -0.000 C 
BRANCH   4   5
ATOM      5  C   UNL     1       3.917 -18.583   3.515  1.00  0.00    -0.000 C 
BRANCH   5   6
ATOM      6  C   UNL     1       3.252 -17.259   3.939  1.00  0.00    -0.000 C 
BRANCH   6   7
ATOM      7  C   UNL     1       4.214 -16.066   4.113  1.00  0.00    -0.000 C 
BRANCH   7   8
ATOM      8  C   UNL     1       5.556 -16.399   4.790  1.00  0.00    -0.000 C 
BRANCH   8   9
ATOM      9  C   UNL     1       6.769 -15.898   3.990  1.00  0.00    -0.000 C 
BRANCH   9  10
ATOM     10  C   UNL     1       7.984 -15.577   4.880  1.00  0.00    -0.000 C 
BRANCH  10  11
ATOM     11  C   UNL     1       7.651 -14.867   6.205  1.00  0.00    -0.003 C 
ATOM     12  C   UNL     1       8.783 -14.945   7.228  1.00  0.00     0.004 C 
ENDBRANCH  10  11
ENDBRANCH   9  10
ENDBRANCH   8   9
ENDBRANCH   7   8
ENDBRANCH   6   7
ENDBRANCH   5   6
ENDBRANCH   4   5
ENDBRANCH   3   4
ENDBRANCH   2   3
ENDBRANCH   1   2
BRANCH   1  13
ATOM     13  C   UNL     1       2.763 -16.856  -1.619  1.00  0.00     0.000 C 
BRANCH  13  14
ATOM     14  C   UNL     1       2.104 -17.749  -2.686  1.00  0.00     0.000 C 
BRANCH  14  15
ATOM     15  C   UNL     1       3.036 -18.869  -3.175  1.00  0.00     0.000 C 
BRANCH  15  16
ATOM     16  C   UNL     1       3.470 -18.680  -4.638  1.00  0.00     0.000 C 
BRANCH  16  17
ATOM     17  C   UNL     1       4.641 -17.694  -4.791  1.00  0.00     0.000 C 
BRANCH  17  18
ATOM     18  C   UNL     1       4.356 -16.545  -5.781  1.00  0.00     0.000 C 
BRANCH  18  19
ATOM     19  C   UNL     1       5.549 -15.581  -5.909  1.00  0.00     0.000 C 
BRANCH  19  20
ATOM     20  C   UNL     1       5.224 -14.344  -6.761  1.00  0.00     0.006 C 
BRANCH  20  21
ATOM     21  C   UNL     1       5.249 -14.641  -8.265  1.00  0.00     0.053 C 
BRANCH  21  22
ATOM     22  C   UNL     1       6.629 -15.020  -8.700  1.00  0.00     0.041 C 
ATOM     23  O   UNL     1       6.886 -16.210  -9.023  1.00  0.00    -0.550 OA
ATOM     24  O   UNL     1       7.620 -14.052  -8.799  1.00  0.00    -0.550 OA
ENDBRANCH  21  22
ENDBRANCH  20  21
ENDBRANCH  19  20
ENDBRANCH  18  19
ENDBRANCH  17  18
ENDBRANCH  16  17
ENDBRANCH  15  16
ENDBRANCH  14  15
ENDBRANCH  13  14
ENDBRANCH   1  13
TORSDOF 20
ENDMDL
MODEL 6
REMARK VINA RESULT:    -5.571      8.064     14.281
REMARK INTER + INTRA:         -13.260
REMARK INTER:                 -11.805
REMARK INTRA:                  -1.455
REMARK UNBOUND:                -1.176
REMARK SMILES CCCCCCCCCCCCCCCCCCCCCC(=O)[O-]
REMARK SMILES IDX 12 1 11 2 10 3 9 4 8 5 7 6 6 7 5 8 4 9 3 10 2 11 1 12 13 13
REMARK SMILES IDX 14 14 15 15 16 16 17 17 18 18 19 19 20 20 21 21 22 22 23 23
REMARK SMILES IDX 24 24
REMARK H PARENT
REMARK Flexibility Score: inf
ROOT
ATOM      1  C   UNL     1       5.154 -16.263  -4.698  1.00  0.00     0.000 C 
ENDROOT
BRANCH   1   2
ATOM      2  C   UNL     1       5.388 -16.035  -6.202  1.00  0.00     0.000 C 
BRANCH   2   3
ATOM      3  C   UNL     1       4.488 -14.929  -6.777  1.00  0.00     0.000 C 
BRANCH   3   4
ATOM      4  C   UNL     1       5.084 -14.273  -8.034  1.00  0.00    -0.000 C 
BRANCH   4   5
ATOM      5  C   UNL     1       6.333 -15.010  -8.552  1.00  0.00    -0.000 C 
BRANCH   5   6
ATOM      6  C   UNL     1       7.610 -14.149  -8.620  1.00  0.00    -0.000 C 
BRANCH   6   7
ATOM      7  C   UNL     1       8.435 -14.094  -7.318  1.00  0.00    -0.000 C 
BRANCH   7   8
ATOM      8  C   UNL     1       8.713 -12.680  -6.777  1.00  0.00    -0.000 C 
BRANCH   8   9
ATOM      9  C   UNL     1       8.629 -11.597  -7.865  1.00  0.00    -0.000 C 
BRANCH   9  10
ATOM     10  C   UNL     1       9.176 -10.236  -7.399  1.00  0.00    -0.000 C 
BRANCH  10  11
ATOM     11  C   UNL     1      10.271  -9.632  -8.296  1.00  0.00    -0.003 C 
ATOM     12  C   UNL     1      11.659 -10.211  -8.021  1.00  0.00     0.004 C 
ENDBRANCH  10  11
ENDBRANCH   9  10
ENDBRANCH   8   9
ENDBRANCH   7   8
ENDBRANCH   6   7
ENDBRANCH   5   6
ENDBRANCH   4   5
ENDBRANCH   3   4
ENDBRANCH   2   3
ENDBRANCH   1   2
BRANCH   1  13
ATOM     13  C   UNL     1       5.040 -17.753  -4.337  1.00  0.00     0.000 C 
BRANCH  13  14
ATOM     14  C   UNL     1       3.675 -18.351  -4.721  1.00  0.00     0.000 C 
BRANCH  14  15
ATOM     15  C   UNL     1       2.868 -18.814  -3.497  1.00  0.00     0.000 C 
BRANCH  15  16
ATOM     16  C   UNL     1       2.349 -17.639  -2.653  1.00  0.00     0.000 C 
BRANCH  16  17
ATOM     17  C   UNL     1       2.597 -17.829  -1.147  1.00  0.00     0.000 C 
BRANCH  17  18
ATOM     18  C   UNL     1       4.076 -17.662  -0.738  1.00  0.00     0.000 C 
BRANCH  18  19
ATOM     19  C   UNL     1       4.453 -18.561   0.453  1.00  0.00     0.000 C 
BRANCH  19  20
ATOM     20  C   UNL     1       3.570 -18.316   1.685  1.00  0.00     0.006 C 
BRANCH  20  21
ATOM     21  C   UNL     1       4.329 -18.510   3.004  1.00  0.00     0.053 C 
BRANCH  21  22
ATOM     22  C   UNL     1       4.139 -17.323   3.895  1.00  0.00     0.041 C 
ATOM     23  O   UNL     1       2.999 -17.055   4.358  1.00  0.00    -0.550 OA
ATOM     24  O   UNL     1       5.230 -16.542   4.256  1.00  0.00    -0.550 OA
ENDBRANCH  21  22
ENDBRANCH  20  21
ENDBRANCH  19  20
ENDBRANCH  18  19
ENDBRANCH  17  18
ENDBRANCH  16  17
ENDBRANCH  15  16
ENDBRANCH  14  15
ENDBRANCH  13  14
ENDBRANCH   1  13
TORSDOF 20
ENDMDL
MODEL 7
REMARK VINA RESULT:    -5.550      3.263      6.429
REMARK INTER + INTRA:         -13.215
REMARK INTER:                 -11.905
REMARK INTRA:                  -1.310
REMARK UNBOUND:                -1.176
REMARK SMILES CCCCCCCCCCCCCCCCCCCCCC(=O)[O-]
REMARK SMILES IDX 12 1 11 2 10 3 9 4 8 5 7 6 6 7 5 8 4 9 3 10 2 11 1 12 13 13
REMARK SMILES IDX 14 14 15 15 16 16 17 17 18 18 19 19 20 20 21 21 22 22 23 23
REMARK SMILES IDX 24 24
REMARK H PARENT
REMARK Flexibility Score: inf
ROOT
ATOM      1  C   UNL     1      12.953  -8.510  -0.069  1.00  0.00     0.000 C 
ENDROOT
BRANCH   1   2
ATOM      2  C   UNL     1      12.898  -9.051   1.370  1.00  0.00     0.000 C 
BRANCH   2   3
ATOM      3  C   UNL     1      12.100  -8.136   2.313  1.00  0.00     0.000 C 
BRANCH   3   4
ATOM      4  C   UNL     1      12.421  -8.389   3.797  1.00  0.00    -0.000 C 
BRANCH   4   5
ATOM      5  C   UNL     1      13.149  -9.726   4.027  1.00  0.00    -0.000 C 
BRANCH   5   6
ATOM      6  C   UNL     1      12.911 -10.363   5.411  1.00  0.00    -0.000 C 
BRANCH   6   7
ATOM      7  C   UNL     1      11.538 -11.042   5.594  1.00  0.00    -0.000 C 
BRANCH   7   8
ATOM      8  C   UNL     1      10.984 -11.749   4.344  1.00  0.00    -0.000 C 
BRANCH   8   9
ATOM      9  C   UNL     1       9.958 -12.844   4.682  1.00  0.00    -0.000 C 
BRANCH   9  10
ATOM     10  C   UNL     1       9.065 -12.478   5.882  1.00  0.00    -0.000 C 
BRANCH  10  11
ATOM     11  C   UNL     1       8.531 -13.678   6.686  1.00  0.00    -0.003 C 
ATOM     12  C   UNL     1       9.533 -14.827   6.785  1.00  0.00     0.004 C 
ENDBRANCH  10  11
ENDBRANCH   9  10
ENDBRANCH   8   9
ENDBRANCH   7   8
ENDBRANCH   6   7
ENDBRANCH   5   6
ENDBRANCH   4   5
ENDBRANCH   3   4
ENDBRANCH   2   3
ENDBRANCH   1   2
BRANCH   1  13
ATOM     13  C   UNL     1      14.374  -8.112  -0.498  1.00  0.00     0.000 C 
BRANCH  13  14
ATOM     14  C   UNL     1      14.458  -7.729  -1.986  1.00  0.00     0.000 C 
BRANCH  14  15
ATOM     15  C   UNL     1      13.162  -7.081  -2.501  1.00  0.00     0.000 C 
BRANCH  15  16
ATOM     16  C   UNL     1      12.535  -7.862  -3.668  1.00  0.00     0.000 C 
BRANCH  16  17
ATOM     17  C   UNL     1      13.042  -9.312  -3.758  1.00  0.00     0.000 C 
BRANCH  17  18
ATOM     18  C   UNL     1      12.245 -10.185  -4.749  1.00  0.00     0.000 C 
BRANCH  18  19
ATOM     19  C   UNL     1      11.510  -9.341  -5.805  1.00  0.00     0.000 C 
BRANCH  19  20
ATOM     20  C   UNL     1      12.227  -9.332  -7.163  1.00  0.00     0.006 C 
BRANCH  20  21
ATOM     21  C   UNL     1      11.586 -10.289  -8.176  1.00  0.00     0.053 C 
BRANCH  21  22
ATOM     22  C   UNL     1      10.094 -10.230  -8.078  1.00  0.00     0.041 C 
ATOM     23  O   UNL     1       9.450 -11.214  -7.625  1.00  0.00    -0.550 OA
ATOM     24  O   UNL     1       9.418  -9.072  -8.437  1.00  0.00    -0.550 OA
ENDBRANCH  21  22
ENDBRANCH  20  21
ENDBRANCH  19  20
ENDBRANCH  18  19
ENDBRANCH  17  18
ENDBRANCH  16  17
ENDBRANCH  15  16
ENDBRANCH  14  15
ENDBRANCH  13  14
ENDBRANCH   1  13
TORSDOF 20
ENDMDL
MODEL 8
REMARK VINA RESULT:    -5.542      3.786      6.934
REMARK INTER + INTRA:         -13.197
REMARK INTER:                 -11.608
REMARK INTRA:                  -1.589
REMARK UNBOUND:                -1.176
REMARK SMILES CCCCCCCCCCCCCCCCCCCCCC(=O)[O-]
REMARK SMILES IDX 12 1 11 2 10 3 9 4 8 5 7 6 6 7 5 8 4 9 3 10 2 11 1 12 13 13
REMARK SMILES IDX 14 14 15 15 16 16 17 17 18 18 19 19 20 20 21 21 22 22 23 23
REMARK SMILES IDX 24 24
REMARK H PARENT
REMARK Flexibility Score: inf
ROOT
ATOM      1  C   UNL     1       6.986 -16.427   3.787  1.00  0.00     0.000 C 
ENDROOT
BRANCH   1   2
ATOM      2  C   UNL     1       5.624 -15.726   3.636  1.00  0.00     0.000 C 
BRANCH   2   3
ATOM      3  C   UNL     1       4.552 -16.316   4.568  1.00  0.00     0.000 C 
BRANCH   3   4
ATOM      4  C   UNL     1       3.459 -17.084   3.804  1.00  0.00    -0.000 C 
BRANCH   4   5
ATOM      5  C   UNL     1       3.843 -18.550   3.534  1.00  0.00    -0.000 C 
BRANCH   5   6
ATOM      6  C   UNL     1       3.645 -19.013   2.077  1.00  0.00    -0.000 C 
BRANCH   6   7
ATOM      7  C   UNL     1       3.812 -17.912   1.009  1.00  0.00    -0.000 C 
BRANCH   7   8
ATOM      8  C   UNL     1       4.788 -18.248  -0.133  1.00  0.00    -0.000 C 
BRANCH   8   9
ATOM      9  C   UNL     1       4.344 -17.672  -1.487  1.00  0.00    -0.000 C 
BRANCH   9  10
ATOM     10  C   UNL     1       2.840 -17.345  -1.536  1.00  0.00    -0.000 C 
BRANCH  10  11
ATOM     11  C   UNL     1       2.060 -18.030  -2.673  1.00  0.00    -0.003 C 
ATOM     12  C   UNL     1       2.968 -18.717  -3.693  1.00  0.00     0.004 C 
ENDBRANCH  10  11
ENDBRANCH   9  10
ENDBRANCH   8   9
ENDBRANCH   7   8
ENDBRANCH   6   7
ENDBRANCH   5   6
ENDBRANCH   4   5
ENDBRANCH   3   4
ENDBRANCH   2   3
ENDBRANCH   1   2
BRANCH   1  13
ATOM     13  C   UNL     1       8.003 -15.580   4.568  1.00  0.00     0.000 C 
BRANCH  13  14
ATOM     14  C   UNL     1       7.703 -15.540   6.077  1.00  0.00     0.000 C 
BRANCH  14  15
ATOM     15  C   UNL     1       8.626 -14.574   6.837  1.00  0.00     0.000 C 
BRANCH  15  16
ATOM     16  C   UNL     1       8.055 -13.149   6.915  1.00  0.00     0.000 C 
BRANCH  16  17
ATOM     17  C   UNL     1       9.009 -12.089   6.339  1.00  0.00     0.000 C 
BRANCH  17  18
ATOM     18  C   UNL     1       8.863 -11.889   4.815  1.00  0.00     0.000 C 
BRANCH  18  19
ATOM     19  C   UNL     1      10.180 -11.433   4.162  1.00  0.00     0.000 C 
BRANCH  19  20
ATOM     20  C   UNL     1      11.419 -11.856   4.966  1.00  0.00     0.006 C 
BRANCH  20  21
ATOM     21  C   UNL     1      12.178 -10.659   5.554  1.00  0.00     0.053 C 
BRANCH  21  22
ATOM     22  C   UNL     1      12.787  -9.839   4.461  1.00  0.00     0.041 C 
ATOM     23  O   UNL     1      12.527  -8.610   4.372  1.00  0.00    -0.550 OA
ATOM     24  O   UNL     1      13.682 -10.419   3.571  1.00  0.00    -0.550 OA
ENDBRANCH  21  22
ENDBRANCH  20  21
ENDBRANCH  19  20
ENDBRANCH  18  19
ENDBRANCH  17  18
ENDBRANCH  16  17
ENDBRANCH  15  16
ENDBRANCH  14  15
ENDBRANCH  13  14
ENDBRANCH   1  13
TORSDOF 20
ENDMDL
MODEL 9
REMARK VINA RESULT:    -5.510      4.266      8.041
REMARK INTER + INTRA:         -13.128
REMARK INTER:                 -11.807
REMARK INTRA:                  -1.321
REMARK UNBOUND:                -1.176
REMARK SMILES CCCCCCCCCCCCCCCCCCCCCC(=O)[O-]
REMARK SMILES IDX 12 1 11 2 10 3 9 4 8 5 7 6 6 7 5 8 4 9 3 10 2 11 1 12 13 13
REMARK SMILES IDX 14 14 15 15 16 16 17 17 18 18 19 19 20 20 21 21 22 22 23 23
REMARK SMILES IDX 24 24
REMARK H PARENT
REMARK Flexibility Score: inf
ROOT
ATOM      1  C   UNL     1       4.483 -16.187   4.653  1.00  0.00     0.000 C 
ENDROOT
BRANCH   1   2
ATOM      2  C   UNL     1       3.546 -17.010   3.752  1.00  0.00     0.000 C 
BRANCH   2   3
ATOM      3  C   UNL     1       3.967 -18.485   3.656  1.00  0.00     0.000 C 
BRANCH   3   4
ATOM      4  C   UNL     1       3.839 -19.047   2.229  1.00  0.00    -0.000 C 
BRANCH   4   5
ATOM      5  C   UNL     1       4.657 -18.246   1.200  1.00  0.00    -0.000 C 
BRANCH   5   6
ATOM      6  C   UNL     1       3.818 -17.401   0.222  1.00  0.00    -0.000 C 
BRANCH   6   7
ATOM      7  C   UNL     1       3.728 -17.956  -1.215  1.00  0.00    -0.000 C 
BRANCH   7   8
ATOM      8  C   UNL     1       4.729 -19.075  -1.550  1.00  0.00    -0.000 C 
BRANCH   8   9
ATOM      9  C   UNL     1       4.681 -19.497  -3.028  1.00  0.00    -0.000 C 
BRANCH   9  10
ATOM     10  C   UNL     1       3.346 -19.145  -3.709  1.00  0.00    -0.000 C 
BRANCH  10  11
ATOM     11  C   UNL     1       3.467 -18.253  -4.957  1.00  0.00    -0.003 C 
ATOM     12  C   UNL     1       4.723 -17.382  -4.952  1.00  0.00     0.004 C 
ENDBRANCH  10  11
ENDBRANCH   9  10
ENDBRANCH   8   9
ENDBRANCH   7   8
ENDBRANCH   6   7
ENDBRANCH   5   6
ENDBRANCH   4   5
ENDBRANCH   3   4
ENDBRANCH   2   3
ENDBRANCH   1   2
BRANCH   1  13
ATOM     13  C   UNL     1       5.968 -16.415   4.328  1.00  0.00     0.000 C 
BRANCH  13  14
ATOM     14  C   UNL     1       6.868 -15.280   4.846  1.00  0.00     0.000 C 
BRANCH  14  15
ATOM     15  C   UNL     1       7.522 -15.616   6.197  1.00  0.00     0.000 C 
BRANCH  15  16
ATOM     16  C   UNL     1       8.586 -14.586   6.610  1.00  0.00     0.000 C 
BRANCH  16  17
ATOM     17  C   UNL     1       8.012 -13.170   6.784  1.00  0.00     0.000 C 
BRANCH  17  18
ATOM     18  C   UNL     1       8.674 -12.117   5.870  1.00  0.00     0.000 C 
BRANCH  18  19
ATOM     19  C   UNL     1      10.022 -12.603   5.309  1.00  0.00     0.000 C 
BRANCH  19  20
ATOM     20  C   UNL     1      11.055 -11.472   5.181  1.00  0.00     0.006 C 
BRANCH  20  21
ATOM     21  C   UNL     1      10.963 -10.739   3.837  1.00  0.00     0.053 C 
BRANCH  21  22
ATOM     22  C   UNL     1      11.407  -9.318   3.986  1.00  0.00     0.041 C 
ATOM     23  O   UNL     1      10.635  -8.377   3.662  1.00  0.00    -0.550 OA
ATOM     24  O   UNL     1      12.652  -9.030   4.530  1.00  0.00    -0.550 OA
ENDBRANCH  21  22
ENDBRANCH  20  21
ENDBRANCH  19  20
ENDBRANCH  18  19
ENDBRANCH  17  18
ENDBRANCH  16  17
ENDBRANCH  15  16
ENDBRANCH  14  15
ENDBRANCH  13  14
ENDBRANCH   1  13
TORSDOF 20
ENDMDL
