MODEL 1
REMARK VINA RESULT:    -5.880      0.000      0.000
REMARK INTER + INTRA:          -7.041
REMARK INTER:                  -6.911
REMARK INTRA:                  -0.130
REMARK UNBOUND:                -0.130
REMARK SMILES O=C([O-])C=Cc1ccc(O)c(O)c1
REMARK SMILES IDX 6 1 13 2 7 3 11 4 8 5 9 6 5 7 4 8 2 9 1 10 3 11 12 12 10 14
REMARK H PARENT 12 13 10 15
REMARK Flexibility Score: inf
ROOT
ATOM      1  C   UNL     1       8.184  28.139  -1.066  1.00  0.00    -0.022 A 
ATOM      2  C   UNL     1       8.580  27.566  -2.285  1.00  0.00     0.058 A 
ATOM      3  C   UNL     1       9.155  28.347  -0.068  1.00  0.00     0.012 A 
ATOM      4  C   UNL     1       9.918  27.229  -2.528  1.00  0.00     0.157 A 
ATOM      5  C   UNL     1      10.491  28.014  -0.302  1.00  0.00     0.051 A 
ATOM      6  C   UNL     1      10.886  27.459  -1.524  1.00  0.00     0.157 A 
ENDROOT
BRANCH   1   7
ATOM      7  C   UNL     1       6.751  28.464  -0.865  1.00  0.00     0.010 C 
ATOM      8  C   UNL     1       5.743  27.705  -1.319  1.00  0.00     0.025 C 
BRANCH   8   9
ATOM      9  C   UNL     1       4.335  28.060  -1.086  1.00  0.00     0.064 C 
ATOM     10  O   UNL     1       3.874  28.037   0.085  1.00  0.00    -0.545 OA
ATOM     11  O   UNL     1       3.502  28.422  -2.139  1.00  0.00    -0.545 OA
ENDBRANCH   8   9
ENDBRANCH   1   7
BRANCH   4  12
ATOM     12  O   UNL     1      10.235  26.672  -3.768  1.00  0.00    -0.504 OA
ATOM     13  H   UNL     1      10.251  27.193  -4.633  1.00  0.00     0.293 HD
ENDBRANCH   4  12
BRANCH   6  14
ATOM     14  O   UNL     1      12.238  27.152  -1.693  1.00  0.00    -0.504 OA
ATOM     15  H   UNL     1      12.993  27.676  -1.276  1.00  0.00     0.293 HD
ENDBRANCH   6  14
TORSDOF 4
ENDMDL
MODEL 2
REMARK VINA RESULT:    -5.790     11.090     13.051
REMARK INTER + INTRA:          -6.936
REMARK INTER:                  -6.804
REMARK INTRA:                  -0.132
REMARK UNBOUND:                -0.130
REMARK SMILES O=C([O-])C=Cc1ccc(O)c(O)c1
REMARK SMILES IDX 6 1 13 2 7 3 11 4 8 5 9 6 5 7 4 8 2 9 1 10 3 11 12 12 10 14
REMARK H PARENT 12 13 10 15
REMARK Flexibility Score: inf
ROOT
ATOM      1  C   UNL     1       3.007  36.731   5.035  1.00  0.00    -0.022 A 
ATOM      2  C   UNL     1       2.698  37.203   6.320  1.00  0.00     0.058 A 
ATOM      3  C   UNL     1       3.672  37.590   4.139  1.00  0.00     0.012 A 
ATOM      4  C   UNL     1       3.062  38.494   6.726  1.00  0.00     0.157 A 
ATOM      5  C   UNL     1       4.039  38.877   4.536  1.00  0.00     0.051 A 
ATOM      6  C   UNL     1       3.745  39.340   5.822  1.00  0.00     0.157 A 
ENDROOT
BRANCH   1   7
ATOM      7  C   UNL     1       2.585  35.359   4.660  1.00  0.00     0.010 C 
ATOM      8  C   UNL     1       1.593  34.693   5.268  1.00  0.00     0.025 C 
BRANCH   8   9
ATOM      9  C   UNL     1       1.200  33.336   4.854  1.00  0.00     0.064 C 
ATOM     10  O   UNL     1       1.916  32.355   5.181  1.00  0.00    -0.545 OA
ATOM     11  O   UNL     1       0.047  33.121   4.106  1.00  0.00    -0.545 OA
ENDBRANCH   8   9
ENDBRANCH   1   7
BRANCH   4  12
ATOM     12  O   UNL     1       2.727  38.888   8.023  1.00  0.00    -0.504 OA
ATOM     13  H   UNL     1       2.813  38.292   8.834  1.00  0.00     0.293 HD
ENDBRANCH   4  12
BRANCH   6  14
ATOM     14  O   UNL     1       4.143  40.637   6.156  1.00  0.00    -0.504 OA
ATOM     15  H   UNL     1       5.099  40.906   6.334  1.00  0.00     0.293 HD
ENDBRANCH   6  14
TORSDOF 4
ENDMDL
MODEL 3
REMARK VINA RESULT:    -5.766     10.770     12.730
REMARK INTER + INTRA:          -6.908
REMARK INTER:                  -6.767
REMARK INTRA:                  -0.140
REMARK UNBOUND:                -0.130
REMARK SMILES O=C([O-])C=Cc1ccc(O)c(O)c1
REMARK SMILES IDX 6 1 13 2 7 3 11 4 8 5 9 6 5 7 4 8 2 9 1 10 3 11 12 12 10 14
REMARK H PARENT 12 13 10 15
REMARK Flexibility Score: inf
ROOT
ATOM      1  C   UNL     1       3.746  37.204   4.293  1.00  0.00    -0.022 A 
ATOM      2  C   UNL     1       4.076  38.533   4.599  1.00  0.00     0.058 A 
ATOM      3  C   UNL     1       3.038  36.445   5.244  1.00  0.00     0.012 A 
ATOM      4  C   UNL     1       3.691  39.116   5.814  1.00  0.00     0.157 A 
ATOM      5  C   UNL     1       2.651  37.018   6.457  1.00  0.00     0.051 A 
ATOM      6  C   UNL     1       2.966  38.348   6.754  1.00  0.00     0.157 A 
ENDROOT
BRANCH   1   7
ATOM      7  C   UNL     1       4.191  36.641   2.995  1.00  0.00     0.010 C 
ATOM      8  C   UNL     1       4.578  35.369   2.827  1.00  0.00     0.025 C 
BRANCH   8   9
ATOM      9  C   UNL     1       5.001  34.850   1.517  1.00  0.00     0.064 C 
ATOM     10  O   UNL     1       4.157  34.740   0.590  1.00  0.00    -0.545 OA
ATOM     11  O   UNL     1       6.321  34.477   1.286  1.00  0.00    -0.545 OA
ENDBRANCH   8   9
ENDBRANCH   1   7
BRANCH   4  12
ATOM     12  O   UNL     1       4.049  40.446   6.041  1.00  0.00    -0.504 OA
ATOM     13  H   UNL     1       3.767  41.215   5.451  1.00  0.00     0.293 HD
ENDBRANCH   4  12
BRANCH   6  14
ATOM     14  O   UNL     1       2.546  38.860   7.984  1.00  0.00    -0.504 OA
ATOM     15  H   UNL     1       3.152  38.981   8.781  1.00  0.00     0.293 HD
ENDBRANCH   6  14
TORSDOF 4
ENDMDL
MODEL 4
REMARK VINA RESULT:    -5.746      2.682      3.745
REMARK INTER + INTRA:          -6.883
REMARK INTER:                  -6.744
REMARK INTRA:                  -0.139
REMARK UNBOUND:                -0.130
REMARK SMILES O=C([O-])C=Cc1ccc(O)c(O)c1
REMARK SMILES IDX 6 1 13 2 7 3 11 4 8 5 9 6 5 7 4 8 2 9 1 10 3 11 12 12 10 14
REMARK H PARENT 12 13 10 15
REMARK Flexibility Score: inf
ROOT
ATOM      1  C   UNL     1       9.005  28.579  -0.081  1.00  0.00    -0.022 A 
ATOM      2  C   UNL     1      10.323  28.181  -0.354  1.00  0.00     0.058 A 
ATOM      3  C   UNL     1       8.004  28.310  -1.034  1.00  0.00     0.012 A 
ATOM      4  C   UNL     1      10.646  27.504  -1.536  1.00  0.00     0.157 A 
ATOM      5  C   UNL     1       8.318  27.635  -2.215  1.00  0.00     0.051 A 
ATOM      6  C   UNL     1       9.629  27.224  -2.478  1.00  0.00     0.157 A 
ENDROOT
BRANCH   1   7
ATOM      7  C   UNL     1       8.727  29.303   1.184  1.00  0.00     0.010 C 
ATOM      8  C   UNL     1       7.711  30.163   1.343  1.00  0.00     0.025 C 
BRANCH   8   9
ATOM      9  C   UNL     1       7.466  30.851   2.621  1.00  0.00     0.064 C 
ATOM     10  O   UNL     1       6.773  30.287   3.507  1.00  0.00    -0.545 OA
ATOM     11  O   UNL     1       7.989  32.116   2.866  1.00  0.00    -0.545 OA
ENDBRANCH   8   9
ENDBRANCH   1   7
BRANCH   4  12
ATOM     12  O   UNL     1      11.978  27.132  -1.731  1.00  0.00    -0.504 OA
ATOM     13  H   UNL     1      12.390  26.290  -1.356  1.00  0.00     0.293 HD
ENDBRANCH   4  12
BRANCH   6  14
ATOM     14  O   UNL     1       9.874  26.550  -3.677  1.00  0.00    -0.504 OA
ATOM     15  H   UNL     1      10.780  26.201  -3.953  1.00  0.00     0.293 HD
ENDBRANCH   6  14
TORSDOF 4
ENDMDL
MODEL 5
REMARK VINA RESULT:    -5.562      1.400      1.764
REMARK INTER + INTRA:          -6.668
REMARK INTER:                  -6.527
REMARK INTRA:                  -0.141
REMARK UNBOUND:                -0.130
REMARK SMILES O=C([O-])C=Cc1ccc(O)c(O)c1
REMARK SMILES IDX 6 1 13 2 7 3 11 4 8 5 9 6 5 7 4 8 2 9 1 10 3 11 12 12 10 14
REMARK H PARENT 12 13 10 15
REMARK Flexibility Score: inf
ROOT
ATOM      1  C   UNL     1       8.270  28.310  -0.758  1.00  0.00    -0.022 A 
ATOM      2  C   UNL     1       8.518  27.686  -1.990  1.00  0.00     0.058 A 
ATOM      3  C   UNL     1       9.345  28.510   0.130  1.00  0.00     0.012 A 
ATOM      4  C   UNL     1       9.811  27.286  -2.354  1.00  0.00     0.157 A 
ATOM      5  C   UNL     1      10.636  28.115  -0.226  1.00  0.00     0.051 A 
ATOM      6  C   UNL     1      10.884  27.507  -1.461  1.00  0.00     0.157 A 
ENDROOT
BRANCH   1   7
ATOM      7  C   UNL     1       6.878  28.700  -0.425  1.00  0.00     0.010 C 
ATOM      8  C   UNL     1       6.557  29.545   0.565  1.00  0.00     0.025 C 
BRANCH   8   9
ATOM      9  C   UNL     1       5.161  29.913   0.852  1.00  0.00     0.064 C 
ATOM     10  O   UNL     1       4.227  29.185   0.426  1.00  0.00    -0.545 OA
ATOM     11  O   UNL     1       4.857  31.054   1.587  1.00  0.00    -0.545 OA
ENDBRANCH   8   9
ENDBRANCH   1   7
BRANCH   4  12
ATOM     12  O   UNL     1       9.979  26.680  -3.600  1.00  0.00    -0.504 OA
ATOM     13  H   UNL     1      10.714  26.919  -4.250  1.00  0.00     0.293 HD
ENDBRANCH   4  12
BRANCH   6  14
ATOM     14  O   UNL     1      12.199  27.140  -1.755  1.00  0.00    -0.504 OA
ATOM     15  H   UNL     1      12.671  27.374  -2.616  1.00  0.00     0.293 HD
ENDBRANCH   6  14
TORSDOF 4
ENDMDL
MODEL 6
REMARK VINA RESULT:    -5.428     10.132     12.103
REMARK INTER + INTRA:          -6.510
REMARK INTER:                  -6.382
REMARK INTRA:                  -0.128
REMARK UNBOUND:                -0.130
REMARK SMILES O=C([O-])C=Cc1ccc(O)c(O)c1
REMARK SMILES IDX 6 1 13 2 7 3 11 4 8 5 9 6 5 7 4 8 2 9 1 10 3 11 12 12 10 14
REMARK H PARENT 12 13 10 15
REMARK Flexibility Score: inf
ROOT
ATOM      1  C   UNL     1       4.227  37.009   3.505  1.00  0.00    -0.022 A 
ATOM      2  C   UNL     1       3.268  36.835   4.514  1.00  0.00     0.058 A 
ATOM      3  C   UNL     1       4.938  38.222   3.448  1.00  0.00     0.012 A 
ATOM      4  C   UNL     1       3.031  37.831   5.470  1.00  0.00     0.157 A 
ATOM      5  C   UNL     1       4.709  39.220   4.397  1.00  0.00     0.051 A 
ATOM      6  C   UNL     1       3.764  39.039   5.412  1.00  0.00     0.157 A 
ENDROOT
BRANCH   1   7
ATOM      7  C   UNL     1       4.424  35.922   2.515  1.00  0.00     0.010 C 
ATOM      8  C   UNL     1       5.565  35.231   2.383  1.00  0.00     0.025 C 
BRANCH   8   9
ATOM      9  C   UNL     1       5.712  34.151   1.394  1.00  0.00     0.064 C 
ATOM     10  O   UNL     1       6.862  33.750   1.079  1.00  0.00    -0.545 OA
ATOM     11  O   UNL     1       4.598  33.567   0.801  1.00  0.00    -0.545 OA
ENDBRANCH   8   9
ENDBRANCH   1   7
BRANCH   4  12
ATOM     12  O   UNL     1       2.067  37.580   6.449  1.00  0.00    -0.504 OA
ATOM     13  H   UNL     1       1.176  37.142   6.265  1.00  0.00     0.293 HD
ENDBRANCH   4  12
BRANCH   6  14
ATOM     14  O   UNL     1       3.586  40.075   6.331  1.00  0.00    -0.504 OA
ATOM     15  H   UNL     1       3.940  40.059   7.276  1.00  0.00     0.293 HD
ENDBRANCH   6  14
TORSDOF 4
ENDMDL
MODEL 7
REMARK VINA RESULT:    -5.404      0.965      1.998
REMARK INTER + INTRA:          -6.482
REMARK INTER:                  -6.346
REMARK INTRA:                  -0.136
REMARK UNBOUND:                -0.130
REMARK SMILES O=C([O-])C=Cc1ccc(O)c(O)c1
REMARK SMILES IDX 6 1 13 2 7 3 11 4 8 5 9 6 5 7 4 8 2 9 1 10 3 11 12 12 10 14
REMARK H PARENT 12 13 10 15
REMARK Flexibility Score: inf
ROOT
ATOM      1  C   UNL     1       8.004  28.068  -1.002  1.00  0.00    -0.022 A 
ATOM      2  C   UNL     1       9.023  28.412  -0.099  1.00  0.00     0.058 A 
ATOM      3  C   UNL     1       8.353  27.426  -2.205  1.00  0.00     0.012 A 
ATOM      4  C   UNL     1      10.363  28.104  -0.366  1.00  0.00     0.157 A 
ATOM      5  C   UNL     1       9.686  27.115  -2.478  1.00  0.00     0.051 A 
ATOM      6  C   UNL     1      10.698  27.444  -1.571  1.00  0.00     0.157 A 
ENDROOT
BRANCH   1   7
ATOM      7  C   UNL     1       6.606  28.432  -0.667  1.00  0.00     0.010 C 
ATOM      8  C   UNL     1       5.551  27.640  -0.910  1.00  0.00     0.025 C 
BRANCH   8   9
ATOM      9  C   UNL     1       4.181  28.037  -0.550  1.00  0.00     0.064 C 
ATOM     10  O   UNL     1       3.990  29.105   0.087  1.00  0.00    -0.545 OA
ATOM     11  O   UNL     1       3.090  27.249  -0.903  1.00  0.00    -0.545 OA
ENDBRANCH   8   9
ENDBRANCH   1   7
BRANCH   4  12
ATOM     12  O   UNL     1      11.318  28.470   0.584  1.00  0.00    -0.504 OA
ATOM     13  H   UNL     1      12.228  28.844   0.356  1.00  0.00     0.293 HD
ENDBRANCH   4  12
BRANCH   6  14
ATOM     14  O   UNL     1      12.011  27.101  -1.905  1.00  0.00    -0.504 OA
ATOM     15  H   UNL     1      12.397  26.175  -1.798  1.00  0.00     0.293 HD
ENDBRANCH   6  14
TORSDOF 4
ENDMDL
MODEL 8
REMARK VINA RESULT:    -5.374      1.523      5.775
REMARK INTER + INTRA:          -6.447
REMARK INTER:                  -6.318
REMARK INTRA:                  -0.128
REMARK UNBOUND:                -0.130
REMARK SMILES O=C([O-])C=Cc1ccc(O)c(O)c1
REMARK SMILES IDX 6 1 13 2 7 3 11 4 8 5 9 6 5 7 4 8 2 9 1 10 3 11 12 12 10 14
REMARK H PARENT 12 13 10 15
REMARK Flexibility Score: inf
ROOT
ATOM      1  C   UNL     1       8.442  28.619  -0.229  1.00  0.00    -0.022 A 
ATOM      2  C   UNL     1       7.768  27.783  -1.133  1.00  0.00     0.058 A 
ATOM      3  C   UNL     1       7.692  29.517   0.553  1.00  0.00     0.012 A 
ATOM      4  C   UNL     1       6.371  27.813  -1.245  1.00  0.00     0.157 A 
ATOM      5  C   UNL     1       6.300  29.552   0.448  1.00  0.00     0.051 A 
ATOM      6  C   UNL     1       5.628  28.707  -0.441  1.00  0.00     0.157 A 
ENDROOT
BRANCH   1   7
ATOM      7  C   UNL     1       9.923  28.549  -0.165  1.00  0.00     0.010 C 
ATOM      8  C   UNL     1      10.712  28.456  -1.245  1.00  0.00     0.025 C 
BRANCH   8   9
ATOM      9  C   UNL     1      12.178  28.402  -1.134  1.00  0.00     0.064 C 
ATOM     10  O   UNL     1      12.770  27.297  -1.253  1.00  0.00    -0.545 OA
ATOM     11  O   UNL     1      12.923  29.553  -0.900  1.00  0.00    -0.545 OA
ENDBRANCH   8   9
ENDBRANCH   1   7
BRANCH   4  12
ATOM     12  O   UNL     1       5.772  26.944  -2.159  1.00  0.00    -0.504 OA
ATOM     13  H   UNL     1       6.281  26.419  -2.856  1.00  0.00     0.293 HD
ENDBRANCH   4  12
BRANCH   6  14
ATOM     14  O   UNL     1       4.235  28.791  -0.494  1.00  0.00    -0.504 OA
ATOM     15  H   UNL     1       3.726  29.653  -0.627  1.00  0.00     0.293 HD
ENDBRANCH   6  14
TORSDOF 4
ENDMDL
MODEL 9
REMARK VINA RESULT:    -5.334      9.371     11.535
REMARK INTER + INTRA:          -6.399
REMARK INTER:                  -6.269
REMARK INTRA:                  -0.130
REMARK UNBOUND:                -0.130
REMARK SMILES O=C([O-])C=Cc1ccc(O)c(O)c1
REMARK SMILES IDX 6 1 13 2 7 3 11 4 8 5 9 6 5 7 4 8 2 9 1 10 3 11 12 12 10 14
REMARK H PARENT 12 13 10 15
REMARK Flexibility Score: inf
ROOT
ATOM      1  C   UNL     1       4.235  35.936   3.357  1.00  0.00    -0.022 A 
ATOM      2  C   UNL     1       4.228  37.334   3.476  1.00  0.00     0.058 A 
ATOM      3  C   UNL     1       3.496  35.172   4.279  1.00  0.00     0.012 A 
ATOM      4  C   UNL     1       3.480  37.973   4.474  1.00  0.00     0.157 A 
ATOM      5  C   UNL     1       2.748  35.801   5.277  1.00  0.00     0.051 A 
ATOM      6  C   UNL     1       2.728  37.195   5.385  1.00  0.00     0.157 A 
ENDROOT
BRANCH   1   7
ATOM      7  C   UNL     1       5.055  35.318   2.286  1.00  0.00     0.010 C 
ATOM      8  C   UNL     1       6.096  34.505   2.519  1.00  0.00     0.025 C 
BRANCH   8   9
ATOM      9  C   UNL     1       6.875  33.904   1.425  1.00  0.00     0.064 C 
ATOM     10  O   UNL     1       7.842  34.539   0.929  1.00  0.00    -0.545 OA
ATOM     11  O   UNL     1       6.559  32.645   0.928  1.00  0.00    -0.545 OA
ENDBRANCH   8   9
ENDBRANCH   1   7
BRANCH   4  12
ATOM     12  O   UNL     1       3.516  39.367   4.523  1.00  0.00    -0.504 OA
ATOM     13  H   UNL     1       3.292  39.910   5.345  1.00  0.00     0.293 HD
ENDBRANCH   4  12
BRANCH   6  14
ATOM     14  O   UNL     1       1.957  37.760   6.403  1.00  0.00    -0.504 OA
ATOM     15  H   UNL     1       1.105  38.278   6.245  1.00  0.00     0.293 HD
ENDBRANCH   6  14
TORSDOF 4
ENDMDL
