MODEL 1
REMARK VINA RESULT:    -5.130      0.000      0.000
REMARK INTER + INTRA:          -5.855
REMARK INTER:                  -6.180
REMARK INTRA:                   0.325
REMARK UNBOUND:                 0.325
REMARK SMILES O=c1c(O)c(-c2ccc(O)c(O)c2)oc2cc(O)cc(O)c12
REMARK SMILES IDX 5 1 3 2 2 3 1 4 22 5 20 6 19 7 17 8 16 9 15 10 14 11 6 12
REMARK SMILES IDX 7 13 8 14 9 15 13 16 11 17 10 18 12 20 4 22 21 24 18 26
REMARK H PARENT 10 19 12 21 4 23 21 25 18 27
REMARK Flexibility Score: inf
ROOT
ATOM      1  C   UNL     1      -1.447  68.658  33.763  1.00  0.00     0.180 A 
ATOM      2  C   UNL     1      -1.223  69.972  34.210  1.00  0.00     0.208 A 
ATOM      3  C   UNL     1      -1.272  71.025  33.283  1.00  0.00     0.238 A 
ATOM      4  O   UNL     1      -1.016  72.191  33.680  1.00  0.00    -0.285 OA
ATOM      5  C   UNL     1      -1.562  70.754  31.924  1.00  0.00     0.111 A 
ATOM      6  C   UNL     1      -1.677  71.749  30.906  1.00  0.00     0.134 A 
ATOM      7  C   UNL     1      -1.837  71.356  29.572  1.00  0.00     0.093 A 
ATOM      8  C   UNL     1      -1.951  70.010  29.226  1.00  0.00     0.123 A 
ATOM      9  C   UNL     1      -1.900  69.032  30.220  1.00  0.00     0.094 A 
ATOM     10  C   UNL     1      -1.704  69.391  31.556  1.00  0.00     0.146 A 
ATOM     11  O   UNL     1      -1.651  68.430  32.470  1.00  0.00    -0.452 OA
ENDROOT
BRANCH   1  12
ATOM     12  C   UNL     1      -1.436  67.499  34.683  1.00  0.00     0.025 A 
ATOM     13  C   UNL     1      -1.790  67.681  36.029  1.00  0.00     0.016 A 
ATOM     14  C   UNL     1      -1.766  66.606  36.920  1.00  0.00     0.051 A 
ATOM     15  C   UNL     1      -1.375  65.336  36.484  1.00  0.00     0.157 A 
ATOM     16  C   UNL     1      -1.023  66.225  34.252  1.00  0.00     0.062 A 
ATOM     17  C   UNL     1      -0.997  65.144  35.145  1.00  0.00     0.158 A 
BRANCH  15  18
ATOM     18  O   UNL     1      -1.363  64.280  37.396  1.00  0.00    -0.504 OA
ATOM     19  H   UNL     1      -0.543  64.051  37.945  1.00  0.00     0.293 HD
ENDBRANCH  15  18
BRANCH  17  20
ATOM     20  O   UNL     1      -0.592  63.884  34.707  1.00  0.00    -0.504 OA
ATOM     21  H   UNL     1      -0.036  63.766  33.869  1.00  0.00     0.293 HD
ENDBRANCH  17  20
ENDBRANCH   1  12
BRANCH   2  22
ATOM     22  O   UNL     1      -0.917  70.214  35.552  1.00  0.00    -0.502 OA
ATOM     23  H   UNL     1      -1.578  70.636  36.193  1.00  0.00     0.293 HD
ENDBRANCH   2  22
BRANCH   6  24
ATOM     24  O   UNL     1      -1.668  73.125  31.155  1.00  0.00    -0.507 OA
ATOM     25  H   UNL     1      -1.895  73.550  32.041  1.00  0.00     0.293 HD
ENDBRANCH   6  24
BRANCH   8  26
ATOM     26  O   UNL     1      -2.125  69.656  27.890  1.00  0.00    -0.508 OA
ATOM     27  H   UNL     1      -1.609  70.115  27.148  1.00  0.00     0.293 HD
ENDBRANCH   8  26
TORSDOF 6
ENDMDL
MODEL 2
REMARK VINA RESULT:    -5.058     13.543     16.106
REMARK INTER + INTRA:          -5.767
REMARK INTER:                  -5.563
REMARK INTRA:                  -0.204
REMARK UNBOUND:                 0.325
REMARK SMILES O=c1c(O)c(-c2ccc(O)c(O)c2)oc2cc(O)cc(O)c12
REMARK SMILES IDX 5 1 3 2 2 3 1 4 22 5 20 6 19 7 17 8 16 9 15 10 14 11 6 12
REMARK SMILES IDX 7 13 8 14 9 15 13 16 11 17 10 18 12 20 4 22 21 24 18 26
REMARK H PARENT 10 19 12 21 4 23 21 25 18 27
REMARK Flexibility Score: inf
ROOT
ATOM      1  C   UNL     1       8.552  56.125  32.160  1.00  0.00     0.180 A 
ATOM      2  C   UNL     1       7.153  56.033  32.274  1.00  0.00     0.208 A 
ATOM      3  C   UNL     1       6.348  56.823  31.437  1.00  0.00     0.238 A 
ATOM      4  O   UNL     1       5.099  56.776  31.582  1.00  0.00    -0.285 OA
ATOM      5  C   UNL     1       6.951  57.683  30.487  1.00  0.00     0.111 A 
ATOM      6  C   UNL     1       6.231  58.498  29.562  1.00  0.00     0.134 A 
ATOM      7  C   UNL     1       6.928  59.408  28.757  1.00  0.00     0.093 A 
ATOM      8  C   UNL     1       8.320  59.486  28.796  1.00  0.00     0.123 A 
ATOM      9  C   UNL     1       9.036  58.650  29.654  1.00  0.00     0.094 A 
ATOM     10  C   UNL     1       8.368  57.759  30.496  1.00  0.00     0.146 A 
ATOM     11  O   UNL     1       9.086  56.990  31.305  1.00  0.00    -0.452 OA
ENDROOT
BRANCH   1  12
ATOM     12  C   UNL     1       9.465  55.306  32.988  1.00  0.00     0.025 A 
ATOM     13  C   UNL     1      10.183  54.256  32.395  1.00  0.00     0.016 A 
ATOM     14  C   UNL     1      11.035  53.458  33.162  1.00  0.00     0.051 A 
ATOM     15  C   UNL     1      11.172  53.686  34.534  1.00  0.00     0.157 A 
ATOM     16  C   UNL     1       9.589  55.522  34.373  1.00  0.00     0.062 A 
ATOM     17  C   UNL     1      10.443  54.720  35.145  1.00  0.00     0.158 A 
BRANCH  15  18
ATOM     18  O   UNL     1      12.032  52.875  35.275  1.00  0.00    -0.504 OA
ATOM     19  H   UNL     1      13.026  52.828  35.083  1.00  0.00     0.293 HD
ENDBRANCH  15  18
BRANCH  17  20
ATOM     20  O   UNL     1      10.563  54.945  36.516  1.00  0.00    -0.504 OA
ATOM     21  H   UNL     1      11.126  54.343  37.106  1.00  0.00     0.293 HD
ENDBRANCH  17  20
ENDBRANCH   1  12
BRANCH   2  22
ATOM     22  O   UNL     1       6.580  55.194  33.233  1.00  0.00    -0.502 OA
ATOM     23  H   UNL     1       7.122  54.518  33.759  1.00  0.00     0.293 HD
ENDBRANCH   2  22
BRANCH   6  24
ATOM     24  O   UNL     1       4.847  58.435  29.378  1.00  0.00    -0.507 OA
ATOM     25  H   UNL     1       4.375  57.752  28.805  1.00  0.00     0.293 HD
ENDBRANCH   6  24
BRANCH   8  26
ATOM     26  O   UNL     1       8.981  60.391  27.970  1.00  0.00    -0.508 OA
ATOM     27  H   UNL     1       9.768  60.109  27.397  1.00  0.00     0.293 HD
ENDBRANCH   8  26
TORSDOF 6
ENDMDL
MODEL 3
REMARK VINA RESULT:    -4.780      1.703      6.791
REMARK INTER + INTRA:          -5.433
REMARK INTER:                  -5.342
REMARK INTRA:                  -0.091
REMARK UNBOUND:                 0.325
REMARK SMILES O=c1c(O)c(-c2ccc(O)c(O)c2)oc2cc(O)cc(O)c12
REMARK SMILES IDX 5 1 3 2 2 3 1 4 22 5 20 6 19 7 17 8 16 9 15 10 14 11 6 12
REMARK SMILES IDX 7 13 8 14 9 15 13 16 11 17 10 18 12 20 4 22 21 24 18 26
REMARK H PARENT 10 19 12 21 4 23 21 25 18 27
REMARK Flexibility Score: inf
ROOT
ATOM      1  C   UNL     1      -1.209  70.861  33.005  1.00  0.00     0.180 A 
ATOM      2  C   UNL     1      -1.493  71.689  34.104  1.00  0.00     0.208 A 
ATOM      3  C   UNL     1      -1.779  71.098  35.346  1.00  0.00     0.238 A 
ATOM      4  O   UNL     1      -2.086  71.843  36.312  1.00  0.00    -0.285 OA
ATOM      5  C   UNL     1      -1.762  69.689  35.476  1.00  0.00     0.111 A 
ATOM      6  C   UNL     1      -1.998  68.985  36.695  1.00  0.00     0.134 A 
ATOM      7  C   UNL     1      -2.085  67.587  36.680  1.00  0.00     0.093 A 
ATOM      8  C   UNL     1      -1.881  66.866  35.504  1.00  0.00     0.123 A 
ATOM      9  C   UNL     1      -1.591  67.541  34.319  1.00  0.00     0.094 A 
ATOM     10  C   UNL     1      -1.534  68.937  34.294  1.00  0.00     0.146 A 
ATOM     11  O   UNL     1      -1.266  69.541  33.143  1.00  0.00    -0.452 OA
ENDROOT
BRANCH   1  12
ATOM     12  C   UNL     1      -0.873  71.409  31.671  1.00  0.00     0.025 A 
ATOM     13  C   UNL     1       0.219  72.279  31.536  1.00  0.00     0.016 A 
ATOM     14  C   UNL     1       0.541  72.825  30.291  1.00  0.00     0.051 A 
ATOM     15  C   UNL     1      -0.232  72.521  29.166  1.00  0.00     0.157 A 
ATOM     16  C   UNL     1      -1.662  71.121  30.542  1.00  0.00     0.062 A 
ATOM     17  C   UNL     1      -1.341  71.669  29.291  1.00  0.00     0.158 A 
BRANCH  15  18
ATOM     18  O   UNL     1       0.115  73.078  27.934  1.00  0.00    -0.504 OA
ATOM     19  H   UNL     1      -0.507  73.697  27.429  1.00  0.00     0.293 HD
ENDBRANCH  15  18
BRANCH  17  20
ATOM     20  O   UNL     1      -2.124  71.373  28.176  1.00  0.00    -0.504 OA
ATOM     21  H   UNL     1      -3.085  71.686  28.104  1.00  0.00     0.293 HD
ENDBRANCH  17  20
ENDBRANCH   1  12
BRANCH   2  22
ATOM     22  O   UNL     1      -1.526  73.077  33.948  1.00  0.00    -0.502 OA
ATOM     23  H   UNL     1      -0.690  73.628  33.794  1.00  0.00     0.293 HD
ENDBRANCH   2  22
BRANCH   6  24
ATOM     24  O   UNL     1      -2.124  69.605  37.942  1.00  0.00    -0.507 OA
ATOM     25  H   UNL     1      -1.804  69.212  38.814  1.00  0.00     0.293 HD
ENDBRANCH   6  24
BRANCH   8  26
ATOM     26  O   UNL     1      -1.960  65.475  35.529  1.00  0.00    -0.508 OA
ATOM     27  H   UNL     1      -2.145  64.970  36.387  1.00  0.00     0.293 HD
ENDBRANCH   8  26
TORSDOF 6
ENDMDL
MODEL 4
REMARK VINA RESULT:    -4.491     13.518     16.251
REMARK INTER + INTRA:          -5.084
REMARK INTER:                  -4.918
REMARK INTRA:                  -0.166
REMARK UNBOUND:                 0.325
REMARK SMILES O=c1c(O)c(-c2ccc(O)c(O)c2)oc2cc(O)cc(O)c12
REMARK SMILES IDX 5 1 3 2 2 3 1 4 22 5 20 6 19 7 17 8 16 9 15 10 14 11 6 12
REMARK SMILES IDX 7 13 8 14 9 15 13 16 11 17 10 18 12 20 4 22 21 24 18 26
REMARK H PARENT 10 19 12 21 4 23 21 25 18 27
REMARK Flexibility Score: inf
ROOT
ATOM      1  C   UNL     1       9.116  56.326  32.615  1.00  0.00     0.180 A 
ATOM      2  C   UNL     1       9.759  57.338  31.881  1.00  0.00     0.208 A 
ATOM      3  C   UNL     1       8.999  58.138  31.013  1.00  0.00     0.238 A 
ATOM      4  O   UNL     1       9.589  59.005  30.318  1.00  0.00    -0.285 OA
ATOM      5  C   UNL     1       7.603  57.927  30.901  1.00  0.00     0.111 A 
ATOM      6  C   UNL     1       6.730  58.704  30.082  1.00  0.00     0.134 A 
ATOM      7  C   UNL     1       5.389  58.324  29.948  1.00  0.00     0.093 A 
ATOM      8  C   UNL     1       4.875  57.235  30.652  1.00  0.00     0.123 A 
ATOM      9  C   UNL     1       5.706  56.505  31.502  1.00  0.00     0.094 A 
ATOM     10  C   UNL     1       7.058  56.837  31.628  1.00  0.00     0.146 A 
ATOM     11  O   UNL     1       7.817  56.110  32.438  1.00  0.00    -0.452 OA
ENDROOT
BRANCH   1  12
ATOM     12  C   UNL     1       9.844  55.460  33.568  1.00  0.00     0.025 A 
ATOM     13  C   UNL     1       9.584  55.571  34.943  1.00  0.00     0.016 A 
ATOM     14  C   UNL     1      10.275  54.779  35.862  1.00  0.00     0.051 A 
ATOM     15  C   UNL     1      11.246  53.873  35.424  1.00  0.00     0.157 A 
ATOM     16  C   UNL     1      10.836  54.562  33.131  1.00  0.00     0.062 A 
ATOM     17  C   UNL     1      11.532  53.766  34.053  1.00  0.00     0.158 A 
BRANCH  15  18
ATOM     18  O   UNL     1      11.918  53.091  36.364  1.00  0.00    -0.504 OA
ATOM     19  H   UNL     1      11.816  52.084  36.398  1.00  0.00     0.293 HD
ENDBRANCH  15  18
BRANCH  17  20
ATOM     20  O   UNL     1      12.509  52.875  33.610  1.00  0.00    -0.504 OA
ATOM     21  H   UNL     1      12.817  52.861  32.645  1.00  0.00     0.293 HD
ENDBRANCH  17  20
ENDBRANCH   1  12
BRANCH   2  22
ATOM     22  O   UNL     1      11.141  57.515  31.990  1.00  0.00    -0.502 OA
ATOM     23  H   UNL     1      11.701  57.019  32.674  1.00  0.00     0.293 HD
ENDBRANCH   2  22
BRANCH   6  24
ATOM     24  O   UNL     1       7.119  59.865  29.407  1.00  0.00    -0.507 OA
ATOM     25  H   UNL     1       6.743  60.168  28.522  1.00  0.00     0.293 HD
ENDBRANCH   6  24
BRANCH   8  26
ATOM     26  O   UNL     1       3.532  56.894  30.507  1.00  0.00    -0.508 OA
ATOM     27  H   UNL     1       3.082  56.233  31.130  1.00  0.00     0.293 HD
ENDBRANCH   8  26
TORSDOF 6
ENDMDL
MODEL 5
REMARK VINA RESULT:    -3.758      0.663      1.489
REMARK INTER + INTRA:          -4.201
REMARK INTER:                  -4.527
REMARK INTRA:                   0.326
REMARK UNBOUND:                 0.325
REMARK SMILES O=c1c(O)c(-c2ccc(O)c(O)c2)oc2cc(O)cc(O)c12
REMARK SMILES IDX 5 1 3 2 2 3 1 4 22 5 20 6 19 7 17 8 16 9 15 10 14 11 6 12
REMARK SMILES IDX 7 13 8 14 9 15 13 16 11 17 10 18 12 20 4 22 21 24 18 26
REMARK H PARENT 10 19 12 21 4 23 21 25 18 27
REMARK Flexibility Score: inf
ROOT
ATOM      1  C   UNL     1      -1.392  68.589  33.793  1.00  0.00     0.180 A 
ATOM      2  C   UNL     1      -1.155  69.924  34.165  1.00  0.00     0.208 A 
ATOM      3  C   UNL     1      -1.199  70.924  33.179  1.00  0.00     0.238 A 
ATOM      4  O   UNL     1      -0.933  72.108  33.508  1.00  0.00    -0.285 OA
ATOM      5  C   UNL     1      -1.496  70.578  31.838  1.00  0.00     0.111 A 
ATOM      6  C   UNL     1      -1.606  71.514  30.766  1.00  0.00     0.134 A 
ATOM      7  C   UNL     1      -1.774  71.047  29.457  1.00  0.00     0.093 A 
ATOM      8  C   UNL     1      -1.900  69.684  29.188  1.00  0.00     0.123 A 
ATOM      9  C   UNL     1      -1.854  68.765  30.236  1.00  0.00     0.094 A 
ATOM     10  C   UNL     1      -1.650  69.197  31.550  1.00  0.00     0.146 A 
ATOM     11  O   UNL     1      -1.602  68.289  32.516  1.00  0.00    -0.452 OA
ENDROOT
BRANCH   1  12
ATOM     12  C   UNL     1      -1.387  67.484  34.778  1.00  0.00     0.025 A 
ATOM     13  C   UNL     1      -1.195  66.166  34.338  1.00  0.00     0.016 A 
ATOM     14  C   UNL     1      -1.208  65.106  35.247  1.00  0.00     0.051 A 
ATOM     15  C   UNL     1      -1.427  65.345  36.607  1.00  0.00     0.157 A 
ATOM     16  C   UNL     1      -1.628  67.720  36.145  1.00  0.00     0.062 A 
ATOM     17  C   UNL     1      -1.642  66.657  37.059  1.00  0.00     0.158 A 
BRANCH  15  18
ATOM     18  O   UNL     1      -1.431  64.267  37.493  1.00  0.00    -0.504 OA
ATOM     19  H   UNL     1      -0.806  64.222  38.289  1.00  0.00     0.293 HD
ENDBRANCH  15  18
BRANCH  17  20
ATOM     20  O   UNL     1      -1.875  66.901  38.412  1.00  0.00    -0.504 OA
ATOM     21  H   UNL     1      -2.809  66.875  38.803  1.00  0.00     0.293 HD
ENDBRANCH  17  20
ENDBRANCH   1  12
BRANCH   2  22
ATOM     22  O   UNL     1      -0.843  70.240  35.489  1.00  0.00    -0.502 OA
ATOM     23  H   UNL     1      -0.594  71.178  35.781  1.00  0.00     0.293 HD
ENDBRANCH   2  22
BRANCH   6  24
ATOM     24  O   UNL     1      -1.585  72.902  30.936  1.00  0.00    -0.507 OA
ATOM     25  H   UNL     1      -1.507  73.371  31.825  1.00  0.00     0.293 HD
ENDBRANCH   6  24
BRANCH   8  26
ATOM     26  O   UNL     1      -2.081  69.256  27.875  1.00  0.00    -0.508 OA
ATOM     27  H   UNL     1      -2.465  69.870  27.166  1.00  0.00     0.293 HD
ENDBRANCH   8  26
TORSDOF 6
ENDMDL
MODEL 6
REMARK VINA RESULT:    -3.426     12.846     15.818
REMARK INTER + INTRA:          -3.802
REMARK INTER:                  -3.537
REMARK INTRA:                  -0.265
REMARK UNBOUND:                 0.325
REMARK SMILES O=c1c(O)c(-c2ccc(O)c(O)c2)oc2cc(O)cc(O)c12
REMARK SMILES IDX 5 1 3 2 2 3 1 4 22 5 20 6 19 7 17 8 16 9 15 10 14 11 6 12
REMARK SMILES IDX 7 13 8 14 9 15 13 16 11 17 10 18 12 20 4 22 21 24 18 26
REMARK H PARENT 10 19 12 21 4 23 21 25 18 27
REMARK Flexibility Score: inf
ROOT
ATOM      1  C   UNL     1       6.905  57.332  30.460  1.00  0.00     0.180 A 
ATOM      2  C   UNL     1       7.812  58.347  30.109  1.00  0.00     0.208 A 
ATOM      3  C   UNL     1       9.064  58.391  30.745  1.00  0.00     0.238 A 
ATOM      4  O   UNL     1       9.849  59.333  30.467  1.00  0.00    -0.285 OA
ATOM      5  C   UNL     1       9.398  57.410  31.710  1.00  0.00     0.111 A 
ATOM      6  C   UNL     1      10.653  57.335  32.387  1.00  0.00     0.134 A 
ATOM      7  C   UNL     1      10.827  56.403  33.417  1.00  0.00     0.093 A 
ATOM      8  C   UNL     1       9.817  55.501  33.751  1.00  0.00     0.123 A 
ATOM      9  C   UNL     1       8.608  55.526  33.055  1.00  0.00     0.094 A 
ATOM     10  C   UNL     1       8.391  56.469  32.047  1.00  0.00     0.146 A 
ATOM     11  O   UNL     1       7.223  56.467  31.417  1.00  0.00    -0.452 OA
ENDROOT
BRANCH   1  12
ATOM     12  C   UNL     1       5.577  57.205  29.817  1.00  0.00     0.025 A 
ATOM     13  C   UNL     1       5.487  56.706  28.509  1.00  0.00     0.016 A 
ATOM     14  C   UNL     1       4.247  56.597  27.875  1.00  0.00     0.051 A 
ATOM     15  C   UNL     1       3.081  56.999  28.533  1.00  0.00     0.157 A 
ATOM     16  C   UNL     1       4.404  57.628  30.470  1.00  0.00     0.062 A 
ATOM     17  C   UNL     1       3.158  57.521  29.835  1.00  0.00     0.158 A 
BRANCH  15  18
ATOM     18  O   UNL     1       1.855  56.876  27.877  1.00  0.00    -0.504 OA
ATOM     19  H   UNL     1       1.586  57.493  27.119  1.00  0.00     0.293 HD
ENDBRANCH  15  18
BRANCH  17  20
ATOM     20  O   UNL     1       2.001  57.936  30.491  1.00  0.00    -0.504 OA
ATOM     21  H   UNL     1       1.997  58.139  31.484  1.00  0.00     0.293 HD
ENDBRANCH  17  20
ENDBRANCH   1  12
BRANCH   2  22
ATOM     22  O   UNL     1       7.453  59.317  29.171  1.00  0.00    -0.502 OA
ATOM     23  H   UNL     1       6.497  59.446  28.859  1.00  0.00     0.293 HD
ENDBRANCH   2  22
BRANCH   6  24
ATOM     24  O   UNL     1      11.760  58.129  32.070  1.00  0.00    -0.507 OA
ATOM     25  H   UNL     1      12.718  57.886  32.271  1.00  0.00     0.293 HD
ENDBRANCH   6  24
BRANCH   8  26
ATOM     26  O   UNL     1      10.031  54.576  34.770  1.00  0.00    -0.508 OA
ATOM     27  H   UNL     1      10.964  54.290  35.039  1.00  0.00     0.293 HD
ENDBRANCH   8  26
TORSDOF 6
ENDMDL
