MODEL 1
REMARK VINA RESULT:    -6.185      0.000      0.000
REMARK INTER + INTRA:          -7.591
REMARK INTER:                  -7.451
REMARK INTRA:                  -0.141
REMARK UNBOUND:                -0.141
REMARK SMILES O=c1c(O)c(-c2ccc(O)c(O)c2)oc2cc(O)cc(O)c12
REMARK SMILES IDX 5 1 3 2 2 3 1 4 22 5 20 6 19 7 17 8 16 9 15 10 14 11 6 12
REMARK SMILES IDX 7 13 8 14 9 15 13 16 11 17 10 18 12 20 4 22 21 24 18 26
REMARK H PARENT 10 19 12 21 4 23 21 25 18 27
REMARK Flexibility Score: inf
ROOT
ATOM      1  C   UNL     1      10.844   2.725   2.798  1.00  0.00     0.180 A 
ATOM      2  C   UNL     1      11.346   3.481   1.720  1.00  0.00     0.208 A 
ATOM      3  C   UNL     1      12.564   3.101   1.134  1.00  0.00     0.238 A 
ATOM      4  O   UNL     1      13.029   3.776   0.177  1.00  0.00    -0.285 OA
ATOM      5  C   UNL     1      13.246   1.965   1.620  1.00  0.00     0.111 A 
ATOM      6  C   UNL     1      14.475   1.514   1.083  1.00  0.00     0.134 A 
ATOM      7  C   UNL     1      15.088   0.369   1.615  1.00  0.00     0.093 A 
ATOM      8  C   UNL     1      14.497  -0.331   2.669  1.00  0.00     0.123 A 
ATOM      9  C   UNL     1      13.282   0.112   3.204  1.00  0.00     0.094 A 
ATOM     10  C   UNL     1      12.657   1.251   2.689  1.00  0.00     0.146 A 
ATOM     11  O   UNL     1      11.507   1.652   3.219  1.00  0.00    -0.452 OA
ENDROOT
BRANCH   1  12
ATOM     12  C   UNL     1       9.577   3.074   3.480  1.00  0.00     0.025 A 
ATOM     13  C   UNL     1       9.467   4.306   4.141  1.00  0.00     0.016 A 
ATOM     14  C   UNL     1       8.275   4.664   4.774  1.00  0.00     0.051 A 
ATOM     15  C   UNL     1       7.167   3.811   4.746  1.00  0.00     0.157 A 
ATOM     16  C   UNL     1       8.459   2.224   3.431  1.00  0.00     0.062 A 
ATOM     17  C   UNL     1       7.259   2.576   4.060  1.00  0.00     0.158 A 
BRANCH  15  18
ATOM     18  O   UNL     1       6.008   4.224   5.405  1.00  0.00    -0.504 OA
ATOM     19  H   UNL     1       5.855   4.121   6.397  1.00  0.00     0.293 HD
ENDBRANCH  15  18
BRANCH  17  20
ATOM     20  O   UNL     1       6.189   1.682   3.972  1.00  0.00    -0.504 OA
ATOM     21  H   UNL     1       6.277   0.684   4.089  1.00  0.00     0.293 HD
ENDBRANCH  17  20
ENDBRANCH   1  12
BRANCH   2  22
ATOM     22  O   UNL     1      10.627   4.572   1.227  1.00  0.00    -0.502 OA
ATOM     23  H   UNL     1      10.237   5.284   1.832  1.00  0.00     0.293 HD
ENDBRANCH   2  22
BRANCH   6  24
ATOM     24  O   UNL     1      15.091   2.189   0.028  1.00  0.00    -0.507 OA
ATOM     25  H   UNL     1      15.386   3.154   0.113  1.00  0.00     0.293 HD
ENDBRANCH   6  24
BRANCH   8  26
ATOM     26  O   UNL     1      15.125  -1.464   3.179  1.00  0.00    -0.508 OA
ATOM     27  H   UNL     1      15.958  -1.848   2.747  1.00  0.00     0.293 HD
ENDBRANCH   8  26
TORSDOF 6
ENDMDL
MODEL 2
REMARK VINA RESULT:    -5.887      1.443      3.245
REMARK INTER + INTRA:          -7.232
REMARK INTER:                  -6.969
REMARK INTRA:                  -0.263
REMARK UNBOUND:                -0.141
REMARK SMILES O=c1c(O)c(-c2ccc(O)c(O)c2)oc2cc(O)cc(O)c12
REMARK SMILES IDX 5 1 3 2 2 3 1 4 22 5 20 6 19 7 17 8 16 9 15 10 14 11 6 12
REMARK SMILES IDX 7 13 8 14 9 15 13 16 11 17 10 18 12 20 4 22 21 24 18 26
REMARK H PARENT 10 19 12 21 4 23 21 25 18 27
REMARK Flexibility Score: inf
ROOT
ATOM      1  C   UNL     1      10.574   1.804   3.766  1.00  0.00     0.180 A 
ATOM      2  C   UNL     1      11.188   1.043   4.779  1.00  0.00     0.208 A 
ATOM      3  C   UNL     1      12.471   0.521   4.552  1.00  0.00     0.238 A 
ATOM      4  O   UNL     1      13.026  -0.173   5.447  1.00  0.00    -0.285 OA
ATOM      5  C   UNL     1      13.125   0.784   3.329  1.00  0.00     0.111 A 
ATOM      6  C   UNL     1      14.419   0.299   3.024  1.00  0.00     0.134 A 
ATOM      7  C   UNL     1      15.005   0.613   1.788  1.00  0.00     0.093 A 
ATOM      8  C   UNL     1      14.326   1.401   0.857  1.00  0.00     0.123 A 
ATOM      9  C   UNL     1      13.046   1.882   1.154  1.00  0.00     0.094 A 
ATOM     10  C   UNL     1      12.444   1.579   2.378  1.00  0.00     0.146 A 
ATOM     11  O   UNL     1      11.226   2.045   2.632  1.00  0.00    -0.452 OA
ENDROOT
BRANCH   1  12
ATOM     12  C   UNL     1       9.216   2.371   3.923  1.00  0.00     0.025 A 
ATOM     13  C   UNL     1       8.101   1.526   3.831  1.00  0.00     0.016 A 
ATOM     14  C   UNL     1       6.812   2.037   3.996  1.00  0.00     0.051 A 
ATOM     15  C   UNL     1       6.610   3.393   4.271  1.00  0.00     0.157 A 
ATOM     16  C   UNL     1       9.019   3.731   4.222  1.00  0.00     0.062 A 
ATOM     17  C   UNL     1       7.729   4.251   4.392  1.00  0.00     0.158 A 
BRANCH  15  18
ATOM     18  O   UNL     1       5.296   3.841   4.417  1.00  0.00    -0.504 OA
ATOM     19  H   UNL     1       5.015   4.807   4.324  1.00  0.00     0.293 HD
ENDBRANCH  15  18
BRANCH  17  20
ATOM     20  O   UNL     1       7.608   5.611   4.684  1.00  0.00    -0.504 OA
ATOM     21  H   UNL     1       7.992   6.348   4.112  1.00  0.00     0.293 HD
ENDBRANCH  17  20
ENDBRANCH   1  12
BRANCH   2  22
ATOM     22  O   UNL     1      10.540   0.837   5.999  1.00  0.00    -0.502 OA
ATOM     23  H   UNL     1       9.599   1.168   6.178  1.00  0.00     0.293 HD
ENDBRANCH   2  22
BRANCH   6  24
ATOM     24  O   UNL     1      15.125  -0.489   3.933  1.00  0.00    -0.507 OA
ATOM     25  H   UNL     1      15.911  -1.060   3.647  1.00  0.00     0.293 HD
ENDBRANCH   6  24
BRANCH   8  26
ATOM     26  O   UNL     1      14.930   1.699  -0.362  1.00  0.00    -0.508 OA
ATOM     27  H   UNL     1      15.476   1.010  -0.865  1.00  0.00     0.293 HD
ENDBRANCH   8  26
TORSDOF 6
ENDMDL
MODEL 3
REMARK VINA RESULT:    -5.727      7.313     10.061
REMARK INTER + INTRA:          -7.039
REMARK INTER:                  -6.718
REMARK INTRA:                  -0.321
REMARK UNBOUND:                -0.141
REMARK SMILES O=c1c(O)c(-c2ccc(O)c(O)c2)oc2cc(O)cc(O)c12
REMARK SMILES IDX 5 1 3 2 2 3 1 4 22 5 20 6 19 7 17 8 16 9 15 10 14 11 6 12
REMARK SMILES IDX 7 13 8 14 9 15 13 16 11 17 10 18 12 20 4 22 21 24 18 26
REMARK H PARENT 10 19 12 21 4 23 21 25 18 27
REMARK Flexibility Score: inf
ROOT
ATOM      1  C   UNL     1       5.809  -2.900   6.623  1.00  0.00     0.180 A 
ATOM      2  C   UNL     1       4.456  -3.064   6.977  1.00  0.00     0.208 A 
ATOM      3  C   UNL     1       3.998  -4.343   7.330  1.00  0.00     0.238 A 
ATOM      4  O   UNL     1       2.785  -4.504   7.637  1.00  0.00    -0.285 OA
ATOM      5  C   UNL     1       4.900  -5.428   7.343  1.00  0.00     0.111 A 
ATOM      6  C   UNL     1       4.519  -6.746   7.690  1.00  0.00     0.134 A 
ATOM      7  C   UNL     1       5.479  -7.770   7.688  1.00  0.00     0.093 A 
ATOM      8  C   UNL     1       6.806  -7.502   7.347  1.00  0.00     0.123 A 
ATOM      9  C   UNL     1       7.187  -6.201   7.002  1.00  0.00     0.094 A 
ATOM     10  C   UNL     1       6.246  -5.168   6.997  1.00  0.00     0.146 A 
ATOM     11  O   UNL     1       6.634  -3.942   6.661  1.00  0.00    -0.452 OA
ENDROOT
BRANCH   1  12
ATOM     12  C   UNL     1       6.362  -1.587   6.220  1.00  0.00     0.025 A 
ATOM     13  C   UNL     1       7.091  -0.832   7.150  1.00  0.00     0.016 A 
ATOM     14  C   UNL     1       7.638   0.401   6.786  1.00  0.00     0.051 A 
ATOM     15  C   UNL     1       7.484   0.894   5.487  1.00  0.00     0.157 A 
ATOM     16  C   UNL     1       6.225  -1.104   4.907  1.00  0.00     0.062 A 
ATOM     17  C   UNL     1       6.773   0.129   4.533  1.00  0.00     0.158 A 
BRANCH  15  18
ATOM     18  O   UNL     1       8.049   2.136   5.189  1.00  0.00    -0.504 OA
ATOM     19  H   UNL     1       8.243   2.848   5.879  1.00  0.00     0.293 HD
ENDBRANCH  15  18
BRANCH  17  20
ATOM     20  O   UNL     1       6.596   0.547   3.212  1.00  0.00    -0.504 OA
ATOM     21  H   UNL     1       7.240   0.341   2.463  1.00  0.00     0.293 HD
ENDBRANCH  17  20
ENDBRANCH   1  12
BRANCH   2  22
ATOM     22  O   UNL     1       3.594  -1.965   7.003  1.00  0.00    -0.502 OA
ATOM     23  H   UNL     1       2.669  -2.009   7.414  1.00  0.00     0.293 HD
ENDBRANCH   2  22
BRANCH   6  24
ATOM     24  O   UNL     1       3.201  -7.047   8.037  1.00  0.00    -0.507 OA
ATOM     25  H   UNL     1       2.805  -6.760   8.923  1.00  0.00     0.293 HD
ENDBRANCH   6  24
BRANCH   8  26
ATOM     26  O   UNL     1       7.739  -8.536   7.354  1.00  0.00    -0.508 OA
ATOM     27  H   UNL     1       8.629  -8.444   7.829  1.00  0.00     0.293 HD
ENDBRANCH   8  26
TORSDOF 6
ENDMDL
MODEL 4
REMARK VINA RESULT:    -5.685     19.343     21.183
REMARK INTER + INTRA:          -6.988
REMARK INTER:                  -6.668
REMARK INTRA:                  -0.321
REMARK UNBOUND:                -0.141
REMARK SMILES O=c1c(O)c(-c2ccc(O)c(O)c2)oc2cc(O)cc(O)c12
REMARK SMILES IDX 5 1 3 2 2 3 1 4 22 5 20 6 19 7 17 8 16 9 15 10 14 11 6 12
REMARK SMILES IDX 7 13 8 14 9 15 13 16 11 17 10 18 12 20 4 22 21 24 18 26
REMARK H PARENT 10 19 12 21 4 23 21 25 18 27
REMARK Flexibility Score: inf
ROOT
ATOM      1  C   UNL     1      -2.209 -12.356  -3.168  1.00  0.00     0.180 A 
ATOM      2  C   UNL     1      -1.246 -13.266  -3.646  1.00  0.00     0.208 A 
ATOM      3  C   UNL     1      -0.942 -13.273  -5.017  1.00  0.00     0.238 A 
ATOM      4  O   UNL     1      -0.090 -14.091  -5.459  1.00  0.00    -0.285 OA
ATOM      5  C   UNL     1      -1.587 -12.361  -5.879  1.00  0.00     0.111 A 
ATOM      6  C   UNL     1      -1.334 -12.301  -7.270  1.00  0.00     0.134 A 
ATOM      7  C   UNL     1      -2.011 -11.358  -8.059  1.00  0.00     0.093 A 
ATOM      8  C   UNL     1      -2.930 -10.477  -7.486  1.00  0.00     0.123 A 
ATOM      9  C   UNL     1      -3.184 -10.533  -6.112  1.00  0.00     0.094 A 
ATOM     10  C   UNL     1      -2.522 -11.466  -5.309  1.00  0.00     0.146 A 
ATOM     11  O   UNL     1      -2.785 -11.501  -4.007  1.00  0.00    -0.452 OA
ENDROOT
BRANCH   1  12
ATOM     12  C   UNL     1      -2.597 -12.302  -1.740  1.00  0.00     0.025 A 
ATOM     13  C   UNL     1      -3.676 -13.075  -1.290  1.00  0.00     0.016 A 
ATOM     14  C   UNL     1      -4.047 -13.054   0.057  1.00  0.00     0.051 A 
ATOM     15  C   UNL     1      -3.342 -12.276   0.980  1.00  0.00     0.157 A 
ATOM     16  C   UNL     1      -1.872 -11.536  -0.811  1.00  0.00     0.062 A 
ATOM     17  C   UNL     1      -2.235 -11.512   0.541  1.00  0.00     0.158 A 
BRANCH  15  18
ATOM     18  O   UNL     1      -3.768 -12.293   2.309  1.00  0.00    -0.504 OA
ATOM     19  H   UNL     1      -3.401 -12.918   3.012  1.00  0.00     0.293 HD
ENDBRANCH  15  18
BRANCH  17  20
ATOM     20  O   UNL     1      -1.470 -10.727   1.407  1.00  0.00    -0.504 OA
ATOM     21  H   UNL     1      -0.513 -10.461   1.231  1.00  0.00     0.293 HD
ENDBRANCH  17  20
ENDBRANCH   1  12
BRANCH   2  22
ATOM     22  O   UNL     1      -0.586 -14.125  -2.765  1.00  0.00    -0.502 OA
ATOM     23  H   UNL     1      -1.081 -14.695  -2.089  1.00  0.00     0.293 HD
ENDBRANCH   2  22
BRANCH   6  24
ATOM     24  O   UNL     1      -0.420 -13.165  -7.874  1.00  0.00    -0.507 OA
ATOM     25  H   UNL     1      -0.720 -13.926  -8.470  1.00  0.00     0.293 HD
ENDBRANCH   6  24
BRANCH   8  26
ATOM     26  O   UNL     1      -3.587  -9.550  -8.291  1.00  0.00    -0.508 OA
ATOM     27  H   UNL     1      -4.539  -9.701  -8.606  1.00  0.00     0.293 HD
ENDBRANCH   8  26
TORSDOF 6
ENDMDL
MODEL 5
REMARK VINA RESULT:    -5.660      5.659      7.959
REMARK INTER + INTRA:          -6.959
REMARK INTER:                  -6.707
REMARK INTRA:                  -0.252
REMARK UNBOUND:                -0.141
REMARK SMILES O=c1c(O)c(-c2ccc(O)c(O)c2)oc2cc(O)cc(O)c12
REMARK SMILES IDX 5 1 3 2 2 3 1 4 22 5 20 6 19 7 17 8 16 9 15 10 14 11 6 12
REMARK SMILES IDX 7 13 8 14 9 15 13 16 11 17 10 18 12 20 4 22 21 24 18 26
REMARK H PARENT 10 19 12 21 4 23 21 25 18 27
REMARK Flexibility Score: inf
ROOT
ATOM      1  C   UNL     1       6.481  -0.482   6.149  1.00  0.00     0.180 A 
ATOM      2  C   UNL     1       5.261  -1.185   6.137  1.00  0.00     0.208 A 
ATOM      3  C   UNL     1       5.258  -2.545   6.487  1.00  0.00     0.238 A 
ATOM      4  O   UNL     1       4.174  -3.188   6.468  1.00  0.00    -0.285 OA
ATOM      5  C   UNL     1       6.466  -3.171   6.860  1.00  0.00     0.111 A 
ATOM      6  C   UNL     1       6.549  -4.534   7.230  1.00  0.00     0.134 A 
ATOM      7  C   UNL     1       7.787  -5.081   7.599  1.00  0.00     0.093 A 
ATOM      8  C   UNL     1       8.940  -4.293   7.606  1.00  0.00     0.123 A 
ATOM      9  C   UNL     1       8.864  -2.945   7.240  1.00  0.00     0.094 A 
ATOM     10  C   UNL     1       7.640  -2.382   6.868  1.00  0.00     0.146 A 
ATOM     11  O   UNL     1       7.597  -1.100   6.521  1.00  0.00    -0.452 OA
ENDROOT
BRANCH   1  12
ATOM     12  C   UNL     1       6.567   0.948   5.774  1.00  0.00     0.025 A 
ATOM     13  C   UNL     1       7.078   1.301   4.517  1.00  0.00     0.016 A 
ATOM     14  C   UNL     1       7.150   2.643   4.136  1.00  0.00     0.051 A 
ATOM     15  C   UNL     1       6.701   3.654   4.991  1.00  0.00     0.157 A 
ATOM     16  C   UNL     1       6.094   1.960   6.627  1.00  0.00     0.062 A 
ATOM     17  C   UNL     1       6.159   3.307   6.251  1.00  0.00     0.158 A 
BRANCH  15  18
ATOM     18  O   UNL     1       6.808   4.975   4.552  1.00  0.00    -0.504 OA
ATOM     19  H   UNL     1       6.903   5.243   3.583  1.00  0.00     0.293 HD
ENDBRANCH  15  18
BRANCH  17  20
ATOM     20  O   UNL     1       5.672   4.259   7.149  1.00  0.00    -0.504 OA
ATOM     21  H   UNL     1       5.282   5.148   6.874  1.00  0.00     0.293 HD
ENDBRANCH  17  20
ENDBRANCH   1  12
BRANCH   2  22
ATOM     22  O   UNL     1       4.071  -0.531   5.810  1.00  0.00    -0.502 OA
ATOM     23  H   UNL     1       3.688   0.217   6.377  1.00  0.00     0.293 HD
ENDBRANCH   2  22
BRANCH   6  24
ATOM     24  O   UNL     1       5.415  -5.348   7.235  1.00  0.00    -0.507 OA
ATOM     25  H   UNL     1       4.492  -4.976   7.424  1.00  0.00     0.293 HD
ENDBRANCH   6  24
BRANCH   8  26
ATOM     26  O   UNL     1      10.157  -4.860   7.977  1.00  0.00    -0.508 OA
ATOM     27  H   UNL     1      10.965  -4.288   8.192  1.00  0.00     0.293 HD
ENDBRANCH   8  26
TORSDOF 6
ENDMDL
MODEL 6
REMARK VINA RESULT:    -5.602      3.587      4.975
REMARK INTER + INTRA:          -6.889
REMARK INTER:                  -6.607
REMARK INTRA:                  -0.282
REMARK UNBOUND:                -0.141
REMARK SMILES O=c1c(O)c(-c2ccc(O)c(O)c2)oc2cc(O)cc(O)c12
REMARK SMILES IDX 5 1 3 2 2 3 1 4 22 5 20 6 19 7 17 8 16 9 15 10 14 11 6 12
REMARK SMILES IDX 7 13 8 14 9 15 13 16 11 17 10 18 12 20 4 22 21 24 18 26
REMARK H PARENT 10 19 12 21 4 23 21 25 18 27
REMARK Flexibility Score: inf
ROOT
ATOM      1  C   UNL     1       7.560   0.321   5.329  1.00  0.00     0.180 A 
ATOM      2  C   UNL     1       7.640   1.006   4.101  1.00  0.00     0.208 A 
ATOM      3  C   UNL     1       8.905   1.346   3.596  1.00  0.00     0.238 A 
ATOM      4  O   UNL     1       8.990   1.970   2.503  1.00  0.00    -0.285 OA
ATOM      5  C   UNL     1      10.064   0.980   4.313  1.00  0.00     0.111 A 
ATOM      6  C   UNL     1      11.374   1.281   3.871  1.00  0.00     0.134 A 
ATOM      7  C   UNL     1      12.477   0.874   4.638  1.00  0.00     0.093 A 
ATOM      8  C   UNL     1      12.295   0.173   5.832  1.00  0.00     0.123 A 
ATOM      9  C   UNL     1      11.002  -0.126   6.273  1.00  0.00     0.094 A 
ATOM     10  C   UNL     1       9.890   0.272   5.525  1.00  0.00     0.146 A 
ATOM     11  O   UNL     1       8.673  -0.021   5.970  1.00  0.00    -0.452 OA
ENDROOT
BRANCH   1  12
ATOM     12  C   UNL     1       6.262  -0.054   5.935  1.00  0.00     0.025 A 
ATOM     13  C   UNL     1       5.724   0.739   6.958  1.00  0.00     0.016 A 
ATOM     14  C   UNL     1       4.493   0.414   7.530  1.00  0.00     0.051 A 
ATOM     15  C   UNL     1       3.768  -0.695   7.084  1.00  0.00     0.157 A 
ATOM     16  C   UNL     1       5.527  -1.157   5.468  1.00  0.00     0.062 A 
ATOM     17  C   UNL     1       4.289  -1.488   6.035  1.00  0.00     0.158 A 
BRANCH  15  18
ATOM     18  O   UNL     1       2.547  -0.970   7.703  1.00  0.00    -0.504 OA
ATOM     19  H   UNL     1       1.788  -0.308   7.773  1.00  0.00     0.293 HD
ENDBRANCH  15  18
BRANCH  17  20
ATOM     20  O   UNL     1       3.614  -2.599   5.523  1.00  0.00    -0.504 OA
ATOM     21  H   UNL     1       3.956  -3.166   4.761  1.00  0.00     0.293 HD
ENDBRANCH  17  20
ENDBRANCH   1  12
BRANCH   2  22
ATOM     22  O   UNL     1       6.480   1.314   3.386  1.00  0.00    -0.502 OA
ATOM     23  H   UNL     1       6.194   2.268   3.200  1.00  0.00     0.293 HD
ENDBRANCH   2  22
BRANCH   6  24
ATOM     24  O   UNL     1      11.590   1.978   2.682  1.00  0.00    -0.507 OA
ATOM     25  H   UNL     1      12.379   1.775   2.081  1.00  0.00     0.293 HD
ENDBRANCH   6  24
BRANCH   8  26
ATOM     26  O   UNL     1      13.406  -0.220   6.573  1.00  0.00    -0.508 OA
ATOM     27  H   UNL     1      13.721   0.308   7.378  1.00  0.00     0.293 HD
ENDBRANCH   8  26
TORSDOF 6
ENDMDL
MODEL 7
REMARK VINA RESULT:    -5.585      1.878      6.787
REMARK INTER + INTRA:          -6.868
REMARK INTER:                  -6.628
REMARK INTRA:                  -0.240
REMARK UNBOUND:                -0.141
REMARK SMILES O=c1c(O)c(-c2ccc(O)c(O)c2)oc2cc(O)cc(O)c12
REMARK SMILES IDX 5 1 3 2 2 3 1 4 22 5 20 6 19 7 17 8 16 9 15 10 14 11 6 12
REMARK SMILES IDX 7 13 8 14 9 15 13 16 11 17 10 18 12 20 4 22 21 24 18 26
REMARK H PARENT 10 19 12 21 4 23 21 25 18 27
REMARK Flexibility Score: inf
ROOT
ATOM      1  C   UNL     1      10.161   3.086   2.869  1.00  0.00     0.180 A 
ATOM      2  C   UNL     1       9.759   4.286   3.488  1.00  0.00     0.208 A 
ATOM      3  C   UNL     1       8.599   4.285   4.280  1.00  0.00     0.238 A 
ATOM      4  O   UNL     1       8.222   5.355   4.830  1.00  0.00    -0.285 OA
ATOM      5  C   UNL     1       7.877   3.085   4.457  1.00  0.00     0.111 A 
ATOM      6  C   UNL     1       6.703   2.999   5.242  1.00  0.00     0.134 A 
ATOM      7  C   UNL     1       6.046   1.766   5.376  1.00  0.00     0.093 A 
ATOM      8  C   UNL     1       6.540   0.623   4.744  1.00  0.00     0.123 A 
ATOM      9  C   UNL     1       7.700   0.704   3.966  1.00  0.00     0.094 A 
ATOM     10  C   UNL     1       8.367   1.922   3.819  1.00  0.00     0.146 A 
ATOM     11  O   UNL     1       9.465   1.972   3.071  1.00  0.00    -0.452 OA
ENDROOT
BRANCH   1  12
ATOM     12  C   UNL     1      11.360   3.012   2.004  1.00  0.00     0.025 A 
ATOM     13  C   UNL     1      12.467   2.262   2.423  1.00  0.00     0.016 A 
ATOM     14  C   UNL     1      13.601   2.163   1.614  1.00  0.00     0.051 A 
ATOM     15  C   UNL     1      13.647   2.795   0.368  1.00  0.00     0.157 A 
ATOM     16  C   UNL     1      11.393   3.631   0.742  1.00  0.00     0.062 A 
ATOM     17  C   UNL     1      12.525   3.534  -0.077  1.00  0.00     0.158 A 
BRANCH  15  18
ATOM     18  O   UNL     1      14.812   2.663  -0.389  1.00  0.00    -0.504 OA
ATOM     19  H   UNL     1      15.401   3.437  -0.659  1.00  0.00     0.293 HD
ENDBRANCH  15  18
BRANCH  17  20
ATOM     20  O   UNL     1      12.489   4.175  -1.317  1.00  0.00    -0.504 OA
ATOM     21  H   UNL     1      13.219   4.105  -2.010  1.00  0.00     0.293 HD
ENDBRANCH  17  20
ENDBRANCH   1  12
BRANCH   2  22
ATOM     22  O   UNL     1      10.518   5.448   3.337  1.00  0.00    -0.502 OA
ATOM     23  H   UNL     1      10.893   5.740   2.442  1.00  0.00     0.293 HD
ENDBRANCH   2  22
BRANCH   6  24
ATOM     24  O   UNL     1       6.184   4.122   5.887  1.00  0.00    -0.507 OA
ATOM     25  H   UNL     1       5.236   4.438   5.728  1.00  0.00     0.293 HD
ENDBRANCH   6  24
BRANCH   8  26
ATOM     26  O   UNL     1       5.869  -0.589   4.894  1.00  0.00    -0.508 OA
ATOM     27  H   UNL     1       6.368  -1.471   4.920  1.00  0.00     0.293 HD
ENDBRANCH   8  26
TORSDOF 6
ENDMDL
MODEL 8
REMARK VINA RESULT:    -5.565      1.590      3.292
REMARK INTER + INTRA:          -6.845
REMARK INTER:                  -6.801
REMARK INTRA:                  -0.043
REMARK UNBOUND:                -0.141
REMARK SMILES O=c1c(O)c(-c2ccc(O)c(O)c2)oc2cc(O)cc(O)c12
REMARK SMILES IDX 5 1 3 2 2 3 1 4 22 5 20 6 19 7 17 8 16 9 15 10 14 11 6 12
REMARK SMILES IDX 7 13 8 14 9 15 13 16 11 17 10 18 12 20 4 22 21 24 18 26
REMARK H PARENT 10 19 12 21 4 23 21 25 18 27
REMARK Flexibility Score: inf
ROOT
ATOM      1  C   UNL     1      10.292   2.152   3.283  1.00  0.00     0.180 A 
ATOM      2  C   UNL     1      11.292   1.242   3.675  1.00  0.00     0.208 A 
ATOM      3  C   UNL     1      12.558   1.323   3.074  1.00  0.00     0.238 A 
ATOM      4  O   UNL     1      13.458   0.506   3.409  1.00  0.00    -0.285 OA
ATOM      5  C   UNL     1      12.808   2.322   2.109  1.00  0.00     0.111 A 
ATOM      6  C   UNL     1      14.056   2.475   1.459  1.00  0.00     0.134 A 
ATOM      7  C   UNL     1      14.229   3.500   0.517  1.00  0.00     0.093 A 
ATOM      8  C   UNL     1      13.182   4.373   0.214  1.00  0.00     0.123 A 
ATOM      9  C   UNL     1      11.946   4.226   0.853  1.00  0.00     0.094 A 
ATOM     10  C   UNL     1      11.754   3.210   1.793  1.00  0.00     0.146 A 
ATOM     11  O   UNL     1      10.569   3.090   2.382  1.00  0.00    -0.452 OA
ENDROOT
BRANCH   1  12
ATOM     12  C   UNL     1       8.928   2.117   3.857  1.00  0.00     0.025 A 
ATOM     13  C   UNL     1       8.351   3.301   4.336  1.00  0.00     0.016 A 
ATOM     14  C   UNL     1       7.058   3.293   4.864  1.00  0.00     0.051 A 
ATOM     15  C   UNL     1       6.312   2.112   4.908  1.00  0.00     0.157 A 
ATOM     16  C   UNL     1       8.173   0.931   3.880  1.00  0.00     0.062 A 
ATOM     17  C   UNL     1       6.874   0.916   4.404  1.00  0.00     0.158 A 
BRANCH  15  18
ATOM     18  O   UNL     1       5.028   2.171   5.455  1.00  0.00    -0.504 OA
ATOM     19  H   UNL     1       4.302   1.495   5.266  1.00  0.00     0.293 HD
ENDBRANCH  15  18
BRANCH  17  20
ATOM     20  O   UNL     1       6.183  -0.298   4.397  1.00  0.00    -0.504 OA
ATOM     21  H   UNL     1       5.318  -0.452   3.899  1.00  0.00     0.293 HD
ENDBRANCH  17  20
ENDBRANCH   1  12
BRANCH   2  22
ATOM     22  O   UNL     1      11.034   0.293   4.667  1.00  0.00    -0.502 OA
ATOM     23  H   UNL     1      11.262  -0.688   4.554  1.00  0.00     0.293 HD
ENDBRANCH   2  22
BRANCH   6  24
ATOM     24  O   UNL     1      15.123   1.620   1.741  1.00  0.00    -0.507 OA
ATOM     25  H   UNL     1      15.004   0.616   1.790  1.00  0.00     0.293 HD
ENDBRANCH   6  24
BRANCH   8  26
ATOM     26  O   UNL     1      13.380   5.383  -0.724  1.00  0.00    -0.508 OA
ATOM     27  H   UNL     1      13.440   5.182  -1.715  1.00  0.00     0.293 HD
ENDBRANCH   8  26
TORSDOF 6
ENDMDL
MODEL 9
REMARK VINA RESULT:    -5.505     19.221     21.626
REMARK INTER + INTRA:          -6.772
REMARK INTER:                  -6.510
REMARK INTRA:                  -0.262
REMARK UNBOUND:                -0.141
REMARK SMILES O=c1c(O)c(-c2ccc(O)c(O)c2)oc2cc(O)cc(O)c12
REMARK SMILES IDX 5 1 3 2 2 3 1 4 22 5 20 6 19 7 17 8 16 9 15 10 14 11 6 12
REMARK SMILES IDX 7 13 8 14 9 15 13 16 11 17 10 18 12 20 4 22 21 24 18 26
REMARK H PARENT 10 19 12 21 4 23 21 25 18 27
REMARK Flexibility Score: inf
ROOT
ATOM      1  C   UNL     1      -2.499 -11.536  -4.927  1.00  0.00     0.180 A 
ATOM      2  C   UNL     1      -1.236 -11.110  -4.473  1.00  0.00     0.208 A 
ATOM      3  C   UNL     1      -0.991 -11.067  -3.091  1.00  0.00     0.238 A 
ATOM      4  O   UNL     1       0.132 -10.676  -2.672  1.00  0.00    -0.285 OA
ATOM      5  C   UNL     1      -2.001 -11.469  -2.192  1.00  0.00     0.111 A 
ATOM      6  C   UNL     1      -1.834 -11.459  -0.786  1.00  0.00     0.134 A 
ATOM      7  C   UNL     1      -2.884 -11.883   0.042  1.00  0.00     0.093 A 
ATOM      8  C   UNL     1      -4.094 -12.315  -0.506  1.00  0.00     0.123 A 
ATOM      9  C   UNL     1      -4.265 -12.326  -1.895  1.00  0.00     0.094 A 
ATOM     10  C   UNL     1      -3.231 -11.906  -2.736  1.00  0.00     0.146 A 
ATOM     11  O   UNL     1      -3.422 -11.922  -4.051  1.00  0.00    -0.452 OA
ENDROOT
BRANCH   1  12
ATOM     12  C   UNL     1      -2.838 -11.590  -6.367  1.00  0.00     0.025 A 
ATOM     13  C   UNL     1      -2.998 -12.834  -6.992  1.00  0.00     0.016 A 
ATOM     14  C   UNL     1      -3.338 -12.908  -8.345  1.00  0.00     0.051 A 
ATOM     15  C   UNL     1      -3.540 -11.746  -9.094  1.00  0.00     0.157 A 
ATOM     16  C   UNL     1      -3.063 -10.419  -7.112  1.00  0.00     0.062 A 
ATOM     17  C   UNL     1      -3.408 -10.484  -8.468  1.00  0.00     0.158 A 
BRANCH  15  18
ATOM     18  O   UNL     1      -3.871 -11.888 -10.443  1.00  0.00    -0.504 OA
ATOM     19  H   UNL     1      -4.685 -11.472 -10.872  1.00  0.00     0.293 HD
ENDBRANCH  15  18
BRANCH  17  20
ATOM     20  O   UNL     1      -3.614  -9.280  -9.146  1.00  0.00    -0.504 OA
ATOM     21  H   UNL     1      -3.830  -8.406  -8.691  1.00  0.00     0.293 HD
ENDBRANCH  17  20
ENDBRANCH   1  12
BRANCH   2  22
ATOM     22  O   UNL     1      -0.236 -10.764  -5.385  1.00  0.00    -0.502 OA
ATOM     23  H   UNL     1       0.054  -9.805  -5.537  1.00  0.00     0.293 HD
ENDBRANCH   2  22
BRANCH   6  24
ATOM     24  O   UNL     1      -0.637 -11.035  -0.207  1.00  0.00    -0.507 OA
ATOM     25  H   UNL     1      -0.474 -10.064   0.029  1.00  0.00     0.293 HD
ENDBRANCH   6  24
BRANCH   8  26
ATOM     26  O   UNL     1      -5.120 -12.731   0.338  1.00  0.00    -0.508 OA
ATOM     27  H   UNL     1      -4.950 -13.373   1.103  1.00  0.00     0.293 HD
ENDBRANCH   8  26
TORSDOF 6
ENDMDL
