MODEL 1
REMARK VINA RESULT:    -4.273      0.000      0.000
REMARK INTER + INTRA:          -5.475
REMARK INTER:                  -5.147
REMARK INTRA:                  -0.328
REMARK UNBOUND:                -0.328
REMARK SMILES O=c1c(O)c(-c2ccc(O)c(O)c2)oc2cc(O)cc(O)c12
REMARK SMILES IDX 5 1 3 2 2 3 1 4 22 5 20 6 19 7 17 8 16 9 15 10 14 11 6 12
REMARK SMILES IDX 7 13 8 14 9 15 13 16 11 17 10 18 12 20 4 22 21 24 18 26
REMARK H PARENT 10 19 12 21 4 23 21 25 18 27
REMARK Flexibility Score: inf
ROOT
ATOM      1  C   UNL     1       5.333  11.959   8.105  1.00  0.00     0.180 A 
ATOM      2  C   UNL     1       6.476  12.446   8.761  1.00  0.00     0.208 A 
ATOM      3  C   UNL     1       7.658  12.625   8.026  1.00  0.00     0.238 A 
ATOM      4  O   UNL     1       8.663  13.113   8.608  1.00  0.00    -0.285 OA
ATOM      5  C   UNL     1       7.688  12.300   6.649  1.00  0.00     0.111 A 
ATOM      6  C   UNL     1       8.843  12.405   5.817  1.00  0.00     0.134 A 
ATOM      7  C   UNL     1       8.724  12.181   4.439  1.00  0.00     0.093 A 
ATOM      8  C   UNL     1       7.507  11.793   3.875  1.00  0.00     0.123 A 
ATOM      9  C   UNL     1       6.387  11.631   4.689  1.00  0.00     0.094 A 
ATOM     10  C   UNL     1       6.467  11.882   6.060  1.00  0.00     0.146 A 
ATOM     11  O   UNL     1       5.374  11.726   6.798  1.00  0.00    -0.452 OA
ENDROOT
BRANCH   1  12
ATOM     12  C   UNL     1       4.056  11.720   8.817  1.00  0.00     0.025 A 
ATOM     13  C   UNL     1       3.104  12.749   8.892  1.00  0.00     0.016 A 
ATOM     14  C   UNL     1       1.885  12.538   9.541  1.00  0.00     0.051 A 
ATOM     15  C   UNL     1       1.592  11.295  10.110  1.00  0.00     0.157 A 
ATOM     16  C   UNL     1       3.751  10.464   9.371  1.00  0.00     0.062 A 
ATOM     17  C   UNL     1       2.526  10.250  10.022  1.00  0.00     0.158 A 
BRANCH  15  18
ATOM     18  O   UNL     1       0.367  11.115  10.753  1.00  0.00    -0.504 OA
ATOM     19  H   UNL     1       0.049  11.735  11.488  1.00  0.00     0.293 HD
ENDBRANCH  15  18
BRANCH  17  20
ATOM     20  O   UNL     1       2.235   9.004  10.574  1.00  0.00    -0.504 OA
ATOM     21  H   UNL     1       2.457   8.786  11.538  1.00  0.00     0.293 HD
ENDBRANCH  17  20
ENDBRANCH   1  12
BRANCH   2  22
ATOM     22  O   UNL     1       6.419  12.780  10.117  1.00  0.00    -0.502 OA
ATOM     23  H   UNL     1       6.149  12.115  10.831  1.00  0.00     0.293 HD
ENDBRANCH   2  22
BRANCH   6  24
ATOM     24  O   UNL     1      10.125  12.696   6.293  1.00  0.00    -0.507 OA
ATOM     25  H   UNL     1      10.372  12.771   7.268  1.00  0.00     0.293 HD
ENDBRANCH   6  24
BRANCH   8  26
ATOM     26  O   UNL     1       7.401  11.557   2.506  1.00  0.00    -0.508 OA
ATOM     27  H   UNL     1       8.043  10.940   2.023  1.00  0.00     0.293 HD
ENDBRANCH   8  26
TORSDOF 6
ENDMDL
MODEL 2
REMARK VINA RESULT:    -3.407      1.406      3.292
REMARK INTER + INTRA:          -4.432
REMARK INTER:                  -4.281
REMARK INTRA:                  -0.152
REMARK UNBOUND:                -0.328
REMARK SMILES O=c1c(O)c(-c2ccc(O)c(O)c2)oc2cc(O)cc(O)c12
REMARK SMILES IDX 5 1 3 2 2 3 1 4 22 5 20 6 19 7 17 8 16 9 15 10 14 11 6 12
REMARK SMILES IDX 7 13 8 14 9 15 13 16 11 17 10 18 12 20 4 22 21 24 18 26
REMARK H PARENT 10 19 12 21 4 23 21 25 18 27
REMARK Flexibility Score: inf
ROOT
ATOM      1  C   UNL     1       4.504  11.067   7.150  1.00  0.00     0.180 A 
ATOM      2  C   UNL     1       4.330  10.737   5.795  1.00  0.00     0.208 A 
ATOM      3  C   UNL     1       5.370  11.001   4.891  1.00  0.00     0.238 A 
ATOM      4  O   UNL     1       5.228  10.653   3.688  1.00  0.00    -0.285 OA
ATOM      5  C   UNL     1       6.565  11.606   5.347  1.00  0.00     0.111 A 
ATOM      6  C   UNL     1       7.668  11.955   4.511  1.00  0.00     0.134 A 
ATOM      7  C   UNL     1       8.851  12.429   5.091  1.00  0.00     0.093 A 
ATOM      8  C   UNL     1       8.948  12.628   6.470  1.00  0.00     0.123 A 
ATOM      9  C   UNL     1       7.856  12.346   7.289  1.00  0.00     0.094 A 
ATOM     10  C   UNL     1       6.675  11.838   6.743  1.00  0.00     0.146 A 
ATOM     11  O   UNL     1       5.663  11.572   7.559  1.00  0.00    -0.452 OA
ENDROOT
BRANCH   1  12
ATOM     12  C   UNL     1       3.445  10.842   8.159  1.00  0.00     0.025 A 
ATOM     13  C   UNL     1       3.712  10.030   9.273  1.00  0.00     0.016 A 
ATOM     14  C   UNL     1       2.734   9.822  10.248  1.00  0.00     0.051 A 
ATOM     15  C   UNL     1       1.481  10.432  10.134  1.00  0.00     0.157 A 
ATOM     16  C   UNL     1       2.191  11.472   8.057  1.00  0.00     0.062 A 
ATOM     17  C   UNL     1       1.208  11.264   9.036  1.00  0.00     0.158 A 
BRANCH  15  18
ATOM     18  O   UNL     1       0.523  10.203  11.122  1.00  0.00    -0.504 OA
ATOM     19  H   UNL     1      -0.469  10.311  10.945  1.00  0.00     0.293 HD
ENDBRANCH  15  18
BRANCH  17  20
ATOM     20  O   UNL     1      -0.034  11.887   8.924  1.00  0.00    -0.504 OA
ATOM     21  H   UNL     1      -0.831  11.413   8.515  1.00  0.00     0.293 HD
ENDBRANCH  17  20
ENDBRANCH   1  12
BRANCH   2  22
ATOM     22  O   UNL     1       3.150  10.121   5.368  1.00  0.00    -0.502 OA
ATOM     23  H   UNL     1       2.876  10.086   4.395  1.00  0.00     0.293 HD
ENDBRANCH   2  22
BRANCH   6  24
ATOM     24  O   UNL     1       7.642  11.882   3.115  1.00  0.00    -0.507 OA
ATOM     25  H   UNL     1       8.004  12.591   2.496  1.00  0.00     0.293 HD
ENDBRANCH   6  24
BRANCH   8  26
ATOM     26  O   UNL     1      10.124  13.115   7.037  1.00  0.00    -0.508 OA
ATOM     27  H   UNL     1      10.172  14.041   7.446  1.00  0.00     0.293 HD
ENDBRANCH   8  26
TORSDOF 6
ENDMDL
MODEL 3
REMARK VINA RESULT:    -3.392      1.548      7.020
REMARK INTER + INTRA:          -4.415
REMARK INTER:                  -4.227
REMARK INTRA:                  -0.188
REMARK UNBOUND:                -0.328
REMARK SMILES O=c1c(O)c(-c2ccc(O)c(O)c2)oc2cc(O)cc(O)c12
REMARK SMILES IDX 5 1 3 2 2 3 1 4 22 5 20 6 19 7 17 8 16 9 15 10 14 11 6 12
REMARK SMILES IDX 7 13 8 14 9 15 13 16 11 17 10 18 12 20 4 22 21 24 18 26
REMARK H PARENT 10 19 12 21 4 23 21 25 18 27
REMARK Flexibility Score: inf
ROOT
ATOM      1  C   UNL     1       5.050  11.070   7.219  1.00  0.00     0.180 A 
ATOM      2  C   UNL     1       5.157   9.821   7.855  1.00  0.00     0.208 A 
ATOM      3  C   UNL     1       4.206   9.468   8.825  1.00  0.00     0.238 A 
ATOM      4  O   UNL     1       4.275   8.326   9.353  1.00  0.00    -0.285 OA
ATOM      5  C   UNL     1       3.170  10.373   9.160  1.00  0.00     0.111 A 
ATOM      6  C   UNL     1       2.176  10.135  10.156  1.00  0.00     0.134 A 
ATOM      7  C   UNL     1       1.122  11.044  10.311  1.00  0.00     0.093 A 
ATOM      8  C   UNL     1       1.062  12.214   9.550  1.00  0.00     0.123 A 
ATOM      9  C   UNL     1       2.060  12.484   8.616  1.00  0.00     0.094 A 
ATOM     10  C   UNL     1       3.104  11.578   8.414  1.00  0.00     0.146 A 
ATOM     11  O   UNL     1       4.029  11.869   7.507  1.00  0.00    -0.452 OA
ENDROOT
BRANCH   1  12
ATOM     12  C   UNL     1       6.028  11.523   6.204  1.00  0.00     0.025 A 
ATOM     13  C   UNL     1       5.594  11.786   4.895  1.00  0.00     0.016 A 
ATOM     14  C   UNL     1       6.496  12.235   3.927  1.00  0.00     0.051 A 
ATOM     15  C   UNL     1       7.839  12.443   4.255  1.00  0.00     0.157 A 
ATOM     16  C   UNL     1       7.375  11.753   6.537  1.00  0.00     0.062 A 
ATOM     17  C   UNL     1       8.282  12.206   5.567  1.00  0.00     0.158 A 
BRANCH  15  18
ATOM     18  O   UNL     1       8.717  12.889   3.267  1.00  0.00    -0.504 OA
ATOM     19  H   UNL     1       8.685  13.835   2.906  1.00  0.00     0.293 HD
ENDBRANCH  15  18
BRANCH  17  20
ATOM     20  O   UNL     1       9.617  12.425   5.904  1.00  0.00    -0.504 OA
ATOM     21  H   UNL     1      10.334  11.738   5.705  1.00  0.00     0.293 HD
ENDBRANCH  17  20
ENDBRANCH   1  12
BRANCH   2  22
ATOM     22  O   UNL     1       6.175   8.934   7.496  1.00  0.00    -0.502 OA
ATOM     23  H   UNL     1       7.127   9.235   7.333  1.00  0.00     0.293 HD
ENDBRANCH   2  22
BRANCH   6  24
ATOM     24  O   UNL     1       2.194   9.045  11.031  1.00  0.00    -0.507 OA
ATOM     25  H   UNL     1       1.602   8.949  11.842  1.00  0.00     0.293 HD
ENDBRANCH   6  24
BRANCH   8  26
ATOM     26  O   UNL     1       0.018  13.121   9.722  1.00  0.00    -0.508 OA
ATOM     27  H   UNL     1      -0.700  12.977  10.422  1.00  0.00     0.293 HD
ENDBRANCH   8  26
TORSDOF 6
ENDMDL
MODEL 4
REMARK VINA RESULT:    -3.369      2.081      3.383
REMARK INTER + INTRA:          -4.386
REMARK INTER:                  -4.861
REMARK INTRA:                   0.475
REMARK UNBOUND:                -0.328
REMARK SMILES O=c1c(O)c(-c2ccc(O)c(O)c2)oc2cc(O)cc(O)c12
REMARK SMILES IDX 5 1 3 2 2 3 1 4 22 5 20 6 19 7 17 8 16 9 15 10 14 11 6 12
REMARK SMILES IDX 7 13 8 14 9 15 13 16 11 17 10 18 12 20 4 22 21 24 18 26
REMARK H PARENT 10 19 12 21 4 23 21 25 18 27
REMARK Flexibility Score: inf
ROOT
ATOM      1  C   UNL     1       4.532  11.598   8.047  1.00  0.00     0.180 A 
ATOM      2  C   UNL     1       4.782  10.743   6.961  1.00  0.00     0.208 A 
ATOM      3  C   UNL     1       6.106  10.553   6.535  1.00  0.00     0.238 A 
ATOM      4  O   UNL     1       6.329   9.744   5.596  1.00  0.00    -0.285 OA
ATOM      5  C   UNL     1       7.162  11.232   7.190  1.00  0.00     0.111 A 
ATOM      6  C   UNL     1       8.537  11.145   6.816  1.00  0.00     0.134 A 
ATOM      7  C   UNL     1       9.509  11.756   7.617  1.00  0.00     0.093 A 
ATOM      8  C   UNL     1       9.151  12.506   8.739  1.00  0.00     0.123 A 
ATOM      9  C   UNL     1       7.807  12.646   9.078  1.00  0.00     0.094 A 
ATOM     10  C   UNL     1       6.817  12.018   8.320  1.00  0.00     0.146 A 
ATOM     11  O   UNL     1       5.549  12.168   8.683  1.00  0.00    -0.452 OA
ENDROOT
BRANCH   1  12
ATOM     12  C   UNL     1       3.161  11.868   8.539  1.00  0.00     0.025 A 
ATOM     13  C   UNL     1       2.963  12.830   9.542  1.00  0.00     0.016 A 
ATOM     14  C   UNL     1       1.676  13.115  10.005  1.00  0.00     0.051 A 
ATOM     15  C   UNL     1       0.568  12.456   9.463  1.00  0.00     0.157 A 
ATOM     16  C   UNL     1       2.043  11.221   7.981  1.00  0.00     0.062 A 
ATOM     17  C   UNL     1       0.750  11.508   8.444  1.00  0.00     0.158 A 
BRANCH  15  18
ATOM     18  O   UNL     1      -0.704  12.760   9.948  1.00  0.00    -0.504 OA
ATOM     19  H   UNL     1      -1.547  12.481   9.459  1.00  0.00     0.293 HD
ENDBRANCH  15  18
BRANCH  17  20
ATOM     20  O   UNL     1      -0.352  10.858   7.889  1.00  0.00    -0.504 OA
ATOM     21  H   UNL     1      -0.453  10.745   6.888  1.00  0.00     0.293 HD
ENDBRANCH  17  20
ENDBRANCH   1  12
BRANCH   2  22
ATOM     22  O   UNL     1       3.728  10.065   6.342  1.00  0.00    -0.502 OA
ATOM     23  H   UNL     1       3.168  10.484   5.610  1.00  0.00     0.293 HD
ENDBRANCH   2  22
BRANCH   6  24
ATOM     24  O   UNL     1       8.992  10.498   5.664  1.00  0.00    -0.507 OA
ATOM     25  H   UNL     1       9.909  10.619   5.261  1.00  0.00     0.293 HD
ENDBRANCH   6  24
BRANCH   8  26
ATOM     26  O   UNL     1      10.125  13.125   9.521  1.00  0.00    -0.508 OA
ATOM     27  H   UNL     1       9.878  13.738  10.289  1.00  0.00     0.293 HD
ENDBRANCH   8  26
TORSDOF 6
ENDMDL
