MODEL 1
REMARK VINA RESULT:    -4.471      0.000      0.000
REMARK INTER + INTRA:          -8.941
REMARK INTER:                  -7.607
REMARK INTRA:                  -1.335
REMARK UNBOUND:                -1.335
REMARK SMILES CCCCCCCCCCCCCC(=O)[O-]
REMARK SMILES IDX 8 1 9 2 10 3 11 4 12 5 13 6 14 7 15 8 16 9 7 10 6 11 5 12
REMARK SMILES IDX 4 13 3 14 2 15 1 16
REMARK H PARENT
REMARK Flexibility Score: inf
ROOT
ATOM      1  C   UNL     1       7.776  11.485   7.836  1.00  0.00     0.000 C 
ENDROOT
BRANCH   1   2
ATOM      2  C   UNL     1       7.064  12.549   8.681  1.00  0.00     0.000 C 
BRANCH   2   3
ATOM      3  C   UNL     1       5.749  12.009   9.254  1.00  0.00     0.000 C 
BRANCH   3   4
ATOM      4  C   UNL     1       5.469  10.591   8.745  1.00  0.00     0.000 C 
BRANCH   4   5
ATOM      5  C   UNL     1       4.097  10.096   9.218  1.00  0.00     0.006 C 
BRANCH   5   6
ATOM      6  C   UNL     1       2.982  11.034   8.749  1.00  0.00     0.053 C 
BRANCH   6   7
ATOM      7  C   UNL     1       1.952  11.202   9.821  1.00  0.00     0.041 C 
ATOM      8  O   UNL     1       1.789  10.305  10.690  1.00  0.00    -0.550 OA
ATOM      9  O   UNL     1       1.136  12.326   9.833  1.00  0.00    -0.550 OA
ENDBRANCH   6   7
ENDBRANCH   5   6
ENDBRANCH   4   5
ENDBRANCH   3   4
ENDBRANCH   2   3
ENDBRANCH   1   2
BRANCH   1  10
ATOM     10  C   UNL     1       9.160  11.976   7.385  1.00  0.00     0.000 C 
BRANCH  10  11
ATOM     11  C   UNL     1       9.491  11.568   5.941  1.00  0.00    -0.000 C 
BRANCH  11  12
ATOM     12  C   UNL     1       9.659  12.777   5.007  1.00  0.00    -0.000 C 
BRANCH  12  13
ATOM     13  C   UNL     1       8.496  12.863   4.008  1.00  0.00    -0.000 C 
BRANCH  13  14
ATOM     14  C   UNL     1       7.494  11.708   4.164  1.00  0.00    -0.000 C 
BRANCH  14  15
ATOM     15  C   UNL     1       6.071  12.198   4.469  1.00  0.00    -0.003 C 
ATOM     16  C   UNL     1       5.255  11.116   5.171  1.00  0.00     0.004 C 
ENDBRANCH  14  15
ENDBRANCH  13  14
ENDBRANCH  12  13
ENDBRANCH  11  12
ENDBRANCH  10  11
ENDBRANCH   1  10
TORSDOF 12
ENDMDL
MODEL 2
REMARK VINA RESULT:    -4.363      2.841      6.237
REMARK INTER + INTRA:          -8.759
REMARK INTER:                  -7.529
REMARK INTRA:                  -1.231
REMARK UNBOUND:                -1.335
REMARK SMILES CCCCCCCCCCCCCC(=O)[O-]
REMARK SMILES IDX 8 1 9 2 10 3 11 4 12 5 13 6 14 7 15 8 16 9 7 10 6 11 5 12
REMARK SMILES IDX 4 13 3 14 2 15 1 16
REMARK H PARENT
REMARK Flexibility Score: inf
ROOT
ATOM      1  C   UNL     1       6.895  10.956   7.808  1.00  0.00     0.000 C 
ENDROOT
BRANCH   1   2
ATOM      2  C   UNL     1       7.563  12.273   8.223  1.00  0.00     0.000 C 
BRANCH   2   3
ATOM      3  C   UNL     1       8.982  12.375   7.654  1.00  0.00     0.000 C 
BRANCH   3   4
ATOM      4  C   UNL     1       9.108  11.586   6.345  1.00  0.00     0.000 C 
BRANCH   4   5
ATOM      5  C   UNL     1       9.107  12.526   5.133  1.00  0.00     0.006 C 
BRANCH   5   6
ATOM      6  C   UNL     1       8.242  11.963   4.002  1.00  0.00     0.053 C 
BRANCH   6   7
ATOM      7  C   UNL     1       6.791  12.074   4.347  1.00  0.00     0.041 C 
ATOM      8  O   UNL     1       6.345  13.125   4.880  1.00  0.00    -0.550 OA
ATOM      9  O   UNL     1       5.938  11.000   4.127  1.00  0.00    -0.550 OA
ENDBRANCH   6   7
ENDBRANCH   5   6
ENDBRANCH   4   5
ENDBRANCH   3   4
ENDBRANCH   2   3
ENDBRANCH   1   2
BRANCH   1  10
ATOM     10  C   UNL     1       5.378  11.136   7.641  1.00  0.00     0.000 C 
BRANCH  10  11
ATOM     11  C   UNL     1       4.633   9.799   7.515  1.00  0.00    -0.000 C 
BRANCH  11  12
ATOM     12  C   UNL     1       3.919   9.393   8.814  1.00  0.00    -0.000 C 
BRANCH  12  13
ATOM     13  C   UNL     1       3.653  10.620   9.698  1.00  0.00    -0.000 C 
BRANCH  13  14
ATOM     14  C   UNL     1       2.215  10.661  10.239  1.00  0.00    -0.000 C 
BRANCH  14  15
ATOM     15  C   UNL     1       1.348  11.714   9.533  1.00  0.00    -0.003 C 
ATOM     16  C   UNL     1       1.873  13.123   9.793  1.00  0.00     0.004 C 
ENDBRANCH  14  15
ENDBRANCH  13  14
ENDBRANCH  12  13
ENDBRANCH  11  12
ENDBRANCH  10  11
ENDBRANCH   1  10
TORSDOF 12
ENDMDL
MODEL 3
REMARK VINA RESULT:    -4.358      3.634      6.768
REMARK INTER + INTRA:          -8.749
REMARK INTER:                  -7.491
REMARK INTRA:                  -1.259
REMARK UNBOUND:                -1.335
REMARK SMILES CCCCCCCCCCCCCC(=O)[O-]
REMARK SMILES IDX 8 1 9 2 10 3 11 4 12 5 13 6 14 7 15 8 16 9 7 10 6 11 5 12
REMARK SMILES IDX 4 13 3 14 2 15 1 16
REMARK H PARENT
REMARK Flexibility Score: inf
ROOT
ATOM      1  C   UNL     1       5.302  11.327   6.494  1.00  0.00     0.000 C 
ENDROOT
BRANCH   1   2
ATOM      2  C   UNL     1       6.232  12.307   7.222  1.00  0.00     0.000 C 
BRANCH   2   3
ATOM      3  C   UNL     1       7.320  11.559   8.001  1.00  0.00     0.000 C 
BRANCH   3   4
ATOM      4  C   UNL     1       8.711  12.108   7.667  1.00  0.00     0.000 C 
BRANCH   4   5
ATOM      5  C   UNL     1       9.154  11.674   6.264  1.00  0.00     0.006 C 
BRANCH   5   6
ATOM      6  C   UNL     1       9.321  12.884   5.341  1.00  0.00     0.053 C 
BRANCH   6   7
ATOM      7  C   UNL     1       8.751  12.595   3.989  1.00  0.00     0.041 C 
ATOM      8  O   UNL     1       9.289  13.078   2.958  1.00  0.00    -0.550 OA
ATOM      9  O   UNL     1       7.597  11.832   3.868  1.00  0.00    -0.550 OA
ENDBRANCH   6   7
ENDBRANCH   5   6
ENDBRANCH   4   5
ENDBRANCH   3   4
ENDBRANCH   2   3
ENDBRANCH   1   2
BRANCH   1  10
ATOM     10  C   UNL     1       5.213   9.990   7.246  1.00  0.00     0.000 C 
BRANCH  10  11
ATOM     11  C   UNL     1       3.772   9.620   7.629  1.00  0.00    -0.000 C 
BRANCH  11  12
ATOM     12  C   UNL     1       3.582   9.466   9.146  1.00  0.00    -0.000 C 
BRANCH  12  13
ATOM     13  C   UNL     1       3.861  10.791   9.870  1.00  0.00    -0.000 C 
BRANCH  13  14
ATOM     14  C   UNL     1       2.917  11.920   9.427  1.00  0.00    -0.000 C 
BRANCH  14  15
ATOM     15  C   UNL     1       1.557  11.866  10.137  1.00  0.00    -0.003 C 
ATOM     16  C   UNL     1       0.525  12.727   9.414  1.00  0.00     0.004 C 
ENDBRANCH  14  15
ENDBRANCH  13  14
ENDBRANCH  12  13
ENDBRANCH  11  12
ENDBRANCH  10  11
ENDBRANCH   1  10
TORSDOF 12
ENDMDL
MODEL 4
REMARK VINA RESULT:    -4.357      0.847      2.782
REMARK INTER + INTRA:          -8.748
REMARK INTER:                  -7.669
REMARK INTRA:                  -1.079
REMARK UNBOUND:                -1.335
REMARK SMILES CCCCCCCCCCCCCC(=O)[O-]
REMARK SMILES IDX 8 1 9 2 10 3 11 4 12 5 13 6 14 7 15 8 16 9 7 10 6 11 5 12
REMARK SMILES IDX 4 13 3 14 2 15 1 16
REMARK H PARENT
REMARK Flexibility Score: inf
ROOT
ATOM      1  C   UNL     1       5.437  11.043   4.396  1.00  0.00     0.000 C 
ENDROOT
BRANCH   1   2
ATOM      2  C   UNL     1       4.625  10.930   5.692  1.00  0.00     0.000 C 
BRANCH   2   3
ATOM      3  C   UNL     1       5.404  10.164   6.766  1.00  0.00     0.000 C 
BRANCH   3   4
ATOM      4  C   UNL     1       4.463   9.627   7.851  1.00  0.00     0.000 C 
BRANCH   4   5
ATOM      5  C   UNL     1       4.630  10.407   9.161  1.00  0.00     0.006 C 
BRANCH   5   6
ATOM      6  C   UNL     1       3.654  11.585   9.228  1.00  0.00     0.053 C 
BRANCH   6   7
ATOM      7  C   UNL     1       2.348  11.151   9.813  1.00  0.00     0.041 C 
ATOM      8  O   UNL     1       2.284  10.109  10.518  1.00  0.00    -0.550 OA
ATOM      9  O   UNL     1       1.190  11.869   9.540  1.00  0.00    -0.550 OA
ENDBRANCH   6   7
ENDBRANCH   5   6
ENDBRANCH   4   5
ENDBRANCH   3   4
ENDBRANCH   2   3
ENDBRANCH   1   2
BRANCH   1  10
ATOM     10  C   UNL     1       6.519  12.127   4.516  1.00  0.00     0.000 C 
BRANCH  10  11
ATOM     11  C   UNL     1       7.935  11.581   4.273  1.00  0.00    -0.000 C 
BRANCH  11  12
ATOM     12  C   UNL     1       8.940  12.683   3.905  1.00  0.00    -0.000 C 
BRANCH  12  13
ATOM     13  C   UNL     1      10.003  12.842   5.002  1.00  0.00    -0.000 C 
BRANCH  13  14
ATOM     14  C   UNL     1       9.846  11.816   6.135  1.00  0.00    -0.000 C 
BRANCH  14  15
ATOM     15  C   UNL     1       9.587  12.475   7.498  1.00  0.00    -0.003 C 
ATOM     16  C   UNL     1       8.192  12.137   8.015  1.00  0.00     0.004 C 
ENDBRANCH  14  15
ENDBRANCH  13  14
ENDBRANCH  12  13
ENDBRANCH  11  12
ENDBRANCH  10  11
ENDBRANCH   1  10
TORSDOF 12
ENDMDL
MODEL 5
REMARK VINA RESULT:    -4.312      2.141      5.380
REMARK INTER + INTRA:          -8.671
REMARK INTER:                  -7.450
REMARK INTRA:                  -1.221
REMARK UNBOUND:                -1.335
REMARK SMILES CCCCCCCCCCCCCC(=O)[O-]
REMARK SMILES IDX 8 1 9 2 10 3 11 4 12 5 13 6 14 7 15 8 16 9 7 10 6 11 5 12
REMARK SMILES IDX 4 13 3 14 2 15 1 16
REMARK H PARENT
REMARK Flexibility Score: inf
ROOT
ATOM      1  C   UNL     1       8.690  11.858   7.779  1.00  0.00     0.000 C 
ENDROOT
BRANCH   1   2
ATOM      2  C   UNL     1       9.109  11.433   6.365  1.00  0.00     0.000 C 
BRANCH   2   3
ATOM      3  C   UNL     1       9.304  12.653   5.458  1.00  0.00     0.000 C 
BRANCH   3   4
ATOM      4  C   UNL     1       8.387  12.580   4.232  1.00  0.00     0.000 C 
BRANCH   4   5
ATOM      5  C   UNL     1       7.442  11.376   4.322  1.00  0.00     0.006 C 
BRANCH   5   6
ATOM      6  C   UNL     1       5.986  11.829   4.464  1.00  0.00     0.053 C 
BRANCH   6   7
ATOM      7  C   UNL     1       5.252  10.942   5.418  1.00  0.00     0.041 C 
ATOM      8  O   UNL     1       3.995  10.874   5.381  1.00  0.00    -0.550 OA
ATOM      9  O   UNL     1       5.951  10.226   6.382  1.00  0.00    -0.550 OA
ENDBRANCH   6   7
ENDBRANCH   5   6
ENDBRANCH   4   5
ENDBRANCH   3   4
ENDBRANCH   2   3
ENDBRANCH   1   2
BRANCH   1  10
ATOM     10  C   UNL     1       7.600  12.939   7.728  1.00  0.00     0.000 C 
BRANCH  10  11
ATOM     11  C   UNL     1       6.761  12.995   9.014  1.00  0.00    -0.000 C 
BRANCH  11  12
ATOM     12  C   UNL     1       5.259  12.806   8.751  1.00  0.00    -0.000 C 
BRANCH  12  13
ATOM     13  C   UNL     1       4.748  11.512   9.402  1.00  0.00    -0.000 C 
BRANCH  13  14
ATOM     14  C   UNL     1       3.401  11.049   8.825  1.00  0.00    -0.000 C 
BRANCH  14  15
ATOM     15  C   UNL     1       2.306  10.939   9.895  1.00  0.00    -0.003 C 
ATOM     16  C   UNL     1       1.381  12.152   9.861  1.00  0.00     0.004 C 
ENDBRANCH  14  15
ENDBRANCH  13  14
ENDBRANCH  12  13
ENDBRANCH  11  12
ENDBRANCH  10  11
ENDBRANCH   1  10
TORSDOF 12
ENDMDL
MODEL 6
REMARK VINA RESULT:    -4.280      2.398      5.235
REMARK INTER + INTRA:          -8.618
REMARK INTER:                  -7.102
REMARK INTRA:                  -1.516
REMARK UNBOUND:                -1.335
REMARK SMILES CCCCCCCCCCCCCC(=O)[O-]
REMARK SMILES IDX 8 1 9 2 10 3 11 4 12 5 13 6 14 7 15 8 16 9 7 10 6 11 5 12
REMARK SMILES IDX 4 13 3 14 2 15 1 16
REMARK H PARENT
REMARK Flexibility Score: inf
ROOT
ATOM      1  C   UNL     1       8.799  11.446   7.428  1.00  0.00     0.000 C 
ENDROOT
BRANCH   1   2
ATOM      2  C   UNL     1       9.571  11.726   6.133  1.00  0.00     0.000 C 
BRANCH   2   3
ATOM      3  C   UNL     1       9.239  13.118   5.584  1.00  0.00     0.000 C 
BRANCH   3   4
ATOM      4  C   UNL     1       8.712  13.033   4.147  1.00  0.00     0.000 C 
BRANCH   4   5
ATOM      5  C   UNL     1       7.693  11.897   4.001  1.00  0.00     0.006 C 
BRANCH   5   6
ATOM      6  C   UNL     1       6.332  12.301   4.573  1.00  0.00     0.053 C 
BRANCH   6   7
ATOM      7  C   UNL     1       5.633  11.113   5.154  1.00  0.00     0.041 C 
ATOM      8  O   UNL     1       4.384  10.996   5.044  1.00  0.00    -0.550 OA
ATOM      9  O   UNL     1       6.353  10.158   5.860  1.00  0.00    -0.550 OA
ENDBRANCH   6   7
ENDBRANCH   5   6
ENDBRANCH   4   5
ENDBRANCH   3   4
ENDBRANCH   2   3
ENDBRANCH   1   2
BRANCH   1  10
ATOM     10  C   UNL     1       8.092  12.712   7.933  1.00  0.00     0.000 C 
BRANCH  10  11
ATOM     11  C   UNL     1       6.886  12.399   8.833  1.00  0.00    -0.000 C 
BRANCH  11  12
ATOM     12  C   UNL     1       5.558  12.890   8.237  1.00  0.00    -0.000 C 
BRANCH  12  13
ATOM     13  C   UNL     1       4.403  11.956   8.629  1.00  0.00    -0.000 C 
BRANCH  13  14
ATOM     14  C   UNL     1       4.848  10.828   9.574  1.00  0.00    -0.000 C 
BRANCH  14  15
ATOM     15  C   UNL     1       4.901   9.461   8.877  1.00  0.00    -0.003 C 
ATOM     16  C   UNL     1       3.665   9.237   8.011  1.00  0.00     0.004 C 
ENDBRANCH  14  15
ENDBRANCH  13  14
ENDBRANCH  12  13
ENDBRANCH  11  12
ENDBRANCH  10  11
ENDBRANCH   1  10
TORSDOF 12
ENDMDL
MODEL 7
REMARK VINA RESULT:    -4.173      2.256      5.709
REMARK INTER + INTRA:          -8.434
REMARK INTER:                  -7.195
REMARK INTRA:                  -1.239
REMARK UNBOUND:                -1.335
REMARK SMILES CCCCCCCCCCCCCC(=O)[O-]
REMARK SMILES IDX 8 1 9 2 10 3 11 4 12 5 13 6 14 7 15 8 16 9 7 10 6 11 5 12
REMARK SMILES IDX 4 13 3 14 2 15 1 16
REMARK H PARENT
REMARK Flexibility Score: inf
ROOT
ATOM      1  C   UNL     1       5.694  11.179   4.532  1.00  0.00     0.000 C 
ENDROOT
BRANCH   1   2
ATOM      2  C   UNL     1       6.455  12.507   4.429  1.00  0.00     0.000 C 
BRANCH   2   3
ATOM      3  C   UNL     1       7.968  12.284   4.526  1.00  0.00     0.000 C 
BRANCH   3   4
ATOM      4  C   UNL     1       8.291  11.083   5.422  1.00  0.00     0.000 C 
BRANCH   4   5
ATOM      5  C   UNL     1       9.179  11.499   6.601  1.00  0.00     0.006 C 
BRANCH   5   6
ATOM      6  C   UNL     1       8.572  12.684   7.356  1.00  0.00     0.053 C 
BRANCH   6   7
ATOM      7  C   UNL     1       7.359  12.255   8.119  1.00  0.00     0.041 C 
ATOM      8  O   UNL     1       7.287  11.089   8.590  1.00  0.00    -0.550 OA
ATOM      9  O   UNL     1       6.286  13.125   8.268  1.00  0.00    -0.550 OA
ENDBRANCH   6   7
ENDBRANCH   5   6
ENDBRANCH   4   5
ENDBRANCH   3   4
ENDBRANCH   2   3
ENDBRANCH   1   2
BRANCH   1  10
ATOM     10  C   UNL     1       4.655  11.226   5.662  1.00  0.00     0.000 C 
BRANCH  10  11
ATOM     11  C   UNL     1       4.823  10.078   6.670  1.00  0.00    -0.000 C 
BRANCH  11  12
ATOM     12  C   UNL     1       3.531   9.773   7.443  1.00  0.00    -0.000 C 
BRANCH  12  13
ATOM     13  C   UNL     1       3.822   9.574   8.938  1.00  0.00    -0.000 C 
BRANCH  13  14
ATOM     14  C   UNL     1       3.914  10.901   9.707  1.00  0.00    -0.000 C 
BRANCH  14  15
ATOM     15  C   UNL     1       2.864  11.924   9.250  1.00  0.00    -0.003 C 
ATOM     16  C   UNL     1       1.529  11.690   9.951  1.00  0.00     0.004 C 
ENDBRANCH  14  15
ENDBRANCH  13  14
ENDBRANCH  12  13
ENDBRANCH  11  12
ENDBRANCH  10  11
ENDBRANCH   1  10
TORSDOF 12
ENDMDL
MODEL 8
REMARK VINA RESULT:    -4.097      1.198      3.038
REMARK INTER + INTRA:          -8.306
REMARK INTER:                  -6.634
REMARK INTRA:                  -1.672
REMARK UNBOUND:                -1.335
REMARK SMILES CCCCCCCCCCCCCC(=O)[O-]
REMARK SMILES IDX 8 1 9 2 10 3 11 4 12 5 13 6 14 7 15 8 16 9 7 10 6 11 5 12
REMARK SMILES IDX 4 13 3 14 2 15 1 16
REMARK H PARENT
REMARK Flexibility Score: inf
ROOT
ATOM      1  C   UNL     1       5.031   9.756   7.060  1.00  0.00     0.000 C 
ENDROOT
BRANCH   1   2
ATOM      2  C   UNL     1       5.731  10.317   8.305  1.00  0.00     0.000 C 
BRANCH   2   3
ATOM      3  C   UNL     1       5.609  11.843   8.365  1.00  0.00     0.000 C 
BRANCH   3   4
ATOM      4  C   UNL     1       4.796  12.283   9.588  1.00  0.00     0.000 C 
BRANCH   4   5
ATOM      5  C   UNL     1       3.584  13.125   9.172  1.00  0.00     0.006 C 
BRANCH   5   6
ATOM      6  C   UNL     1       2.318  12.664   9.898  1.00  0.00     0.053 C 
BRANCH   6   7
ATOM      7  C   UNL     1       2.028  11.230   9.587  1.00  0.00     0.041 C 
ATOM      8  O   UNL     1       1.833  10.866   8.397  1.00  0.00    -0.550 OA
ATOM      9  O   UNL     1       1.922  10.302  10.616  1.00  0.00    -0.550 OA
ENDBRANCH   6   7
ENDBRANCH   5   6
ENDBRANCH   4   5
ENDBRANCH   3   4
ENDBRANCH   2   3
ENDBRANCH   1   2
BRANCH   1  10
ATOM     10  C   UNL     1       4.571  10.889   6.130  1.00  0.00     0.000 C 
BRANCH  10  11
ATOM     11  C   UNL     1       5.258  10.843   4.757  1.00  0.00    -0.000 C 
BRANCH  11  12
ATOM     12  C   UNL     1       5.977  12.156   4.409  1.00  0.00    -0.000 C 
BRANCH  12  13
ATOM     13  C   UNL     1       7.498  11.949   4.354  1.00  0.00    -0.000 C 
BRANCH  13  14
ATOM     14  C   UNL     1       8.236  12.669   5.494  1.00  0.00    -0.000 C 
BRANCH  14  15
ATOM     15  C   UNL     1       8.913  11.694   6.467  1.00  0.00    -0.003 C 
ATOM     16  C   UNL     1       9.254  12.382   7.786  1.00  0.00     0.004 C 
ENDBRANCH  14  15
ENDBRANCH  13  14
ENDBRANCH  12  13
ENDBRANCH  11  12
ENDBRANCH  10  11
ENDBRANCH   1  10
TORSDOF 12
ENDMDL
