MODEL 1
REMARK VINA RESULT:   149.860      0.000      0.000
REMARK INTER + INTRA:         164.164
REMARK INTER:                 163.001
REMARK INTRA:                   1.162
REMARK UNBOUND:                 1.162
REMARK SMILES C[C@H]1[C@H](C)CC[C@@]2(C(=O)[O-])CC[C@@]3(C)C(=CC[C@H]4[C@]5(C)CC[C@@H](O)C(C)(C)[C@H]5CC[C@]43C)[C@H]12
REMARK SMILES IDX 7 1 6 2 11 3 33 4 5 5 12 6 15 7 2 8 3 9 13 10 16 11 1 12
REMARK SMILES IDX 4 13 14 14 31 15 17 16 18 17 30 18 32 19 19 20 29 21 28 22
REMARK SMILES IDX 21 23 20 24 25 25 22 26 23 27 26 28 27 29 8 30 9 31 10 32
REMARK SMILES IDX 24 33
REMARK H PARENT 24 34
REMARK Flexibility Score: inf
ROOT
ATOM      1  C   UNL     1      12.093   6.607  29.396  1.00  0.00     0.017 C 
ATOM      2  C   UNL     1      11.810   8.025  30.015  1.00  0.00     0.014 C 
ATOM      3  C   UNL     1      11.666   5.452  30.396  1.00  0.00     0.014 C 
ATOM      4  C   UNL     1      11.303   6.393  28.065  1.00  0.00     0.030 C 
ATOM      5  C   UNL     1      10.654   8.771  29.350  1.00  0.00     0.004 C 
ATOM      6  C   UNL     1      10.825   4.283  29.797  1.00  0.00     0.013 C 
ATOM      7  C   UNL     1      11.653   5.007  27.517  1.00  0.00    -0.063 C 
ATOM      8  C   UNL     1      11.328   7.619  27.101  1.00  0.00    -0.003 C 
ATOM      9  C   UNL     1      10.867   8.939  27.827  1.00  0.00    -0.011 C 
ATOM     10  C   UNL     1      11.196   3.796  28.335  1.00  0.00    -0.006 C 
ATOM     11  C   UNL     1      12.367   4.824  26.396  1.00  0.00    -0.027 C 
ATOM     12  C   UNL     1      10.437   7.391  25.858  1.00  0.00     0.008 C 
ATOM     13  C   UNL     1      11.810  10.112  27.517  1.00  0.00     0.008 C 
ATOM     14  C   UNL     1       9.862   3.311  27.680  1.00  0.00     0.017 C 
ATOM     15  C   UNL     1      12.298   2.608  28.324  1.00  0.00    -0.020 C 
ATOM     16  C   UNL     1      12.523   3.467  25.802  1.00  0.00     0.032 C 
ATOM     17  C   UNL     1      12.924   2.379  26.845  1.00  0.00     0.006 C 
ATOM     18  C   UNL     1      13.450   2.914  29.353  1.00  0.00     0.008 C 
ATOM     19  C   UNL     1      11.611   1.287  28.830  1.00  0.00     0.012 C 
ATOM     20  C   UNL     1      14.483   2.044  26.791  1.00  0.00    -0.025 C 
ATOM     21  C   UNL     1      14.671   1.954  29.344  1.00  0.00     0.005 C 
ATOM     22  C   UNL     1      14.802   1.148  28.035  1.00  0.00     0.003 C 
ATOM     23  C   UNL     1      14.840   1.256  25.477  1.00  0.00     0.010 C 
ATOM     24  C   UNL     1      15.317   3.370  26.775  1.00  0.00     0.012 C 
ATOM     25  C   UNL     1      16.054   0.195  27.903  1.00  0.00    -0.006 C 
ATOM     26  C   UNL     1      14.789  -0.266  25.639  1.00  0.00     0.033 C 
ATOM     27  C   UNL     1      15.822  -0.782  26.679  1.00  0.00     0.120 C 
ATOM     28  C   UNL     1      17.388   0.971  27.754  1.00  0.00     0.014 C 
ATOM     29  C   UNL     1      16.192  -0.673  29.181  1.00  0.00     0.014 C 
ENDROOT
BRANCH   1  30
ATOM     30  C   UNL     1      13.608   6.541  29.177  1.00  0.00     0.048 C 
ATOM     31  O   UNL     1      14.293   7.597  29.231  1.00  0.00    -0.550 OA
ATOM     32  O   UNL     1      14.250   5.362  28.826  1.00  0.00    -0.550 OA
ENDBRANCH   1  30
BRANCH  27  33
ATOM     33  O   UNL     1      17.037  -1.093  26.043  1.00  0.00    -0.393 OA
ATOM     34  H   UNL     1      16.823  -1.639  25.245  1.00  0.00     0.210 HD
ENDBRANCH  27  33
TORSDOF 2
ENDMDL
