MODEL 1
REMARK VINA RESULT:    26.759      0.000      0.000
REMARK INTER + INTRA:          31.213
REMARK INTER:                  31.452
REMARK INTRA:                  -0.238
REMARK UNBOUND:                -0.238
REMARK SMILES O=c1c(O)c(-c2ccc(O)cc2)oc2cc(O)cc(O)c12
REMARK SMILES IDX 5 1 3 2 2 3 1 4 21 5 19 6 18 7 16 8 15 9 14 10 13 11 6 12
REMARK SMILES IDX 7 13 8 14 9 15 12 16 11 17 10 18 4 20 20 22 17 24
REMARK H PARENT 10 19 4 21 20 23 17 25
REMARK Flexibility Score: inf
ROOT
ATOM      1  C   UNL     1       9.301   1.418   9.181  1.00  0.00     0.180 A 
ATOM      2  C   UNL     1      10.076   0.349   8.702  1.00  0.00     0.208 A 
ATOM      3  C   UNL     1      11.082   0.607   7.756  1.00  0.00     0.238 A 
ATOM      4  O   UNL     1      11.723  -0.365   7.276  1.00  0.00    -0.285 OA
ATOM      5  C   UNL     1      11.339   1.937   7.345  1.00  0.00     0.111 A 
ATOM      6  C   UNL     1      12.363   2.320   6.426  1.00  0.00     0.134 A 
ATOM      7  C   UNL     1      12.453   3.655   6.011  1.00  0.00     0.093 A 
ATOM      8  C   UNL     1      11.602   4.630   6.527  1.00  0.00     0.123 A 
ATOM      9  C   UNL     1      10.632   4.276   7.467  1.00  0.00     0.094 A 
ATOM     10  C   UNL     1      10.491   2.948   7.872  1.00  0.00     0.146 A 
ATOM     11  O   UNL     1       9.542   2.651   8.752  1.00  0.00    -0.452 OA
ENDROOT
BRANCH   1  12
ATOM     12  C   UNL     1       8.213   1.224  10.166  1.00  0.00     0.021 A 
ATOM     13  C   UNL     1       8.533   1.038  11.521  1.00  0.00     0.016 A 
ATOM     14  C   UNL     1       7.521   0.875  12.472  1.00  0.00     0.047 A 
ATOM     15  C   UNL     1       6.179   0.911  12.085  1.00  0.00     0.115 A 
ATOM     16  C   UNL     1       6.860   1.279   9.785  1.00  0.00     0.016 A 
ATOM     17  C   UNL     1       5.850   1.116  10.738  1.00  0.00     0.047 A 
BRANCH  15  18
ATOM     18  O   UNL     1       5.181   0.746  13.043  1.00  0.00    -0.508 OA
ATOM     19  H   UNL     1       5.392   0.411  13.975  1.00  0.00     0.293 HD
ENDBRANCH  15  18
ENDBRANCH   1  12
BRANCH   2  20
ATOM     20  O   UNL     1       9.859  -0.948   9.178  1.00  0.00    -0.502 OA
ATOM     21  H   UNL     1       8.964  -1.413   9.098  1.00  0.00     0.293 HD
ENDBRANCH   2  20
BRANCH   6  22
ATOM     22  O   UNL     1      13.325   1.444   5.915  1.00  0.00    -0.507 OA
ATOM     23  H   UNL     1      13.458   0.491   6.218  1.00  0.00     0.293 HD
ENDBRANCH   6  22
BRANCH   8  24
ATOM     24  O   UNL     1      11.732   5.950   6.104  1.00  0.00    -0.508 OA
ATOM     25  H   UNL     1      12.459   6.556   6.471  1.00  0.00     0.293 HD
ENDBRANCH   8  24
TORSDOF 5
ENDMDL
MODEL 2
REMARK VINA RESULT:    27.310      1.208      2.880
REMARK INTER + INTRA:          31.862
REMARK INTER:                  32.024
REMARK INTRA:                  -0.163
REMARK UNBOUND:                -0.238
REMARK SMILES O=c1c(O)c(-c2ccc(O)cc2)oc2cc(O)cc(O)c12
REMARK SMILES IDX 5 1 3 2 2 3 1 4 21 5 19 6 18 7 16 8 15 9 14 10 13 11 6 12
REMARK SMILES IDX 7 13 8 14 9 15 12 16 11 17 10 18 4 20 20 22 17 24
REMARK H PARENT 10 19 4 21 20 23 17 25
REMARK Flexibility Score: inf
ROOT
ATOM      1  C   UNL     1       9.226   2.095   9.123  1.00  0.00     0.180 A 
ATOM      2  C   UNL     1       9.184   3.414   8.640  1.00  0.00     0.208 A 
ATOM      3  C   UNL     1      10.167   3.839   7.733  1.00  0.00     0.238 A 
ATOM      4  O   UNL     1      10.167   5.043   7.362  1.00  0.00    -0.285 OA
ATOM      5  C   UNL     1      11.147   2.926   7.275  1.00  0.00     0.111 A 
ATOM      6  C   UNL     1      12.165   3.235   6.322  1.00  0.00     0.134 A 
ATOM      7  C   UNL     1      13.146   2.281   6.026  1.00  0.00     0.093 A 
ATOM      8  C   UNL     1      13.111   1.010   6.596  1.00  0.00     0.123 A 
ATOM      9  C   UNL     1      12.090   0.678   7.487  1.00  0.00     0.094 A 
ATOM     10  C   UNL     1      11.119   1.620   7.833  1.00  0.00     0.146 A 
ATOM     11  O   UNL     1      10.178   1.270   8.701  1.00  0.00    -0.452 OA
ENDROOT
BRANCH   1  12
ATOM     12  C   UNL     1       8.234   1.577  10.093  1.00  0.00     0.021 A 
ATOM     13  C   UNL     1       8.636   1.301  11.410  1.00  0.00     0.016 A 
ATOM     14  C   UNL     1       7.711   0.832  12.348  1.00  0.00     0.047 A 
ATOM     15  C   UNL     1       6.373   0.649  11.987  1.00  0.00     0.115 A 
ATOM     16  C   UNL     1       6.883   1.410   9.740  1.00  0.00     0.016 A 
ATOM     17  C   UNL     1       5.960   0.942  10.681  1.00  0.00     0.047 A 
BRANCH  15  18
ATOM     18  O   UNL     1       5.463   0.181  12.932  1.00  0.00    -0.508 OA
ATOM     19  H   UNL     1       4.470   0.366  12.849  1.00  0.00     0.293 HD
ENDBRANCH  15  18
ENDBRANCH   1  12
BRANCH   2  20
ATOM     20  O   UNL     1       8.162   4.279   9.044  1.00  0.00    -0.502 OA
ATOM     21  H   UNL     1       7.308   3.947   9.475  1.00  0.00     0.293 HD
ENDBRANCH   2  20
BRANCH   6  22
ATOM     22  O   UNL     1      12.244   4.444   5.624  1.00  0.00    -0.507 OA
ATOM     23  H   UNL     1      11.889   4.598   4.692  1.00  0.00     0.293 HD
ENDBRANCH   6  22
BRANCH   8  24
ATOM     24  O   UNL     1      14.094   0.080   6.264  1.00  0.00    -0.508 OA
ATOM     25  H   UNL     1      15.076   0.331   6.241  1.00  0.00     0.293 HD
ENDBRANCH   8  24
TORSDOF 5
ENDMDL
MODEL 3
REMARK VINA RESULT:    29.069      4.714      7.527
REMARK INTER + INTRA:          33.929
REMARK INTER:                  34.167
REMARK INTRA:                  -0.237
REMARK UNBOUND:                -0.238
REMARK SMILES O=c1c(O)c(-c2ccc(O)cc2)oc2cc(O)cc(O)c12
REMARK SMILES IDX 5 1 3 2 2 3 1 4 21 5 19 6 18 7 16 8 15 9 14 10 13 11 6 12
REMARK SMILES IDX 7 13 8 14 9 15 12 16 11 17 10 18 4 20 20 22 17 24
REMARK H PARENT 10 19 4 21 20 23 17 25
REMARK Flexibility Score: inf
ROOT
ATOM      1  C   UNL     1      14.829   3.703   9.268  1.00  0.00     0.180 A 
ATOM      2  C   UNL     1      14.088   4.813   8.827  1.00  0.00     0.208 A 
ATOM      3  C   UNL     1      13.077   4.621   7.871  1.00  0.00     0.238 A 
ATOM      4  O   UNL     1      12.469   5.629   7.426  1.00  0.00    -0.285 OA
ATOM      5  C   UNL     1      12.780   3.315   7.411  1.00  0.00     0.111 A 
ATOM      6  C   UNL     1      11.747   2.998   6.477  1.00  0.00     0.134 A 
ATOM      7  C   UNL     1      11.616   1.683   6.014  1.00  0.00     0.093 A 
ATOM      8  C   UNL     1      12.435   0.664   6.495  1.00  0.00     0.123 A 
ATOM      9  C   UNL     1      13.413   0.952   7.449  1.00  0.00     0.094 A 
ATOM     10  C   UNL     1      13.594   2.260   7.903  1.00  0.00     0.146 A 
ATOM     11  O   UNL     1      14.550   2.494   8.794  1.00  0.00    -0.452 OA
ENDROOT
BRANCH   1  12
ATOM     12  C   UNL     1      15.920   3.827  10.261  1.00  0.00     0.021 A 
ATOM     13  C   UNL     1      17.255   3.824   9.825  1.00  0.00     0.016 A 
ATOM     14  C   UNL     1      18.301   3.962  10.743  1.00  0.00     0.047 A 
ATOM     15  C   UNL     1      18.025   4.120  12.104  1.00  0.00     0.115 A 
ATOM     16  C   UNL     1      15.648   4.007  11.630  1.00  0.00     0.016 A 
ATOM     17  C   UNL     1      16.696   4.145  12.546  1.00  0.00     0.047 A 
BRANCH  15  18
ATOM     18  O   UNL     1      19.077   4.256  13.008  1.00  0.00    -0.508 OA
ATOM     19  H   UNL     1      19.488   5.160  13.210  1.00  0.00     0.293 HD
ENDBRANCH  15  18
ENDBRANCH   1  12
BRANCH   2  20
ATOM     20  O   UNL     1      14.345   6.084   9.351  1.00  0.00    -0.502 OA
ATOM     21  H   UNL     1      13.757   6.883   9.149  1.00  0.00     0.293 HD
ENDBRANCH   2  20
BRANCH   6  22
ATOM     22  O   UNL     1      10.815   3.922   5.997  1.00  0.00    -0.507 OA
ATOM     23  H   UNL     1      11.028   4.691   5.380  1.00  0.00     0.293 HD
ENDBRANCH   6  22
BRANCH   8  24
ATOM     24  O   UNL     1      12.264  -0.636   6.025  1.00  0.00    -0.508 OA
ATOM     25  H   UNL     1      12.394  -0.867   5.046  1.00  0.00     0.293 HD
ENDBRANCH   8  24
TORSDOF 5
ENDMDL
MODEL 4
REMARK VINA RESULT:    29.532      4.634      6.869
REMARK INTER + INTRA:          34.473
REMARK INTER:                  34.641
REMARK INTRA:                  -0.169
REMARK UNBOUND:                -0.238
REMARK SMILES O=c1c(O)c(-c2ccc(O)cc2)oc2cc(O)cc(O)c12
REMARK SMILES IDX 5 1 3 2 2 3 1 4 21 5 19 6 18 7 16 8 15 9 14 10 13 11 6 12
REMARK SMILES IDX 7 13 8 14 9 15 12 16 11 17 10 18 4 20 20 22 17 24
REMARK H PARENT 10 19 4 21 20 23 17 25
REMARK Flexibility Score: inf
ROOT
ATOM      1  C   UNL     1      14.914   3.050   9.142  1.00  0.00     0.180 A 
ATOM      2  C   UNL     1      14.927   1.735   8.647  1.00  0.00     0.208 A 
ATOM      3  C   UNL     1      13.935   1.340   7.734  1.00  0.00     0.238 A 
ATOM      4  O   UNL     1      13.909   0.141   7.353  1.00  0.00    -0.285 OA
ATOM      5  C   UNL     1      12.977   2.280   7.284  1.00  0.00     0.111 A 
ATOM      6  C   UNL     1      11.954   2.003   6.326  1.00  0.00     0.134 A 
ATOM      7  C   UNL     1      10.996   2.983   6.037  1.00  0.00     0.093 A 
ATOM      8  C   UNL     1      11.059   4.247   6.619  1.00  0.00     0.123 A 
ATOM      9  C   UNL     1      12.087   4.547   7.515  1.00  0.00     0.094 A 
ATOM     10  C   UNL     1      13.035   3.580   7.854  1.00  0.00     0.146 A 
ATOM     11  O   UNL     1      13.983   3.900   8.727  1.00  0.00    -0.452 OA
ENDROOT
BRANCH   1  12
ATOM     12  C   UNL     1      15.916   3.535  10.118  1.00  0.00     0.021 A 
ATOM     13  C   UNL     1      15.522   3.793  11.441  1.00  0.00     0.016 A 
ATOM     14  C   UNL     1      16.457   4.231  12.385  1.00  0.00     0.047 A 
ATOM     15  C   UNL     1      17.795   4.402  12.023  1.00  0.00     0.115 A 
ATOM     16  C   UNL     1      17.269   3.690   9.764  1.00  0.00     0.016 A 
ATOM     17  C   UNL     1      18.200   4.128  10.710  1.00  0.00     0.047 A 
BRANCH  15  18
ATOM     18  O   UNL     1      18.715   4.840  12.974  1.00  0.00    -0.508 OA
ATOM     19  H   UNL     1      19.310   5.643  12.805  1.00  0.00     0.293 HD
ENDBRANCH  15  18
ENDBRANCH   1  12
BRANCH   2  20
ATOM     20  O   UNL     1      15.928   0.843   9.045  1.00  0.00    -0.502 OA
ATOM     21  H   UNL     1      16.204   0.049   8.480  1.00  0.00     0.293 HD
ENDBRANCH   2  20
BRANCH   6  22
ATOM     22  O   UNL     1      11.849   0.803   5.617  1.00  0.00    -0.507 OA
ATOM     23  H   UNL     1      11.411  -0.037   5.965  1.00  0.00     0.293 HD
ENDBRANCH   6  22
BRANCH   8  24
ATOM     24  O   UNL     1      10.099   5.202   6.294  1.00  0.00    -0.508 OA
ATOM     25  H   UNL     1      10.351   6.167   6.110  1.00  0.00     0.293 HD
ENDBRANCH   8  24
TORSDOF 5
ENDMDL
