MODEL 1
REMARK VINA RESULT:    -6.100      0.000      0.000
REMARK INTER + INTRA:          -7.903
REMARK INTER:                  -7.526
REMARK INTRA:                  -0.377
REMARK UNBOUND:                -0.377
REMARK SMILES Oc1cc(O)c2cc(O)c(-c3cc(O)c(O)c(O)c3)[o+]c2c1
REMARK SMILES IDX 10 1 20 2 21 3 22 4 2 5 3 6 4 7 6 8 7 9 8 10 11 11 12 12
REMARK SMILES IDX 13 13 19 14 15 15 17 16 14 17 16 19 18 21 9 23 1 25 5 27
REMARK H PARENT 14 18 16 20 18 22 9 24 1 26 5 28
REMARK Flexibility Score: inf
ROOT
ATOM      1  C   UNL     1      28.024   9.433  27.454  1.00  0.00     0.402 A 
ATOM      2  O   UNL     1      26.924   8.866  27.940  1.00  0.00    -0.202 OA
ATOM      3  C   UNL     1      26.157   8.039  27.238  1.00  0.00     0.368 A 
ATOM      4  C   UNL     1      25.021   7.489  27.838  1.00  0.00     0.162 A 
ATOM      5  C   UNL     1      24.199   6.617  27.126  1.00  0.00     0.128 A 
ATOM      6  C   UNL     1      24.513   6.288  25.802  1.00  0.00     0.093 A 
ATOM      7  C   UNL     1      25.646   6.823  25.178  1.00  0.00     0.136 A 
ATOM      8  C   UNL     1      26.484   7.714  25.899  1.00  0.00     0.125 A 
ATOM      9  C   UNL     1      27.631   8.310  25.351  1.00  0.00     0.078 A 
ATOM     10  C   UNL     1      28.404   9.183  26.123  1.00  0.00     0.223 A 
ENDROOT
BRANCH   1  11
ATOM     11  C   UNL     1      28.801  10.330  28.340  1.00  0.00     0.091 A 
ATOM     12  C   UNL     1      29.777   9.827  29.216  1.00  0.00     0.068 A 
ATOM     13  C   UNL     1      30.487  10.689  30.064  1.00  0.00     0.162 A 
ATOM     14  C   UNL     1      28.519  11.704  28.348  1.00  0.00     0.068 A 
ATOM     15  C   UNL     1      30.214  12.068  30.049  1.00  0.00     0.200 A 
ATOM     16  C   UNL     1      29.223  12.573  29.190  1.00  0.00     0.162 A 
BRANCH  13  17
ATOM     17  O   UNL     1      31.458  10.179  30.924  1.00  0.00    -0.504 OA
ATOM     18  H   UNL     1      32.411  10.021  30.616  1.00  0.00     0.293 HD
ENDBRANCH  13  17
BRANCH  15  19
ATOM     19  O   UNL     1      30.914  12.940  30.883  1.00  0.00    -0.502 OA
ATOM     20  H   UNL     1      30.747  13.939  30.884  1.00  0.00     0.293 HD
ENDBRANCH  15  19
BRANCH  16  21
ATOM     21  O   UNL     1      28.924  13.934  29.157  1.00  0.00    -0.504 OA
ATOM     22  H   UNL     1      27.991  14.285  29.341  1.00  0.00     0.293 HD
ENDBRANCH  16  21
ENDBRANCH   1  11
BRANCH  10  23
ATOM     23  O   UNL     1      29.516   9.814  25.562  1.00  0.00    -0.500 OA
ATOM     24  H   UNL     1      30.109   9.346  24.887  1.00  0.00     0.294 HD
ENDBRANCH  10  23
BRANCH   5  25
ATOM     25  O   UNL     1      23.070   6.079  27.742  1.00  0.00    -0.507 OA
ATOM     26  H   UNL     1      23.128   5.256  28.330  1.00  0.00     0.293 HD
ENDBRANCH   5  25
BRANCH   7  27
ATOM     27  O   UNL     1      25.894   6.444  23.856  1.00  0.00    -0.507 OA
ATOM     28  H   UNL     1      25.330   5.789  23.335  1.00  0.00     0.293 HD
ENDBRANCH   7  27
TORSDOF 7
ENDMDL
MODEL 2
REMARK VINA RESULT:    -5.865      1.305      3.289
REMARK INTER + INTRA:          -7.614
REMARK INTER:                  -7.372
REMARK INTRA:                  -0.242
REMARK UNBOUND:                -0.377
REMARK SMILES Oc1cc(O)c2cc(O)c(-c3cc(O)c(O)c(O)c3)[o+]c2c1
REMARK SMILES IDX 10 1 20 2 21 3 22 4 2 5 3 6 4 7 6 8 7 9 8 10 11 11 12 12
REMARK SMILES IDX 13 13 19 14 15 15 17 16 14 17 16 19 18 21 9 23 1 25 5 27
REMARK H PARENT 14 18 16 20 18 22 9 24 1 26 5 28
REMARK Flexibility Score: inf
ROOT
ATOM      1  C   UNL     1      27.798   9.278  27.351  1.00  0.00     0.402 A 
ATOM      2  O   UNL     1      28.474   8.594  26.431  1.00  0.00    -0.202 OA
ATOM      3  C   UNL     1      27.900   7.744  25.587  1.00  0.00     0.368 A 
ATOM      4  C   UNL     1      28.694   7.074  24.652  1.00  0.00     0.162 A 
ATOM      5  C   UNL     1      28.120   6.177  23.751  1.00  0.00     0.128 A 
ATOM      6  C   UNL     1      26.740   5.948  23.781  1.00  0.00     0.093 A 
ATOM      7  C   UNL     1      25.921   6.608  24.706  1.00  0.00     0.136 A 
ATOM      8  C   UNL     1      26.503   7.518  25.627  1.00  0.00     0.125 A 
ATOM      9  C   UNL     1      25.764   8.213  26.598  1.00  0.00     0.078 A 
ATOM     10  C   UNL     1      26.409   9.091  27.474  1.00  0.00     0.223 A 
ENDROOT
BRANCH   1  11
ATOM     11  C   UNL     1      28.550  10.204  28.229  1.00  0.00     0.091 A 
ATOM     12  C   UNL     1      28.302  11.587  28.216  1.00  0.00     0.068 A 
ATOM     13  C   UNL     1      29.040  12.451  29.038  1.00  0.00     0.162 A 
ATOM     14  C   UNL     1      29.571   9.701  29.049  1.00  0.00     0.068 A 
ATOM     15  C   UNL     1      30.045  11.934  29.874  1.00  0.00     0.200 A 
ATOM     16  C   UNL     1      30.311  10.554  29.873  1.00  0.00     0.162 A 
BRANCH  13  17
ATOM     17  O   UNL     1      28.780  13.820  29.023  1.00  0.00    -0.504 OA
ATOM     18  H   UNL     1      27.852  14.187  29.196  1.00  0.00     0.293 HD
ENDBRANCH  13  17
BRANCH  15  19
ATOM     19  O   UNL     1      30.785  12.779  30.701  1.00  0.00    -0.502 OA
ATOM     20  H   UNL     1      30.489  13.012  31.641  1.00  0.00     0.293 HD
ENDBRANCH  15  19
BRANCH  16  21
ATOM     21  O   UNL     1      31.307  10.012  30.685  1.00  0.00    -0.504 OA
ATOM     22  H   UNL     1      31.158   9.827  31.670  1.00  0.00     0.293 HD
ENDBRANCH  16  21
ENDBRANCH   1  11
BRANCH  10  23
ATOM     23  O   UNL     1      25.682   9.744  28.471  1.00  0.00    -0.500 OA
ATOM     24  H   UNL     1      24.769  10.142  28.289  1.00  0.00     0.294 HD
ENDBRANCH  10  23
BRANCH   5  25
ATOM     25  O   UNL     1      28.928   5.518  22.827  1.00  0.00    -0.507 OA
ATOM     26  H   UNL     1      28.630   4.660  22.378  1.00  0.00     0.293 HD
ENDBRANCH   5  25
BRANCH   7  27
ATOM     27  O   UNL     1      24.552   6.328  24.671  1.00  0.00    -0.507 OA
ATOM     28  H   UNL     1      23.999   6.082  25.478  1.00  0.00     0.293 HD
ENDBRANCH   7  27
TORSDOF 7
ENDMDL
MODEL 3
REMARK VINA RESULT:    -5.788      1.357      2.770
REMARK INTER + INTRA:          -7.518
REMARK INTER:                  -7.356
REMARK INTRA:                  -0.162
REMARK UNBOUND:                -0.377
REMARK SMILES Oc1cc(O)c2cc(O)c(-c3cc(O)c(O)c(O)c3)[o+]c2c1
REMARK SMILES IDX 10 1 20 2 21 3 22 4 2 5 3 6 4 7 6 8 7 9 8 10 11 11 12 12
REMARK SMILES IDX 13 13 19 14 15 15 17 16 14 17 16 19 18 21 9 23 1 25 5 27
REMARK H PARENT 14 18 16 20 18 22 9 24 1 26 5 28
REMARK Flexibility Score: inf
ROOT
ATOM      1  C   UNL     1      28.000   9.234  27.320  1.00  0.00     0.402 A 
ATOM      2  O   UNL     1      28.679   8.487  26.453  1.00  0.00    -0.202 OA
ATOM      3  C   UNL     1      28.100   7.650  25.600  1.00  0.00     0.368 A 
ATOM      4  C   UNL     1      28.899   6.911  24.723  1.00  0.00     0.162 A 
ATOM      5  C   UNL     1      28.318   6.026  23.815  1.00  0.00     0.128 A 
ATOM      6  C   UNL     1      26.927   5.879  23.779  1.00  0.00     0.093 A 
ATOM      7  C   UNL     1      26.104   6.609  24.645  1.00  0.00     0.136 A 
ATOM      8  C   UNL     1      26.691   7.508  25.573  1.00  0.00     0.125 A 
ATOM      9  C   UNL     1      25.946   8.270  26.488  1.00  0.00     0.078 A 
ATOM     10  C   UNL     1      26.598   9.131  27.376  1.00  0.00     0.223 A 
ENDROOT
BRANCH   1  11
ATOM     11  C   UNL     1      28.760  10.137  28.214  1.00  0.00     0.091 A 
ATOM     12  C   UNL     1      29.712   9.639  29.119  1.00  0.00     0.068 A 
ATOM     13  C   UNL     1      30.406  10.508  29.973  1.00  0.00     0.162 A 
ATOM     14  C   UNL     1      28.485  11.513  28.200  1.00  0.00     0.068 A 
ATOM     15  C   UNL     1      30.141  11.888  29.936  1.00  0.00     0.200 A 
ATOM     16  C   UNL     1      29.174  12.387  29.048  1.00  0.00     0.162 A 
BRANCH  13  17
ATOM     17  O   UNL     1      31.354  10.003  30.863  1.00  0.00    -0.504 OA
ATOM     18  H   UNL     1      31.660  10.533  31.670  1.00  0.00     0.293 HD
ENDBRANCH  13  17
BRANCH  15  19
ATOM     19  O   UNL     1      30.826  12.766  30.776  1.00  0.00    -0.502 OA
ATOM     20  H   UNL     1      31.821  12.687  30.946  1.00  0.00     0.293 HD
ENDBRANCH  15  19
BRANCH  16  21
ATOM     21  O   UNL     1      28.882  13.750  28.992  1.00  0.00    -0.504 OA
ATOM     22  H   UNL     1      28.079  14.109  28.489  1.00  0.00     0.293 HD
ENDBRANCH  16  21
ENDBRANCH   1  11
BRANCH  10  23
ATOM     23  O   UNL     1      25.862   9.851  28.318  1.00  0.00    -0.500 OA
ATOM     24  H   UNL     1      24.894  10.104  28.158  1.00  0.00     0.294 HD
ENDBRANCH  10  23
BRANCH   5  25
ATOM     25  O   UNL     1      29.131   5.298  22.950  1.00  0.00    -0.507 OA
ATOM     26  H   UNL     1      29.497   4.388  23.206  1.00  0.00     0.293 HD
ENDBRANCH   5  25
BRANCH   7  27
ATOM     27  O   UNL     1      24.724   6.408  24.545  1.00  0.00    -0.507 OA
ATOM     28  H   UNL     1      24.292   5.649  24.040  1.00  0.00     0.293 HD
ENDBRANCH   7  27
TORSDOF 7
ENDMDL
MODEL 4
REMARK VINA RESULT:    -5.628      1.782      2.211
REMARK INTER + INTRA:          -7.320
REMARK INTER:                  -7.705
REMARK INTRA:                   0.384
REMARK UNBOUND:                -0.377
REMARK SMILES Oc1cc(O)c2cc(O)c(-c3cc(O)c(O)c(O)c3)[o+]c2c1
REMARK SMILES IDX 10 1 20 2 21 3 22 4 2 5 3 6 4 7 6 8 7 9 8 10 11 11 12 12
REMARK SMILES IDX 13 13 19 14 15 15 17 16 14 17 16 19 18 21 9 23 1 25 5 27
REMARK H PARENT 14 18 16 20 18 22 9 24 1 26 5 28
REMARK Flexibility Score: inf
ROOT
ATOM      1  C   UNL     1      28.040   9.315  27.085  1.00  0.00     0.402 A 
ATOM      2  O   UNL     1      27.111   9.874  26.313  1.00  0.00    -0.202 OA
ATOM      3  C   UNL     1      26.424   9.203  25.396  1.00  0.00     0.368 A 
ATOM      4  C   UNL     1      25.465   9.878  24.636  1.00  0.00     0.162 A 
ATOM      5  C   UNL     1      24.726   9.198  23.668  1.00  0.00     0.128 A 
ATOM      6  C   UNL     1      24.945   7.832  23.456  1.00  0.00     0.093 A 
ATOM      7  C   UNL     1      25.899   7.132  24.205  1.00  0.00     0.136 A 
ATOM      8  C   UNL     1      26.655   7.821  25.189  1.00  0.00     0.125 A 
ATOM      9  C   UNL     1      27.641   7.206  25.977  1.00  0.00     0.078 A 
ATOM     10  C   UNL     1      28.348   7.952  26.924  1.00  0.00     0.223 A 
ENDROOT
BRANCH   1  11
ATOM     11  C   UNL     1      28.732  10.168  28.079  1.00  0.00     0.091 A 
ATOM     12  C   UNL     1      29.671   9.632  28.975  1.00  0.00     0.068 A 
ATOM     13  C   UNL     1      30.300  10.451  29.924  1.00  0.00     0.162 A 
ATOM     14  C   UNL     1      28.401  11.529  28.169  1.00  0.00     0.068 A 
ATOM     15  C   UNL     1      29.979  11.818  29.991  1.00  0.00     0.200 A 
ATOM     16  C   UNL     1      29.023  12.354  29.112  1.00  0.00     0.162 A 
BRANCH  13  17
ATOM     17  O   UNL     1      31.236   9.909  30.803  1.00  0.00    -0.504 OA
ATOM     18  H   UNL     1      31.840   9.143  30.530  1.00  0.00     0.293 HD
ENDBRANCH  13  17
BRANCH  15  19
ATOM     19  O   UNL     1      30.598  12.648  30.927  1.00  0.00    -0.502 OA
ATOM     20  H   UNL     1      30.513  13.656  30.896  1.00  0.00     0.293 HD
ENDBRANCH  15  19
BRANCH  16  21
ATOM     21  O   UNL     1      28.678  13.704  29.159  1.00  0.00    -0.504 OA
ATOM     22  H   UNL     1      28.290  14.189  28.358  1.00  0.00     0.293 HD
ENDBRANCH  16  21
ENDBRANCH   1  11
BRANCH  10  23
ATOM     23  O   UNL     1      29.363   7.352  27.672  1.00  0.00    -0.500 OA
ATOM     24  H   UNL     1      30.340   7.469  27.433  1.00  0.00     0.294 HD
ENDBRANCH  10  23
BRANCH   5  25
ATOM     25  O   UNL     1      23.774   9.888  22.919  1.00  0.00    -0.507 OA
ATOM     26  H   UNL     1      23.515   9.589  21.986  1.00  0.00     0.293 HD
ENDBRANCH   5  25
BRANCH   7  27
ATOM     27  O   UNL     1      26.056   5.770  23.937  1.00  0.00    -0.507 OA
ATOM     28  H   UNL     1      25.992   5.040  24.631  1.00  0.00     0.293 HD
ENDBRANCH   7  27
TORSDOF 7
ENDMDL
MODEL 5
REMARK VINA RESULT:    -5.624      1.779      2.844
REMARK INTER + INTRA:          -7.316
REMARK INTER:                  -7.786
REMARK INTRA:                   0.471
REMARK UNBOUND:                -0.377
REMARK SMILES Oc1cc(O)c2cc(O)c(-c3cc(O)c(O)c(O)c3)[o+]c2c1
REMARK SMILES IDX 10 1 20 2 21 3 22 4 2 5 3 6 4 7 6 8 7 9 8 10 11 11 12 12
REMARK SMILES IDX 13 13 19 14 15 15 17 16 14 17 16 19 18 21 9 23 1 25 5 27
REMARK H PARENT 14 18 16 20 18 22 9 24 1 26 5 28
REMARK Flexibility Score: inf
ROOT
ATOM      1  C   UNL     1      28.028   9.241  27.119  1.00  0.00     0.402 A 
ATOM      2  O   UNL     1      27.128   9.747  26.279  1.00  0.00    -0.202 OA
ATOM      3  C   UNL     1      26.487   9.018  25.372  1.00  0.00     0.368 A 
ATOM      4  C   UNL     1      25.555   9.639  24.536  1.00  0.00     0.162 A 
ATOM      5  C   UNL     1      24.865   8.899  23.576  1.00  0.00     0.128 A 
ATOM      6  C   UNL     1      25.106   7.526  23.449  1.00  0.00     0.093 A 
ATOM      7  C   UNL     1      26.033   6.880  24.275  1.00  0.00     0.136 A 
ATOM      8  C   UNL     1      26.740   7.630  25.251  1.00  0.00     0.125 A 
ATOM      9  C   UNL     1      27.697   7.070  26.113  1.00  0.00     0.078 A 
ATOM     10  C   UNL     1      28.356   7.875  27.047  1.00  0.00     0.223 A 
ENDROOT
BRANCH   1  11
ATOM     11  C   UNL     1      28.667  10.155  28.094  1.00  0.00     0.091 A 
ATOM     12  C   UNL     1      28.341  11.520  28.140  1.00  0.00     0.068 A 
ATOM     13  C   UNL     1      28.973  12.374  29.054  1.00  0.00     0.162 A 
ATOM     14  C   UNL     1      29.662   9.661  28.952  1.00  0.00     0.068 A 
ATOM     15  C   UNL     1      29.952  11.866  29.926  1.00  0.00     0.200 A 
ATOM     16  C   UNL     1      30.298  10.506  29.868  1.00  0.00     0.162 A 
BRANCH  13  17
ATOM     17  O   UNL     1      28.636  13.727  29.095  1.00  0.00    -0.504 OA
ATOM     18  H   UNL     1      28.174  14.183  28.318  1.00  0.00     0.293 HD
ENDBRANCH  13  17
BRANCH  15  19
ATOM     19  O   UNL     1      30.588  12.701  30.845  1.00  0.00    -0.502 OA
ATOM     20  H   UNL     1      30.082  13.380  31.399  1.00  0.00     0.293 HD
ENDBRANCH  15  19
BRANCH  16  21
ATOM     21  O   UNL     1      31.270   9.973  30.714  1.00  0.00    -0.504 OA
ATOM     22  H   UNL     1      31.103   9.144  31.272  1.00  0.00     0.293 HD
ENDBRANCH  16  21
ENDBRANCH   1  11
BRANCH  10  23
ATOM     23  O   UNL     1      29.342   7.329  27.869  1.00  0.00    -0.500 OA
ATOM     24  H   UNL     1      29.830   6.477  27.620  1.00  0.00     0.294 HD
ENDBRANCH  10  23
BRANCH   5  25
ATOM     25  O   UNL     1      23.940   9.536  22.751  1.00  0.00    -0.507 OA
ATOM     26  H   UNL     1      24.158  10.410  22.286  1.00  0.00     0.293 HD
ENDBRANCH   5  25
BRANCH   7  27
ATOM     27  O   UNL     1      26.215   5.506  24.089  1.00  0.00    -0.507 OA
ATOM     28  H   UNL     1      27.029   4.992  24.392  1.00  0.00     0.293 HD
ENDBRANCH   7  27
TORSDOF 7
ENDMDL
MODEL 6
REMARK VINA RESULT:    -5.619      1.944      3.250
REMARK INTER + INTRA:          -7.309
REMARK INTER:                  -6.949
REMARK INTRA:                  -0.361
REMARK UNBOUND:                -0.377
REMARK SMILES Oc1cc(O)c2cc(O)c(-c3cc(O)c(O)c(O)c3)[o+]c2c1
REMARK SMILES IDX 10 1 20 2 21 3 22 4 2 5 3 6 4 7 6 8 7 9 8 10 11 11 12 12
REMARK SMILES IDX 13 13 19 14 15 15 17 16 14 17 16 19 18 21 9 23 1 25 5 27
REMARK H PARENT 14 18 16 20 18 22 9 24 1 26 5 28
REMARK Flexibility Score: inf
ROOT
ATOM      1  C   UNL     1      29.762   9.478  26.887  1.00  0.00     0.402 A 
ATOM      2  O   UNL     1      28.660   8.773  26.639  1.00  0.00    -0.202 OA
ATOM      3  C   UNL     1      28.520   7.987  25.578  1.00  0.00     0.368 A 
ATOM      4  C   UNL     1      27.325   7.283  25.406  1.00  0.00     0.162 A 
ATOM      5  C   UNL     1      27.149   6.449  24.303  1.00  0.00     0.128 A 
ATOM      6  C   UNL     1      28.177   6.314  23.362  1.00  0.00     0.093 A 
ATOM      7  C   UNL     1      29.384   7.007  23.511  1.00  0.00     0.136 A 
ATOM      8  C   UNL     1      29.565   7.860  24.631  1.00  0.00     0.125 A 
ATOM      9  C   UNL     1      30.735   8.604  24.855  1.00  0.00     0.078 A 
ATOM     10  C   UNL     1      30.837   9.427  25.981  1.00  0.00     0.223 A 
ENDROOT
BRANCH   1  11
ATOM     11  C   UNL     1      29.801  10.311  28.111  1.00  0.00     0.091 A 
ATOM     12  C   UNL     1      29.227  11.592  28.142  1.00  0.00     0.068 A 
ATOM     13  C   UNL     1      29.293  12.375  29.303  1.00  0.00     0.162 A 
ATOM     14  C   UNL     1      30.475   9.836  29.246  1.00  0.00     0.068 A 
ATOM     15  C   UNL     1      29.951  11.882  30.444  1.00  0.00     0.200 A 
ATOM     16  C   UNL     1      30.546  10.610  30.410  1.00  0.00     0.162 A 
BRANCH  13  17
ATOM     17  O   UNL     1      28.714  13.643  29.325  1.00  0.00    -0.504 OA
ATOM     18  H   UNL     1      28.234  13.994  30.145  1.00  0.00     0.293 HD
ENDBRANCH  13  17
BRANCH  15  19
ATOM     19  O   UNL     1      30.023  12.647  31.609  1.00  0.00    -0.502 OA
ATOM     20  H   UNL     1      30.728  13.360  31.745  1.00  0.00     0.293 HD
ENDBRANCH  15  19
BRANCH  16  21
ATOM     21  O   UNL     1      31.211  10.096  31.522  1.00  0.00    -0.504 OA
ATOM     22  H   UNL     1      31.339  10.634  32.370  1.00  0.00     0.293 HD
ENDBRANCH  16  21
ENDBRANCH   1  11
BRANCH  10  23
ATOM     23  O   UNL     1      31.979  10.204  26.178  1.00  0.00    -0.500 OA
ATOM     24  H   UNL     1      31.925  11.145  26.548  1.00  0.00     0.294 HD
ENDBRANCH  10  23
BRANCH   5  25
ATOM     25  O   UNL     1      25.951   5.756  24.148  1.00  0.00    -0.507 OA
ATOM     26  H   UNL     1      25.871   4.774  24.389  1.00  0.00     0.293 HD
ENDBRANCH   5  25
BRANCH   7  27
ATOM     27  O   UNL     1      30.362   6.817  22.531  1.00  0.00    -0.507 OA
ATOM     28  H   UNL     1      30.534   7.451  21.765  1.00  0.00     0.293 HD
ENDBRANCH   7  27
TORSDOF 7
ENDMDL
MODEL 7
REMARK VINA RESULT:    -5.490      2.528      3.559
REMARK INTER + INTRA:          -7.150
REMARK INTER:                  -6.857
REMARK INTRA:                  -0.293
REMARK UNBOUND:                -0.377
REMARK SMILES Oc1cc(O)c2cc(O)c(-c3cc(O)c(O)c(O)c3)[o+]c2c1
REMARK SMILES IDX 10 1 20 2 21 3 22 4 2 5 3 6 4 7 6 8 7 9 8 10 11 11 12 12
REMARK SMILES IDX 13 13 19 14 15 15 17 16 14 17 16 19 18 21 9 23 1 25 5 27
REMARK H PARENT 14 18 16 20 18 22 9 24 1 26 5 28
REMARK Flexibility Score: inf
ROOT
ATOM      1  C   UNL     1      29.584   9.959  26.594  1.00  0.00     0.402 A 
ATOM      2  O   UNL     1      28.711   9.020  26.238  1.00  0.00    -0.202 OA
ATOM      3  C   UNL     1      29.016   8.006  25.436  1.00  0.00     0.368 A 
ATOM      4  C   UNL     1      28.031   7.066  25.122  1.00  0.00     0.162 A 
ATOM      5  C   UNL     1      28.323   5.990  24.284  1.00  0.00     0.128 A 
ATOM      6  C   UNL     1      29.611   5.850  23.755  1.00  0.00     0.093 A 
ATOM      7  C   UNL     1      30.617   6.777  24.055  1.00  0.00     0.136 A 
ATOM      8  C   UNL     1      30.322   7.875  24.904  1.00  0.00     0.125 A 
ATOM      9  C   UNL     1      31.262   8.860  25.248  1.00  0.00     0.078 A 
ATOM     10  C   UNL     1      30.895   9.916  26.088  1.00  0.00     0.223 A 
ENDROOT
BRANCH   1  11
ATOM     11  C   UNL     1      29.125  11.034  27.504  1.00  0.00     0.091 A 
ATOM     12  C   UNL     1      29.606  11.134  28.820  1.00  0.00     0.068 A 
ATOM     13  C   UNL     1      29.143  12.145  29.673  1.00  0.00     0.162 A 
ATOM     14  C   UNL     1      28.147  11.939  27.064  1.00  0.00     0.068 A 
ATOM     15  C   UNL     1      28.180  13.061  29.216  1.00  0.00     0.200 A 
ATOM     16  C   UNL     1      27.680  12.952  27.908  1.00  0.00     0.162 A 
BRANCH  13  17
ATOM     17  O   UNL     1      29.632  12.238  30.976  1.00  0.00    -0.504 OA
ATOM     18  H   UNL     1      29.709  11.424  31.573  1.00  0.00     0.293 HD
ENDBRANCH  13  17
BRANCH  15  19
ATOM     19  O   UNL     1      27.711  14.076  30.051  1.00  0.00    -0.502 OA
ATOM     20  H   UNL     1      28.296  14.511  30.755  1.00  0.00     0.293 HD
ENDBRANCH  15  19
BRANCH  16  21
ATOM     21  O   UNL     1      26.719  13.841  27.427  1.00  0.00    -0.504 OA
ATOM     22  H   UNL     1      26.497  13.913  26.441  1.00  0.00     0.293 HD
ENDBRANCH  16  21
ENDBRANCH   1  11
BRANCH  10  23
ATOM     23  O   UNL     1      31.815  10.921  26.390  1.00  0.00    -0.500 OA
ATOM     24  H   UNL     1      31.543  11.759  26.891  1.00  0.00     0.294 HD
ENDBRANCH  10  23
BRANCH   5  25
ATOM     25  O   UNL     1      27.327   5.064  23.983  1.00  0.00    -0.507 OA
ATOM     26  H   UNL     1      27.222   4.683  23.049  1.00  0.00     0.293 HD
ENDBRANCH   5  25
BRANCH   7  27
ATOM     27  O   UNL     1      31.878   6.565  23.490  1.00  0.00    -0.507 OA
ATOM     28  H   UNL     1      32.729   6.999  23.815  1.00  0.00     0.293 HD
ENDBRANCH   7  27
TORSDOF 7
ENDMDL
MODEL 8
REMARK VINA RESULT:    -5.363      2.248      3.653
REMARK INTER + INTRA:          -6.994
REMARK INTER:                  -6.639
REMARK INTRA:                  -0.355
REMARK UNBOUND:                -0.377
REMARK SMILES Oc1cc(O)c2cc(O)c(-c3cc(O)c(O)c(O)c3)[o+]c2c1
REMARK SMILES IDX 10 1 20 2 21 3 22 4 2 5 3 6 4 7 6 8 7 9 8 10 11 11 12 12
REMARK SMILES IDX 13 13 19 14 15 15 17 16 14 17 16 19 18 21 9 23 1 25 5 27
REMARK H PARENT 14 18 16 20 18 22 9 24 1 26 5 28
REMARK Flexibility Score: inf
ROOT
ATOM      1  C   UNL     1      27.415   8.076  26.985  1.00  0.00     0.402 A 
ATOM      2  O   UNL     1      27.443   6.956  27.704  1.00  0.00    -0.202 OA
ATOM      3  C   UNL     1      26.354   6.264  28.019  1.00  0.00     0.368 A 
ATOM      4  C   UNL     1      26.484   5.097  28.776  1.00  0.00     0.162 A 
ATOM      5  C   UNL     1      25.359   4.348  29.120  1.00  0.00     0.128 A 
ATOM      6  C   UNL     1      24.090   4.768  28.703  1.00  0.00     0.093 A 
ATOM      7  C   UNL     1      23.932   5.933  27.943  1.00  0.00     0.136 A 
ATOM      8  C   UNL     1      25.075   6.699  27.594  1.00  0.00     0.125 A 
ATOM      9  C   UNL     1      25.011   7.887  26.847  1.00  0.00     0.078 A 
ATOM     10  C   UNL     1      26.181   8.589  26.547  1.00  0.00     0.223 A 
ENDROOT
BRANCH   1  11
ATOM     11  C   UNL     1      28.700   8.751  26.691  1.00  0.00     0.091 A 
ATOM     12  C   UNL     1      29.537   8.311  25.652  1.00  0.00     0.068 A 
ATOM     13  C   UNL     1      30.760   8.950  25.403  1.00  0.00     0.162 A 
ATOM     14  C   UNL     1      29.120   9.818  27.501  1.00  0.00     0.068 A 
ATOM     15  C   UNL     1      31.162  10.032  26.205  1.00  0.00     0.200 A 
ATOM     16  C   UNL     1      30.338  10.461  27.259  1.00  0.00     0.162 A 
BRANCH  13  17
ATOM     17  O   UNL     1      31.579   8.508  24.365  1.00  0.00    -0.504 OA
ATOM     18  H   UNL     1      32.317   7.832  24.522  1.00  0.00     0.293 HD
ENDBRANCH  13  17
BRANCH  15  19
ATOM     19  O   UNL     1      32.373  10.681  25.968  1.00  0.00    -0.502 OA
ATOM     20  H   UNL     1      33.096  10.281  25.383  1.00  0.00     0.293 HD
ENDBRANCH  15  19
BRANCH  16  21
ATOM     21  O   UNL     1      30.711  11.527  28.077  1.00  0.00    -0.504 OA
ATOM     22  H   UNL     1      31.176  11.387  28.966  1.00  0.00     0.293 HD
ENDBRANCH  16  21
ENDBRANCH   1  11
BRANCH  10  23
ATOM     23  O   UNL     1      26.113   9.795  25.848  1.00  0.00    -0.500 OA
ATOM     24  H   UNL     1      26.558   9.913  24.945  1.00  0.00     0.294 HD
ENDBRANCH  10  23
BRANCH   5  25
ATOM     25  O   UNL     1      25.509   3.188  29.875  1.00  0.00    -0.507 OA
ATOM     26  H   UNL     1      25.858   3.215  30.826  1.00  0.00     0.293 HD
ENDBRANCH   5  25
BRANCH   7  27
ATOM     27  O   UNL     1      22.633   6.284  27.563  1.00  0.00    -0.507 OA
ATOM     28  H   UNL     1      22.255   6.156  26.637  1.00  0.00     0.293 HD
ENDBRANCH   7  27
TORSDOF 7
ENDMDL
MODEL 9
REMARK VINA RESULT:    -5.272      2.627      3.167
REMARK INTER + INTRA:          -6.881
REMARK INTER:                  -6.515
REMARK INTRA:                  -0.366
REMARK UNBOUND:                -0.377
REMARK SMILES Oc1cc(O)c2cc(O)c(-c3cc(O)c(O)c(O)c3)[o+]c2c1
REMARK SMILES IDX 10 1 20 2 21 3 22 4 2 5 3 6 4 7 6 8 7 9 8 10 11 11 12 12
REMARK SMILES IDX 13 13 19 14 15 15 17 16 14 17 16 19 18 21 9 23 1 25 5 27
REMARK H PARENT 14 18 16 20 18 22 9 24 1 26 5 28
REMARK Flexibility Score: inf
ROOT
ATOM      1  C   UNL     1      28.521   8.106  26.786  1.00  0.00     0.402 A 
ATOM      2  O   UNL     1      28.166   7.044  27.505  1.00  0.00    -0.202 OA
ATOM      3  C   UNL     1      28.006   5.832  26.987  1.00  0.00     0.368 A 
ATOM      4  C   UNL     1      27.634   4.777  27.825  1.00  0.00     0.162 A 
ATOM      5  C   UNL     1      27.461   3.493  27.310  1.00  0.00     0.128 A 
ATOM      6  C   UNL     1      27.663   3.258  25.945  1.00  0.00     0.093 A 
ATOM      7  C   UNL     1      28.037   4.296  25.084  1.00  0.00     0.136 A 
ATOM      8  C   UNL     1      28.211   5.605  25.604  1.00  0.00     0.125 A 
ATOM      9  C   UNL     1      28.571   6.709  24.815  1.00  0.00     0.078 A 
ATOM     10  C   UNL     1      28.718   7.971  25.400  1.00  0.00     0.223 A 
ENDROOT
BRANCH   1  11
ATOM     11  C   UNL     1      28.677   9.404  27.481  1.00  0.00     0.091 A 
ATOM     12  C   UNL     1      27.574  10.237  27.731  1.00  0.00     0.068 A 
ATOM     13  C   UNL     1      27.744  11.473  28.371  1.00  0.00     0.162 A 
ATOM     14  C   UNL     1      29.959   9.840  27.849  1.00  0.00     0.068 A 
ATOM     15  C   UNL     1      29.030  11.891  28.756  1.00  0.00     0.200 A 
ATOM     16  C   UNL     1      30.139  11.071  28.489  1.00  0.00     0.162 A 
BRANCH  13  17
ATOM     17  O   UNL     1      26.641  12.288  28.620  1.00  0.00    -0.504 OA
ATOM     18  H   UNL     1      25.735  11.899  28.851  1.00  0.00     0.293 HD
ENDBRANCH  13  17
BRANCH  15  19
ATOM     19  O   UNL     1      29.217  13.116  29.398  1.00  0.00    -0.502 OA
ATOM     20  H   UNL     1      30.101  13.608  29.377  1.00  0.00     0.293 HD
ENDBRANCH  15  19
BRANCH  16  21
ATOM     21  O   UNL     1      31.428  11.460  28.852  1.00  0.00    -0.504 OA
ATOM     22  H   UNL     1      31.606  12.300  29.389  1.00  0.00     0.293 HD
ENDBRANCH  16  21
ENDBRANCH   1  11
BRANCH  10  23
ATOM     23  O   UNL     1      29.027   9.077  24.607  1.00  0.00    -0.500 OA
ATOM     24  H   UNL     1      29.822   9.671  24.809  1.00  0.00     0.294 HD
ENDBRANCH  10  23
BRANCH   5  25
ATOM     25  O   UNL     1      27.090   2.455  28.162  1.00  0.00    -0.507 OA
ATOM     26  H   UNL     1      27.129   2.556  29.169  1.00  0.00     0.293 HD
ENDBRANCH   5  25
BRANCH   7  27
ATOM     27  O   UNL     1      28.222   3.980  23.735  1.00  0.00    -0.507 OA
ATOM     28  H   UNL     1      28.494   4.644  23.025  1.00  0.00     0.293 HD
ENDBRANCH   7  27
TORSDOF 7
ENDMDL
