MODEL 1
REMARK VINA RESULT:    -2.766      0.000      0.000
REMARK INTER + INTRA:          -3.055
REMARK INTER:                  -2.927
REMARK INTRA:                  -0.128
REMARK UNBOUND:                -0.128
REMARK SMILES CC1=CC[C@H](C(C)C)C=C1
REMARK SMILES IDX 1 1 2 2 3 3 4 4 5 5 9 6 10 7 6 8 7 9 8 10
REMARK H PARENT
REMARK Flexibility Score: inf
ROOT
ATOM      1  C   UNL     1     134.900 141.303 163.748  1.00  0.00     0.044 C 
ATOM      2  C   UNL     1     135.364 139.996 163.180  1.00  0.00    -0.055 C 
ATOM      3  C   UNL     1     136.278 139.260 163.828  1.00  0.00    -0.023 C 
ATOM      4  C   UNL     1     136.854 138.016 163.200  1.00  0.00     0.035 C 
ATOM      5  C   UNL     1     135.805 137.294 162.315  1.00  0.00     0.018 C 
ATOM      6  C   UNL     1     135.126 138.315 161.416  1.00  0.00    -0.023 C 
ATOM      7  C   UNL     1     134.875 139.553 161.856  1.00  0.00    -0.001 C 
ENDROOT
BRANCH   5   8
ATOM      8  C   UNL     1     136.410 136.117 161.486  1.00  0.00    -0.010 C 
ATOM      9  C   UNL     1     135.500 134.875 161.535  1.00  0.00     0.008 C 
ATOM     10  C   UNL     1     137.814 135.715 161.971  1.00  0.00     0.008 C 
ENDBRANCH   5   8
TORSDOF 1
ENDMDL
MODEL 2
REMARK VINA RESULT:    -2.596      1.046      4.490
REMARK INTER + INTRA:          -2.875
REMARK INTER:                  -2.676
REMARK INTRA:                  -0.199
REMARK UNBOUND:                -0.128
REMARK SMILES CC1=CC[C@H](C(C)C)C=C1
REMARK SMILES IDX 1 1 2 2 3 3 4 4 5 5 9 6 10 7 6 8 7 9 8 10
REMARK H PARENT
REMARK Flexibility Score: inf
ROOT
ATOM      1  C   UNL     1     136.374 134.888 161.471  1.00  0.00     0.044 C 
ATOM      2  C   UNL     1     136.044 136.290 161.889  1.00  0.00    -0.055 C 
ATOM      3  C   UNL     1     135.115 136.995 161.226  1.00  0.00    -0.023 C 
ATOM      4  C   UNL     1     134.875 138.448 161.547  1.00  0.00     0.035 C 
ATOM      5  C   UNL     1     135.095 138.736 163.054  1.00  0.00     0.018 C 
ATOM      6  C   UNL     1     136.405 138.101 163.495  1.00  0.00    -0.023 C 
ATOM      7  C   UNL     1     136.803 136.931 162.984  1.00  0.00    -0.001 C 
ENDROOT
BRANCH   5   8
ATOM      8  C   UNL     1     135.056 140.259 163.398  1.00  0.00    -0.010 C 
ATOM      9  C   UNL     1     135.442 141.116 162.178  1.00  0.00     0.008 C 
ATOM     10  C   UNL     1     135.988 140.623 164.567  1.00  0.00     0.008 C 
ENDBRANCH   5   8
TORSDOF 1
ENDMDL
MODEL 3
REMARK VINA RESULT:    -2.522      0.530      1.647
REMARK INTER + INTRA:          -2.797
REMARK INTER:                  -2.599
REMARK INTRA:                  -0.198
REMARK UNBOUND:                -0.128
REMARK SMILES CC1=CC[C@H](C(C)C)C=C1
REMARK SMILES IDX 1 1 2 2 3 3 4 4 5 5 9 6 10 7 6 8 7 9 8 10
REMARK H PARENT
REMARK Flexibility Score: inf
ROOT
ATOM      1  C   UNL     1     135.038 140.907 163.730  1.00  0.00     0.044 C 
ATOM      2  C   UNL     1     135.395 139.582 163.127  1.00  0.00    -0.055 C 
ATOM      3  C   UNL     1     134.875 139.210 161.948  1.00  0.00    -0.023 C 
ATOM      4  C   UNL     1     135.116 137.826 161.401  1.00  0.00     0.035 C 
ATOM      5  C   UNL     1     136.520 137.300 161.796  1.00  0.00     0.018 C 
ATOM      6  C   UNL     1     136.742 137.544 163.281  1.00  0.00    -0.023 C 
ATOM      7  C   UNL     1     136.260 138.642 163.872  1.00  0.00    -0.001 C 
ENDROOT
BRANCH   5   8
ATOM      8  C   UNL     1     136.737 135.798 161.426  1.00  0.00    -0.010 C 
ATOM      9  C   UNL     1     135.428 134.997 161.556  1.00  0.00     0.008 C 
ATOM     10  C   UNL     1     137.811 135.126 162.299  1.00  0.00     0.008 C 
ENDBRANCH   5   8
TORSDOF 1
ENDMDL
MODEL 4
REMARK VINA RESULT:    -0.352     12.858     14.788
REMARK INTER + INTRA:          -0.500
REMARK INTER:                  -0.381
REMARK INTRA:                  -0.119
REMARK UNBOUND:                -0.128
REMARK SMILES CC1=CC[C@H](C(C)C)C=C1
REMARK SMILES IDX 1 1 2 2 3 3 4 4 5 5 9 6 10 7 6 8 7 9 8 10
REMARK H PARENT
REMARK Flexibility Score: inf
ROOT
ATOM      1  C   UNL     1     147.638 135.392 158.250  1.00  0.00     0.044 C 
ATOM      2  C   UNL     1     148.596 135.225 159.390  1.00  0.00    -0.055 C 
ATOM      3  C   UNL     1     149.919 135.218 159.171  1.00  0.00    -0.023 C 
ATOM      4  C   UNL     1     150.885 134.911 160.287  1.00  0.00     0.035 C 
ATOM      5  C   UNL     1     150.357 135.433 161.648  1.00  0.00     0.018 C 
ATOM      6  C   UNL     1     148.903 135.017 161.810  1.00  0.00    -0.023 C 
ATOM      7  C   UNL     1     148.081 134.982 160.756  1.00  0.00    -0.001 C 
ENDROOT
BRANCH   5   8
ATOM      8  C   UNL     1     151.223 134.963 162.860  1.00  0.00    -0.010 C 
ATOM      9  C   UNL     1     151.052 135.907 164.066  1.00  0.00     0.008 C 
ATOM     10  C   UNL     1     152.720 134.875 162.516  1.00  0.00     0.008 C 
ENDBRANCH   5   8
TORSDOF 1
ENDMDL
MODEL 5
REMARK VINA RESULT:    -0.170      0.818      0.842
REMARK INTER + INTRA:          -0.308
REMARK INTER:                  -0.138
REMARK INTRA:                  -0.170
REMARK UNBOUND:                -0.128
REMARK SMILES CC1=CC[C@H](C(C)C)C=C1
REMARK SMILES IDX 1 1 2 2 3 3 4 4 5 5 9 6 10 7 6 8 7 9 8 10
REMARK H PARENT
REMARK Flexibility Score: inf
ROOT
ATOM      1  C   UNL     1     134.910 141.547 164.318  1.00  0.00     0.044 C 
ATOM      2  C   UNL     1     135.351 140.280 163.650  1.00  0.00    -0.055 C 
ATOM      3  C   UNL     1     136.038 139.354 164.335  1.00  0.00    -0.023 C 
ATOM      4  C   UNL     1     136.606 138.143 163.640  1.00  0.00     0.035 C 
ATOM      5  C   UNL     1     135.693 137.683 162.474  1.00  0.00     0.018 C 
ATOM      6  C   UNL     1     135.314 138.892 161.634  1.00  0.00    -0.023 C 
ATOM      7  C   UNL     1     135.101 140.082 162.206  1.00  0.00    -0.001 C 
ENDROOT
BRANCH   5   8
ATOM      8  C   UNL     1     136.337 136.560 161.600  1.00  0.00    -0.010 C 
ATOM      9  C   UNL     1     136.537 135.267 162.413  1.00  0.00     0.008 C 
ATOM     10  C   UNL     1     137.694 136.980 161.007  1.00  0.00     0.008 C 
ENDBRANCH   5   8
TORSDOF 1
ENDMDL
