MODEL 1
REMARK VINA RESULT:    -6.215      0.000      0.000
REMARK INTER + INTRA:         -10.958
REMARK INTER:                  -9.121
REMARK INTRA:                  -1.837
REMARK UNBOUND:                -1.837
REMARK SMILES O=c1c(O[C@H]2O[C@H](CO)[C@@H](O)[C@H](O)[C@@H]2O)c(-c2ccc(O)c(O)c2)oc2cc(O)cc(O)c12
REMARK SMILES IDX 4 1 3 2 16 3 25 4 2 5 26 6 1 7 33 8 27 9 31 10 28 11 30 12
REMARK SMILES IDX 17 13 18 14 19 15 20 16 24 17 22 18 21 19 23 21 32 23 29 25
REMARK SMILES IDX 5 27 14 28 6 29 12 30 7 31 10 32 15 33 13 35 8 37 9 38 11 40
REMARK H PARENT 21 20 23 22 32 24 29 26 15 34 13 36 9 39 11 41
REMARK Flexibility Score: inf
ROOT
ATOM      1  O   UNL     1      29.926  62.141   3.513  1.00  0.00    -0.454 OA
ENDROOT
BRANCH   1   2
ATOM      2  C   UNL     1      30.394  61.004   4.194  1.00  0.00     0.214 A 
ATOM      3  C   UNL     1      30.346  59.747   3.561  1.00  0.00     0.180 A 
ATOM      4  O   UNL     1      30.814  58.669   4.177  1.00  0.00    -0.452 OA
ATOM      5  C   UNL     1      30.878  61.073   5.512  1.00  0.00     0.239 A 
ATOM      6  C   UNL     1      31.301  58.694   5.411  1.00  0.00     0.146 A 
ATOM      7  O   UNL     1      30.845  62.171   6.132  1.00  0.00    -0.285 OA
ATOM      8  C   UNL     1      31.347  59.904   6.146  1.00  0.00     0.111 A 
ATOM      9  C   UNL     1      31.746  57.504   5.990  1.00  0.00     0.094 A 
ATOM     10  C   UNL     1      31.833  59.890   7.477  1.00  0.00     0.134 A 
ATOM     11  C   UNL     1      32.227  57.492   7.305  1.00  0.00     0.123 A 
ATOM     12  C   UNL     1      32.271  58.680   8.040  1.00  0.00     0.093 A 
BRANCH   3  13
ATOM     13  C   UNL     1      29.797  59.595   2.204  1.00  0.00     0.025 A 
ATOM     14  C   UNL     1      30.661  59.436   1.113  1.00  0.00     0.016 A 
ATOM     15  C   UNL     1      30.150  59.362  -0.184  1.00  0.00     0.051 A 
ATOM     16  C   UNL     1      28.769  59.426  -0.410  1.00  0.00     0.157 A 
ATOM     17  C   UNL     1      28.410  59.629   1.987  1.00  0.00     0.062 A 
ATOM     18  C   UNL     1      27.887  59.558   0.693  1.00  0.00     0.158 A 
BRANCH  16  19
ATOM     19  O   UNL     1      28.315  59.339  -1.724  1.00  0.00    -0.504 OA
ATOM     20  H   UNL     1      28.577  58.605  -2.366  1.00  0.00     0.293 HD
ENDBRANCH  16  19
BRANCH  18  21
ATOM     21  O   UNL     1      26.499  59.634   0.546  1.00  0.00    -0.504 OA
ATOM     22  H   UNL     1      25.954  60.459   0.745  1.00  0.00     0.293 HD
ENDBRANCH  18  21
ENDBRANCH   3  13
BRANCH  10  23
ATOM     23  O   UNL     1      31.880  61.060   8.242  1.00  0.00    -0.507 OA
ATOM     24  H   UNL     1      31.688  61.050   9.240  1.00  0.00     0.293 HD
ENDBRANCH  10  23
BRANCH  11  25
ATOM     25  O   UNL     1      32.675  56.308   7.885  1.00  0.00    -0.508 OA
ATOM     26  H   UNL     1      33.663  56.079   7.942  1.00  0.00     0.293 HD
ENDBRANCH  11  25
ENDBRANCH   1   2
BRANCH   1  27
ATOM     27  C   UNL     1      30.774  63.087   2.847  1.00  0.00     0.339 C 
ATOM     28  C   UNL     1      30.467  64.515   3.327  1.00  0.00     0.214 C 
ATOM     29  O   UNL     1      30.653  62.984   1.436  1.00  0.00    -0.332 OA
ATOM     30  C   UNL     1      29.060  64.923   2.874  1.00  0.00     0.180 C 
ATOM     31  C   UNL     1      29.330  63.258   0.989  1.00  0.00     0.179 C 
ATOM     32  C   UNL     1      28.896  64.698   1.356  1.00  0.00     0.177 C 
BRANCH  28  33
ATOM     33  O   UNL     1      31.429  65.397   2.801  1.00  0.00    -0.384 OA
ATOM     34  H   UNL     1      32.238  65.313   3.370  1.00  0.00     0.211 HD
ENDBRANCH  28  33
BRANCH  30  35
ATOM     35  O   UNL     1      28.779  66.247   3.264  1.00  0.00    -0.387 OA
ATOM     36  H   UNL     1      27.951  66.552   2.802  1.00  0.00     0.211 HD
ENDBRANCH  30  35
BRANCH  31  37
ATOM     37  C   UNL     1      29.303  63.041  -0.532  1.00  0.00     0.191 C 
BRANCH  37  38
ATOM     38  O   UNL     1      27.993  62.817  -0.986  1.00  0.00    -0.394 OA
ATOM     39  H   UNL     1      27.553  62.222  -0.325  1.00  0.00     0.210 HD
ENDBRANCH  37  38
ENDBRANCH  31  37
BRANCH  32  40
ATOM     40  O   UNL     1      27.546  64.894   1.006  1.00  0.00    -0.387 OA
ATOM     41  H   UNL     1      27.031  64.135   1.394  1.00  0.00     0.211 HD
ENDBRANCH  32  40
ENDBRANCH   1  27
TORSDOF 12
ENDMDL
MODEL 2
REMARK VINA RESULT:    -6.209      2.078      6.640
REMARK INTER + INTRA:         -10.950
REMARK INTER:                  -9.533
REMARK INTRA:                  -1.417
REMARK UNBOUND:                -1.837
REMARK SMILES O=c1c(O[C@H]2O[C@H](CO)[C@@H](O)[C@H](O)[C@@H]2O)c(-c2ccc(O)c(O)c2)oc2cc(O)cc(O)c12
REMARK SMILES IDX 4 1 3 2 16 3 25 4 2 5 26 6 1 7 33 8 27 9 31 10 28 11 30 12
REMARK SMILES IDX 17 13 18 14 19 15 20 16 24 17 22 18 21 19 23 21 32 23 29 25
REMARK SMILES IDX 5 27 14 28 6 29 12 30 7 31 10 32 15 33 13 35 8 37 9 38 11 40
REMARK H PARENT 21 20 23 22 32 24 29 26 15 34 13 36 9 39 11 41
REMARK Flexibility Score: inf
ROOT
ATOM      1  O   UNL     1      29.918  62.180   2.052  1.00  0.00    -0.454 OA
ENDROOT
BRANCH   1   2
ATOM      2  C   UNL     1      29.563  61.484   0.884  1.00  0.00     0.214 A 
ATOM      3  C   UNL     1      29.681  60.082   0.848  1.00  0.00     0.180 A 
ATOM      4  O   UNL     1      29.318  59.407  -0.236  1.00  0.00    -0.452 OA
ATOM      5  C   UNL     1      29.125  62.151  -0.274  1.00  0.00     0.239 A 
ATOM      6  C   UNL     1      28.878  59.994  -1.341  1.00  0.00     0.146 A 
ATOM      7  O   UNL     1      29.098  63.411  -0.296  1.00  0.00    -0.285 OA
ATOM      8  C   UNL     1      28.768  61.405  -1.416  1.00  0.00     0.111 A 
ATOM      9  C   UNL     1      28.546  59.205  -2.444  1.00  0.00     0.094 A 
ATOM     10  C   UNL     1      28.335  62.004  -2.625  1.00  0.00     0.134 A 
ATOM     11  C   UNL     1      28.117  59.798  -3.637  1.00  0.00     0.123 A 
ATOM     12  C   UNL     1      28.012  61.190  -3.722  1.00  0.00     0.093 A 
BRANCH   3  13
ATOM     13  C   UNL     1      30.189  59.327   2.005  1.00  0.00     0.025 A 
ATOM     14  C   UNL     1      31.569  59.179   2.194  1.00  0.00     0.016 A 
ATOM     15  C   UNL     1      32.055  58.406   3.249  1.00  0.00     0.051 A 
ATOM     16  C   UNL     1      31.173  57.785   4.142  1.00  0.00     0.157 A 
ATOM     17  C   UNL     1      29.300  58.733   2.915  1.00  0.00     0.062 A 
ATOM     18  C   UNL     1      29.775  57.954   3.974  1.00  0.00     0.158 A 
BRANCH  16  19
ATOM     19  O   UNL     1      31.714  57.031   5.182  1.00  0.00    -0.504 OA
ATOM     20  H   UNL     1      31.165  56.583   5.901  1.00  0.00     0.293 HD
ENDBRANCH  16  19
BRANCH  18  21
ATOM     21  O   UNL     1      28.834  57.363   4.821  1.00  0.00    -0.504 OA
ATOM     22  H   UNL     1      29.038  57.044   5.756  1.00  0.00     0.293 HD
ENDBRANCH  18  21
ENDBRANCH   3  13
BRANCH  10  23
ATOM     23  O   UNL     1      28.229  63.394  -2.746  1.00  0.00    -0.507 OA
ATOM     24  H   UNL     1      29.048  63.979  -2.885  1.00  0.00     0.293 HD
ENDBRANCH  10  23
BRANCH  11  25
ATOM     25  O   UNL     1      27.781  59.015  -4.738  1.00  0.00    -0.508 OA
ATOM     26  H   UNL     1      27.321  58.115  -4.636  1.00  0.00     0.293 HD
ENDBRANCH  11  25
ENDBRANCH   1   2
BRANCH   1  27
ATOM     27  C   UNL     1      29.045  62.369   3.174  1.00  0.00     0.339 C 
ATOM     28  C   UNL     1      28.308  63.715   3.062  1.00  0.00     0.214 C 
ATOM     29  O   UNL     1      29.752  62.274   4.401  1.00  0.00    -0.332 OA
ATOM     30  C   UNL     1      29.311  64.867   3.197  1.00  0.00     0.180 C 
ATOM     31  C   UNL     1      30.763  63.269   4.517  1.00  0.00     0.179 C 
ATOM     32  C   UNL     1      30.160  64.695   4.475  1.00  0.00     0.177 C 
BRANCH  28  33
ATOM     33  O   UNL     1      27.329  63.792   4.069  1.00  0.00    -0.384 OA
ATOM     34  H   UNL     1      26.697  63.043   3.913  1.00  0.00     0.211 HD
ENDBRANCH  28  33
BRANCH  30  35
ATOM     35  O   UNL     1      28.648  66.108   3.145  1.00  0.00    -0.387 OA
ATOM     36  H   UNL     1      29.271  66.822   3.454  1.00  0.00     0.211 HD
ENDBRANCH  30  35
BRANCH  31  37
ATOM     37  C   UNL     1      31.507  63.020   5.838  1.00  0.00     0.191 C 
BRANCH  37  38
ATOM     38  O   UNL     1      31.066  63.902   6.838  1.00  0.00    -0.394 OA
ATOM     39  H   UNL     1      30.242  64.340   6.499  1.00  0.00     0.210 HD
ENDBRANCH  37  38
ENDBRANCH  31  37
BRANCH  32  40
ATOM     40  O   UNL     1      31.194  65.652   4.471  1.00  0.00    -0.387 OA
ATOM     41  H   UNL     1      31.701  65.535   5.320  1.00  0.00     0.211 HD
ENDBRANCH  32  40
ENDBRANCH   1  27
TORSDOF 12
ENDMDL
MODEL 3
REMARK VINA RESULT:    -6.142      8.132     11.325
REMARK INTER + INTRA:         -10.851
REMARK INTER:                  -9.440
REMARK INTRA:                  -1.411
REMARK UNBOUND:                -1.837
REMARK SMILES O=c1c(O[C@H]2O[C@H](CO)[C@@H](O)[C@H](O)[C@@H]2O)c(-c2ccc(O)c(O)c2)oc2cc(O)cc(O)c12
REMARK SMILES IDX 4 1 3 2 16 3 25 4 2 5 26 6 1 7 33 8 27 9 31 10 28 11 30 12
REMARK SMILES IDX 17 13 18 14 19 15 20 16 24 17 22 18 21 19 23 21 32 23 29 25
REMARK SMILES IDX 5 27 14 28 6 29 12 30 7 31 10 32 15 33 13 35 8 37 9 38 11 40
REMARK H PARENT 21 20 23 22 32 24 29 26 15 34 13 36 9 39 11 41
REMARK Flexibility Score: inf
ROOT
ATOM      1  O   UNL     1      33.865  68.140   7.900  1.00  0.00    -0.454 OA
ENDROOT
BRANCH   1   2
ATOM      2  C   UNL     1      34.749  68.788   8.779  1.00  0.00     0.214 A 
ATOM      3  C   UNL     1      34.880  68.323  10.100  1.00  0.00     0.180 A 
ATOM      4  O   UNL     1      35.735  68.904  10.934  1.00  0.00    -0.452 OA
ATOM      5  C   UNL     1      35.487  69.920   8.389  1.00  0.00     0.239 A 
ATOM      6  C   UNL     1      36.467  69.959  10.600  1.00  0.00     0.146 A 
ATOM      7  O   UNL     1      35.318  70.411   7.240  1.00  0.00    -0.285 OA
ATOM      8  C   UNL     1      36.370  70.527   9.306  1.00  0.00     0.111 A 
ATOM      9  C   UNL     1      37.321  70.522  11.551  1.00  0.00     0.094 A 
ATOM     10  C   UNL     1      37.134  71.679   8.995  1.00  0.00     0.134 A 
ATOM     11  C   UNL     1      38.076  71.659  11.241  1.00  0.00     0.123 A 
ATOM     12  C   UNL     1      37.981  72.231   9.969  1.00  0.00     0.093 A 
BRANCH   3  13
ATOM     13  C   UNL     1      34.093  67.179  10.590  1.00  0.00     0.025 A 
ATOM     14  C   UNL     1      34.506  65.872  10.303  1.00  0.00     0.016 A 
ATOM     15  C   UNL     1      33.728  64.785  10.704  1.00  0.00     0.051 A 
ATOM     16  C   UNL     1      32.537  64.985  11.413  1.00  0.00     0.157 A 
ATOM     17  C   UNL     1      32.917  67.386  11.327  1.00  0.00     0.062 A 
ATOM     18  C   UNL     1      32.127  66.305  11.732  1.00  0.00     0.158 A 
BRANCH  16  19
ATOM     19  O   UNL     1      31.804  63.863  11.794  1.00  0.00    -0.504 OA
ATOM     20  H   UNL     1      31.288  63.279  11.151  1.00  0.00     0.293 HD
ENDBRANCH  16  19
BRANCH  18  21
ATOM     21  O   UNL     1      30.950  66.584  12.431  1.00  0.00    -0.504 OA
ATOM     22  H   UNL     1      30.024  66.435  12.060  1.00  0.00     0.293 HD
ENDBRANCH  18  21
ENDBRANCH   3  13
BRANCH  10  23
ATOM     23  O   UNL     1      37.054  72.281   7.734  1.00  0.00    -0.507 OA
ATOM     24  H   UNL     1      36.743  73.241   7.622  1.00  0.00     0.293 HD
ENDBRANCH  10  23
BRANCH  11  25
ATOM     25  O   UNL     1      38.930  72.222  12.185  1.00  0.00    -0.508 OA
ATOM     26  H   UNL     1      39.940  72.148  12.106  1.00  0.00     0.293 HD
ENDBRANCH  11  25
ENDBRANCH   1   2
BRANCH   1  27
ATOM     27  C   UNL     1      32.725  68.767   7.295  1.00  0.00     0.339 C 
ATOM     28  C   UNL     1      31.475  68.565   8.168  1.00  0.00     0.214 C 
ATOM     29  O   UNL     1      32.511  68.290   5.976  1.00  0.00    -0.332 OA
ATOM     30  C   UNL     1      31.091  67.080   8.186  1.00  0.00     0.180 C 
ATOM     31  C   UNL     1      32.252  66.891   5.947  1.00  0.00     0.179 C 
ATOM     32  C   UNL     1      30.975  66.535   6.747  1.00  0.00     0.177 C 
BRANCH  28  33
ATOM     33  O   UNL     1      30.420  69.340   7.652  1.00  0.00    -0.384 OA
ATOM     34  H   UNL     1      30.418  70.195   8.157  1.00  0.00     0.211 HD
ENDBRANCH  28  33
BRANCH  30  35
ATOM     35  O   UNL     1      29.919  66.881   8.942  1.00  0.00    -0.387 OA
ATOM     36  H   UNL     1      30.117  66.250   9.687  1.00  0.00     0.211 HD
ENDBRANCH  30  35
BRANCH  31  37
ATOM     37  C   UNL     1      32.116  66.478   4.473  1.00  0.00     0.191 C 
BRANCH  37  38
ATOM     38  O   UNL     1      30.772  66.500   4.065  1.00  0.00    -0.394 OA
ATOM     39  H   UNL     1      30.218  66.385   4.881  1.00  0.00     0.210 HD
ENDBRANCH  37  38
ENDBRANCH  31  37
BRANCH  32  40
ATOM     40  O   UNL     1      30.815  65.137   6.797  1.00  0.00    -0.387 OA
ATOM     41  H   UNL     1      31.722  64.737   6.704  1.00  0.00     0.211 HD
ENDBRANCH  32  40
ENDBRANCH   1  27
TORSDOF 12
ENDMDL
MODEL 4
REMARK VINA RESULT:    -6.111      1.695      4.712
REMARK INTER + INTRA:         -10.806
REMARK INTER:                  -9.305
REMARK INTRA:                  -1.501
REMARK UNBOUND:                -1.837
REMARK SMILES O=c1c(O[C@H]2O[C@H](CO)[C@@H](O)[C@H](O)[C@@H]2O)c(-c2ccc(O)c(O)c2)oc2cc(O)cc(O)c12
REMARK SMILES IDX 4 1 3 2 16 3 25 4 2 5 26 6 1 7 33 8 27 9 31 10 28 11 30 12
REMARK SMILES IDX 17 13 18 14 19 15 20 16 24 17 22 18 21 19 23 21 32 23 29 25
REMARK SMILES IDX 5 27 14 28 6 29 12 30 7 31 10 32 15 33 13 35 8 37 9 38 11 40
REMARK H PARENT 21 20 23 22 32 24 29 26 15 34 13 36 9 39 11 41
REMARK Flexibility Score: inf
ROOT
ATOM      1  O   UNL     1      29.175  61.021   1.530  1.00  0.00    -0.454 OA
ENDROOT
BRANCH   1   2
ATOM      2  C   UNL     1      30.001  60.819   2.649  1.00  0.00     0.214 A 
ATOM      3  C   UNL     1      30.684  61.912   3.214  1.00  0.00     0.180 A 
ATOM      4  O   UNL     1      31.443  61.744   4.291  1.00  0.00    -0.452 OA
ATOM      5  C   UNL     1      30.200  59.543   3.205  1.00  0.00     0.239 A 
ATOM      6  C   UNL     1      31.639  60.562   4.861  1.00  0.00     0.146 A 
ATOM      7  O   UNL     1      29.673  58.535   2.660  1.00  0.00    -0.285 OA
ATOM      8  C   UNL     1      31.030  59.396   4.335  1.00  0.00     0.111 A 
ATOM      9  C   UNL     1      32.476  60.476   5.975  1.00  0.00     0.094 A 
ATOM     10  C   UNL     1      31.295  58.142   4.941  1.00  0.00     0.134 A 
ATOM     11  C   UNL     1      32.735  59.237   6.573  1.00  0.00     0.123 A 
ATOM     12  C   UNL     1      32.144  58.079   6.057  1.00  0.00     0.093 A 
BRANCH   3  13
ATOM     13  C   UNL     1      30.566  63.265   2.646  1.00  0.00     0.025 A 
ATOM     14  C   UNL     1      31.325  63.621   1.524  1.00  0.00     0.016 A 
ATOM     15  C   UNL     1      31.270  64.923   1.023  1.00  0.00     0.051 A 
ATOM     16  C   UNL     1      30.444  65.882   1.622  1.00  0.00     0.157 A 
ATOM     17  C   UNL     1      29.712  64.212   3.232  1.00  0.00     0.062 A 
ATOM     18  C   UNL     1      29.651  65.520   2.741  1.00  0.00     0.158 A 
BRANCH  16  19
ATOM     19  O   UNL     1      30.423  67.164   1.075  1.00  0.00    -0.504 OA
ATOM     20  H   UNL     1      30.454  67.356   0.084  1.00  0.00     0.293 HD
ENDBRANCH  16  19
BRANCH  18  21
ATOM     21  O   UNL     1      28.807  66.422   3.393  1.00  0.00    -0.504 OA
ATOM     22  H   UNL     1      28.901  67.425   3.338  1.00  0.00     0.293 HD
ENDBRANCH  18  21
ENDBRANCH   3  13
BRANCH  10  23
ATOM     23  O   UNL     1      30.727  56.964   4.443  1.00  0.00    -0.507 OA
ATOM     24  H   UNL     1      29.952  56.507   4.915  1.00  0.00     0.293 HD
ENDBRANCH  10  23
BRANCH  11  25
ATOM     25  O   UNL     1      33.566  59.146   7.686  1.00  0.00    -0.508 OA
ATOM     26  H   UNL     1      33.556  59.847   8.421  1.00  0.00     0.293 HD
ENDBRANCH  11  25
ENDBRANCH   1   2
BRANCH   1  27
ATOM     27  C   UNL     1      27.745  60.906   1.554  1.00  0.00     0.339 C 
ATOM     28  C   UNL     1      27.241  60.203   0.282  1.00  0.00     0.214 C 
ATOM     29  O   UNL     1      27.128  62.174   1.716  1.00  0.00    -0.332 OA
ATOM     30  C   UNL     1      27.504  61.093  -0.940  1.00  0.00     0.180 C 
ATOM     31  C   UNL     1      27.434  63.061   0.647  1.00  0.00     0.179 C 
ATOM     32  C   UNL     1      26.933  62.508  -0.709  1.00  0.00     0.177 C 
BRANCH  28  33
ATOM     33  O   UNL     1      25.865  59.940   0.413  1.00  0.00    -0.384 OA
ATOM     34  H   UNL     1      25.511  60.586   1.078  1.00  0.00     0.211 HD
ENDBRANCH  28  33
BRANCH  30  35
ATOM     35  O   UNL     1      27.005  60.486  -2.109  1.00  0.00    -0.387 OA
ATOM     36  H   UNL     1      27.732  59.949  -2.530  1.00  0.00     0.211 HD
ENDBRANCH  30  35
BRANCH  31  37
ATOM     37  C   UNL     1      26.781  64.415   0.970  1.00  0.00     0.191 C 
BRANCH  37  38
ATOM     38  O   UNL     1      26.412  64.487   2.323  1.00  0.00    -0.394 OA
ATOM     39  H   UNL     1      25.517  64.067   2.404  1.00  0.00     0.210 HD
ENDBRANCH  37  38
ENDBRANCH  31  37
BRANCH  32  40
ATOM     40  O   UNL     1      27.355  63.350  -1.756  1.00  0.00    -0.387 OA
ATOM     41  H   UNL     1      26.611  63.389  -2.416  1.00  0.00     0.211 HD
ENDBRANCH  32  40
ENDBRANCH   1  27
TORSDOF 12
ENDMDL
MODEL 5
REMARK VINA RESULT:    -6.099      2.789      6.345
REMARK INTER + INTRA:         -10.789
REMARK INTER:                  -8.957
REMARK INTRA:                  -1.832
REMARK UNBOUND:                -1.837
REMARK SMILES O=c1c(O[C@H]2O[C@H](CO)[C@@H](O)[C@H](O)[C@@H]2O)c(-c2ccc(O)c(O)c2)oc2cc(O)cc(O)c12
REMARK SMILES IDX 4 1 3 2 16 3 25 4 2 5 26 6 1 7 33 8 27 9 31 10 28 11 30 12
REMARK SMILES IDX 17 13 18 14 19 15 20 16 24 17 22 18 21 19 23 21 32 23 29 25
REMARK SMILES IDX 5 27 14 28 6 29 12 30 7 31 10 32 15 33 13 35 8 37 9 38 11 40
REMARK H PARENT 21 20 23 22 32 24 29 26 15 34 13 36 9 39 11 41
REMARK Flexibility Score: inf
ROOT
ATOM      1  O   UNL     1      31.553  61.718   5.166  1.00  0.00    -0.454 OA
ENDROOT
BRANCH   1   2
ATOM      2  C   UNL     1      31.457  63.098   5.415  1.00  0.00     0.214 A 
ATOM      3  C   UNL     1      31.292  63.988   4.337  1.00  0.00     0.180 A 
ATOM      4  O   UNL     1      31.166  65.292   4.558  1.00  0.00    -0.452 OA
ATOM      5  C   UNL     1      31.559  63.628   6.713  1.00  0.00     0.239 A 
ATOM      6  C   UNL     1      31.233  65.830   5.768  1.00  0.00     0.146 A 
ATOM      7  O   UNL     1      31.799  62.859   7.684  1.00  0.00    -0.285 OA
ATOM      8  C   UNL     1      31.444  65.019   6.911  1.00  0.00     0.111 A 
ATOM      9  C   UNL     1      31.118  67.216   5.903  1.00  0.00     0.094 A 
ATOM     10  C   UNL     1      31.553  65.630   8.185  1.00  0.00     0.134 A 
ATOM     11  C   UNL     1      31.225  67.817   7.163  1.00  0.00     0.123 A 
ATOM     12  C   UNL     1      31.439  67.025   8.295  1.00  0.00     0.093 A 
BRANCH   3  13
ATOM     13  C   UNL     1      31.236  63.506   2.948  1.00  0.00     0.025 A 
ATOM     14  C   UNL     1      30.004  63.414   2.288  1.00  0.00     0.016 A 
ATOM     15  C   UNL     1      29.936  62.891   0.996  1.00  0.00     0.051 A 
ATOM     16  C   UNL     1      31.098  62.469   0.336  1.00  0.00     0.157 A 
ATOM     17  C   UNL     1      32.408  63.114   2.281  1.00  0.00     0.062 A 
ATOM     18  C   UNL     1      32.352  62.586   0.988  1.00  0.00     0.158 A 
BRANCH  16  19
ATOM     19  O   UNL     1      30.972  61.962  -0.956  1.00  0.00    -0.504 OA
ATOM     20  H   UNL     1      30.420  62.396  -1.682  1.00  0.00     0.293 HD
ENDBRANCH  16  19
BRANCH  18  21
ATOM     21  O   UNL     1      33.552  62.183   0.396  1.00  0.00    -0.504 OA
ATOM     22  H   UNL     1      33.614  61.725  -0.500  1.00  0.00     0.293 HD
ENDBRANCH  18  21
ENDBRANCH   3  13
BRANCH  10  23
ATOM     23  O   UNL     1      31.778  64.867   9.336  1.00  0.00    -0.507 OA
ATOM     24  H   UNL     1      31.466  65.181  10.250  1.00  0.00     0.293 HD
ENDBRANCH  10  23
BRANCH  11  25
ATOM     25  O   UNL     1      31.107  69.197   7.302  1.00  0.00    -0.508 OA
ATOM     26  H   UNL     1      30.474  69.616   7.977  1.00  0.00     0.293 HD
ENDBRANCH  11  25
ENDBRANCH   1   2
BRANCH   1  27
ATOM     27  C   UNL     1      30.438  60.817   5.184  1.00  0.00     0.339 C 
ATOM     28  C   UNL     1      30.711  59.645   6.143  1.00  0.00     0.214 C 
ATOM     29  O   UNL     1      30.130  60.349   3.880  1.00  0.00    -0.332 OA
ATOM     30  C   UNL     1      31.853  58.781   5.594  1.00  0.00     0.180 C 
ATOM     31  C   UNL     1      31.209  59.628   3.299  1.00  0.00     0.179 C 
ATOM     32  C   UNL     1      31.566  58.374   4.133  1.00  0.00     0.177 C 
BRANCH  28  33
ATOM     33  O   UNL     1      29.538  58.880   6.283  1.00  0.00    -0.384 OA
ATOM     34  H   UNL     1      29.023  59.279   7.033  1.00  0.00     0.211 HD
ENDBRANCH  28  33
BRANCH  30  35
ATOM     35  O   UNL     1      32.085  57.676   6.435  1.00  0.00    -0.387 OA
ATOM     36  H   UNL     1      32.346  58.005   7.338  1.00  0.00     0.211 HD
ENDBRANCH  30  35
BRANCH  31  37
ATOM     37  C   UNL     1      30.791  59.244   1.871  1.00  0.00     0.191 C 
BRANCH  37  38
ATOM     38  O   UNL     1      31.915  59.067   1.047  1.00  0.00    -0.394 OA
ATOM     39  H   UNL     1      32.032  58.089   0.919  1.00  0.00     0.210 HD
ENDBRANCH  37  38
ENDBRANCH  31  37
BRANCH  32  40
ATOM     40  O   UNL     1      32.711  57.752   3.597  1.00  0.00    -0.387 OA
ATOM     41  H   UNL     1      32.606  56.773   3.747  1.00  0.00     0.211 HD
ENDBRANCH  32  40
ENDBRANCH   1  27
TORSDOF 12
ENDMDL
MODEL 6
REMARK VINA RESULT:    -6.073      1.209      2.386
REMARK INTER + INTRA:         -10.751
REMARK INTER:                  -9.438
REMARK INTRA:                  -1.312
REMARK UNBOUND:                -1.837
REMARK SMILES O=c1c(O[C@H]2O[C@H](CO)[C@@H](O)[C@H](O)[C@@H]2O)c(-c2ccc(O)c(O)c2)oc2cc(O)cc(O)c12
REMARK SMILES IDX 4 1 3 2 16 3 25 4 2 5 26 6 1 7 33 8 27 9 31 10 28 11 30 12
REMARK SMILES IDX 17 13 18 14 19 15 20 16 24 17 22 18 21 19 23 21 32 23 29 25
REMARK SMILES IDX 5 27 14 28 6 29 12 30 7 31 10 32 15 33 13 35 8 37 9 38 11 40
REMARK H PARENT 21 20 23 22 32 24 29 26 15 34 13 36 9 39 11 41
REMARK Flexibility Score: inf
ROOT
ATOM      1  O   UNL     1      31.339  61.876   3.062  1.00  0.00    -0.454 OA
ENDROOT
BRANCH   1   2
ATOM      2  C   UNL     1      31.536  60.791   3.933  1.00  0.00     0.214 A 
ATOM      3  C   UNL     1      31.106  59.507   3.551  1.00  0.00     0.180 A 
ATOM      4  O   UNL     1      31.314  58.466   4.349  1.00  0.00    -0.452 OA
ATOM      5  C   UNL     1      32.119  60.955   5.203  1.00  0.00     0.239 A 
ATOM      6  C   UNL     1      31.881  58.572   5.544  1.00  0.00     0.146 A 
ATOM      7  O   UNL     1      32.428  62.110   5.604  1.00  0.00    -0.285 OA
ATOM      8  C   UNL     1      32.305  59.832   6.035  1.00  0.00     0.111 A 
ATOM      9  C   UNL     1      32.035  57.426   6.327  1.00  0.00     0.094 A 
ATOM     10  C   UNL     1      32.868  59.917   7.332  1.00  0.00     0.134 A 
ATOM     11  C   UNL     1      32.593  57.512   7.608  1.00  0.00     0.123 A 
ATOM     12  C   UNL     1      33.007  58.752   8.103  1.00  0.00     0.093 A 
BRANCH   3  13
ATOM     13  C   UNL     1      30.436  59.277   2.261  1.00  0.00     0.025 A 
ATOM     14  C   UNL     1      31.189  59.217   1.082  1.00  0.00     0.016 A 
ATOM     15  C   UNL     1      30.553  59.070  -0.152  1.00  0.00     0.051 A 
ATOM     16  C   UNL     1      29.159  58.960  -0.225  1.00  0.00     0.157 A 
ATOM     17  C   UNL     1      29.040  59.136   2.198  1.00  0.00     0.062 A 
ATOM     18  C   UNL     1      28.392  58.991   0.968  1.00  0.00     0.158 A 
BRANCH  16  19
ATOM     19  O   UNL     1      28.578  58.807  -1.483  1.00  0.00    -0.504 OA
ATOM     20  H   UNL     1      27.584  58.727  -1.641  1.00  0.00     0.293 HD
ENDBRANCH  16  19
BRANCH  18  21
ATOM     21  O   UNL     1      26.998  58.892   0.973  1.00  0.00    -0.504 OA
ATOM     22  H   UNL     1      26.489  58.068   0.691  1.00  0.00     0.293 HD
ENDBRANCH  18  21
ENDBRANCH   3  13
BRANCH  10  23
ATOM     23  O   UNL     1      33.284  61.144   7.861  1.00  0.00    -0.507 OA
ATOM     24  H   UNL     1      33.082  62.021   7.390  1.00  0.00     0.293 HD
ENDBRANCH  10  23
BRANCH  11  25
ATOM     25  O   UNL     1      32.750  56.372   8.391  1.00  0.00    -0.508 OA
ATOM     26  H   UNL     1      32.603  56.387   9.396  1.00  0.00     0.293 HD
ENDBRANCH  11  25
ENDBRANCH   1   2
BRANCH   1  27
ATOM     27  C   UNL     1      30.065  62.483   2.805  1.00  0.00     0.339 C 
ATOM     28  C   UNL     1      29.954  62.897   1.328  1.00  0.00     0.214 C 
ATOM     29  O   UNL     1      29.837  63.589   3.665  1.00  0.00    -0.332 OA
ATOM     30  C   UNL     1      30.949  64.027   1.031  1.00  0.00     0.180 C 
ATOM     31  C   UNL     1      30.805  64.616   3.487  1.00  0.00     0.179 C 
ATOM     32  C   UNL     1      30.775  65.178   2.045  1.00  0.00     0.177 C 
BRANCH  28  33
ATOM     33  O   UNL     1      28.638  63.317   1.062  1.00  0.00    -0.384 OA
ATOM     34  H   UNL     1      28.333  62.816   0.261  1.00  0.00     0.211 HD
ENDBRANCH  28  33
BRANCH  30  35
ATOM     35  O   UNL     1      30.829  64.452  -0.306  1.00  0.00    -0.387 OA
ATOM     36  H   UNL     1      29.929  64.193  -0.649  1.00  0.00     0.211 HD
ENDBRANCH  30  35
BRANCH  31  37
ATOM     37  C   UNL     1      30.505  65.717   4.517  1.00  0.00     0.191 C 
BRANCH  37  38
ATOM     38  O   UNL     1      29.744  66.749   3.944  1.00  0.00    -0.394 OA
ATOM     39  H   UNL     1      28.883  66.350   3.654  1.00  0.00     0.210 HD
ENDBRANCH  37  38
ENDBRANCH  31  37
BRANCH  32  40
ATOM     40  O   UNL     1      31.821  66.105   1.870  1.00  0.00    -0.387 OA
ATOM     41  H   UNL     1      32.015  66.143   0.894  1.00  0.00     0.211 HD
ENDBRANCH  32  40
ENDBRANCH   1  27
TORSDOF 12
ENDMDL
MODEL 7
REMARK VINA RESULT:    -6.049      3.524      8.740
REMARK INTER + INTRA:         -10.714
REMARK INTER:                  -9.350
REMARK INTRA:                  -1.364
REMARK UNBOUND:                -1.837
REMARK SMILES O=c1c(O[C@H]2O[C@H](CO)[C@@H](O)[C@H](O)[C@@H]2O)c(-c2ccc(O)c(O)c2)oc2cc(O)cc(O)c12
REMARK SMILES IDX 4 1 3 2 16 3 25 4 2 5 26 6 1 7 33 8 27 9 31 10 28 11 30 12
REMARK SMILES IDX 17 13 18 14 19 15 20 16 24 17 22 18 21 19 23 21 32 23 29 25
REMARK SMILES IDX 5 27 14 28 6 29 12 30 7 31 10 32 15 33 13 35 8 37 9 38 11 40
REMARK H PARENT 21 20 23 22 32 24 29 26 15 34 13 36 9 39 11 41
REMARK Flexibility Score: inf
ROOT
ATOM      1  O   UNL     1      31.110  58.243   7.530  1.00  0.00    -0.454 OA
ENDROOT
BRANCH   1   2
ATOM      2  C   UNL     1      30.353  58.328   6.349  1.00  0.00     0.214 A 
ATOM      3  C   UNL     1      28.976  58.040   6.385  1.00  0.00     0.180 A 
ATOM      4  O   UNL     1      28.240  58.147   5.285  1.00  0.00    -0.452 OA
ATOM      5  C   UNL     1      30.938  58.656   5.113  1.00  0.00     0.239 A 
ATOM      6  C   UNL     1      28.747  58.477   4.104  1.00  0.00     0.146 A 
ATOM      7  O   UNL     1      32.185  58.828   5.038  1.00  0.00    -0.285 OA
ATOM      8  C   UNL     1      30.131  58.739   3.959  1.00  0.00     0.111 A 
ATOM      9  C   UNL     1      27.901  58.538   2.995  1.00  0.00     0.094 A 
ATOM     10  C   UNL     1      30.649  59.047   2.676  1.00  0.00     0.134 A 
ATOM     11  C   UNL     1      28.414  58.843   1.728  1.00  0.00     0.123 A 
ATOM     12  C   UNL     1      29.780  59.097   1.575  1.00  0.00     0.093 A 
BRANCH   3  13
ATOM     13  C   UNL     1      28.312  57.633   7.634  1.00  0.00     0.025 A 
ATOM     14  C   UNL     1      28.089  56.276   7.899  1.00  0.00     0.016 A 
ATOM     15  C   UNL     1      27.398  55.887   9.047  1.00  0.00     0.051 A 
ATOM     16  C   UNL     1      26.935  56.846   9.958  1.00  0.00     0.157 A 
ATOM     17  C   UNL     1      27.878  58.597   8.558  1.00  0.00     0.062 A 
ATOM     18  C   UNL     1      27.182  58.221   9.710  1.00  0.00     0.158 A 
BRANCH  16  19
ATOM     19  O   UNL     1      26.258  56.400  11.091  1.00  0.00    -0.504 OA
ATOM     20  H   UNL     1      25.409  56.819  11.444  1.00  0.00     0.293 HD
ENDBRANCH  16  19
BRANCH  18  21
ATOM     21  O   UNL     1      26.747  59.233  10.569  1.00  0.00    -0.504 OA
ATOM     22  H   UNL     1      27.042  60.196  10.503  1.00  0.00     0.293 HD
ENDBRANCH  18  21
ENDBRANCH   3  13
BRANCH  10  23
ATOM     23  O   UNL     1      32.012  59.296   2.487  1.00  0.00    -0.507 OA
ATOM     24  H   UNL     1      32.707  58.989   3.161  1.00  0.00     0.293 HD
ENDBRANCH  10  23
BRANCH  11  25
ATOM     25  O   UNL     1      27.574  58.908   0.620  1.00  0.00    -0.508 OA
ATOM     26  H   UNL     1      27.539  59.728   0.021  1.00  0.00     0.293 HD
ENDBRANCH  11  25
ENDBRANCH   1   2
BRANCH   1  27
ATOM     27  C   UNL     1      32.024  57.179   7.826  1.00  0.00     0.339 C 
ATOM     28  C   UNL     1      31.590  56.437   9.102  1.00  0.00     0.214 C 
ATOM     29  O   UNL     1      33.355  57.657   7.941  1.00  0.00    -0.332 OA
ATOM     30  C   UNL     1      31.727  57.367  10.314  1.00  0.00     0.180 C 
ATOM     31  C   UNL     1      33.497  58.603   8.995  1.00  0.00     0.179 C 
ATOM     32  C   UNL     1      33.143  57.978  10.367  1.00  0.00     0.177 C 
BRANCH  28  33
ATOM     33  O   UNL     1      32.390  55.292   9.267  1.00  0.00    -0.384 OA
ATOM     34  H   UNL     1      33.132  55.363   8.610  1.00  0.00     0.211 HD
ENDBRANCH  28  33
BRANCH  30  35
ATOM     35  O   UNL     1      31.379  56.689  11.498  1.00  0.00    -0.387 OA
ATOM     36  H   UNL     1      32.029  55.950  11.652  1.00  0.00     0.211 HD
ENDBRANCH  30  35
BRANCH  31  37
ATOM     37  C   UNL     1      34.949  59.105   8.973  1.00  0.00     0.191 C 
BRANCH  37  38
ATOM     38  O   UNL     1      35.777  58.290   9.762  1.00  0.00    -0.394 OA
ATOM     39  H   UNL     1      36.106  57.557   9.180  1.00  0.00     0.210 HD
ENDBRANCH  37  38
ENDBRANCH  31  37
BRANCH  32  40
ATOM     40  O   UNL     1      33.178  58.968  11.367  1.00  0.00    -0.387 OA
ATOM     41  H   UNL     1      33.522  59.800  10.942  1.00  0.00     0.211 HD
ENDBRANCH  32  40
ENDBRANCH   1  27
TORSDOF 12
ENDMDL
MODEL 8
REMARK VINA RESULT:    -6.037      4.013      9.263
REMARK INTER + INTRA:         -10.697
REMARK INTER:                  -8.888
REMARK INTRA:                  -1.809
REMARK UNBOUND:                -1.837
REMARK SMILES O=c1c(O[C@H]2O[C@H](CO)[C@@H](O)[C@H](O)[C@@H]2O)c(-c2ccc(O)c(O)c2)oc2cc(O)cc(O)c12
REMARK SMILES IDX 4 1 3 2 16 3 25 4 2 5 26 6 1 7 33 8 27 9 31 10 28 11 30 12
REMARK SMILES IDX 17 13 18 14 19 15 20 16 24 17 22 18 21 19 23 21 32 23 29 25
REMARK SMILES IDX 5 27 14 28 6 29 12 30 7 31 10 32 15 33 13 35 8 37 9 38 11 40
REMARK H PARENT 21 20 23 22 32 24 29 26 15 34 13 36 9 39 11 41
REMARK Flexibility Score: inf
ROOT
ATOM      1  O   UNL     1      30.835  57.026   8.228  1.00  0.00    -0.454 OA
ENDROOT
BRANCH   1   2
ATOM      2  C   UNL     1      30.284  57.450   7.007  1.00  0.00     0.214 A 
ATOM      3  C   UNL     1      28.887  57.449   6.838  1.00  0.00     0.180 A 
ATOM      4  O   UNL     1      28.349  57.879   5.702  1.00  0.00    -0.452 OA
ATOM      5  C   UNL     1      31.091  57.843   5.924  1.00  0.00     0.239 A 
ATOM      6  C   UNL     1      29.073  58.280   4.665  1.00  0.00     0.146 A 
ATOM      7  O   UNL     1      32.346  57.764   6.020  1.00  0.00    -0.285 OA
ATOM      8  C   UNL     1      30.489  58.272   4.724  1.00  0.00     0.111 A 
ATOM      9  C   UNL     1      28.422  58.688   3.499  1.00  0.00     0.094 A 
ATOM     10  C   UNL     1      31.233  58.665   3.584  1.00  0.00     0.134 A 
ATOM     11  C   UNL     1      29.159  59.079   2.375  1.00  0.00     0.123 A 
ATOM     12  C   UNL     1      30.556  59.068   2.422  1.00  0.00     0.093 A 
BRANCH   3  13
ATOM     13  C   UNL     1      27.987  56.995   7.910  1.00  0.00     0.025 A 
ATOM     14  C   UNL     1      27.785  55.625   8.120  1.00  0.00     0.016 A 
ATOM     15  C   UNL     1      26.879  55.189   9.089  1.00  0.00     0.051 A 
ATOM     16  C   UNL     1      26.176  56.112   9.874  1.00  0.00     0.157 A 
ATOM     17  C   UNL     1      27.309  57.925   8.714  1.00  0.00     0.062 A 
ATOM     18  C   UNL     1      26.398  57.500   9.685  1.00  0.00     0.158 A 
BRANCH  16  19
ATOM     19  O   UNL     1      25.290  55.620  10.830  1.00  0.00    -0.504 OA
ATOM     20  H   UNL     1      25.332  54.685  11.212  1.00  0.00     0.293 HD
ENDBRANCH  16  19
BRANCH  18  21
ATOM     21  O   UNL     1      25.731  58.479  10.426  1.00  0.00    -0.504 OA
ATOM     22  H   UNL     1      26.190  59.129  11.047  1.00  0.00     0.293 HD
ENDBRANCH  18  21
ENDBRANCH   3  13
BRANCH  10  23
ATOM     23  O   UNL     1      32.632  58.656   3.595  1.00  0.00    -0.507 OA
ATOM     24  H   UNL     1      33.155  57.840   3.897  1.00  0.00     0.293 HD
ENDBRANCH  10  23
BRANCH  11  25
ATOM     25  O   UNL     1      28.513  59.490   1.212  1.00  0.00    -0.508 OA
ATOM     26  H   UNL     1      28.060  58.829   0.587  1.00  0.00     0.293 HD
ENDBRANCH  11  25
ENDBRANCH   1   2
BRANCH   1  27
ATOM     27  C   UNL     1      31.258  57.913   9.273  1.00  0.00     0.339 C 
ATOM     28  C   UNL     1      32.698  57.589   9.703  1.00  0.00     0.214 C 
ATOM     29  O   UNL     1      30.371  57.867  10.380  1.00  0.00    -0.332 OA
ATOM     30  C   UNL     1      32.741  56.210  10.373  1.00  0.00     0.180 C 
ATOM     31  C   UNL     1      30.308  56.572  10.965  1.00  0.00     0.179 C 
ATOM     32  C   UNL     1      31.690  56.126  11.501  1.00  0.00     0.177 C 
BRANCH  28  33
ATOM     33  O   UNL     1      33.151  58.582  10.591  1.00  0.00    -0.384 OA
ATOM     34  H   UNL     1      33.084  59.449  10.110  1.00  0.00     0.211 HD
ENDBRANCH  28  33
BRANCH  30  35
ATOM     35  O   UNL     1      34.045  55.916  10.817  1.00  0.00    -0.387 OA
ATOM     36  H   UNL     1      34.632  56.701  10.639  1.00  0.00     0.211 HD
ENDBRANCH  30  35
BRANCH  31  37
ATOM     37  C   UNL     1      29.267  56.625  12.093  1.00  0.00     0.191 C 
BRANCH  37  38
ATOM     38  O   UNL     1      28.657  55.373  12.276  1.00  0.00    -0.394 OA
ATOM     39  H   UNL     1      27.888  55.329  11.651  1.00  0.00     0.210 HD
ENDBRANCH  37  38
ENDBRANCH  31  37
BRANCH  32  40
ATOM     40  O   UNL     1      31.619  54.798  11.964  1.00  0.00    -0.387 OA
ATOM     41  H   UNL     1      31.874  54.811  12.926  1.00  0.00     0.211 HD
ENDBRANCH  32  40
ENDBRANCH   1  27
TORSDOF 12
ENDMDL
MODEL 9
REMARK VINA RESULT:    -5.829      2.708      6.509
REMARK INTER + INTRA:         -10.392
REMARK INTER:                  -8.562
REMARK INTRA:                  -1.830
REMARK UNBOUND:                -1.837
REMARK SMILES O=c1c(O[C@H]2O[C@H](CO)[C@@H](O)[C@H](O)[C@@H]2O)c(-c2ccc(O)c(O)c2)oc2cc(O)cc(O)c12
REMARK SMILES IDX 4 1 3 2 16 3 25 4 2 5 26 6 1 7 33 8 27 9 31 10 28 11 30 12
REMARK SMILES IDX 17 13 18 14 19 15 20 16 24 17 22 18 21 19 23 21 32 23 29 25
REMARK SMILES IDX 5 27 14 28 6 29 12 30 7 31 10 32 15 33 13 35 8 37 9 38 11 40
REMARK H PARENT 21 20 23 22 32 24 29 26 15 34 13 36 9 39 11 41
REMARK Flexibility Score: inf
ROOT
ATOM      1  O   UNL     1      30.697  61.909   4.245  1.00  0.00    -0.454 OA
ENDROOT
BRANCH   1   2
ATOM      2  C   UNL     1      30.968  62.887   5.218  1.00  0.00     0.214 A 
ATOM      3  C   UNL     1      31.379  62.491   6.504  1.00  0.00     0.180 A 
ATOM      4  O   UNL     1      31.671  63.403   7.424  1.00  0.00    -0.452 OA
ATOM      5  C   UNL     1      30.805  64.259   4.957  1.00  0.00     0.239 A 
ATOM      6  C   UNL     1      31.553  64.707   7.213  1.00  0.00     0.146 A 
ATOM      7  O   UNL     1      30.350  64.634   3.842  1.00  0.00    -0.285 OA
ATOM      8  C   UNL     1      31.102  65.201   5.964  1.00  0.00     0.111 A 
ATOM      9  C   UNL     1      31.856  65.593   8.250  1.00  0.00     0.094 A 
ATOM     10  C   UNL     1      30.947  66.598   5.785  1.00  0.00     0.134 A 
ATOM     11  C   UNL     1      31.703  66.973   8.070  1.00  0.00     0.123 A 
ATOM     12  C   UNL     1      31.253  67.469   6.843  1.00  0.00     0.093 A 
BRANCH   3  13
ATOM     13  C   UNL     1      31.513  61.069   6.861  1.00  0.00     0.025 A 
ATOM     14  C   UNL     1      32.784  60.512   7.050  1.00  0.00     0.016 A 
ATOM     15  C   UNL     1      32.922  59.150   7.319  1.00  0.00     0.051 A 
ATOM     16  C   UNL     1      31.793  58.327   7.421  1.00  0.00     0.157 A 
ATOM     17  C   UNL     1      30.376  60.256   6.992  1.00  0.00     0.062 A 
ATOM     18  C   UNL     1      30.501  58.890   7.258  1.00  0.00     0.158 A 
BRANCH  16  19
ATOM     19  O   UNL     1      31.990  56.975   7.698  1.00  0.00    -0.504 OA
ATOM     20  H   UNL     1      32.216  56.613   8.614  1.00  0.00     0.293 HD
ENDBRANCH  16  19
BRANCH  18  21
ATOM     21  O   UNL     1      29.330  58.132   7.341  1.00  0.00    -0.504 OA
ATOM     22  H   UNL     1      29.299  57.128   7.245  1.00  0.00     0.293 HD
ENDBRANCH  18  21
ENDBRANCH   3  13
BRANCH  10  23
ATOM     23  O   UNL     1      30.488  67.125   4.572  1.00  0.00    -0.507 OA
ATOM     24  H   UNL     1      30.623  68.103   4.334  1.00  0.00     0.293 HD
ENDBRANCH  10  23
BRANCH  11  25
ATOM     25  O   UNL     1      32.007  67.860   9.099  1.00  0.00    -0.508 OA
ATOM     26  H   UNL     1      31.323  68.518   9.460  1.00  0.00     0.293 HD
ENDBRANCH  11  25
ENDBRANCH   1   2
BRANCH   1  27
ATOM     27  C   UNL     1      31.675  61.381   3.339  1.00  0.00     0.339 C 
ATOM     28  C   UNL     1      31.224  61.581   1.883  1.00  0.00     0.214 C 
ATOM     29  O   UNL     1      31.942  60.013   3.608  1.00  0.00    -0.332 OA
ATOM     30  C   UNL     1      29.983  60.723   1.602  1.00  0.00     0.180 C 
ATOM     31  C   UNL     1      30.785  59.199   3.456  1.00  0.00     0.179 C 
ATOM     32  C   UNL     1      30.240  59.256   2.008  1.00  0.00     0.177 C 
BRANCH  28  33
ATOM     33  O   UNL     1      32.275  61.224   1.019  1.00  0.00    -0.384 OA
ATOM     34  H   UNL     1      32.571  62.058   0.567  1.00  0.00     0.211 HD
ENDBRANCH  28  33
BRANCH  30  35
ATOM     35  O   UNL     1      29.583  60.857   0.259  1.00  0.00    -0.387 OA
ATOM     36  H   UNL     1      28.790  61.458   0.215  1.00  0.00     0.211 HD
ENDBRANCH  30  35
BRANCH  31  37
ATOM     37  C   UNL     1      31.174  57.765   3.846  1.00  0.00     0.191 C 
BRANCH  37  38
ATOM     38  O   UNL     1      30.068  57.062   4.351  1.00  0.00    -0.394 OA
ATOM     39  H   UNL     1      29.898  57.405   5.267  1.00  0.00     0.210 HD
ENDBRANCH  37  38
ENDBRANCH  31  37
BRANCH  32  40
ATOM     40  O   UNL     1      29.032  58.538   1.922  1.00  0.00    -0.387 OA
ATOM     41  H   UNL     1      29.265  57.571   1.955  1.00  0.00     0.211 HD
ENDBRANCH  32  40
ENDBRANCH   1  27
TORSDOF 12
ENDMDL
