MODEL 1
REMARK VINA RESULT:    -3.367      0.000      0.000
REMARK INTER + INTRA:          -7.033
REMARK INTER:                  -5.533
REMARK INTRA:                  -1.500
REMARK UNBOUND:                -1.500
REMARK SMILES C[C@H]1O[C@H](OC[C@@H]2O[C@H](Oc3c(-c4ccc(O)c(O)c4)oc4cc(O)cc(O)c4c3=O)[C@H](O)[C@@H](O)[C@H]2O)[C@@H](O)[C@H](O)[C@H]1O
REMARK SMILES IDX 7 1 36 2 34 3 32 4 9 5 8 6 6 7 5 8 4 9 1 10 2 11 42 12 3 13
REMARK SMILES IDX 40 14 38 15 43 16 41 18 39 20 37 22 35 24 10 26 11 27 12 28
REMARK SMILES IDX 30 29 21 30 29 31 31 32 22 33 27 34 23 35 26 36 24 37 13 38
REMARK SMILES IDX 20 39 14 40 18 41 15 42 16 43 19 44 17 46 28 48 25 50 33 52
REMARK H PARENT 43 17 41 19 39 21 37 23 35 25 19 45 17 47 28 49 25 51 33 53
REMARK Flexibility Score: inf
ROOT
ATOM      1  C   UNL     1     -21.662  30.078  20.519  1.00  0.00     0.180 C 
ATOM      2  C   UNL     1     -20.478  30.349  21.507  1.00  0.00     0.177 C 
ATOM      3  C   UNL     1     -19.177  29.842  20.807  1.00  0.00     0.180 C 
ATOM      4  C   UNL     1     -19.292  28.416  21.385  1.00  0.00     0.214 C 
ATOM      5  C   UNL     1     -20.713  27.743  20.753  1.00  0.00     0.339 C 
ATOM      6  O   UNL     1     -21.824  28.632  20.478  1.00  0.00    -0.332 OA
ENDROOT
BRANCH   1   7
ATOM      7  C   UNL     1     -22.983  30.723  20.851  1.00  0.00     0.198 C 
BRANCH   7   8
ATOM      8  O   UNL     1     -23.031  31.323  22.137  1.00  0.00    -0.347 OA
BRANCH   8   9
ATOM      9  C   UNL     1     -23.706  32.590  21.859  1.00  0.00     0.281 C 
ATOM     10  C   UNL     1     -21.600  34.295  24.123  1.00  0.00     0.041 C 
ATOM     11  C   UNL     1     -21.928  33.687  22.794  1.00  0.00     0.150 C 
ATOM     12  C   UNL     1     -21.680  34.693  21.477  1.00  0.00     0.174 C 
ATOM     13  O   UNL     1     -23.390  33.506  22.875  1.00  0.00    -0.344 OA
ATOM     14  C   UNL     1     -22.908  34.645  20.496  1.00  0.00     0.179 C 
ATOM     15  C   UNL     1     -23.284  33.158  20.439  1.00  0.00     0.202 C 
BRANCH  12  16
ATOM     16  O   UNL     1     -21.390  36.171  21.739  1.00  0.00    -0.388 OA
ATOM     17  H   UNL     1     -22.071  36.732  22.361  1.00  0.00     0.211 HD
ENDBRANCH  12  16
BRANCH  14  18
ATOM     18  O   UNL     1     -22.678  35.175  19.209  1.00  0.00    -0.387 OA
ATOM     19  H   UNL     1     -22.070  34.596  18.706  1.00  0.00     0.211 HD
ENDBRANCH  14  18
BRANCH  15  20
ATOM     20  O   UNL     1     -24.124  33.006  19.309  1.00  0.00    -0.385 OA
ATOM     21  H   UNL     1     -24.974  32.634  19.664  1.00  0.00     0.211 HD
ENDBRANCH  15  20
ENDBRANCH   8   9
ENDBRANCH   7   8
ENDBRANCH   1   7
BRANCH   2  22
ATOM     22  O   UNL     1     -20.156  31.539  22.265  1.00  0.00    -0.387 OA
ATOM     23  H   UNL     1     -20.804  31.419  23.022  1.00  0.00     0.211 HD
ENDBRANCH   2  22
BRANCH   3  24
ATOM     24  O   UNL     1     -19.352  29.868  19.247  1.00  0.00    -0.387 OA
ATOM     25  H   UNL     1     -18.639  30.029  18.404  1.00  0.00     0.211 HD
ENDBRANCH   3  24
BRANCH   5  26
ATOM     26  O   UNL     1     -21.185  26.523  21.328  1.00  0.00    -0.454 OA
BRANCH  26  27
ATOM     27  C   UNL     1     -20.879  25.245  20.768  1.00  0.00     0.214 A 
ATOM     28  C   UNL     1     -19.639  24.763  20.518  1.00  0.00     0.180 A 
ATOM     29  C   UNL     1     -21.777  24.303  20.310  1.00  0.00     0.239 A 
ATOM     30  O   UNL     1     -19.258  24.429  19.290  1.00  0.00    -0.452 OA
ATOM     31  C   UNL     1     -21.551  23.863  19.001  1.00  0.00     0.111 A 
ATOM     32  O   UNL     1     -22.129  23.372  21.094  1.00  0.00    -0.285 OA
ATOM     33  C   UNL     1     -20.201  24.018  18.495  1.00  0.00     0.146 A 
ATOM     34  C   UNL     1     -22.519  23.274  18.232  1.00  0.00     0.134 A 
ATOM     35  C   UNL     1     -19.900  23.720  17.207  1.00  0.00     0.094 A 
ATOM     36  C   UNL     1     -22.237  23.099  16.833  1.00  0.00     0.093 A 
ATOM     37  C   UNL     1     -20.930  23.398  16.344  1.00  0.00     0.123 A 
BRANCH  28  38
ATOM     38  C   UNL     1     -19.156  23.765  21.507  1.00  0.00     0.025 A 
ATOM     39  C   UNL     1     -19.090  24.437  22.771  1.00  0.00     0.062 A 
ATOM     40  C   UNL     1     -17.992  22.946  21.089  1.00  0.00     0.016 A 
ATOM     41  C   UNL     1     -17.766  24.823  23.042  1.00  0.00     0.158 A 
ATOM     42  C   UNL     1     -16.835  22.898  21.886  1.00  0.00     0.051 A 
ATOM     43  C   UNL     1     -16.774  23.735  22.997  1.00  0.00     0.157 A 
BRANCH  41  44
ATOM     44  O   UNL     1     -17.486  26.041  22.373  1.00  0.00    -0.504 OA
ATOM     45  H   UNL     1     -17.291  25.957  21.331  1.00  0.00     0.293 HD
ENDBRANCH  41  44
BRANCH  43  46
ATOM     46  O   UNL     1     -16.040  23.432  24.118  1.00  0.00    -0.504 OA
ATOM     47  H   UNL     1     -15.333  24.148  24.486  1.00  0.00     0.293 HD
ENDBRANCH  43  46
ENDBRANCH  28  38
BRANCH  34  48
ATOM     48  O   UNL     1     -23.714  22.875  18.802  1.00  0.00    -0.507 OA
ATOM     49  H   UNL     1     -23.885  21.901  18.844  1.00  0.00     0.293 HD
ENDBRANCH  34  48
BRANCH  37  50
ATOM     50  O   UNL     1     -20.668  23.372  14.987  1.00  0.00    -0.508 OA
ATOM     51  H   UNL     1     -21.298  22.969  14.251  1.00  0.00     0.293 HD
ENDBRANCH  37  50
ENDBRANCH  26  27
ENDBRANCH   5  26
BRANCH   4  52
ATOM     52  O   UNL     1     -19.186  28.591  22.825  1.00  0.00    -0.384 OA
ATOM     53  H   UNL     1     -19.745  27.986  23.497  1.00  0.00     0.211 HD
ENDBRANCH   4  52
TORSDOF 16
ENDMDL
MODEL 2
REMARK VINA RESULT:    -2.834      2.298      9.081
REMARK INTER + INTRA:          -6.156
REMARK INTER:                  -4.981
REMARK INTRA:                  -1.175
REMARK UNBOUND:                -1.500
REMARK SMILES C[C@H]1O[C@H](OC[C@@H]2O[C@H](Oc3c(-c4ccc(O)c(O)c4)oc4cc(O)cc(O)c4c3=O)[C@H](O)[C@@H](O)[C@H]2O)[C@@H](O)[C@H](O)[C@H]1O
REMARK SMILES IDX 7 1 36 2 34 3 32 4 9 5 8 6 6 7 5 8 4 9 1 10 2 11 42 12 3 13
REMARK SMILES IDX 40 14 38 15 43 16 41 18 39 20 37 22 35 24 10 26 11 27 12 28
REMARK SMILES IDX 30 29 21 30 29 31 31 32 22 33 27 34 23 35 26 36 24 37 13 38
REMARK SMILES IDX 20 39 14 40 18 41 15 42 16 43 19 44 17 46 28 48 25 50 33 52
REMARK H PARENT 43 17 41 19 39 21 37 23 35 25 19 45 17 47 28 49 25 51 33 53
REMARK Flexibility Score: inf
ROOT
ATOM      1  C   UNL     1     -21.319  26.746  19.538  1.00  0.00     0.180 C 
ATOM      2  C   UNL     1     -22.553  26.403  20.438  1.00  0.00     0.177 C 
ATOM      3  C   UNL     1     -23.830  26.738  19.603  1.00  0.00     0.180 C 
ATOM      4  C   UNL     1     -23.909  28.196  20.105  1.00  0.00     0.214 C 
ATOM      5  C   UNL     1     -22.510  28.980  19.557  1.00  0.00     0.339 C 
ATOM      6  O   UNL     1     -21.297  28.198  19.428  1.00  0.00    -0.332 OA
ENDROOT
BRANCH   1   7
ATOM      7  C   UNL     1     -19.975  26.258  20.016  1.00  0.00     0.198 C 
BRANCH   7   8
ATOM      8  O   UNL     1     -19.865  26.147  21.427  1.00  0.00    -0.347 OA
BRANCH   8   9
ATOM      9  C   UNL     1     -19.767  24.700  21.614  1.00  0.00     0.281 C 
ATOM     10  C   UNL     1     -17.109  24.505  19.298  1.00  0.00     0.041 C 
ATOM     11  C   UNL     1     -17.690  24.764  20.654  1.00  0.00     0.150 C 
ATOM     12  C   UNL     1     -16.933  23.960  21.913  1.00  0.00     0.174 C 
ATOM     13  O   UNL     1     -19.030  24.153  20.552  1.00  0.00    -0.344 OA
ATOM     14  C   UNL     1     -17.989  23.292  22.868  1.00  0.00     0.179 C 
ATOM     15  C   UNL     1     -19.091  24.352  23.005  1.00  0.00     0.202 C 
BRANCH  12  16
ATOM     16  O   UNL     1     -15.911  22.875  21.569  1.00  0.00    -0.388 OA
ATOM     17  H   UNL     1     -16.059  22.286  20.677  1.00  0.00     0.211 HD
ENDBRANCH  12  16
BRANCH  14  18
ATOM     18  O   UNL     1     -17.497  22.883  24.125  1.00  0.00    -0.387 OA
ATOM     19  H   UNL     1     -16.901  23.565  24.496  1.00  0.00     0.211 HD
ENDBRANCH  14  18
BRANCH  15  20
ATOM     20  O   UNL     1     -19.870  23.967  24.124  1.00  0.00    -0.385 OA
ATOM     21  H   UNL     1     -19.239  23.957  24.891  1.00  0.00     0.211 HD
ENDBRANCH  15  20
ENDBRANCH   8   9
ENDBRANCH   7   8
ENDBRANCH   1   7
BRANCH   2  22
ATOM     22  O   UNL     1     -22.823  25.225  21.233  1.00  0.00    -0.387 OA
ATOM     23  H   UNL     1     -22.069  24.646  20.909  1.00  0.00     0.211 HD
ENDBRANCH   2  22
BRANCH   3  24
ATOM     24  O   UNL     1     -23.516  26.655  18.067  1.00  0.00    -0.387 OA
ATOM     25  H   UNL     1     -22.566  26.661  17.484  1.00  0.00     0.211 HD
ENDBRANCH   3  24
BRANCH   5  26
ATOM     26  O   UNL     1     -22.214  30.269  20.098  1.00  0.00    -0.454 OA
BRANCH  26  27
ATOM     27  C   UNL     1     -21.738  30.448  21.432  1.00  0.00     0.214 A 
ATOM     28  C   UNL     1     -21.166  31.570  21.928  1.00  0.00     0.180 A 
ATOM     29  C   UNL     1     -21.698  29.499  22.433  1.00  0.00     0.239 A 
ATOM     30  O   UNL     1     -19.928  31.565  22.409  1.00  0.00    -0.452 OA
ATOM     31  C   UNL     1     -20.444  29.327  23.031  1.00  0.00     0.111 A 
ATOM     32  O   UNL     1     -22.654  29.455  23.263  1.00  0.00    -0.285 OA
ATOM     33  C   UNL     1     -19.524  30.442  22.926  1.00  0.00     0.146 A 
ATOM     34  C   UNL     1     -20.093  28.198  23.721  1.00  0.00     0.134 A 
ATOM     35  C   UNL     1     -18.249  30.341  23.379  1.00  0.00     0.094 A 
ATOM     36  C   UNL     1     -18.706  28.037  24.066  1.00  0.00     0.093 A 
ATOM     37  C   UNL     1     -17.799  29.111  23.816  1.00  0.00     0.123 A 
BRANCH  28  38
ATOM     38  C   UNL     1     -22.061  32.386  22.791  1.00  0.00     0.025 A 
ATOM     39  C   UNL     1     -23.215  32.701  22.003  1.00  0.00     0.062 A 
ATOM     40  C   UNL     1     -21.410  33.482  23.549  1.00  0.00     0.016 A 
ATOM     41  C   UNL     1     -23.105  34.006  21.489  1.00  0.00     0.158 A 
ATOM     42  C   UNL     1     -21.879  34.802  23.431  1.00  0.00     0.051 A 
ATOM     43  C   UNL     1     -22.877  35.058  22.495  1.00  0.00     0.157 A 
BRANCH  41  44
ATOM     44  O   UNL     1     -22.305  33.983  20.319  1.00  0.00    -0.504 OA
ATOM     45  H   UNL     1     -22.817  34.188  19.410  1.00  0.00     0.293 HD
ENDBRANCH  41  44
BRANCH  43  46
ATOM     46  O   UNL     1     -23.785  36.078  22.634  1.00  0.00    -0.504 OA
ATOM     47  H   UNL     1     -23.601  36.843  23.361  1.00  0.00     0.293 HD
ENDBRANCH  43  46
ENDBRANCH  28  38
BRANCH  34  48
ATOM     48  O   UNL     1     -21.052  27.261  24.058  1.00  0.00    -0.507 OA
ATOM     49  H   UNL     1     -21.875  27.246  23.508  1.00  0.00     0.293 HD
ENDBRANCH  34  48
BRANCH  37  50
ATOM     50  O   UNL     1     -16.441  28.938  24.009  1.00  0.00    -0.508 OA
ATOM     51  H   UNL     1     -15.938  29.025  24.926  1.00  0.00     0.293 HD
ENDBRANCH  37  50
ENDBRANCH  26  27
ENDBRANCH   5  26
BRANCH   4  52
ATOM     52  O   UNL     1     -24.125  28.081  21.539  1.00  0.00    -0.384 OA
ATOM     53  H   UNL     1     -24.164  27.132  22.016  1.00  0.00     0.211 HD
ENDBRANCH   4  52
TORSDOF 16
ENDMDL
MODEL 3
REMARK VINA RESULT:    -1.150      1.599      2.487
REMARK INTER + INTRA:          -3.389
REMARK INTER:                  -3.321
REMARK INTRA:                  -0.069
REMARK UNBOUND:                -1.500
REMARK SMILES C[C@H]1O[C@H](OC[C@@H]2O[C@H](Oc3c(-c4ccc(O)c(O)c4)oc4cc(O)cc(O)c4c3=O)[C@H](O)[C@@H](O)[C@H]2O)[C@@H](O)[C@H](O)[C@H]1O
REMARK SMILES IDX 7 1 36 2 34 3 32 4 9 5 8 6 6 7 5 8 4 9 1 10 2 11 42 12 3 13
REMARK SMILES IDX 40 14 38 15 43 16 41 18 39 20 37 22 35 24 10 26 11 27 12 28
REMARK SMILES IDX 30 29 21 30 29 31 31 32 22 33 27 34 23 35 26 36 24 37 13 38
REMARK SMILES IDX 20 39 14 40 18 41 15 42 16 43 19 44 17 46 28 48 25 50 33 52
REMARK H PARENT 43 17 41 19 39 21 37 23 35 25 19 45 17 47 28 49 25 51 33 53
REMARK Flexibility Score: inf
ROOT
ATOM      1  C   UNL     1     -21.658  30.927  21.617  1.00  0.00     0.180 C 
ATOM      2  C   UNL     1     -21.981  30.083  22.896  1.00  0.00     0.177 C 
ATOM      3  C   UNL     1     -20.734  30.183  23.832  1.00  0.00     0.180 C 
ATOM      4  C   UNL     1     -20.045  28.942  23.226  1.00  0.00     0.214 C 
ATOM      5  C   UNL     1     -19.712  29.307  21.604  1.00  0.00     0.339 C 
ATOM      6  O   UNL     1     -20.624  30.190  20.905  1.00  0.00    -0.332 OA
ENDROOT
BRANCH   1   7
ATOM      7  C   UNL     1     -22.807  31.209  20.683  1.00  0.00     0.198 C 
BRANCH   7   8
ATOM      8  O   UNL     1     -23.597  32.328  21.055  1.00  0.00    -0.347 OA
BRANCH   8   9
ATOM      9  C   UNL     1     -22.654  33.120  21.844  1.00  0.00     0.281 C 
ATOM     10  C   UNL     1     -21.690  34.957  18.987  1.00  0.00     0.041 C 
ATOM     11  C   UNL     1     -22.591  34.651  20.144  1.00  0.00     0.150 C 
ATOM     12  C   UNL     1     -22.950  35.960  21.126  1.00  0.00     0.174 C 
ATOM     13  O   UNL     1     -21.758  33.759  20.974  1.00  0.00    -0.344 OA
ATOM     14  C   UNL     1     -22.798  35.581  22.644  1.00  0.00     0.179 C 
ATOM     15  C   UNL     1     -23.418  34.180  22.743  1.00  0.00     0.202 C 
BRANCH  12  16
ATOM     16  O   UNL     1     -22.164  37.255  20.920  1.00  0.00    -0.388 OA
ATOM     17  H   UNL     1     -22.225  37.755  19.965  1.00  0.00     0.211 HD
ENDBRANCH  12  16
BRANCH  14  18
ATOM     18  O   UNL     1     -23.389  36.480  23.556  1.00  0.00    -0.387 OA
ATOM     19  H   UNL     1     -22.929  37.343  23.531  1.00  0.00     0.211 HD
ENDBRANCH  14  18
BRANCH  15  20
ATOM     20  O   UNL     1     -23.643  33.946  24.122  1.00  0.00    -0.385 OA
ATOM     21  H   UNL     1     -23.852  32.977  24.191  1.00  0.00     0.211 HD
ENDBRANCH  15  20
ENDBRANCH   8   9
ENDBRANCH   7   8
ENDBRANCH   1   7
BRANCH   2  22
ATOM     22  O   UNL     1     -23.170  30.066  23.720  1.00  0.00    -0.387 OA
ATOM     23  H   UNL     1     -22.950  30.838  24.323  1.00  0.00     0.211 HD
ENDBRANCH   2  22
BRANCH   3  24
ATOM     24  O   UNL     1     -19.938  31.505  23.543  1.00  0.00    -0.387 OA
ATOM     25  H   UNL     1     -19.348  32.194  24.190  1.00  0.00     0.211 HD
ENDBRANCH   3  24
BRANCH   5  26
ATOM     26  O   UNL     1     -19.305  28.236  20.751  1.00  0.00    -0.454 OA
BRANCH  26  27
ATOM     27  C   UNL     1     -19.916  26.947  20.796  1.00  0.00     0.214 A 
ATOM     28  C   UNL     1     -19.271  25.759  20.730  1.00  0.00     0.180 A 
ATOM     29  C   UNL     1     -21.267  26.670  20.835  1.00  0.00     0.239 A 
ATOM     30  O   UNL     1     -19.517  24.887  19.759  1.00  0.00    -0.452 OA
ATOM     31  C   UNL     1     -21.716  25.790  19.844  1.00  0.00     0.111 A 
ATOM     32  O   UNL     1     -21.810  26.468  21.962  1.00  0.00    -0.285 OA
ATOM     33  C   UNL     1     -20.719  24.911  19.265  1.00  0.00     0.146 A 
ATOM     34  C   UNL     1     -23.026  25.710  19.453  1.00  0.00     0.134 A 
ATOM     35  C   UNL     1     -21.026  24.095  18.227  1.00  0.00     0.094 A 
ATOM     36  C   UNL     1     -23.316  24.959  18.261  1.00  0.00     0.093 A 
ATOM     37  C   UNL     1     -22.270  24.215  17.637  1.00  0.00     0.123 A 
BRANCH  28  38
ATOM     38  C   UNL     1     -19.130  25.063  22.037  1.00  0.00     0.025 A 
ATOM     39  C   UNL     1     -18.116  25.763  22.767  1.00  0.00     0.062 A 
ATOM     40  C   UNL     1     -19.056  23.583  21.980  1.00  0.00     0.016 A 
ATOM     41  C   UNL     1     -16.892  25.077  22.670  1.00  0.00     0.158 A 
ATOM     42  C   UNL     1     -17.975  22.903  22.570  1.00  0.00     0.051 A 
ATOM     43  C   UNL     1     -16.931  23.664  23.087  1.00  0.00     0.157 A 
BRANCH  41  44
ATOM     44  O   UNL     1     -16.258  25.420  21.450  1.00  0.00    -0.504 OA
ATOM     45  H   UNL     1     -15.478  24.767  21.139  1.00  0.00     0.293 HD
ENDBRANCH  41  44
BRANCH  43  46
ATOM     46  O   UNL     1     -16.140  23.237  24.125  1.00  0.00    -0.504 OA
ATOM     47  H   UNL     1     -16.069  23.840  25.007  1.00  0.00     0.293 HD
ENDBRANCH  43  46
ENDBRANCH  28  38
BRANCH  34  48
ATOM     48  O   UNL     1     -24.012  26.339  20.189  1.00  0.00    -0.507 OA
ATOM     49  H   UNL     1     -23.716  26.879  20.964  1.00  0.00     0.293 HD
ENDBRANCH  34  48
BRANCH  37  50
ATOM     50  O   UNL     1     -22.483  23.596  16.419  1.00  0.00    -0.508 OA
ATOM     51  H   UNL     1     -23.159  22.814  16.242  1.00  0.00     0.293 HD
ENDBRANCH  37  50
ENDBRANCH  26  27
ENDBRANCH   5  26
BRANCH   4  52
ATOM     52  O   UNL     1     -20.946  27.838  23.519  1.00  0.00    -0.384 OA
ATOM     53  H   UNL     1     -21.678  27.914  24.286  1.00  0.00     0.211 HD
ENDBRANCH   4  52
TORSDOF 16
ENDMDL
