MODEL 1
REMARK VINA RESULT:    -5.406      0.000      0.000
REMARK INTER + INTRA:         -14.703
REMARK INTER:                 -12.359
REMARK INTRA:                  -2.344
REMARK UNBOUND:                -2.344
REMARK SMILES CCCCCCCCCCCCCCCCCCCCCCCC(=O)[O-]
REMARK SMILES IDX 13 1 14 2 15 3 16 4 17 5 18 6 19 7 20 8 21 9 22 10 23 11
REMARK SMILES IDX 24 12 25 13 26 14 12 15 11 16 10 17 9 18 8 19 7 20 6 21 5 22
REMARK SMILES IDX 4 23 3 24 2 25 1 26
REMARK H PARENT
REMARK Flexibility Score: inf
ROOT
ATOM      1  C   UNL     1       9.199  23.333  -9.478  1.00  0.00     0.000 C 
ENDROOT
BRANCH   1   2
ATOM      2  C   UNL     1      10.603  23.000 -10.018  1.00  0.00     0.000 C 
BRANCH   2   3
ATOM      3  C   UNL     1      11.690  24.014  -9.602  1.00  0.00     0.000 C 
BRANCH   3   4
ATOM      4  C   UNL     1      12.151  23.813  -8.148  1.00  0.00     0.000 C 
BRANCH   4   5
ATOM      5  C   UNL     1      13.577  24.333  -7.905  1.00  0.00     0.000 C 
BRANCH   5   6
ATOM      6  C   UNL     1      14.463  23.309  -7.174  1.00  0.00     0.000 C 
BRANCH   6   7
ATOM      7  C   UNL     1      15.625  23.970  -6.414  1.00  0.00     0.000 C 
BRANCH   7   8
ATOM      8  C   UNL     1      15.411  25.479  -6.208  1.00  0.00     0.000 C 
BRANCH   8   9
ATOM      9  C   UNL     1      16.615  26.160  -5.538  1.00  0.00     0.000 C 
BRANCH   9  10
ATOM     10  C   UNL     1      16.570  26.066  -4.003  1.00  0.00     0.006 C 
BRANCH  10  11
ATOM     11  C   UNL     1      15.187  26.422  -3.441  1.00  0.00     0.053 C 
BRANCH  11  12
ATOM     12  C   UNL     1      14.875  25.649  -2.198  1.00  0.00     0.041 C 
ATOM     13  O   UNL     1      14.425  26.239  -1.179  1.00  0.00    -0.550 OA
ATOM     14  O   UNL     1      15.053  24.272  -2.170  1.00  0.00    -0.550 OA
ENDBRANCH  11  12
ENDBRANCH  10  11
ENDBRANCH   9  10
ENDBRANCH   8   9
ENDBRANCH   7   8
ENDBRANCH   6   7
ENDBRANCH   5   6
ENDBRANCH   4   5
ENDBRANCH   3   4
ENDBRANCH   2   3
ENDBRANCH   1   2
BRANCH   1  15
ATOM     15  C   UNL     1       8.066  22.440 -10.010  1.00  0.00     0.000 C 
BRANCH  15  16
ATOM     16  C   UNL     1       6.732  23.192 -10.150  1.00  0.00     0.000 C 
BRANCH  16  17
ATOM     17  C   UNL     1       5.510  22.303  -9.850  1.00  0.00     0.000 C 
BRANCH  17  18
ATOM     18  C   UNL     1       4.815  22.576  -8.502  1.00  0.00    -0.000 C 
BRANCH  18  19
ATOM     19  C   UNL     1       5.645  23.477  -7.571  1.00  0.00    -0.000 C 
BRANCH  19  20
ATOM     20  C   UNL     1       5.449  23.139  -6.083  1.00  0.00    -0.000 C 
BRANCH  20  21
ATOM     21  C   UNL     1       6.784  22.944  -5.343  1.00  0.00    -0.000 C 
BRANCH  21  22
ATOM     22  C   UNL     1       7.942  22.598  -6.292  1.00  0.00    -0.000 C 
BRANCH  22  23
ATOM     23  C   UNL     1       9.012  21.712  -5.626  1.00  0.00    -0.000 C 
BRANCH  23  24
ATOM     24  C   UNL     1      10.296  21.612  -6.475  1.00  0.00    -0.000 C 
BRANCH  24  25
ATOM     25  C   UNL     1      10.292  20.435  -7.465  1.00  0.00    -0.003 C 
ATOM     26  C   UNL     1      11.692  20.012  -7.901  1.00  0.00     0.004 C 
ENDBRANCH  24  25
ENDBRANCH  23  24
ENDBRANCH  22  23
ENDBRANCH  21  22
ENDBRANCH  20  21
ENDBRANCH  19  20
ENDBRANCH  18  19
ENDBRANCH  17  18
ENDBRANCH  16  17
ENDBRANCH  15  16
ENDBRANCH   1  15
TORSDOF 22
ENDMDL
MODEL 2
REMARK VINA RESULT:    -5.372      1.259      2.154
REMARK INTER + INTRA:         -14.625
REMARK INTER:                 -11.728
REMARK INTRA:                  -2.897
REMARK UNBOUND:                -2.344
REMARK SMILES CCCCCCCCCCCCCCCCCCCCCCCC(=O)[O-]
REMARK SMILES IDX 13 1 14 2 15 3 16 4 17 5 18 6 19 7 20 8 21 9 22 10 23 11
REMARK SMILES IDX 24 12 25 13 26 14 12 15 11 16 10 17 9 18 8 19 7 20 6 21 5 22
REMARK SMILES IDX 4 23 3 24 2 25 1 26
REMARK H PARENT
REMARK Flexibility Score: inf
ROOT
ATOM      1  C   UNL     1      11.348  24.341  -9.024  1.00  0.00     0.000 C 
ENDROOT
BRANCH   1   2
ATOM      2  C   UNL     1      12.648  24.049  -8.250  1.00  0.00     0.000 C 
BRANCH   2   3
ATOM      3  C   UNL     1      12.573  22.795  -7.353  1.00  0.00     0.000 C 
BRANCH   3   4
ATOM      4  C   UNL     1      13.818  22.639  -6.462  1.00  0.00     0.000 C 
BRANCH   4   5
ATOM      5  C   UNL     1      15.118  23.000  -7.199  1.00  0.00     0.000 C 
BRANCH   5   6
ATOM      6  C   UNL     1      16.350  22.951  -6.278  1.00  0.00     0.000 C 
BRANCH   6   7
ATOM      7  C   UNL     1      16.975  24.339  -6.054  1.00  0.00     0.000 C 
BRANCH   7   8
ATOM      8  C   UNL     1      15.931  25.397  -5.657  1.00  0.00     0.000 C 
BRANCH   8   9
ATOM      9  C   UNL     1      16.158  25.946  -4.240  1.00  0.00     0.000 C 
BRANCH   9  10
ATOM     10  C   UNL     1      15.050  25.527  -3.258  1.00  0.00     0.006 C 
BRANCH  10  11
ATOM     11  C   UNL     1      14.983  24.004  -3.078  1.00  0.00     0.053 C 
BRANCH  11  12
ATOM     12  C   UNL     1      13.737  23.582  -2.363  1.00  0.00     0.041 C 
ATOM     13  O   UNL     1      13.508  23.990  -1.193  1.00  0.00    -0.550 OA
ATOM     14  O   UNL     1      12.813  22.761  -2.996  1.00  0.00    -0.550 OA
ENDBRANCH  11  12
ENDBRANCH  10  11
ENDBRANCH   9  10
ENDBRANCH   8   9
ENDBRANCH   7   8
ENDBRANCH   6   7
ENDBRANCH   5   6
ENDBRANCH   4   5
ENDBRANCH   3   4
ENDBRANCH   2   3
ENDBRANCH   1   2
BRANCH   1  15
ATOM     15  C   UNL     1      10.998  23.320 -10.119  1.00  0.00     0.000 C 
BRANCH  15  16
ATOM     16  C   UNL     1       9.654  22.615  -9.866  1.00  0.00     0.000 C 
BRANCH  16  17
ATOM     17  C   UNL     1       8.680  23.467  -9.031  1.00  0.00     0.000 C 
BRANCH  17  18
ATOM     18  C   UNL     1       7.187  23.150  -9.238  1.00  0.00    -0.000 C 
BRANCH  18  19
ATOM     19  C   UNL     1       6.335  23.435  -7.988  1.00  0.00    -0.000 C 
BRANCH  19  20
ATOM     20  C   UNL     1       6.988  24.456  -7.042  1.00  0.00    -0.000 C 
BRANCH  20  21
ATOM     21  C   UNL     1       7.036  23.963  -5.585  1.00  0.00    -0.000 C 
BRANCH  21  22
ATOM     22  C   UNL     1       7.016  22.430  -5.479  1.00  0.00    -0.000 C 
BRANCH  22  23
ATOM     23  C   UNL     1       8.363  21.849  -5.007  1.00  0.00    -0.000 C 
BRANCH  23  24
ATOM     24  C   UNL     1       9.392  21.760  -6.152  1.00  0.00    -0.000 C 
BRANCH  24  25
ATOM     25  C   UNL     1       9.274  20.475  -6.991  1.00  0.00    -0.003 C 
ATOM     26  C   UNL     1      10.625  19.929  -7.445  1.00  0.00     0.004 C 
ENDBRANCH  24  25
ENDBRANCH  23  24
ENDBRANCH  22  23
ENDBRANCH  21  22
ENDBRANCH  20  21
ENDBRANCH  19  20
ENDBRANCH  18  19
ENDBRANCH  17  18
ENDBRANCH  16  17
ENDBRANCH  15  16
ENDBRANCH   1  15
TORSDOF 22
ENDMDL
MODEL 3
REMARK VINA RESULT:    -5.359      1.384      3.738
REMARK INTER + INTRA:         -14.596
REMARK INTER:                 -12.021
REMARK INTRA:                  -2.575
REMARK UNBOUND:                -2.344
REMARK SMILES CCCCCCCCCCCCCCCCCCCCCCCC(=O)[O-]
REMARK SMILES IDX 13 1 14 2 15 3 16 4 17 5 18 6 19 7 20 8 21 9 22 10 23 11
REMARK SMILES IDX 24 12 25 13 26 14 12 15 11 16 10 17 9 18 8 19 7 20 6 21 5 22
REMARK SMILES IDX 4 23 3 24 2 25 1 26
REMARK H PARENT
REMARK Flexibility Score: inf
ROOT
ATOM      1  C   UNL     1      12.442  24.400  -8.717  1.00  0.00     0.000 C 
ENDROOT
BRANCH   1   2
ATOM      2  C   UNL     1      12.959  23.457  -7.615  1.00  0.00     0.000 C 
BRANCH   2   3
ATOM      3  C   UNL     1      14.365  23.820  -7.089  1.00  0.00     0.000 C 
BRANCH   3   4
ATOM      4  C   UNL     1      15.316  22.612  -7.081  1.00  0.00     0.000 C 
BRANCH   4   5
ATOM      5  C   UNL     1      16.792  23.023  -7.215  1.00  0.00     0.000 C 
BRANCH   5   6
ATOM      6  C   UNL     1      16.974  24.549  -7.286  1.00  0.00     0.000 C 
BRANCH   6   7
ATOM      7  C   UNL     1      17.478  25.146  -5.961  1.00  0.00     0.000 C 
BRANCH   7   8
ATOM      8  C   UNL     1      16.562  26.263  -5.433  1.00  0.00     0.000 C 
BRANCH   8   9
ATOM      9  C   UNL     1      15.451  25.730  -4.514  1.00  0.00     0.000 C 
BRANCH   9  10
ATOM     10  C   UNL     1      15.995  24.847  -3.378  1.00  0.00     0.006 C 
BRANCH  10  11
ATOM     11  C   UNL     1      15.523  23.391  -3.500  1.00  0.00     0.053 C 
BRANCH  11  12
ATOM     12  C   UNL     1      14.049  23.262  -3.271  1.00  0.00     0.041 C 
ATOM     13  O   UNL     1      13.328  22.653  -4.105  1.00  0.00    -0.550 OA
ATOM     14  O   UNL     1      13.473  23.791  -2.123  1.00  0.00    -0.550 OA
ENDBRANCH  11  12
ENDBRANCH  10  11
ENDBRANCH   9  10
ENDBRANCH   8   9
ENDBRANCH   7   8
ENDBRANCH   6   7
ENDBRANCH   5   6
ENDBRANCH   4   5
ENDBRANCH   3   4
ENDBRANCH   2   3
ENDBRANCH   1   2
BRANCH   1  15
ATOM     15  C   UNL     1      11.061  24.040  -9.290  1.00  0.00     0.000 C 
BRANCH  15  16
ATOM     16  C   UNL     1      10.906  22.535  -9.564  1.00  0.00     0.000 C 
BRANCH  16  17
ATOM     17  C   UNL     1       9.776  21.891  -8.739  1.00  0.00     0.000 C 
BRANCH  17  18
ATOM     18  C   UNL     1      10.236  21.104  -7.497  1.00  0.00    -0.000 C 
BRANCH  18  19
ATOM     19  C   UNL     1       9.420  21.442  -6.237  1.00  0.00    -0.000 C 
BRANCH  19  20
ATOM     20  C   UNL     1       8.479  22.641  -6.440  1.00  0.00    -0.000 C 
BRANCH  20  21
ATOM     21  C   UNL     1       7.371  22.708  -5.374  1.00  0.00    -0.000 C 
BRANCH  21  22
ATOM     22  C   UNL     1       6.025  23.177  -5.949  1.00  0.00    -0.000 C 
BRANCH  22  23
ATOM     23  C   UNL     1       6.141  23.683  -7.399  1.00  0.00    -0.000 C 
BRANCH  23  24
ATOM     24  C   UNL     1       5.155  22.969  -8.346  1.00  0.00    -0.000 C 
BRANCH  24  25
ATOM     25  C   UNL     1       5.421  23.244  -9.837  1.00  0.00    -0.003 C 
ATOM     26  C   UNL     1       6.692  22.573 -10.353  1.00  0.00     0.004 C 
ENDBRANCH  24  25
ENDBRANCH  23  24
ENDBRANCH  22  23
ENDBRANCH  21  22
ENDBRANCH  20  21
ENDBRANCH  19  20
ENDBRANCH  18  19
ENDBRANCH  17  18
ENDBRANCH  16  17
ENDBRANCH  15  16
ENDBRANCH   1  15
TORSDOF 22
ENDMDL
MODEL 4
REMARK VINA RESULT:    -5.335      1.584      2.711
REMARK INTER + INTRA:         -14.539
REMARK INTER:                 -11.790
REMARK INTRA:                  -2.750
REMARK UNBOUND:                -2.344
REMARK SMILES CCCCCCCCCCCCCCCCCCCCCCCC(=O)[O-]
REMARK SMILES IDX 13 1 14 2 15 3 16 4 17 5 18 6 19 7 20 8 21 9 22 10 23 11
REMARK SMILES IDX 24 12 25 13 26 14 12 15 11 16 10 17 9 18 8 19 7 20 6 21 5 22
REMARK SMILES IDX 4 23 3 24 2 25 1 26
REMARK H PARENT
REMARK Flexibility Score: inf
ROOT
ATOM      1  C   UNL     1      10.256  23.188  -8.283  1.00  0.00     0.000 C 
ENDROOT
BRANCH   1   2
ATOM      2  C   UNL     1      10.876  21.856  -8.746  1.00  0.00     0.000 C 
BRANCH   2   3
ATOM      3  C   UNL     1      12.061  21.383  -7.875  1.00  0.00     0.000 C 
BRANCH   3   4
ATOM      4  C   UNL     1      12.438  22.411  -6.794  1.00  0.00     0.000 C 
BRANCH   4   5
ATOM      5  C   UNL     1      13.646  23.273  -7.197  1.00  0.00     0.000 C 
BRANCH   5   6
ATOM      6  C   UNL     1      14.989  22.605  -6.853  1.00  0.00     0.000 C 
BRANCH   6   7
ATOM      7  C   UNL     1      15.629  23.187  -5.581  1.00  0.00     0.000 C 
BRANCH   7   8
ATOM      8  C   UNL     1      15.682  24.725  -5.601  1.00  0.00     0.000 C 
BRANCH   8   9
ATOM      9  C   UNL     1      15.588  25.337  -4.194  1.00  0.00     0.000 C 
BRANCH   9  10
ATOM     10  C   UNL     1      15.417  24.273  -3.096  1.00  0.00     0.006 C 
BRANCH  10  11
ATOM     11  C   UNL     1      14.098  24.442  -2.327  1.00  0.00     0.053 C 
BRANCH  11  12
ATOM     12  C   UNL     1      13.293  23.180  -2.318  1.00  0.00     0.041 C 
ATOM     13  O   UNL     1      12.915  22.661  -3.402  1.00  0.00    -0.550 OA
ATOM     14  O   UNL     1      12.983  22.559  -1.115  1.00  0.00    -0.550 OA
ENDBRANCH  11  12
ENDBRANCH  10  11
ENDBRANCH   9  10
ENDBRANCH   8   9
ENDBRANCH   7   8
ENDBRANCH   6   7
ENDBRANCH   5   6
ENDBRANCH   4   5
ENDBRANCH   3   4
ENDBRANCH   2   3
ENDBRANCH   1   2
BRANCH   1  15
ATOM     15  C   UNL     1       8.933  23.566  -8.971  1.00  0.00     0.000 C 
BRANCH  15  16
ATOM     16  C   UNL     1       8.406  22.455  -9.896  1.00  0.00     0.000 C 
BRANCH  16  17
ATOM     17  C   UNL     1       6.888  22.235  -9.760  1.00  0.00     0.000 C 
BRANCH  17  18
ATOM     18  C   UNL     1       6.007  23.326 -10.398  1.00  0.00    -0.000 C 
BRANCH  18  19
ATOM     19  C   UNL     1       4.593  23.386  -9.792  1.00  0.00    -0.000 C 
BRANCH  19  20
ATOM     20  C   UNL     1       4.354  22.301  -8.729  1.00  0.00    -0.000 C 
BRANCH  20  21
ATOM     21  C   UNL     1       3.877  22.885  -7.388  1.00  0.00    -0.000 C 
BRANCH  21  22
ATOM     22  C   UNL     1       4.971  22.862  -6.310  1.00  0.00    -0.000 C 
BRANCH  22  23
ATOM     23  C   UNL     1       6.031  23.962  -6.513  1.00  0.00    -0.000 C 
BRANCH  23  24
ATOM     24  C   UNL     1       7.286  23.728  -5.648  1.00  0.00    -0.000 C 
BRANCH  24  25
ATOM     25  C   UNL     1       7.389  22.301  -5.082  1.00  0.00    -0.003 C 
ATOM     26  C   UNL     1       8.703  21.609  -5.434  1.00  0.00     0.004 C 
ENDBRANCH  24  25
ENDBRANCH  23  24
ENDBRANCH  22  23
ENDBRANCH  21  22
ENDBRANCH  20  21
ENDBRANCH  19  20
ENDBRANCH  18  19
ENDBRANCH  17  18
ENDBRANCH  16  17
ENDBRANCH  15  16
ENDBRANCH   1  15
TORSDOF 22
ENDMDL
MODEL 5
REMARK VINA RESULT:    -5.333      2.577      8.873
REMARK INTER + INTRA:         -14.535
REMARK INTER:                 -12.465
REMARK INTRA:                  -2.070
REMARK UNBOUND:                -2.344
REMARK SMILES CCCCCCCCCCCCCCCCCCCCCCCC(=O)[O-]
REMARK SMILES IDX 13 1 14 2 15 3 16 4 17 5 18 6 19 7 20 8 21 9 22 10 23 11
REMARK SMILES IDX 24 12 25 13 26 14 12 15 11 16 10 17 9 18 8 19 7 20 6 21 5 22
REMARK SMILES IDX 4 23 3 24 2 25 1 26
REMARK H PARENT
REMARK Flexibility Score: inf
ROOT
ATOM      1  C   UNL     1      12.414  23.679  -8.194  1.00  0.00     0.000 C 
ENDROOT
BRANCH   1   2
ATOM      2  C   UNL     1      11.901  24.454  -9.422  1.00  0.00     0.000 C 
BRANCH   2   3
ATOM      3  C   UNL     1      11.052  23.601 -10.389  1.00  0.00     0.000 C 
BRANCH   3   4
ATOM      4  C   UNL     1      10.314  22.460  -9.668  1.00  0.00     0.000 C 
BRANCH   4   5
ATOM      5  C   UNL     1       8.924  22.884  -9.164  1.00  0.00     0.000 C 
BRANCH   5   6
ATOM      6  C   UNL     1       7.799  22.492 -10.138  1.00  0.00     0.000 C 
BRANCH   6   7
ATOM      7  C   UNL     1       6.403  22.851  -9.601  1.00  0.00     0.000 C 
BRANCH   7   8
ATOM      8  C   UNL     1       6.462  23.568  -8.242  1.00  0.00     0.000 C 
BRANCH   8   9
ATOM      9  C   UNL     1       5.312  23.159  -7.308  1.00  0.00     0.000 C 
BRANCH   9  10
ATOM     10  C   UNL     1       5.793  22.838  -5.882  1.00  0.00     0.006 C 
BRANCH  10  11
ATOM     11  C   UNL     1       7.241  23.289  -5.645  1.00  0.00     0.053 C 
BRANCH  11  12
ATOM     12  C   UNL     1       8.120  22.148  -5.237  1.00  0.00     0.041 C 
ATOM     13  O   UNL     1       9.046  21.757  -5.998  1.00  0.00    -0.550 OA
ATOM     14  O   UNL     1       7.937  21.531  -4.006  1.00  0.00    -0.550 OA
ENDBRANCH  11  12
ENDBRANCH  10  11
ENDBRANCH   9  10
ENDBRANCH   8   9
ENDBRANCH   7   8
ENDBRANCH   6   7
ENDBRANCH   5   6
ENDBRANCH   4   5
ENDBRANCH   3   4
ENDBRANCH   2   3
ENDBRANCH   1   2
BRANCH   1  15
ATOM     15  C   UNL     1      13.696  24.241  -7.557  1.00  0.00     0.000 C 
BRANCH  15  16
ATOM     16  C   UNL     1      14.366  23.246  -6.593  1.00  0.00     0.000 C 
BRANCH  16  17
ATOM     17  C   UNL     1      15.495  22.438  -7.258  1.00  0.00     0.000 C 
BRANCH  17  18
ATOM     18  C   UNL     1      16.923  22.843  -6.846  1.00  0.00    -0.000 C 
BRANCH  18  19
ATOM     19  C   UNL     1      17.381  24.164  -7.490  1.00  0.00    -0.000 C 
BRANCH  19  20
ATOM     20  C   UNL     1      17.911  25.177  -6.461  1.00  0.00    -0.000 C 
BRANCH  20  21
ATOM     21  C   UNL     1      16.972  26.382  -6.285  1.00  0.00    -0.000 C 
BRANCH  21  22
ATOM     22  C   UNL     1      15.853  26.116  -5.266  1.00  0.00    -0.000 C 
BRANCH  22  23
ATOM     23  C   UNL     1      16.337  25.308  -4.047  1.00  0.00    -0.000 C 
BRANCH  23  24
ATOM     24  C   UNL     1      16.046  26.031  -2.717  1.00  0.00    -0.000 C 
BRANCH  24  25
ATOM     25  C   UNL     1      15.259  27.343  -2.885  1.00  0.00    -0.003 C 
ATOM     26  C   UNL     1      15.659  28.417  -1.877  1.00  0.00     0.004 C 
ENDBRANCH  24  25
ENDBRANCH  23  24
ENDBRANCH  22  23
ENDBRANCH  21  22
ENDBRANCH  20  21
ENDBRANCH  19  20
ENDBRANCH  18  19
ENDBRANCH  17  18
ENDBRANCH  16  17
ENDBRANCH  15  16
ENDBRANCH   1  15
TORSDOF 22
ENDMDL
MODEL 6
REMARK VINA RESULT:    -5.297      2.862      8.590
REMARK INTER + INTRA:         -14.454
REMARK INTER:                 -12.024
REMARK INTRA:                  -2.430
REMARK UNBOUND:                -2.344
REMARK SMILES CCCCCCCCCCCCCCCCCCCCCCCC(=O)[O-]
REMARK SMILES IDX 13 1 14 2 15 3 16 4 17 5 18 6 19 7 20 8 21 9 22 10 23 11
REMARK SMILES IDX 24 12 25 13 26 14 12 15 11 16 10 17 9 18 8 19 7 20 6 21 5 22
REMARK SMILES IDX 4 23 3 24 2 25 1 26
REMARK H PARENT
REMARK Flexibility Score: inf
ROOT
ATOM      1  C   UNL     1      14.364  23.931  -7.477  1.00  0.00     0.000 C 
ENDROOT
BRANCH   1   2
ATOM      2  C   UNL     1      12.889  23.607  -7.779  1.00  0.00     0.000 C 
BRANCH   2   3
ATOM      3  C   UNL     1      12.339  22.399  -6.990  1.00  0.00     0.000 C 
BRANCH   3   4
ATOM      4  C   UNL     1      12.042  21.194  -7.899  1.00  0.00     0.000 C 
BRANCH   4   5
ATOM      5  C   UNL     1      10.550  20.819  -7.910  1.00  0.00     0.000 C 
BRANCH   5   6
ATOM      6  C   UNL     1       9.641  22.005  -7.542  1.00  0.00     0.000 C 
BRANCH   6   7
ATOM      7  C   UNL     1       9.412  22.962  -8.725  1.00  0.00     0.000 C 
BRANCH   7   8
ATOM      8  C   UNL     1       8.413  22.400  -9.750  1.00  0.00     0.000 C 
BRANCH   8   9
ATOM      9  C   UNL     1       6.975  22.878  -9.496  1.00  0.00     0.000 C 
BRANCH   9  10
ATOM     10  C   UNL     1       6.899  23.990  -8.435  1.00  0.00     0.006 C 
BRANCH  10  11
ATOM     11  C   UNL     1       6.048  23.578  -7.226  1.00  0.00     0.053 C 
BRANCH  11  12
ATOM     12  C   UNL     1       6.690  23.977  -5.932  1.00  0.00     0.041 C 
ATOM     13  O   UNL     1       6.703  25.185  -5.577  1.00  0.00    -0.550 OA
ATOM     14  O   UNL     1       7.249  23.012  -5.105  1.00  0.00    -0.550 OA
ENDBRANCH  11  12
ENDBRANCH  10  11
ENDBRANCH   9  10
ENDBRANCH   8   9
ENDBRANCH   7   8
ENDBRANCH   6   7
ENDBRANCH   5   6
ENDBRANCH   4   5
ENDBRANCH   3   4
ENDBRANCH   2   3
ENDBRANCH   1   2
BRANCH   1  15
ATOM     15  C   UNL     1      15.229  22.723  -7.077  1.00  0.00     0.000 C 
BRANCH  15  16
ATOM     16  C   UNL     1      16.659  23.123  -6.676  1.00  0.00     0.000 C 
BRANCH  16  17
ATOM     17  C   UNL     1      17.043  22.635  -5.267  1.00  0.00     0.000 C 
BRANCH  17  18
ATOM     18  C   UNL     1      17.172  23.741  -4.202  1.00  0.00    -0.000 C 
BRANCH  18  19
ATOM     19  C   UNL     1      16.913  25.150  -4.766  1.00  0.00    -0.000 C 
BRANCH  19  20
ATOM     20  C   UNL     1      15.981  25.987  -3.873  1.00  0.00    -0.000 C 
BRANCH  20  21
ATOM     21  C   UNL     1      16.407  25.967  -2.395  1.00  0.00    -0.000 C 
BRANCH  21  22
ATOM     22  C   UNL     1      15.207  25.977  -1.434  1.00  0.00    -0.000 C 
BRANCH  22  23
ATOM     23  C   UNL     1      13.964  25.287  -2.027  1.00  0.00    -0.000 C 
BRANCH  23  24
ATOM     24  C   UNL     1      13.688  23.920  -1.368  1.00  0.00    -0.000 C 
BRANCH  24  25
ATOM     25  C   UNL     1      12.972  22.921  -2.293  1.00  0.00    -0.003 C 
ATOM     26  C   UNL     1      13.594  22.840  -3.685  1.00  0.00     0.004 C 
ENDBRANCH  24  25
ENDBRANCH  23  24
ENDBRANCH  22  23
ENDBRANCH  21  22
ENDBRANCH  20  21
ENDBRANCH  19  20
ENDBRANCH  18  19
ENDBRANCH  17  18
ENDBRANCH  16  17
ENDBRANCH  15  16
ENDBRANCH   1  15
TORSDOF 22
ENDMDL
MODEL 7
REMARK VINA RESULT:    -5.291      1.689      4.020
REMARK INTER + INTRA:         -14.440
REMARK INTER:                 -11.852
REMARK INTRA:                  -2.588
REMARK UNBOUND:                -2.344
REMARK SMILES CCCCCCCCCCCCCCCCCCCCCCCC(=O)[O-]
REMARK SMILES IDX 13 1 14 2 15 3 16 4 17 5 18 6 19 7 20 8 21 9 22 10 23 11
REMARK SMILES IDX 24 12 25 13 26 14 12 15 11 16 10 17 9 18 8 19 7 20 6 21 5 22
REMARK SMILES IDX 4 23 3 24 2 25 1 26
REMARK H PARENT
REMARK Flexibility Score: inf
ROOT
ATOM      1  C   UNL     1      13.133  22.950  -6.973  1.00  0.00     0.000 C 
ENDROOT
BRANCH   1   2
ATOM      2  C   UNL     1      14.437  22.517  -6.277  1.00  0.00     0.000 C 
BRANCH   2   3
ATOM      3  C   UNL     1      15.701  22.701  -7.147  1.00  0.00     0.000 C 
BRANCH   3   4
ATOM      4  C   UNL     1      16.989  22.725  -6.306  1.00  0.00     0.000 C 
BRANCH   4   5
ATOM      5  C   UNL     1      17.727  24.071  -6.399  1.00  0.00     0.000 C 
BRANCH   5   6
ATOM      6  C   UNL     1      16.968  25.102  -7.253  1.00  0.00     0.000 C 
BRANCH   6   7
ATOM      7  C   UNL     1      16.139  26.078  -6.401  1.00  0.00     0.000 C 
BRANCH   7   8
ATOM      8  C   UNL     1      16.402  25.913  -4.895  1.00  0.00     0.000 C 
BRANCH   8   9
ATOM      9  C   UNL     1      15.152  25.463  -4.123  1.00  0.00     0.000 C 
BRANCH   9  10
ATOM     10  C   UNL     1      15.431  24.280  -3.180  1.00  0.00     0.006 C 
BRANCH  10  11
ATOM     11  C   UNL     1      14.565  24.333  -1.914  1.00  0.00     0.053 C 
BRANCH  11  12
ATOM     12  C   UNL     1      13.506  23.274  -1.919  1.00  0.00     0.041 C 
ATOM     13  O   UNL     1      13.113  22.765  -0.835  1.00  0.00    -0.550 OA
ATOM     14  O   UNL     1      12.933  22.867  -3.116  1.00  0.00    -0.550 OA
ENDBRANCH  11  12
ENDBRANCH  10  11
ENDBRANCH   9  10
ENDBRANCH   8   9
ENDBRANCH   7   8
ENDBRANCH   6   7
ENDBRANCH   5   6
ENDBRANCH   4   5
ENDBRANCH   3   4
ENDBRANCH   2   3
ENDBRANCH   1   2
BRANCH   1  15
ATOM     15  C   UNL     1      13.254  24.194  -7.870  1.00  0.00     0.000 C 
BRANCH  15  16
ATOM     16  C   UNL     1      12.139  24.275  -8.926  1.00  0.00     0.000 C 
BRANCH  16  17
ATOM     17  C   UNL     1      11.359  22.955  -9.074  1.00  0.00     0.000 C 
BRANCH  17  18
ATOM     18  C   UNL     1      10.368  22.907 -10.253  1.00  0.00    -0.000 C 
BRANCH  18  19
ATOM     19  C   UNL     1       8.904  22.765  -9.800  1.00  0.00    -0.000 C 
BRANCH  19  20
ATOM     20  C   UNL     1       8.621  23.476  -8.466  1.00  0.00    -0.000 C 
BRANCH  20  21
ATOM     21  C   UNL     1       7.249  24.173  -8.451  1.00  0.00    -0.000 C 
BRANCH  21  22
ATOM     22  C   UNL     1       6.317  23.618  -7.363  1.00  0.00    -0.000 C 
BRANCH  22  23
ATOM     23  C   UNL     1       6.927  23.711  -5.951  1.00  0.00    -0.000 C 
BRANCH  23  24
ATOM     24  C   UNL     1       6.772  22.395  -5.162  1.00  0.00    -0.000 C 
BRANCH  24  25
ATOM     25  C   UNL     1       8.108  21.797  -4.689  1.00  0.00    -0.003 C 
ATOM     26  C   UNL     1       9.142  21.681  -5.806  1.00  0.00     0.004 C 
ENDBRANCH  24  25
ENDBRANCH  23  24
ENDBRANCH  22  23
ENDBRANCH  21  22
ENDBRANCH  20  21
ENDBRANCH  19  20
ENDBRANCH  18  19
ENDBRANCH  17  18
ENDBRANCH  16  17
ENDBRANCH  15  16
ENDBRANCH   1  15
TORSDOF 22
ENDMDL
MODEL 8
REMARK VINA RESULT:    -5.283      1.518      3.362
REMARK INTER + INTRA:         -14.421
REMARK INTER:                 -11.434
REMARK INTRA:                  -2.987
REMARK UNBOUND:                -2.344
REMARK SMILES CCCCCCCCCCCCCCCCCCCCCCCC(=O)[O-]
REMARK SMILES IDX 13 1 14 2 15 3 16 4 17 5 18 6 19 7 20 8 21 9 22 10 23 11
REMARK SMILES IDX 24 12 25 13 26 14 12 15 11 16 10 17 9 18 8 19 7 20 6 21 5 22
REMARK SMILES IDX 4 23 3 24 2 25 1 26
REMARK H PARENT
REMARK Flexibility Score: inf
ROOT
ATOM      1  C   UNL     1      10.438  20.787  -7.177  1.00  0.00     0.000 C 
ENDROOT
BRANCH   1   2
ATOM      2  C   UNL     1      11.508  21.805  -6.736  1.00  0.00     0.000 C 
BRANCH   2   3
ATOM      3  C   UNL     1      12.866  21.632  -7.450  1.00  0.00     0.000 C 
BRANCH   3   4
ATOM      4  C   UNL     1      13.980  22.470  -6.798  1.00  0.00     0.000 C 
BRANCH   4   5
ATOM      5  C   UNL     1      14.088  23.879  -7.403  1.00  0.00     0.000 C 
BRANCH   5   6
ATOM      6  C   UNL     1      15.396  24.589  -7.013  1.00  0.00     0.000 C 
BRANCH   6   7
ATOM      7  C   UNL     1      15.160  25.789  -6.080  1.00  0.00     0.000 C 
BRANCH   7   8
ATOM      8  C   UNL     1      15.802  25.593  -4.696  1.00  0.00     0.000 C 
BRANCH   8   9
ATOM      9  C   UNL     1      16.395  24.187  -4.515  1.00  0.00     0.000 C 
BRANCH   9  10
ATOM     10  C   UNL     1      15.888  23.490  -3.240  1.00  0.00     0.006 C 
BRANCH  10  11
ATOM     11  C   UNL     1      14.604  24.135  -2.699  1.00  0.00     0.053 C 
BRANCH  11  12
ATOM     12  C   UNL     1      13.496  23.138  -2.557  1.00  0.00     0.041 C 
ATOM     13  O   UNL     1      12.985  22.608  -3.579  1.00  0.00    -0.550 OA
ATOM     14  O   UNL     1      13.046  22.771  -1.296  1.00  0.00    -0.550 OA
ENDBRANCH  11  12
ENDBRANCH  10  11
ENDBRANCH   9  10
ENDBRANCH   8   9
ENDBRANCH   7   8
ENDBRANCH   6   7
ENDBRANCH   5   6
ENDBRANCH   4   5
ENDBRANCH   3   4
ENDBRANCH   2   3
ENDBRANCH   1   2
BRANCH   1  15
ATOM     15  C   UNL     1       9.086  20.907  -6.453  1.00  0.00     0.000 C 
BRANCH  15  16
ATOM     16  C   UNL     1       8.908  22.263  -5.748  1.00  0.00     0.000 C 
BRANCH  16  17
ATOM     17  C   UNL     1       7.488  22.460  -5.185  1.00  0.00     0.000 C 
BRANCH  17  18
ATOM     18  C   UNL     1       6.723  23.675  -5.742  1.00  0.00    -0.000 C 
BRANCH  18  19
ATOM     19  C   UNL     1       5.624  23.283  -6.745  1.00  0.00    -0.000 C 
BRANCH  19  20
ATOM     20  C   UNL     1       6.096  23.356  -8.207  1.00  0.00    -0.000 C 
BRANCH  20  21
ATOM     21  C   UNL     1       7.018  24.559  -8.469  1.00  0.00    -0.000 C 
BRANCH  21  22
ATOM     22  C   UNL     1       8.499  24.161  -8.557  1.00  0.00    -0.000 C 
BRANCH  22  23
ATOM     23  C   UNL     1       8.745  22.999  -9.539  1.00  0.00    -0.000 C 
BRANCH  23  24
ATOM     24  C   UNL     1      10.197  22.972 -10.058  1.00  0.00    -0.000 C 
BRANCH  24  25
ATOM     25  C   UNL     1      11.100  24.044  -9.423  1.00  0.00    -0.003 C 
ATOM     26  C   UNL     1      11.886  24.853 -10.452  1.00  0.00     0.004 C 
ENDBRANCH  24  25
ENDBRANCH  23  24
ENDBRANCH  22  23
ENDBRANCH  21  22
ENDBRANCH  20  21
ENDBRANCH  19  20
ENDBRANCH  18  19
ENDBRANCH  17  18
ENDBRANCH  16  17
ENDBRANCH  15  16
ENDBRANCH   1  15
TORSDOF 22
ENDMDL
MODEL 9
REMARK VINA RESULT:    -5.213      2.674      9.088
REMARK INTER + INTRA:         -14.260
REMARK INTER:                 -12.141
REMARK INTRA:                  -2.120
REMARK UNBOUND:                -2.344
REMARK SMILES CCCCCCCCCCCCCCCCCCCCCCCC(=O)[O-]
REMARK SMILES IDX 13 1 14 2 15 3 16 4 17 5 18 6 19 7 20 8 21 9 22 10 23 11
REMARK SMILES IDX 24 12 25 13 26 14 12 15 11 16 10 17 9 18 8 19 7 20 6 21 5 22
REMARK SMILES IDX 4 23 3 24 2 25 1 26
REMARK H PARENT
REMARK Flexibility Score: inf
ROOT
ATOM      1  C   UNL     1      11.789  23.749  -8.680  1.00  0.00     0.000 C 
ENDROOT
BRANCH   1   2
ATOM      2  C   UNL     1      11.220  22.335  -8.460  1.00  0.00     0.000 C 
BRANCH   2   3
ATOM      3  C   UNL     1       9.728  22.316  -8.062  1.00  0.00     0.000 C 
BRANCH   3   4
ATOM      4  C   UNL     1       8.847  23.085  -9.061  1.00  0.00     0.000 C 
BRANCH   4   5
ATOM      5  C   UNL     1       8.016  22.150  -9.955  1.00  0.00     0.000 C 
BRANCH   5   6
ATOM      6  C   UNL     1       6.776  22.845 -10.544  1.00  0.00     0.000 C 
BRANCH   6   7
ATOM      7  C   UNL     1       5.460  22.190 -10.090  1.00  0.00     0.000 C 
BRANCH   7   8
ATOM      8  C   UNL     1       4.569  23.155  -9.288  1.00  0.00     0.000 C 
BRANCH   8   9
ATOM      9  C   UNL     1       3.934  22.487  -8.059  1.00  0.00     0.000 C 
BRANCH   9  10
ATOM     10  C   UNL     1       4.636  22.873  -6.745  1.00  0.00     0.006 C 
BRANCH  10  11
ATOM     11  C   UNL     1       5.963  23.605  -6.993  1.00  0.00     0.053 C 
BRANCH  11  12
ATOM     12  C   UNL     1       6.663  23.936  -5.711  1.00  0.00     0.041 C 
ATOM     13  O   UNL     1       6.588  25.098  -5.229  1.00  0.00    -0.550 OA
ATOM     14  O   UNL     1       7.377  22.957  -5.033  1.00  0.00    -0.550 OA
ENDBRANCH  11  12
ENDBRANCH  10  11
ENDBRANCH   9  10
ENDBRANCH   8   9
ENDBRANCH   7   8
ENDBRANCH   6   7
ENDBRANCH   5   6
ENDBRANCH   4   5
ENDBRANCH   3   4
ENDBRANCH   2   3
ENDBRANCH   1   2
BRANCH   1  15
ATOM     15  C   UNL     1      13.073  24.066  -7.895  1.00  0.00     0.000 C 
BRANCH  15  16
ATOM     16  C   UNL     1      13.612  22.849  -7.123  1.00  0.00     0.000 C 
BRANCH  16  17
ATOM     17  C   UNL     1      14.948  23.137  -6.412  1.00  0.00     0.000 C 
BRANCH  17  18
ATOM     18  C   UNL     1      16.200  22.586  -7.120  1.00  0.00    -0.000 C 
BRANCH  18  19
ATOM     19  C   UNL     1      17.172  23.692  -7.568  1.00  0.00    -0.000 C 
BRANCH  19  20
ATOM     20  C   UNL     1      16.806  25.073  -6.999  1.00  0.00    -0.000 C 
BRANCH  20  21
ATOM     21  C   UNL     1      17.957  25.703  -6.196  1.00  0.00    -0.000 C 
BRANCH  21  22
ATOM     22  C   UNL     1      17.461  26.523  -4.994  1.00  0.00    -0.000 C 
BRANCH  22  23
ATOM     23  C   UNL     1      16.927  25.639  -3.851  1.00  0.00    -0.000 C 
BRANCH  23  24
ATOM     24  C   UNL     1      15.428  25.881  -3.580  1.00  0.00    -0.000 C 
BRANCH  24  25
ATOM     25  C   UNL     1      14.699  24.655  -3.002  1.00  0.00    -0.003 C 
ATOM     26  C   UNL     1      15.632  23.480  -2.719  1.00  0.00     0.004 C 
ENDBRANCH  24  25
ENDBRANCH  23  24
ENDBRANCH  22  23
ENDBRANCH  21  22
ENDBRANCH  20  21
ENDBRANCH  19  20
ENDBRANCH  18  19
ENDBRANCH  17  18
ENDBRANCH  16  17
ENDBRANCH  15  16
ENDBRANCH   1  15
TORSDOF 22
ENDMDL
