MODEL 1
REMARK VINA RESULT:    -8.594      0.000      0.000
REMARK INTER + INTRA:          -9.275
REMARK INTER:                  -9.347
REMARK INTRA:                   0.073
REMARK UNBOUND:                 0.073
REMARK SMILES C[C@@H]1[C@H]2C3=CC[C@@H]4[C@@]5(C)CC[C@H](O)C(C)(C)[C@H]5CC[C@@]4(C)[C@]3(C)CC[C@]2(C(=O)[O-])CC[C@@H]1C
REMARK SMILES IDX 26 1 30 2 25 3 3 4 31 5 24 6 4 7 2 8 32 9 22 10 5 11 1 12
REMARK SMILES IDX 33 13 23 14 20 15 6 16 7 17 19 18 21 19 8 20 18 21 17 22
REMARK SMILES IDX 10 23 9 24 14 25 11 26 12 27 15 28 16 29 27 30 28 31 29 32
REMARK SMILES IDX 13 33
REMARK H PARENT 13 34
REMARK Flexibility Score: inf
ROOT
ATOM      1  C   UNL     1      12.791   7.669  16.520  1.00  0.00     0.017 C 
ATOM      2  C   UNL     1      11.787   7.061  15.502  1.00  0.00     0.014 C 
ATOM      3  C   UNL     1      12.032   8.569  17.502  1.00  0.00     0.014 C 
ATOM      4  C   UNL     1      13.415   6.482  17.329  1.00  0.00     0.030 C 
ATOM      5  C   UNL     1      12.490   6.117  14.510  1.00  0.00     0.004 C 
ATOM      6  C   UNL     1      12.994   9.286  18.460  1.00  0.00     0.013 C 
ATOM      7  C   UNL     1      14.072   6.906  18.671  1.00  0.00    -0.063 C 
ATOM      8  C   UNL     1      14.216   5.545  16.332  1.00  0.00    -0.003 C 
ATOM      9  C   UNL     1      13.273   4.987  15.213  1.00  0.00    -0.011 C 
ATOM     10  C   UNL     1      13.987   8.350  19.260  1.00  0.00    -0.006 C 
ATOM     11  C   UNL     1      14.421   5.916  19.531  1.00  0.00    -0.027 C 
ATOM     12  C   UNL     1      15.052   4.411  16.947  1.00  0.00     0.008 C 
ATOM     13  C   UNL     1      12.314   3.875  15.688  1.00  0.00     0.008 C 
ATOM     14  C   UNL     1      15.426   8.955  19.146  1.00  0.00     0.017 C 
ATOM     15  C   UNL     1      13.527   8.264  20.807  1.00  0.00    -0.020 C 
ATOM     16  C   UNL     1      15.050   6.132  20.879  1.00  0.00     0.032 C 
ATOM     17  C   UNL     1      14.605   7.433  21.607  1.00  0.00     0.006 C 
ATOM     18  C   UNL     1      13.384   9.687  21.465  1.00  0.00     0.008 C 
ATOM     19  C   UNL     1      12.117   7.595  20.892  1.00  0.00     0.012 C 
ATOM     20  C   UNL     1      14.354   7.267  23.170  1.00  0.00    -0.025 C 
ATOM     21  C   UNL     1      14.013   9.840  22.856  1.00  0.00     0.005 C 
ATOM     22  C   UNL     1      13.754   8.617  23.786  1.00  0.00     0.003 C 
ATOM     23  C   UNL     1      15.730   6.906  23.850  1.00  0.00     0.010 C 
ATOM     24  C   UNL     1      13.378   6.065  23.442  1.00  0.00     0.012 C 
ATOM     25  C   UNL     1      14.224   8.900  25.277  1.00  0.00    -0.006 C 
ATOM     26  C   UNL     1      16.531   8.122  24.304  1.00  0.00     0.033 C 
ATOM     27  C   UNL     1      15.796   8.955  25.374  1.00  0.00     0.120 C 
ATOM     28  C   UNL     1      13.653  10.251  25.797  1.00  0.00     0.014 C 
ATOM     29  C   UNL     1      13.625   7.825  26.233  1.00  0.00     0.014 C 
ENDROOT
BRANCH   1  30
ATOM     30  C   UNL     1      13.794   8.533  15.744  1.00  0.00     0.048 C 
ATOM     31  O   UNL     1      13.375   9.452  14.992  1.00  0.00    -0.550 OA
ATOM     32  O   UNL     1      15.164   8.375  15.888  1.00  0.00    -0.550 OA
ENDBRANCH   1  30
BRANCH  27  33
ATOM     33  O   UNL     1      16.245   8.559  26.648  1.00  0.00    -0.393 OA
ATOM     34  H   UNL     1      15.984   9.278  27.282  1.00  0.00     0.210 HD
ENDBRANCH  27  33
TORSDOF 2
ENDMDL
MODEL 2
REMARK VINA RESULT:    -8.389      3.073     10.226
REMARK INTER + INTRA:          -9.052
REMARK INTER:                  -9.112
REMARK INTRA:                   0.060
REMARK UNBOUND:                 0.073
REMARK SMILES C[C@@H]1[C@H]2C3=CC[C@@H]4[C@@]5(C)CC[C@H](O)C(C)(C)[C@H]5CC[C@@]4(C)[C@]3(C)CC[C@]2(C(=O)[O-])CC[C@@H]1C
REMARK SMILES IDX 26 1 30 2 25 3 3 4 31 5 24 6 4 7 2 8 32 9 22 10 5 11 1 12
REMARK SMILES IDX 33 13 23 14 20 15 6 16 7 17 19 18 21 19 8 20 18 21 17 22
REMARK SMILES IDX 10 23 9 24 14 25 11 26 12 27 15 28 16 29 27 30 28 31 29 32
REMARK SMILES IDX 13 33
REMARK H PARENT 13 34
REMARK Flexibility Score: inf
ROOT
ATOM      1  C   UNL     1      15.319   7.287  29.772  1.00  0.00     0.017 C 
ATOM      2  C   UNL     1      14.569   6.951  31.091  1.00  0.00     0.014 C 
ATOM      3  C   UNL     1      15.116   6.145  28.770  1.00  0.00     0.014 C 
ATOM      4  C   UNL     1      14.662   8.580  29.178  1.00  0.00     0.030 C 
ATOM      5  C   UNL     1      14.708   8.082  32.125  1.00  0.00     0.004 C 
ATOM      6  C   UNL     1      15.930   6.375  27.489  1.00  0.00     0.013 C 
ATOM      7  C   UNL     1      14.953   8.801  27.668  1.00  0.00    -0.063 C 
ATOM      8  C   UNL     1      14.872   9.777  30.195  1.00  0.00    -0.003 C 
ATOM      9  C   UNL     1      14.230   9.447  31.585  1.00  0.00    -0.011 C 
ATOM     10  C   UNL     1      15.691   7.761  26.766  1.00  0.00    -0.006 C 
ATOM     11  C   UNL     1      14.234   9.759  27.031  1.00  0.00    -0.027 C 
ATOM     12  C   UNL     1      14.454  11.181  29.728  1.00  0.00     0.008 C 
ATOM     13  C   UNL     1      12.689   9.531  31.607  1.00  0.00     0.008 C 
ATOM     14  C   UNL     1      17.087   8.384  26.431  1.00  0.00     0.017 C 
ATOM     15  C   UNL     1      14.833   7.530  25.416  1.00  0.00    -0.020 C 
ATOM     16  C   UNL     1      14.363  10.104  25.574  1.00  0.00     0.032 C 
ATOM     17  C   UNL     1      14.721   8.905  24.648  1.00  0.00     0.006 C 
ATOM     18  C   UNL     1      15.497   6.464  24.464  1.00  0.00     0.008 C 
ATOM     19  C   UNL     1      13.422   6.972  25.787  1.00  0.00     0.012 C 
ATOM     20  C   UNL     1      13.942   8.881  23.261  1.00  0.00    -0.025 C 
ATOM     21  C   UNL     1      15.569   6.854  22.982  1.00  0.00     0.005 C 
ATOM     22  C   UNL     1      14.268   7.534  22.460  1.00  0.00     0.003 C 
ATOM     23  C   UNL     1      14.385  10.146  22.429  1.00  0.00     0.010 C 
ATOM     24  C   UNL     1      12.394   9.009  23.501  1.00  0.00     0.012 C 
ATOM     25  C   UNL     1      14.292   7.721  20.883  1.00  0.00    -0.006 C 
ATOM     26  C   UNL     1      15.595   9.902  21.533  1.00  0.00     0.033 C 
ATOM     27  C   UNL     1      15.334   8.826  20.460  1.00  0.00     0.120 C 
ATOM     28  C   UNL     1      14.669   6.391  20.167  1.00  0.00     0.014 C 
ATOM     29  C   UNL     1      12.860   8.054  20.368  1.00  0.00     0.014 C 
ENDROOT
BRANCH   1  30
ATOM     30  C   UNL     1      16.816   7.398  30.088  1.00  0.00     0.048 C 
ATOM     31  O   UNL     1      17.425   6.410  30.578  1.00  0.00    -0.550 OA
ATOM     32  O   UNL     1      17.546   8.540  29.794  1.00  0.00    -0.550 OA
ENDBRANCH   1  30
BRANCH  27  33
ATOM     33  O   UNL     1      14.952   9.458  19.263  1.00  0.00    -0.393 OA
ATOM     34  H   UNL     1      13.978   9.302  19.151  1.00  0.00     0.210 HD
ENDBRANCH  27  33
TORSDOF 2
ENDMDL
MODEL 3
REMARK VINA RESULT:    -8.363      1.680      8.003
REMARK INTER + INTRA:          -9.024
REMARK INTER:                  -9.086
REMARK INTRA:                   0.062
REMARK UNBOUND:                 0.073
REMARK SMILES C[C@@H]1[C@H]2C3=CC[C@@H]4[C@@]5(C)CC[C@H](O)C(C)(C)[C@H]5CC[C@@]4(C)[C@]3(C)CC[C@]2(C(=O)[O-])CC[C@@H]1C
REMARK SMILES IDX 26 1 30 2 25 3 3 4 31 5 24 6 4 7 2 8 32 9 22 10 5 11 1 12
REMARK SMILES IDX 33 13 23 14 20 15 6 16 7 17 19 18 21 19 8 20 18 21 17 22
REMARK SMILES IDX 10 23 9 24 14 25 11 26 12 27 15 28 16 29 27 30 28 31 29 32
REMARK SMILES IDX 13 33
REMARK H PARENT 13 34
REMARK Flexibility Score: inf
ROOT
ATOM      1  C   UNL     1      15.560   8.860  23.597  1.00  0.00     0.017 C 
ATOM      2  C   UNL     1      16.709   9.117  24.611  1.00  0.00     0.014 C 
ATOM      3  C   UNL     1      15.680   9.852  22.435  1.00  0.00     0.014 C 
ATOM      4  C   UNL     1      15.755   7.414  23.026  1.00  0.00     0.030 C 
ATOM      5  C   UNL     1      16.661   8.124  25.785  1.00  0.00     0.004 C 
ATOM      6  C   UNL     1      14.501   9.716  21.461  1.00  0.00     0.013 C 
ATOM      7  C   UNL     1      15.002   7.153  21.693  1.00  0.00    -0.063 C 
ATOM      8  C   UNL     1      15.621   6.371  24.213  1.00  0.00    -0.003 C 
ATOM      9  C   UNL     1      16.690   6.651  25.324  1.00  0.00    -0.011 C 
ATOM     10  C   UNL     1      14.249   8.262  20.891  1.00  0.00    -0.006 C 
ATOM     11  C   UNL     1      15.308   6.014  21.021  1.00  0.00    -0.027 C 
ATOM     12  C   UNL     1      15.608   4.879  23.842  1.00  0.00     0.008 C 
ATOM     13  C   UNL     1      18.125   6.228  24.944  1.00  0.00     0.008 C 
ATOM     14  C   UNL     1      12.723   7.942  21.028  1.00  0.00     0.017 C 
ATOM     15  C   UNL     1      14.707   8.197  19.343  1.00  0.00    -0.020 C 
ATOM     16  C   UNL     1      14.698   5.602  19.710  1.00  0.00     0.032 C 
ATOM     17  C   UNL     1      14.324   6.779  18.763  1.00  0.00     0.006 C 
ATOM     18  C   UNL     1      14.014   9.311  18.470  1.00  0.00     0.008 C 
ATOM     19  C   UNL     1      16.245   8.453  19.245  1.00  0.00     0.012 C 
ATOM     20  C   UNL     1      14.658   6.527  17.227  1.00  0.00    -0.025 C 
ATOM     21  C   UNL     1      13.442   8.840  17.127  1.00  0.00     0.005 C 
ATOM     22  C   UNL     1      14.380   7.850  16.372  1.00  0.00     0.003 C 
ATOM     23  C   UNL     1      13.758   5.336  16.721  1.00  0.00     0.010 C 
ATOM     24  C   UNL     1      16.155   6.076  17.060  1.00  0.00     0.012 C 
ATOM     25  C   UNL     1      13.864   7.559  14.897  1.00  0.00    -0.006 C 
ATOM     26  C   UNL     1      12.412   5.776  16.157  1.00  0.00     0.033 C 
ATOM     27  C   UNL     1      12.552   6.686  14.919  1.00  0.00     0.120 C 
ATOM     28  C   UNL     1      13.560   8.883  14.138  1.00  0.00     0.014 C 
ATOM     29  C   UNL     1      14.994   6.879  14.067  1.00  0.00     0.014 C 
ENDROOT
BRANCH   1  30
ATOM     30  C   UNL     1      14.227   9.108  24.314  1.00  0.00     0.048 C 
ATOM     31  O   UNL     1      13.992  10.236  24.824  1.00  0.00    -0.550 OA
ATOM     32  O   UNL     1      13.232   8.143  24.370  1.00  0.00    -0.550 OA
ENDBRANCH   1  30
BRANCH  27  33
ATOM     33  O   UNL     1      12.442   5.898  13.759  1.00  0.00    -0.393 OA
ATOM     34  H   UNL     1      13.007   6.326  13.064  1.00  0.00     0.210 HD
ENDBRANCH  27  33
TORSDOF 2
ENDMDL
MODEL 4
REMARK VINA RESULT:    -8.330      2.060      3.543
REMARK INTER + INTRA:          -8.987
REMARK INTER:                  -9.043
REMARK INTRA:                   0.056
REMARK UNBOUND:                 0.073
REMARK SMILES C[C@@H]1[C@H]2C3=CC[C@@H]4[C@@]5(C)CC[C@H](O)C(C)(C)[C@H]5CC[C@@]4(C)[C@]3(C)CC[C@]2(C(=O)[O-])CC[C@@H]1C
REMARK SMILES IDX 26 1 30 2 25 3 3 4 31 5 24 6 4 7 2 8 32 9 22 10 5 11 1 12
REMARK SMILES IDX 33 13 23 14 20 15 6 16 7 17 19 18 21 19 8 20 18 21 17 22
REMARK SMILES IDX 10 23 9 24 14 25 11 26 12 27 15 28 16 29 27 30 28 31 29 32
REMARK SMILES IDX 13 33
REMARK H PARENT 13 34
REMARK Flexibility Score: inf
ROOT
ATOM      1  C   UNL     1      16.435   7.095  15.912  1.00  0.00     0.017 C 
ATOM      2  C   UNL     1      16.750   7.789  14.558  1.00  0.00     0.014 C 
ATOM      3  C   UNL     1      17.438   7.569  16.969  1.00  0.00     0.014 C 
ATOM      4  C   UNL     1      15.005   7.559  16.355  1.00  0.00     0.030 C 
ATOM      5  C   UNL     1      15.748   7.376  13.465  1.00  0.00     0.004 C 
ATOM      6  C   UNL     1      17.243   6.828  18.298  1.00  0.00     0.013 C 
ATOM      7  C   UNL     1      14.711   7.350  17.866  1.00  0.00    -0.063 C 
ATOM      8  C   UNL     1      13.950   7.066  15.280  1.00  0.00    -0.003 C 
ATOM      9  C   UNL     1      14.282   7.649  13.864  1.00  0.00    -0.011 C 
ATOM     10  C   UNL     1      15.780   6.876  18.900  1.00  0.00    -0.006 C 
ATOM     11  C   UNL     1      13.595   7.937  18.367  1.00  0.00    -0.027 C 
ATOM     12  C   UNL     1      12.461   7.268  15.609  1.00  0.00     0.008 C 
ATOM     13  C   UNL     1      13.942   9.145  13.698  1.00  0.00     0.008 C 
ATOM     14  C   UNL     1      15.375   5.422  19.314  1.00  0.00     0.017 C 
ATOM     15  C   UNL     1      15.750   7.861  20.180  1.00  0.00    -0.020 C 
ATOM     16  C   UNL     1      13.157   7.862  19.803  1.00  0.00     0.032 C 
ATOM     17  C   UNL     1      14.316   7.789  20.838  1.00  0.00     0.006 C 
ATOM     18  C   UNL     1      16.829   7.468  21.259  1.00  0.00     0.008 C 
ATOM     19  C   UNL     1      16.093   9.315  19.724  1.00  0.00     0.012 C 
ATOM     20  C   UNL     1      14.093   8.664  22.148  1.00  0.00    -0.025 C 
ATOM     21  C   UNL     1      16.335   7.442  22.711  1.00  0.00     0.005 C 
ATOM     22  C   UNL     1      15.404   8.640  23.066  1.00  0.00     0.003 C 
ATOM     23  C   UNL     1      12.856   8.072  22.926  1.00  0.00     0.010 C 
ATOM     24  C   UNL     1      13.727  10.144  21.762  1.00  0.00     0.012 C 
ATOM     25  C   UNL     1      15.093   8.704  24.623  1.00  0.00    -0.006 C 
ATOM     26  C   UNL     1      13.224   6.995  23.942  1.00  0.00     0.033 C 
ATOM     27  C   UNL     1      14.148   7.520  25.060  1.00  0.00     0.120 C 
ATOM     28  C   UNL     1      16.402   8.621  25.459  1.00  0.00     0.014 C 
ATOM     29  C   UNL     1      14.482  10.091  24.983  1.00  0.00     0.014 C 
ENDROOT
BRANCH   1  30
ATOM     30  C   UNL     1      16.604   5.582  15.725  1.00  0.00     0.048 C 
ATOM     31  O   UNL     1      17.716   5.119  15.358  1.00  0.00    -0.550 OA
ATOM     32  O   UNL     1      15.581   4.688  16.005  1.00  0.00    -0.550 OA
ENDBRANCH   1  30
BRANCH  27  33
ATOM     33  O   UNL     1      13.362   7.876  26.171  1.00  0.00    -0.393 OA
ATOM     34  H   UNL     1      12.470   7.462  26.039  1.00  0.00     0.210 HD
ENDBRANCH  27  33
TORSDOF 2
ENDMDL
MODEL 5
REMARK VINA RESULT:    -8.011      2.623      4.640
REMARK INTER + INTRA:          -8.641
REMARK INTER:                  -8.702
REMARK INTRA:                   0.061
REMARK UNBOUND:                 0.073
REMARK SMILES C[C@@H]1[C@H]2C3=CC[C@@H]4[C@@]5(C)CC[C@H](O)C(C)(C)[C@H]5CC[C@@]4(C)[C@]3(C)CC[C@]2(C(=O)[O-])CC[C@@H]1C
REMARK SMILES IDX 26 1 30 2 25 3 3 4 31 5 24 6 4 7 2 8 32 9 22 10 5 11 1 12
REMARK SMILES IDX 33 13 23 14 20 15 6 16 7 17 19 18 21 19 8 20 18 21 17 22
REMARK SMILES IDX 10 23 9 24 14 25 11 26 12 27 15 28 16 29 27 30 28 31 29 32
REMARK SMILES IDX 13 33
REMARK H PARENT 13 34
REMARK Flexibility Score: inf
ROOT
ATOM      1  C   UNL     1      16.060   8.260  19.735  1.00  0.00     0.017 C 
ATOM      2  C   UNL     1      16.003   9.120  18.442  1.00  0.00     0.014 C 
ATOM      3  C   UNL     1      17.061   8.883  20.713  1.00  0.00     0.014 C 
ATOM      4  C   UNL     1      14.639   8.310  20.393  1.00  0.00     0.030 C 
ATOM      5  C   UNL     1      14.983   8.560  17.434  1.00  0.00     0.004 C 
ATOM      6  C   UNL     1      17.241   8.009  21.962  1.00  0.00     0.013 C 
ATOM      7  C   UNL     1      14.622   7.909  21.894  1.00  0.00    -0.063 C 
ATOM      8  C   UNL     1      13.590   7.657  19.401  1.00  0.00    -0.003 C 
ATOM      9  C   UNL     1      13.567   8.420  18.033  1.00  0.00    -0.011 C 
ATOM     10  C   UNL     1      15.911   7.636  22.733  1.00  0.00    -0.006 C 
ATOM     11  C   UNL     1      13.482   8.152  22.588  1.00  0.00    -0.027 C 
ATOM     12  C   UNL     1      12.159   7.449  19.925  1.00  0.00     0.008 C 
ATOM     13  C   UNL     1      12.859   9.790  18.082  1.00  0.00     0.008 C 
ATOM     14  C   UNL     1      15.929   6.098  23.021  1.00  0.00     0.017 C 
ATOM     15  C   UNL     1      15.829   8.472  24.114  1.00  0.00    -0.020 C 
ATOM     16  C   UNL     1      13.284   7.850  24.047  1.00  0.00     0.032 C 
ATOM     17  C   UNL     1      14.563   7.987  24.923  1.00  0.00     0.006 C 
ATOM     18  C   UNL     1      17.113   8.277  25.005  1.00  0.00     0.008 C 
ATOM     19  C   UNL     1      15.745   9.999  23.791  1.00  0.00     0.012 C 
ATOM     20  C   UNL     1      14.326   8.666  26.343  1.00  0.00    -0.025 C 
ATOM     21  C   UNL     1      16.853   8.007  26.492  1.00  0.00     0.005 C 
ATOM     22  C   UNL     1      15.722   8.898  27.090  1.00  0.00     0.003 C 
ATOM     23  C   UNL     1      13.392   7.718  27.188  1.00  0.00     0.010 C 
ATOM     24  C   UNL     1      13.566  10.032  26.176  1.00  0.00     0.012 C 
ATOM     25  C   UNL     1      15.631   8.752  28.670  1.00  0.00    -0.006 C 
ATOM     26  C   UNL     1      14.147   6.689  28.021  1.00  0.00     0.033 C 
ATOM     27  C   UNL     1      15.069   7.336  29.076  1.00  0.00     0.120 C 
ATOM     28  C   UNL     1      17.028   8.933  29.331  1.00  0.00     0.014 C 
ATOM     29  C   UNL     1      14.764   9.906  29.258  1.00  0.00     0.014 C 
ENDROOT
BRANCH   1  30
ATOM     30  C   UNL     1      16.557   6.859  19.355  1.00  0.00     0.048 C 
ATOM     31  O   UNL     1      17.685   6.724  18.810  1.00  0.00    -0.550 OA
ATOM     32  O   UNL     1      15.828   5.716  19.648  1.00  0.00    -0.550 OA
ENDBRANCH   1  30
BRANCH  27  33
ATOM     33  O   UNL     1      14.388   7.389  30.306  1.00  0.00    -0.393 OA
ATOM     34  H   UNL     1      14.979   6.966  30.982  1.00  0.00     0.210 HD
ENDBRANCH  27  33
TORSDOF 2
ENDMDL
MODEL 6
REMARK VINA RESULT:    -7.949      3.116      5.578
REMARK INTER + INTRA:          -8.573
REMARK INTER:                  -8.630
REMARK INTRA:                   0.057
REMARK UNBOUND:                 0.073
REMARK SMILES C[C@@H]1[C@H]2C3=CC[C@@H]4[C@@]5(C)CC[C@H](O)C(C)(C)[C@H]5CC[C@@]4(C)[C@]3(C)CC[C@]2(C(=O)[O-])CC[C@@H]1C
REMARK SMILES IDX 26 1 30 2 25 3 3 4 31 5 24 6 4 7 2 8 32 9 22 10 5 11 1 12
REMARK SMILES IDX 33 13 23 14 20 15 6 16 7 17 19 18 21 19 8 20 18 21 17 22
REMARK SMILES IDX 10 23 9 24 14 25 11 26 12 27 15 28 16 29 27 30 28 31 29 32
REMARK SMILES IDX 13 33
REMARK H PARENT 13 34
REMARK Flexibility Score: inf
ROOT
ATOM      1  C   UNL     1      13.746   7.922  21.864  1.00  0.00     0.017 C 
ATOM      2  C   UNL     1      13.223   6.922  20.795  1.00  0.00     0.014 C 
ATOM      3  C   UNL     1      12.626   8.220  22.867  1.00  0.00     0.014 C 
ATOM      4  C   UNL     1      14.914   7.217  22.633  1.00  0.00     0.030 C 
ATOM      5  C   UNL     1      14.320   6.557  19.779  1.00  0.00     0.004 C 
ATOM      6  C   UNL     1      13.053   9.292  23.880  1.00  0.00     0.013 C 
ATOM      7  C   UNL     1      15.244   7.859  24.009  1.00  0.00    -0.063 C 
ATOM      8  C   UNL     1      16.089   6.911  21.614  1.00  0.00    -0.003 C 
ATOM      9  C   UNL     1      15.591   5.991  20.448  1.00  0.00    -0.011 C 
ATOM     10  C   UNL     1      14.397   8.997  24.661  1.00  0.00    -0.006 C 
ATOM     11  C   UNL     1      16.075   7.169  24.832  1.00  0.00    -0.027 C 
ATOM     12  C   UNL     1      17.407   6.375  22.198  1.00  0.00     0.008 C 
ATOM     13  C   UNL     1      15.384   4.516  20.849  1.00  0.00     0.008 C 
ATOM     14  C   UNL     1      15.283  10.287  24.609  1.00  0.00     0.017 C 
ATOM     15  C   UNL     1      14.063   8.598  26.190  1.00  0.00    -0.020 C 
ATOM     16  C   UNL     1      16.494   7.620  26.203  1.00  0.00     0.032 C 
ATOM     17  C   UNL     1      15.421   8.438  26.978  1.00  0.00     0.006 C 
ATOM     18  C   UNL     1      13.178   9.685  26.909  1.00  0.00     0.008 C 
ATOM     19  C   UNL     1      13.235   7.273  26.211  1.00  0.00     0.012 C 
ATOM     20  C   UNL     1      15.306   8.083  28.525  1.00  0.00    -0.025 C 
ATOM     21  C   UNL     1      13.631  10.081  28.320  1.00  0.00     0.005 C 
ATOM     22  C   UNL     1      14.076   8.865  29.187  1.00  0.00     0.003 C 
ATOM     23  C   UNL     1      16.662   8.485  29.222  1.00  0.00     0.010 C 
ATOM     24  C   UNL     1      15.132   6.533  28.719  1.00  0.00     0.012 C 
ATOM     25  C   UNL     1      14.325   9.279  30.701  1.00  0.00    -0.006 C 
ATOM     26  C   UNL     1      16.684   9.916  29.750  1.00  0.00     0.033 C 
ATOM     27  C   UNL     1      15.621  10.166  30.838  1.00  0.00     0.120 C 
ATOM     28  C   UNL     1      13.118  10.082  31.267  1.00  0.00     0.014 C 
ATOM     29  C   UNL     1      14.403   8.004  31.592  1.00  0.00     0.014 C 
ENDROOT
BRANCH   1  30
ATOM     30  C   UNL     1      14.122   9.228  21.153  1.00  0.00     0.048 C 
ATOM     31  O   UNL     1      13.252   9.852  20.490  1.00  0.00    -0.550 OA
ATOM     32  O   UNL     1      15.388   9.785  21.263  1.00  0.00    -0.550 OA
ENDBRANCH   1  30
BRANCH  27  33
ATOM     33  O   UNL     1      16.216  10.009  32.103  1.00  0.00    -0.393 OA
ATOM     34  H   UNL     1      15.480   9.980  32.768  1.00  0.00     0.210 HD
ENDBRANCH  27  33
TORSDOF 2
ENDMDL
MODEL 7
REMARK VINA RESULT:    -7.919      1.308      8.449
REMARK INTER + INTRA:          -8.541
REMARK INTER:                  -8.599
REMARK INTRA:                   0.058
REMARK UNBOUND:                 0.073
REMARK SMILES C[C@@H]1[C@H]2C3=CC[C@@H]4[C@@]5(C)CC[C@H](O)C(C)(C)[C@H]5CC[C@@]4(C)[C@]3(C)CC[C@]2(C(=O)[O-])CC[C@@H]1C
REMARK SMILES IDX 26 1 30 2 25 3 3 4 31 5 24 6 4 7 2 8 32 9 22 10 5 11 1 12
REMARK SMILES IDX 33 13 23 14 20 15 6 16 7 17 19 18 21 19 8 20 18 21 17 22
REMARK SMILES IDX 10 23 9 24 14 25 11 26 12 27 15 28 16 29 27 30 28 31 29 32
REMARK SMILES IDX 13 33
REMARK H PARENT 13 34
REMARK Flexibility Score: inf
ROOT
ATOM      1  C   UNL     1      14.125   7.022  25.865  1.00  0.00     0.017 C 
ATOM      2  C   UNL     1      13.244   7.142  27.140  1.00  0.00     0.014 C 
ATOM      3  C   UNL     1      13.568   5.911  24.969  1.00  0.00     0.014 C 
ATOM      4  C   UNL     1      14.011   8.378  25.089  1.00  0.00     0.030 C 
ATOM      5  C   UNL     1      13.737   8.270  28.064  1.00  0.00     0.004 C 
ATOM      6  C   UNL     1      14.468   5.673  23.749  1.00  0.00     0.013 C 
ATOM      7  C   UNL     1      14.432   8.290  23.596  1.00  0.00    -0.063 C 
ATOM      8  C   UNL     1      14.595   9.540  25.995  1.00  0.00    -0.003 C 
ATOM      9  C   UNL     1      13.812   9.638  27.349  1.00  0.00    -0.011 C 
ATOM     10  C   UNL     1      14.782   6.952  22.871  1.00  0.00    -0.006 C 
ATOM     11  C   UNL     1      14.140   9.354  22.805  1.00  0.00    -0.027 C 
ATOM     12  C   UNL     1      14.737  10.931  25.355  1.00  0.00     0.008 C 
ATOM     13  C   UNL     1      12.408  10.265  27.227  1.00  0.00     0.008 C 
ATOM     14  C   UNL     1      16.324   6.990  22.601  1.00  0.00     0.017 C 
ATOM     15  C   UNL     1      13.963   6.873  21.481  1.00  0.00    -0.020 C 
ATOM     16  C   UNL     1      14.453   9.444  21.338  1.00  0.00     0.032 C 
ATOM     17  C   UNL     1      14.394   8.091  20.572  1.00  0.00     0.006 C 
ATOM     18  C   UNL     1      14.237   5.531  20.703  1.00  0.00     0.008 C 
ATOM     19  C   UNL     1      12.430   6.904  21.780  1.00  0.00     0.012 C 
ATOM     20  C   UNL     1      13.724   8.172  19.131  1.00  0.00    -0.025 C 
ATOM     21  C   UNL     1      14.515   5.680  19.202  1.00  0.00     0.005 C 
ATOM     22  C   UNL     1      13.575   6.708  18.502  1.00  0.00     0.003 C 
ATOM     23  C   UNL     1      14.635   9.081  18.220  1.00  0.00     0.010 C 
ATOM     24  C   UNL     1      12.319   8.870  19.220  1.00  0.00     0.012 C 
ATOM     25  C   UNL     1      13.739   6.674  16.922  1.00  0.00    -0.006 C 
ATOM     26  C   UNL     1      15.713   8.313  17.463  1.00  0.00     0.033 C 
ATOM     27  C   UNL     1      15.129   7.274  16.484  1.00  0.00     0.120 C 
ATOM     28  C   UNL     1      13.639   5.219  16.379  1.00  0.00     0.014 C 
ATOM     29  C   UNL     1      12.551   7.427  16.251  1.00  0.00     0.014 C 
ENDROOT
BRANCH   1  30
ATOM     30  C   UNL     1      15.543   6.632  26.300  1.00  0.00     0.048 C 
ATOM     31  O   UNL     1      15.729   5.562  26.938  1.00  0.00    -0.550 OA
ATOM     32  O   UNL     1      16.651   7.394  25.959  1.00  0.00    -0.550 OA
ENDBRANCH   1  30
BRANCH  27  33
ATOM     33  O   UNL     1      15.059   7.845  15.200  1.00  0.00    -0.393 OA
ATOM     34  H   UNL     1      14.100   8.020  15.014  1.00  0.00     0.210 HD
ENDBRANCH  27  33
TORSDOF 2
ENDMDL
MODEL 8
REMARK VINA RESULT:    -7.616      2.222      8.861
REMARK INTER + INTRA:          -8.211
REMARK INTER:                  -8.277
REMARK INTRA:                   0.066
REMARK UNBOUND:                 0.073
REMARK SMILES C[C@@H]1[C@H]2C3=CC[C@@H]4[C@@]5(C)CC[C@H](O)C(C)(C)[C@H]5CC[C@@]4(C)[C@]3(C)CC[C@]2(C(=O)[O-])CC[C@@H]1C
REMARK SMILES IDX 26 1 30 2 25 3 3 4 31 5 24 6 4 7 2 8 32 9 22 10 5 11 1 12
REMARK SMILES IDX 33 13 23 14 20 15 6 16 7 17 19 18 21 19 8 20 18 21 17 22
REMARK SMILES IDX 10 23 9 24 14 25 11 26 12 27 15 28 16 29 27 30 28 31 29 32
REMARK SMILES IDX 13 33
REMARK H PARENT 13 34
REMARK Flexibility Score: inf
ROOT
ATOM      1  C   UNL     1      15.630   7.540  27.705  1.00  0.00     0.017 C 
ATOM      2  C   UNL     1      16.347   6.740  28.828  1.00  0.00     0.014 C 
ATOM      3  C   UNL     1      16.675   8.066  26.713  1.00  0.00     0.014 C 
ATOM      4  C   UNL     1      14.694   6.541  26.943  1.00  0.00     0.030 C 
ATOM      5  C   UNL     1      15.342   6.156  29.836  1.00  0.00     0.004 C 
ATOM      6  C   UNL     1      16.030   8.961  25.645  1.00  0.00     0.013 C 
ATOM      7  C   UNL     1      14.261   7.030  25.533  1.00  0.00    -0.063 C 
ATOM      8  C   UNL     1      13.598   5.996  27.949  1.00  0.00    -0.003 C 
ATOM      9  C   UNL     1      14.269   5.271  29.165  1.00  0.00    -0.011 C 
ATOM     10  C   UNL     1      14.824   8.316  24.850  1.00  0.00    -0.006 C 
ATOM     11  C   UNL     1      13.650   6.127  24.725  1.00  0.00    -0.027 C 
ATOM     12  C   UNL     1      12.470   5.130  27.362  1.00  0.00     0.008 C 
ATOM     13  C   UNL     1      14.843   3.877  28.835  1.00  0.00     0.008 C 
ATOM     14  C   UNL     1      13.649   9.349  24.825  1.00  0.00     0.017 C 
ATOM     15  C   UNL     1      15.294   7.953  23.347  1.00  0.00    -0.020 C 
ATOM     16  C   UNL     1      13.177   6.409  23.326  1.00  0.00     0.032 C 
ATOM     17  C   UNL     1      14.041   7.435  22.538  1.00  0.00     0.006 C 
ATOM     18  C   UNL     1      15.909   9.196  22.599  1.00  0.00     0.008 C 
ATOM     19  C   UNL     1      16.420   6.872  23.403  1.00  0.00     0.012 C 
ATOM     20  C   UNL     1      14.289   7.061  21.011  1.00  0.00    -0.025 C 
ATOM     21  C   UNL     1      15.418   9.415  21.163  1.00  0.00     0.005 C 
ATOM     22  C   UNL     1      15.311   8.095  20.342  1.00  0.00     0.003 C 
ATOM     23  C   UNL     1      12.898   7.091  20.269  1.00  0.00     0.010 C 
ATOM     24  C   UNL     1      14.843   5.594  20.890  1.00  0.00     0.012 C 
ATOM     25  C   UNL     1      15.016   8.378  18.806  1.00  0.00    -0.006 C 
ATOM     26  C   UNL     1      12.544   8.451  19.678  1.00  0.00     0.033 C 
ATOM     27  C   UNL     1      13.547   8.914  18.602  1.00  0.00     0.120 C 
ATOM     28  C   UNL     1      16.007   9.430  18.230  1.00  0.00     0.014 C 
ATOM     29  C   UNL     1      15.280   7.089  17.971  1.00  0.00     0.014 C 
ENDROOT
BRANCH   1  30
ATOM     30  C   UNL     1      14.924   8.740  28.349  1.00  0.00     0.048 C 
ATOM     31  O   UNL     1      15.586   9.556  29.042  1.00  0.00    -0.550 OA
ATOM     32  O   UNL     1      13.576   8.994  28.145  1.00  0.00    -0.550 OA
ENDBRANCH   1  30
BRANCH  27  33
ATOM     33  O   UNL     1      13.048   8.568  17.333  1.00  0.00    -0.393 OA
ATOM     34  H   UNL     1      13.611   9.037  16.663  1.00  0.00     0.210 HD
ENDBRANCH  27  33
TORSDOF 2
ENDMDL
MODEL 9
REMARK VINA RESULT:    -7.592      2.781      5.155
REMARK INTER + INTRA:          -8.185
REMARK INTER:                  -8.252
REMARK INTRA:                   0.066
REMARK UNBOUND:                 0.073
REMARK SMILES C[C@@H]1[C@H]2C3=CC[C@@H]4[C@@]5(C)CC[C@H](O)C(C)(C)[C@H]5CC[C@@]4(C)[C@]3(C)CC[C@]2(C(=O)[O-])CC[C@@H]1C
REMARK SMILES IDX 26 1 30 2 25 3 3 4 31 5 24 6 4 7 2 8 32 9 22 10 5 11 1 12
REMARK SMILES IDX 33 13 23 14 20 15 6 16 7 17 19 18 21 19 8 20 18 21 17 22
REMARK SMILES IDX 10 23 9 24 14 25 11 26 12 27 15 28 16 29 27 30 28 31 29 32
REMARK SMILES IDX 13 33
REMARK H PARENT 13 34
REMARK Flexibility Score: inf
ROOT
ATOM      1  C   UNL     1      14.353   7.744  20.358  1.00  0.00     0.017 C 
ATOM      2  C   UNL     1      14.833   7.274  18.957  1.00  0.00     0.014 C 
ATOM      3  C   UNL     1      13.833   6.536  21.146  1.00  0.00     0.014 C 
ATOM      4  C   UNL     1      15.601   8.317  21.113  1.00  0.00     0.030 C 
ATOM      5  C   UNL     1      15.401   8.443  18.132  1.00  0.00     0.004 C 
ATOM      6  C   UNL     1      13.241   6.962  22.495  1.00  0.00     0.013 C 
ATOM      7  C   UNL     1      15.425   8.403  22.654  1.00  0.00    -0.063 C 
ATOM      8  C   UNL     1      16.146   9.577  20.320  1.00  0.00    -0.003 C 
ATOM      9  C   UNL     1      16.545   9.185  18.857  1.00  0.00    -0.011 C 
ATOM     10  C   UNL     1      14.193   7.824  23.419  1.00  0.00    -0.006 C 
ATOM     11  C   UNL     1      16.534   8.663  23.391  1.00  0.00    -0.027 C 
ATOM     12  C   UNL     1      17.267  10.396  20.982  1.00  0.00     0.008 C 
ATOM     13  C   UNL     1      17.863   8.388  18.750  1.00  0.00     0.008 C 
ATOM     14  C   UNL     1      13.381   9.058  23.938  1.00  0.00     0.017 C 
ATOM     15  C   UNL     1      14.713   6.924  24.656  1.00  0.00    -0.020 C 
ATOM     16  C   UNL     1      16.563   8.766  24.890  1.00  0.00     0.032 C 
ATOM     17  C   UNL     1      15.552   7.842  25.629  1.00  0.00     0.006 C 
ATOM     18  C   UNL     1      13.526   6.275  25.461  1.00  0.00     0.008 C 
ATOM     19  C   UNL     1      15.575   5.741  24.109  1.00  0.00     0.012 C 
ATOM     20  C   UNL     1      16.125   7.147  26.941  1.00  0.00    -0.025 C 
ATOM     21  C   UNL     1      13.626   6.377  26.988  1.00  0.00     0.005 C 
ATOM     22  C   UNL     1      15.062   6.105  27.530  1.00  0.00     0.003 C 
ATOM     23  C   UNL     1      16.441   8.277  27.994  1.00  0.00     0.010 C 
ATOM     24  C   UNL     1      17.482   6.419  26.627  1.00  0.00     0.012 C 
ATOM     25  C   UNL     1      15.083   6.001  29.116  1.00  0.00    -0.006 C 
ATOM     26  C   UNL     1      15.271   8.609  28.914  1.00  0.00     0.033 C 
ATOM     27  C   UNL     1      14.833   7.409  29.779  1.00  0.00     0.120 C 
ATOM     28  C   UNL     1      13.992   5.016  29.627  1.00  0.00     0.014 C 
ATOM     29  C   UNL     1      16.430   5.375  29.586  1.00  0.00     0.014 C 
ENDROOT
BRANCH   1  30
ATOM     30  C   UNL     1      13.195   8.731  20.160  1.00  0.00     0.048 C 
ATOM     31  O   UNL     1      12.185   8.382  19.494  1.00  0.00    -0.550 OA
ATOM     32  O   UNL     1      13.194   9.988  20.746  1.00  0.00    -0.550 OA
ENDBRANCH   1  30
BRANCH  27  33
ATOM     33  O   UNL     1      15.456   7.501  31.036  1.00  0.00    -0.393 OA
ATOM     34  H   UNL     1      16.379   7.151  30.927  1.00  0.00     0.210 HD
ENDBRANCH  27  33
TORSDOF 2
ENDMDL
