MODEL 1
REMARK VINA RESULT:    23.686      0.000      0.000
REMARK INTER + INTRA:          63.362
REMARK INTER:                  62.457
REMARK INTRA:                   0.904
REMARK UNBOUND:                 0.904
REMARK SMILES CCCCCCCCCCCCCCCCCCCCCCCCCCCCCC(=O)[O-]
REMARK SMILES IDX 16 1 17 2 18 3 19 4 20 5 21 6 22 7 23 8 24 9 25 10 26 11
REMARK SMILES IDX 27 12 28 13 29 14 30 15 31 16 32 17 15 18 14 19 13 20 12 21
REMARK SMILES IDX 11 22 10 23 9 24 8 25 7 26 6 27 5 28 4 29 3 30 2 31 1 32
REMARK H PARENT
REMARK Flexibility Score: inf
ROOT
ATOM      1  C   UNL     1      -7.538 -17.091  27.024  1.00  0.00     0.000 C 
ENDROOT
BRANCH   1   2
ATOM      2  C   UNL     1      -8.643 -18.164  27.020  1.00  0.00     0.000 C 
BRANCH   2   3
ATOM      3  C   UNL     1      -9.615 -18.072  28.217  1.00  0.00     0.000 C 
BRANCH   3   4
ATOM      4  C   UNL     1     -10.349 -16.722  28.277  1.00  0.00     0.000 C 
BRANCH   4   5
ATOM      5  C   UNL     1      -9.717 -15.660  27.364  1.00  0.00     0.000 C 
BRANCH   5   6
ATOM      6  C   UNL     1     -10.735 -15.026  26.403  1.00  0.00     0.000 C 
BRANCH   6   7
ATOM      7  C   UNL     1     -10.647 -13.492  26.436  1.00  0.00     0.000 C 
BRANCH   7   8
ATOM      8  C   UNL     1     -11.589 -12.877  27.491  1.00  0.00     0.000 C 
BRANCH   8   9
ATOM      9  C   UNL     1     -11.219 -11.433  27.888  1.00  0.00     0.000 C 
BRANCH   9  10
ATOM     10  C   UNL     1     -10.310 -10.694  26.891  1.00  0.00     0.000 C 
BRANCH  10  11
ATOM     11  C   UNL     1     -10.026  -9.240  27.308  1.00  0.00     0.000 C 
BRANCH  11  12
ATOM     12  C   UNL     1      -8.663  -9.075  27.999  1.00  0.00     0.000 C 
BRANCH  12  13
ATOM     13  C   UNL     1      -7.480  -9.272  27.040  1.00  0.00     0.006 C 
BRANCH  13  14
ATOM     14  C   UNL     1      -6.275  -9.873  27.770  1.00  0.00     0.053 C 
BRANCH  14  15
ATOM     15  C   UNL     1      -5.501 -10.783  26.869  1.00  0.00     0.041 C 
ATOM     16  O   UNL     1      -4.730 -11.651  27.357  1.00  0.00    -0.550 OA
ATOM     17  O   UNL     1      -5.624 -10.668  25.489  1.00  0.00    -0.550 OA
ENDBRANCH  14  15
ENDBRANCH  13  14
ENDBRANCH  12  13
ENDBRANCH  11  12
ENDBRANCH  10  11
ENDBRANCH   9  10
ENDBRANCH   8   9
ENDBRANCH   7   8
ENDBRANCH   6   7
ENDBRANCH   5   6
ENDBRANCH   4   5
ENDBRANCH   3   4
ENDBRANCH   2   3
ENDBRANCH   1   2
BRANCH   1  18
ATOM     18  C   UNL     1      -6.167 -17.564  27.540  1.00  0.00     0.000 C 
BRANCH  18  19
ATOM     19  C   UNL     1      -5.241 -18.178  26.469  1.00  0.00     0.000 C 
BRANCH  19  20
ATOM     20  C   UNL     1      -5.959 -18.990  25.371  1.00  0.00     0.000 C 
BRANCH  20  21
ATOM     21  C   UNL     1      -5.465 -18.723  23.938  1.00  0.00     0.000 C 
BRANCH  21  22
ATOM     22  C   UNL     1      -4.198 -19.523  23.584  1.00  0.00     0.000 C 
BRANCH  22  23
ATOM     23  C   UNL     1      -4.399 -20.425  22.357  1.00  0.00     0.000 C 
BRANCH  23  24
ATOM     24  C   UNL     1      -3.297 -21.489  22.225  1.00  0.00    -0.000 C 
BRANCH  24  25
ATOM     25  C   UNL     1      -2.039 -21.072  22.999  1.00  0.00    -0.000 C 
BRANCH  25  26
ATOM     26  C   UNL     1      -1.548 -19.665  22.620  1.00  0.00    -0.000 C 
BRANCH  26  27
ATOM     27  C   UNL     1      -0.375 -19.193  23.493  1.00  0.00    -0.000 C 
BRANCH  27  28
ATOM     28  C   UNL     1       0.029 -17.756  23.142  1.00  0.00    -0.000 C 
BRANCH  28  29
ATOM     29  C   UNL     1      -0.459 -16.771  24.214  1.00  0.00    -0.000 C 
BRANCH  29  30
ATOM     30  C   UNL     1      -0.701 -17.442  25.579  1.00  0.00    -0.000 C 
BRANCH  30  31
ATOM     31  C   UNL     1      -2.161 -17.845  25.853  1.00  0.00    -0.003 C 
ATOM     32  C   UNL     1      -2.597 -17.576  27.293  1.00  0.00     0.004 C 
ENDBRANCH  30  31
ENDBRANCH  29  30
ENDBRANCH  28  29
ENDBRANCH  27  28
ENDBRANCH  26  27
ENDBRANCH  25  26
ENDBRANCH  24  25
ENDBRANCH  23  24
ENDBRANCH  22  23
ENDBRANCH  21  22
ENDBRANCH  20  21
ENDBRANCH  19  20
ENDBRANCH  18  19
ENDBRANCH   1  18
TORSDOF 28
ENDMDL
MODEL 2
REMARK VINA RESULT:    23.820      0.792      1.408
REMARK INTER + INTRA:          63.715
REMARK INTER:                  65.445
REMARK INTRA:                  -1.731
REMARK UNBOUND:                 0.904
REMARK SMILES CCCCCCCCCCCCCCCCCCCCCCCCCCCCCC(=O)[O-]
REMARK SMILES IDX 16 1 17 2 18 3 19 4 20 5 21 6 22 7 23 8 24 9 25 10 26 11
REMARK SMILES IDX 27 12 28 13 29 14 30 15 31 16 32 17 15 18 14 19 13 20 12 21
REMARK SMILES IDX 11 22 10 23 9 24 8 25 7 26 6 27 5 28 4 29 3 30 2 31 1 32
REMARK H PARENT
REMARK Flexibility Score: inf
ROOT
ATOM      1  C   UNL     1      -8.181 -17.852  28.335  1.00  0.00     0.000 C 
ENDROOT
BRANCH   1   2
ATOM      2  C   UNL     1      -9.678 -17.800  27.982  1.00  0.00     0.000 C 
BRANCH   2   3
ATOM      3  C   UNL     1     -10.028 -16.797  26.861  1.00  0.00     0.000 C 
BRANCH   3   4
ATOM      4  C   UNL     1      -9.932 -15.334  27.329  1.00  0.00     0.000 C 
BRANCH   4   5
ATOM      5  C   UNL     1     -10.156 -14.329  26.189  1.00  0.00     0.000 C 
BRANCH   5   6
ATOM      6  C   UNL     1     -11.382 -13.433  26.425  1.00  0.00     0.000 C 
BRANCH   6   7
ATOM      7  C   UNL     1     -11.366 -12.833  27.839  1.00  0.00     0.000 C 
BRANCH   7   8
ATOM      8  C   UNL     1     -11.380 -11.291  27.819  1.00  0.00     0.000 C 
BRANCH   8   9
ATOM      9  C   UNL     1     -10.180 -10.668  27.078  1.00  0.00     0.000 C 
BRANCH   9  10
ATOM     10  C   UNL     1     -10.038  -9.144  27.229  1.00  0.00     0.000 C 
BRANCH  10  11
ATOM     11  C   UNL     1      -8.723  -8.733  27.916  1.00  0.00     0.000 C 
BRANCH  11  12
ATOM     12  C   UNL     1      -7.484  -9.337  27.237  1.00  0.00     0.000 C 
BRANCH  12  13
ATOM     13  C   UNL     1      -6.374  -9.701  28.235  1.00  0.00     0.006 C 
BRANCH  13  14
ATOM     14  C   UNL     1      -5.092 -10.115  27.504  1.00  0.00     0.053 C 
BRANCH  14  15
ATOM     15  C   UNL     1      -5.397 -11.045  26.372  1.00  0.00     0.041 C 
ATOM     16  O   UNL     1      -5.345 -10.632  25.183  1.00  0.00    -0.550 OA
ATOM     17  O   UNL     1      -5.745 -12.366  26.628  1.00  0.00    -0.550 OA
ENDBRANCH  14  15
ENDBRANCH  13  14
ENDBRANCH  12  13
ENDBRANCH  11  12
ENDBRANCH  10  11
ENDBRANCH   9  10
ENDBRANCH   8   9
ENDBRANCH   7   8
ENDBRANCH   6   7
ENDBRANCH   5   6
ENDBRANCH   4   5
ENDBRANCH   3   4
ENDBRANCH   2   3
ENDBRANCH   1   2
BRANCH   1  18
ATOM     18  C   UNL     1      -7.250 -17.115  27.355  1.00  0.00     0.000 C 
BRANCH  18  19
ATOM     19  C   UNL     1      -7.176 -17.723  25.939  1.00  0.00     0.000 C 
BRANCH  19  20
ATOM     20  C   UNL     1      -5.923 -18.577  25.657  1.00  0.00     0.000 C 
BRANCH  20  21
ATOM     21  C   UNL     1      -5.431 -18.548  24.199  1.00  0.00     0.000 C 
BRANCH  21  22
ATOM     22  C   UNL     1      -4.265 -19.521  23.943  1.00  0.00     0.000 C 
BRANCH  22  23
ATOM     23  C   UNL     1      -4.445 -20.320  22.644  1.00  0.00     0.000 C 
BRANCH  23  24
ATOM     24  C   UNL     1      -3.176 -21.095  22.252  1.00  0.00    -0.000 C 
BRANCH  24  25
ATOM     25  C   UNL     1      -1.917 -20.266  22.544  1.00  0.00    -0.000 C 
BRANCH  25  26
ATOM     26  C   UNL     1      -1.437 -19.467  21.321  1.00  0.00    -0.000 C 
BRANCH  26  27
ATOM     27  C   UNL     1      -0.464 -18.339  21.698  1.00  0.00    -0.000 C 
BRANCH  27  28
ATOM     28  C   UNL     1      -0.168 -18.348  23.203  1.00  0.00    -0.000 C 
BRANCH  28  29
ATOM     29  C   UNL     1      -0.067 -16.917  23.750  1.00  0.00    -0.000 C 
BRANCH  29  30
ATOM     30  C   UNL     1      -0.890 -16.706  25.035  1.00  0.00    -0.000 C 
BRANCH  30  31
ATOM     31  C   UNL     1      -1.388 -17.999  25.704  1.00  0.00    -0.003 C 
ATOM     32  C   UNL     1      -2.605 -17.780  26.602  1.00  0.00     0.004 C 
ENDBRANCH  30  31
ENDBRANCH  29  30
ENDBRANCH  28  29
ENDBRANCH  27  28
ENDBRANCH  26  27
ENDBRANCH  25  26
ENDBRANCH  24  25
ENDBRANCH  23  24
ENDBRANCH  22  23
ENDBRANCH  21  22
ENDBRANCH  20  21
ENDBRANCH  19  20
ENDBRANCH  18  19
ENDBRANCH   1  18
TORSDOF 28
ENDMDL
MODEL 3
REMARK VINA RESULT:    24.058      0.918      1.957
REMARK INTER + INTRA:          64.342
REMARK INTER:                  65.384
REMARK INTRA:                  -1.042
REMARK UNBOUND:                 0.904
REMARK SMILES CCCCCCCCCCCCCCCCCCCCCCCCCCCCCC(=O)[O-]
REMARK SMILES IDX 16 1 17 2 18 3 19 4 20 5 21 6 22 7 23 8 24 9 25 10 26 11
REMARK SMILES IDX 27 12 28 13 29 14 30 15 31 16 32 17 15 18 14 19 13 20 12 21
REMARK SMILES IDX 11 22 10 23 9 24 8 25 7 26 6 27 5 28 4 29 3 30 2 31 1 32
REMARK H PARENT
REMARK Flexibility Score: inf
ROOT
ATOM      1  C   UNL     1      -9.119 -18.708  27.244  1.00  0.00     0.000 C 
ENDROOT
BRANCH   1   2
ATOM      2  C   UNL     1      -9.443 -17.865  28.490  1.00  0.00     0.000 C 
BRANCH   2   3
ATOM      3  C   UNL     1     -10.326 -16.631  28.204  1.00  0.00     0.000 C 
BRANCH   3   4
ATOM      4  C   UNL     1      -9.897 -15.882  26.930  1.00  0.00     0.000 C 
BRANCH   4   5
ATOM      5  C   UNL     1     -10.045 -14.358  27.058  1.00  0.00     0.000 C 
BRANCH   5   6
ATOM      6  C   UNL     1     -11.234 -13.812  26.251  1.00  0.00     0.000 C 
BRANCH   6   7
ATOM      7  C   UNL     1     -11.939 -12.674  27.004  1.00  0.00     0.000 C 
BRANCH   7   8
ATOM      8  C   UNL     1     -10.946 -11.786  27.782  1.00  0.00     0.000 C 
BRANCH   8   9
ATOM      9  C   UNL     1      -9.978 -10.996  26.877  1.00  0.00     0.000 C 
BRANCH   9  10
ATOM     10  C   UNL     1     -10.006  -9.470  27.066  1.00  0.00     0.000 C 
BRANCH  10  11
ATOM     11  C   UNL     1      -8.933  -8.971  28.049  1.00  0.00     0.000 C 
BRANCH  11  12
ATOM     12  C   UNL     1      -7.508  -9.090  27.485  1.00  0.00     0.000 C 
BRANCH  12  13
ATOM     13  C   UNL     1      -6.557  -9.852  28.419  1.00  0.00     0.006 C 
BRANCH  13  14
ATOM     14  C   UNL     1      -5.242 -10.189  27.709  1.00  0.00     0.053 C 
BRANCH  14  15
ATOM     15  C   UNL     1      -5.496 -10.915  26.426  1.00  0.00     0.041 C 
ATOM     16  O   UNL     1      -5.887 -12.112  26.443  1.00  0.00    -0.550 OA
ATOM     17  O   UNL     1      -5.296 -10.273  25.209  1.00  0.00    -0.550 OA
ENDBRANCH  14  15
ENDBRANCH  13  14
ENDBRANCH  12  13
ENDBRANCH  11  12
ENDBRANCH  10  11
ENDBRANCH   9  10
ENDBRANCH   8   9
ENDBRANCH   7   8
ENDBRANCH   6   7
ENDBRANCH   5   6
ENDBRANCH   4   5
ENDBRANCH   3   4
ENDBRANCH   2   3
ENDBRANCH   1   2
BRANCH   1  18
ATOM     18  C   UNL     1      -8.144 -18.056  26.246  1.00  0.00     0.000 C 
BRANCH  18  19
ATOM     19  C   UNL     1      -7.043 -17.183  26.883  1.00  0.00     0.000 C 
BRANCH  19  20
ATOM     20  C   UNL     1      -5.757 -17.937  27.283  1.00  0.00     0.000 C 
BRANCH  20  21
ATOM     21  C   UNL     1      -4.747 -18.149  26.141  1.00  0.00     0.000 C 
BRANCH  21  22
ATOM     22  C   UNL     1      -5.282 -19.080  25.037  1.00  0.00     0.000 C 
BRANCH  22  23
ATOM     23  C   UNL     1      -4.569 -18.862  23.693  1.00  0.00     0.000 C 
BRANCH  23  24
ATOM     24  C   UNL     1      -4.571 -20.125  22.817  1.00  0.00    -0.000 C 
BRANCH  24  25
ATOM     25  C   UNL     1      -3.170 -20.404  22.257  1.00  0.00    -0.000 C 
BRANCH  25  26
ATOM     26  C   UNL     1      -2.539 -21.679  22.842  1.00  0.00    -0.000 C 
BRANCH  26  27
ATOM     27  C   UNL     1      -1.158 -21.422  23.465  1.00  0.00    -0.000 C 
BRANCH  27  28
ATOM     28  C   UNL     1      -0.938 -19.925  23.716  1.00  0.00    -0.000 C 
BRANCH  28  29
ATOM     29  C   UNL     1      -0.469 -19.674  25.156  1.00  0.00    -0.000 C 
BRANCH  29  30
ATOM     30  C   UNL     1      -0.584 -18.197  25.576  1.00  0.00    -0.000 C 
BRANCH  30  31
ATOM     31  C   UNL     1      -0.990 -17.232  24.447  1.00  0.00    -0.003 C 
ATOM     32  C   UNL     1       0.207 -16.582  23.754  1.00  0.00     0.004 C 
ENDBRANCH  30  31
ENDBRANCH  29  30
ENDBRANCH  28  29
ENDBRANCH  27  28
ENDBRANCH  26  27
ENDBRANCH  25  26
ENDBRANCH  24  25
ENDBRANCH  23  24
ENDBRANCH  22  23
ENDBRANCH  21  22
ENDBRANCH  20  21
ENDBRANCH  19  20
ENDBRANCH  18  19
ENDBRANCH   1  18
TORSDOF 28
ENDMDL
MODEL 4
REMARK VINA RESULT:    24.180      0.932      2.976
REMARK INTER + INTRA:          64.663
REMARK INTER:                  65.499
REMARK INTRA:                  -0.836
REMARK UNBOUND:                 0.904
REMARK SMILES CCCCCCCCCCCCCCCCCCCCCCCCCCCCCC(=O)[O-]
REMARK SMILES IDX 16 1 17 2 18 3 19 4 20 5 21 6 22 7 23 8 24 9 25 10 26 11
REMARK SMILES IDX 27 12 28 13 29 14 30 15 31 16 32 17 15 18 14 19 13 20 12 21
REMARK SMILES IDX 11 22 10 23 9 24 8 25 7 26 6 27 5 28 4 29 3 30 2 31 1 32
REMARK H PARENT
REMARK Flexibility Score: inf
ROOT
ATOM      1  C   UNL     1      -8.223 -19.065  26.504  1.00  0.00     0.000 C 
ENDROOT
BRANCH   1   2
ATOM      2  C   UNL     1      -9.179 -18.713  27.659  1.00  0.00     0.000 C 
BRANCH   2   3
ATOM      3  C   UNL     1      -8.933 -17.321  28.280  1.00  0.00     0.000 C 
BRANCH   3   4
ATOM      4  C   UNL     1     -10.091 -16.344  28.013  1.00  0.00     0.000 C 
BRANCH   4   5
ATOM      5  C   UNL     1      -9.767 -15.326  26.909  1.00  0.00     0.000 C 
BRANCH   5   6
ATOM      6  C   UNL     1     -10.999 -14.521  26.469  1.00  0.00     0.000 C 
BRANCH   6   7
ATOM      7  C   UNL     1     -10.695 -13.016  26.432  1.00  0.00     0.000 C 
BRANCH   7   8
ATOM      8  C   UNL     1     -11.446 -12.241  27.534  1.00  0.00     0.000 C 
BRANCH   8   9
ATOM      9  C   UNL     1     -10.697 -10.990  28.036  1.00  0.00     0.000 C 
BRANCH   9  10
ATOM     10  C   UNL     1     -10.256 -10.008  26.938  1.00  0.00     0.000 C 
BRANCH  10  11
ATOM     11  C   UNL     1      -9.102  -9.093  27.385  1.00  0.00     0.000 C 
BRANCH  11  12
ATOM     12  C   UNL     1      -7.725  -9.618  26.951  1.00  0.00     0.000 C 
BRANCH  12  13
ATOM     13  C   UNL     1      -6.706  -9.644  28.100  1.00  0.00     0.006 C 
BRANCH  13  14
ATOM     14  C   UNL     1      -5.315 -10.036  27.592  1.00  0.00     0.053 C 
BRANCH  14  15
ATOM     15  C   UNL     1      -5.413 -10.947  26.409  1.00  0.00     0.041 C 
ATOM     16  O   UNL     1      -5.495 -12.193  26.575  1.00  0.00    -0.550 OA
ATOM     17  O   UNL     1      -5.406 -10.421  25.122  1.00  0.00    -0.550 OA
ENDBRANCH  14  15
ENDBRANCH  13  14
ENDBRANCH  12  13
ENDBRANCH  11  12
ENDBRANCH  10  11
ENDBRANCH   9  10
ENDBRANCH   8   9
ENDBRANCH   7   8
ENDBRANCH   6   7
ENDBRANCH   5   6
ENDBRANCH   4   5
ENDBRANCH   3   4
ENDBRANCH   2   3
ENDBRANCH   1   2
BRANCH   1  18
ATOM     18  C   UNL     1      -7.332 -17.908  26.016  1.00  0.00     0.000 C 
BRANCH  18  19
ATOM     19  C   UNL     1      -5.829 -18.241  25.907  1.00  0.00     0.000 C 
BRANCH  19  20
ATOM     20  C   UNL     1      -4.948 -17.672  27.038  1.00  0.00     0.000 C 
BRANCH  20  21
ATOM     21  C   UNL     1      -3.488 -18.158  27.032  1.00  0.00     0.000 C 
BRANCH  21  22
ATOM     22  C   UNL     1      -2.560 -17.249  26.203  1.00  0.00     0.000 C 
BRANCH  22  23
ATOM     23  C   UNL     1      -1.294 -17.981  25.732  1.00  0.00     0.000 C 
BRANCH  23  24
ATOM     24  C   UNL     1      -0.309 -17.044  25.015  1.00  0.00    -0.000 C 
BRANCH  24  25
ATOM     25  C   UNL     1      -0.003 -17.552  23.599  1.00  0.00    -0.000 C 
BRANCH  25  26
ATOM     26  C   UNL     1      -0.998 -18.625  23.125  1.00  0.00    -0.000 C 
BRANCH  26  27
ATOM     27  C   UNL     1      -0.816 -19.963  23.858  1.00  0.00    -0.000 C 
BRANCH  27  28
ATOM     28  C   UNL     1      -1.650 -21.069  23.199  1.00  0.00    -0.000 C 
BRANCH  28  29
ATOM     29  C   UNL     1      -2.594 -20.484  22.138  1.00  0.00    -0.000 C 
BRANCH  29  30
ATOM     30  C   UNL     1      -4.081 -20.691  22.480  1.00  0.00    -0.000 C 
BRANCH  30  31
ATOM     31  C   UNL     1      -4.534 -22.161  22.541  1.00  0.00    -0.003 C 
ATOM     32  C   UNL     1      -4.439 -22.761  23.944  1.00  0.00     0.004 C 
ENDBRANCH  30  31
ENDBRANCH  29  30
ENDBRANCH  28  29
ENDBRANCH  27  28
ENDBRANCH  26  27
ENDBRANCH  25  26
ENDBRANCH  24  25
ENDBRANCH  23  24
ENDBRANCH  22  23
ENDBRANCH  21  22
ENDBRANCH  20  21
ENDBRANCH  19  20
ENDBRANCH  18  19
ENDBRANCH   1  18
TORSDOF 28
ENDMDL
MODEL 5
REMARK VINA RESULT:    24.201      3.069     10.542
REMARK INTER + INTRA:          64.721
REMARK INTER:                  66.083
REMARK INTRA:                  -1.362
REMARK UNBOUND:                 0.904
REMARK SMILES CCCCCCCCCCCCCCCCCCCCCCCCCCCCCC(=O)[O-]
REMARK SMILES IDX 16 1 17 2 18 3 19 4 20 5 21 6 22 7 23 8 24 9 25 10 26 11
REMARK SMILES IDX 27 12 28 13 29 14 30 15 31 16 32 17 15 18 14 19 13 20 12 21
REMARK SMILES IDX 11 22 10 23 9 24 8 25 7 26 6 27 5 28 4 29 3 30 2 31 1 32
REMARK H PARENT
REMARK Flexibility Score: inf
ROOT
ATOM      1  C   UNL     1      -7.449 -17.158  27.502  1.00  0.00     0.000 C 
ENDROOT
BRANCH   1   2
ATOM      2  C   UNL     1      -7.169 -17.910  26.187  1.00  0.00     0.000 C 
BRANCH   2   3
ATOM      3  C   UNL     1      -5.677 -18.224  25.946  1.00  0.00     0.000 C 
BRANCH   3   4
ATOM      4  C   UNL     1      -4.862 -18.248  27.250  1.00  0.00     0.000 C 
BRANCH   4   5
ATOM      5  C   UNL     1      -3.547 -17.460  27.145  1.00  0.00     0.000 C 
BRANCH   5   6
ATOM      6  C   UNL     1      -2.632 -17.986  26.027  1.00  0.00     0.000 C 
BRANCH   6   7
ATOM      7  C   UNL     1      -1.289 -17.242  26.013  1.00  0.00     0.000 C 
BRANCH   7   8
ATOM      8  C   UNL     1      -0.973 -16.634  24.631  1.00  0.00     0.000 C 
BRANCH   8   9
ATOM      9  C   UNL     1       0.128 -17.388  23.857  1.00  0.00     0.000 C 
BRANCH   9  10
ATOM     10  C   UNL     1      -0.346 -18.638  23.098  1.00  0.00     0.000 C 
BRANCH  10  11
ATOM     11  C   UNL     1      -0.609 -19.836  24.027  1.00  0.00     0.000 C 
BRANCH  11  12
ATOM     12  C   UNL     1      -1.420 -20.950  23.346  1.00  0.00     0.000 C 
BRANCH  12  13
ATOM     13  C   UNL     1      -2.331 -20.426  22.226  1.00  0.00     0.006 C 
BRANCH  13  14
ATOM     14  C   UNL     1      -3.791 -20.363  22.688  1.00  0.00     0.053 C 
BRANCH  14  15
ATOM     15  C   UNL     1      -4.449 -21.701  22.567  1.00  0.00     0.041 C 
ATOM     16  O   UNL     1      -5.122 -21.984  21.540  1.00  0.00    -0.550 OA
ATOM     17  O   UNL     1      -4.327 -22.635  23.589  1.00  0.00    -0.550 OA
ENDBRANCH  14  15
ENDBRANCH  13  14
ENDBRANCH  12  13
ENDBRANCH  11  12
ENDBRANCH  10  11
ENDBRANCH   9  10
ENDBRANCH   8   9
ENDBRANCH   7   8
ENDBRANCH   6   7
ENDBRANCH   5   6
ENDBRANCH   4   5
ENDBRANCH   3   4
ENDBRANCH   2   3
ENDBRANCH   1   2
BRANCH   1  18
ATOM     18  C   UNL     1      -8.748 -17.562  28.224  1.00  0.00     0.000 C 
BRANCH  18  19
ATOM     19  C   UNL     1      -9.984 -16.708  27.874  1.00  0.00     0.000 C 
BRANCH  19  20
ATOM     20  C   UNL     1      -9.725 -15.556  26.880  1.00  0.00     0.000 C 
BRANCH  20  21
ATOM     21  C   UNL     1     -10.987 -14.823  26.393  1.00  0.00     0.000 C 
BRANCH  21  22
ATOM     22  C   UNL     1     -10.822 -13.292  26.385  1.00  0.00     0.000 C 
BRANCH  22  23
ATOM     23  C   UNL     1     -11.544 -12.620  27.563  1.00  0.00     0.000 C 
BRANCH  23  24
ATOM     24  C   UNL     1     -10.957 -11.240  27.900  1.00  0.00    -0.000 C 
BRANCH  24  25
ATOM     25  C   UNL     1      -9.946 -10.801  26.831  1.00  0.00    -0.000 C 
BRANCH  25  26
ATOM     26  C   UNL     1      -9.833  -9.272  26.714  1.00  0.00    -0.000 C 
BRANCH  26  27
ATOM     27  C   UNL     1      -9.541  -8.596  28.062  1.00  0.00    -0.000 C 
BRANCH  27  28
ATOM     28  C   UNL     1      -8.076  -8.797  28.472  1.00  0.00    -0.000 C 
BRANCH  28  29
ATOM     29  C   UNL     1      -7.298  -9.540  27.376  1.00  0.00    -0.000 C 
BRANCH  29  30
ATOM     30  C   UNL     1      -6.005 -10.194  27.898  1.00  0.00    -0.000 C 
BRANCH  30  31
ATOM     31  C   UNL     1      -4.912 -10.407  26.835  1.00  0.00    -0.003 C 
ATOM     32  C   UNL     1      -5.419 -11.139  25.592  1.00  0.00     0.004 C 
ENDBRANCH  30  31
ENDBRANCH  29  30
ENDBRANCH  28  29
ENDBRANCH  27  28
ENDBRANCH  26  27
ENDBRANCH  25  26
ENDBRANCH  24  25
ENDBRANCH  23  24
ENDBRANCH  22  23
ENDBRANCH  21  22
ENDBRANCH  20  21
ENDBRANCH  19  20
ENDBRANCH  18  19
ENDBRANCH   1  18
TORSDOF 28
ENDMDL
MODEL 6
REMARK VINA RESULT:    24.381      1.074      3.287
REMARK INTER + INTRA:          65.194
REMARK INTER:                  66.030
REMARK INTRA:                  -0.837
REMARK UNBOUND:                 0.904
REMARK SMILES CCCCCCCCCCCCCCCCCCCCCCCCCCCCCC(=O)[O-]
REMARK SMILES IDX 16 1 17 2 18 3 19 4 20 5 21 6 22 7 23 8 24 9 25 10 26 11
REMARK SMILES IDX 27 12 28 13 29 14 30 15 31 16 32 17 15 18 14 19 13 20 12 21
REMARK SMILES IDX 11 22 10 23 9 24 8 25 7 26 6 27 5 28 4 29 3 30 2 31 1 32
REMARK H PARENT
REMARK Flexibility Score: inf
ROOT
ATOM      1  C   UNL     1      -6.967 -18.046  25.958  1.00  0.00     0.000 C 
ENDROOT
BRANCH   1   2
ATOM      2  C   UNL     1      -7.448 -16.934  26.908  1.00  0.00     0.000 C 
BRANCH   2   3
ATOM      3  C   UNL     1      -8.059 -17.453  28.228  1.00  0.00     0.000 C 
BRANCH   3   4
ATOM      4  C   UNL     1      -9.566 -17.160  28.334  1.00  0.00     0.000 C 
BRANCH   4   5
ATOM      5  C   UNL     1     -10.227 -16.939  26.965  1.00  0.00     0.000 C 
BRANCH   5   6
ATOM      6  C   UNL     1      -9.937 -15.544  26.389  1.00  0.00     0.000 C 
BRANCH   6   7
ATOM      7  C   UNL     1     -10.414 -14.440  27.343  1.00  0.00     0.000 C 
BRANCH   7   8
ATOM      8  C   UNL     1     -11.155 -13.308  26.602  1.00  0.00     0.000 C 
BRANCH   8   9
ATOM      9  C   UNL     1     -11.148 -11.962  27.355  1.00  0.00     0.000 C 
BRANCH   9  10
ATOM     10  C   UNL     1     -10.108 -10.943  26.863  1.00  0.00     0.000 C 
BRANCH  10  11
ATOM     11  C   UNL     1     -10.228  -9.580  27.567  1.00  0.00     0.000 C 
BRANCH  11  12
ATOM     12  C   UNL     1      -8.864  -8.914  27.810  1.00  0.00     0.000 C 
BRANCH  12  13
ATOM     13  C   UNL     1      -7.754  -9.481  26.913  1.00  0.00     0.006 C 
BRANCH  13  14
ATOM     14  C   UNL     1      -6.445  -9.640  27.692  1.00  0.00     0.053 C 
BRANCH  14  15
ATOM     15  C   UNL     1      -5.515 -10.582  26.993  1.00  0.00     0.041 C 
ATOM     16  O   UNL     1      -4.720 -11.296  27.659  1.00  0.00    -0.550 OA
ATOM     17  O   UNL     1      -5.522 -10.668  25.606  1.00  0.00    -0.550 OA
ENDBRANCH  14  15
ENDBRANCH  13  14
ENDBRANCH  12  13
ENDBRANCH  11  12
ENDBRANCH  10  11
ENDBRANCH   9  10
ENDBRANCH   8   9
ENDBRANCH   7   8
ENDBRANCH   6   7
ENDBRANCH   5   6
ENDBRANCH   4   5
ENDBRANCH   3   4
ENDBRANCH   2   3
ENDBRANCH   1   2
BRANCH   1  18
ATOM     18  C   UNL     1      -5.496 -18.465  26.130  1.00  0.00     0.000 C 
BRANCH  18  19
ATOM     19  C   UNL     1      -4.773 -17.833  27.338  1.00  0.00     0.000 C 
BRANCH  19  20
ATOM     20  C   UNL     1      -3.240 -17.727  27.201  1.00  0.00     0.000 C 
BRANCH  20  21
ATOM     21  C   UNL     1      -2.708 -17.815  25.760  1.00  0.00     0.000 C 
BRANCH  21  22
ATOM     22  C   UNL     1      -1.175 -17.688  25.681  1.00  0.00     0.000 C 
BRANCH  22  23
ATOM     23  C   UNL     1      -0.727 -16.657  24.634  1.00  0.00     0.000 C 
BRANCH  23  24
ATOM     24  C   UNL     1       0.374 -17.202  23.710  1.00  0.00    -0.000 C 
BRANCH  24  25
ATOM     25  C   UNL     1      -0.235 -17.969  22.527  1.00  0.00    -0.000 C 
BRANCH  25  26
ATOM     26  C   UNL     1      -0.873 -19.302  22.950  1.00  0.00    -0.000 C 
BRANCH  26  27
ATOM     27  C   UNL     1      -2.020 -19.729  22.022  1.00  0.00    -0.000 C 
BRANCH  27  28
ATOM     28  C   UNL     1      -2.599 -21.083  22.450  1.00  0.00    -0.000 C 
BRANCH  28  29
ATOM     29  C   UNL     1      -4.125 -21.005  22.598  1.00  0.00    -0.000 C 
BRANCH  29  30
ATOM     30  C   UNL     1      -4.852 -22.207  21.968  1.00  0.00    -0.000 C 
BRANCH  30  31
ATOM     31  C   UNL     1      -5.358 -23.258  22.973  1.00  0.00    -0.003 C 
ATOM     32  C   UNL     1      -4.600 -23.234  24.299  1.00  0.00     0.004 C 
ENDBRANCH  30  31
ENDBRANCH  29  30
ENDBRANCH  28  29
ENDBRANCH  27  28
ENDBRANCH  26  27
ENDBRANCH  25  26
ENDBRANCH  24  25
ENDBRANCH  23  24
ENDBRANCH  22  23
ENDBRANCH  21  22
ENDBRANCH  20  21
ENDBRANCH  19  20
ENDBRANCH  18  19
ENDBRANCH   1  18
TORSDOF 28
ENDMDL
MODEL 7
REMARK VINA RESULT:    24.626      2.046      9.915
REMARK INTER + INTRA:          65.839
REMARK INTER:                  67.290
REMARK INTRA:                  -1.451
REMARK UNBOUND:                 0.904
REMARK SMILES CCCCCCCCCCCCCCCCCCCCCCCCCCCCCC(=O)[O-]
REMARK SMILES IDX 16 1 17 2 18 3 19 4 20 5 21 6 22 7 23 8 24 9 25 10 26 11
REMARK SMILES IDX 27 12 28 13 29 14 30 15 31 16 32 17 15 18 14 19 13 20 12 21
REMARK SMILES IDX 11 22 10 23 9 24 8 25 7 26 6 27 5 28 4 29 3 30 2 31 1 32
REMARK H PARENT
REMARK Flexibility Score: inf
ROOT
ATOM      1  C   UNL     1      -8.354 -17.940  27.257  1.00  0.00     0.000 C 
ENDROOT
BRANCH   1   2
ATOM      2  C   UNL     1      -7.040 -17.140  27.197  1.00  0.00     0.000 C 
BRANCH   2   3
ATOM      3  C   UNL     1      -5.794 -17.997  26.883  1.00  0.00     0.000 C 
BRANCH   3   4
ATOM      4  C   UNL     1      -5.950 -18.809  25.585  1.00  0.00     0.000 C 
BRANCH   4   5
ATOM      5  C   UNL     1      -5.305 -18.122  24.372  1.00  0.00     0.000 C 
BRANCH   5   6
ATOM      6  C   UNL     1      -5.156 -19.067  23.169  1.00  0.00     0.000 C 
BRANCH   6   7
ATOM      7  C   UNL     1      -4.464 -20.376  23.576  1.00  0.00     0.000 C 
BRANCH   7   8
ATOM      8  C   UNL     1      -3.966 -21.176  22.354  1.00  0.00     0.000 C 
BRANCH   8   9
ATOM      9  C   UNL     1      -2.430 -21.282  22.264  1.00  0.00     0.000 C 
BRANCH   9  10
ATOM     10  C   UNL     1      -1.727 -20.062  21.645  1.00  0.00     0.000 C 
BRANCH  10  11
ATOM     11  C   UNL     1      -1.566 -18.899  22.640  1.00  0.00     0.000 C 
BRANCH  11  12
ATOM     12  C   UNL     1      -0.261 -18.114  22.431  1.00  0.00     0.000 C 
BRANCH  12  13
ATOM     13  C   UNL     1       0.267 -17.477  23.725  1.00  0.00     0.006 C 
BRANCH  13  14
ATOM     14  C   UNL     1      -0.884 -16.955  24.591  1.00  0.00     0.053 C 
BRANCH  14  15
ATOM     15  C   UNL     1      -1.192 -17.907  25.703  1.00  0.00     0.041 C 
ATOM     16  O   UNL     1      -0.528 -18.970  25.829  1.00  0.00    -0.550 OA
ATOM     17  O   UNL     1      -2.218 -17.626  26.598  1.00  0.00    -0.550 OA
ENDBRANCH  14  15
ENDBRANCH  13  14
ENDBRANCH  12  13
ENDBRANCH  11  12
ENDBRANCH  10  11
ENDBRANCH   9  10
ENDBRANCH   8   9
ENDBRANCH   7   8
ENDBRANCH   6   7
ENDBRANCH   5   6
ENDBRANCH   4   5
ENDBRANCH   3   4
ENDBRANCH   2   3
ENDBRANCH   1   2
BRANCH   1  18
ATOM     18  C   UNL     1      -9.330 -17.514  28.369  1.00  0.00     0.000 C 
BRANCH  18  19
ATOM     19  C   UNL     1     -10.302 -16.378  27.987  1.00  0.00     0.000 C 
BRANCH  19  20
ATOM     20  C   UNL     1      -9.975 -15.653  26.665  1.00  0.00     0.000 C 
BRANCH  20  21
ATOM     21  C   UNL     1      -9.908 -14.119  26.764  1.00  0.00     0.000 C 
BRANCH  21  22
ATOM     22  C   UNL     1     -11.252 -13.440  26.443  1.00  0.00     0.000 C 
BRANCH  22  23
ATOM     23  C   UNL     1     -11.765 -12.578  27.606  1.00  0.00     0.000 C 
BRANCH  23  24
ATOM     24  C   UNL     1     -10.830 -11.398  27.917  1.00  0.00    -0.000 C 
BRANCH  24  25
ATOM     25  C   UNL     1     -10.439 -10.657  26.630  1.00  0.00    -0.000 C 
BRANCH  25  26
ATOM     26  C   UNL     1      -9.857  -9.260  26.903  1.00  0.00    -0.000 C 
BRANCH  26  27
ATOM     27  C   UNL     1      -9.040  -9.205  28.203  1.00  0.00    -0.000 C 
BRANCH  27  28
ATOM     28  C   UNL     1      -7.564  -8.905  27.913  1.00  0.00    -0.000 C 
BRANCH  28  29
ATOM     29  C   UNL     1      -6.985  -9.918  26.915  1.00  0.00    -0.000 C 
BRANCH  29  30
ATOM     30  C   UNL     1      -5.446  -9.960  26.927  1.00  0.00    -0.000 C 
BRANCH  30  31
ATOM     31  C   UNL     1      -4.837 -11.313  27.336  1.00  0.00    -0.003 C 
ATOM     32  C   UNL     1      -5.409 -12.491  26.547  1.00  0.00     0.004 C 
ENDBRANCH  30  31
ENDBRANCH  29  30
ENDBRANCH  28  29
ENDBRANCH  27  28
ENDBRANCH  26  27
ENDBRANCH  25  26
ENDBRANCH  24  25
ENDBRANCH  23  24
ENDBRANCH  22  23
ENDBRANCH  21  22
ENDBRANCH  20  21
ENDBRANCH  19  20
ENDBRANCH  18  19
ENDBRANCH   1  18
TORSDOF 28
ENDMDL
MODEL 8
REMARK VINA RESULT:    24.877      0.830      1.814
REMARK INTER + INTRA:          66.501
REMARK INTER:                  67.319
REMARK INTRA:                  -0.819
REMARK UNBOUND:                 0.904
REMARK SMILES CCCCCCCCCCCCCCCCCCCCCCCCCCCCCC(=O)[O-]
REMARK SMILES IDX 16 1 17 2 18 3 19 4 20 5 21 6 22 7 23 8 24 9 25 10 26 11
REMARK SMILES IDX 27 12 28 13 29 14 30 15 31 16 32 17 15 18 14 19 13 20 12 21
REMARK SMILES IDX 11 22 10 23 9 24 8 25 7 26 6 27 5 28 4 29 3 30 2 31 1 32
REMARK H PARENT
REMARK Flexibility Score: inf
ROOT
ATOM      1  C   UNL     1      -6.958 -17.074  27.085  1.00  0.00     0.000 C 
ENDROOT
BRANCH   1   2
ATOM      2  C   UNL     1      -8.292 -17.830  26.952  1.00  0.00     0.000 C 
BRANCH   2   3
ATOM      3  C   UNL     1      -9.120 -17.883  28.254  1.00  0.00     0.000 C 
BRANCH   3   4
ATOM      4  C   UNL     1     -10.129 -16.725  28.358  1.00  0.00     0.000 C 
BRANCH   4   5
ATOM      5  C   UNL     1     -10.428 -16.074  26.999  1.00  0.00     0.000 C 
BRANCH   5   6
ATOM      6  C   UNL     1      -9.830 -14.663  26.878  1.00  0.00     0.000 C 
BRANCH   6   7
ATOM      7  C   UNL     1     -10.863 -13.669  26.326  1.00  0.00     0.000 C 
BRANCH   7   8
ATOM      8  C   UNL     1     -11.657 -12.970  27.448  1.00  0.00     0.000 C 
BRANCH   8   9
ATOM      9  C   UNL     1     -11.248 -11.501  27.677  1.00  0.00     0.000 C 
BRANCH   9  10
ATOM     10  C   UNL     1     -10.032 -11.027  26.863  1.00  0.00     0.000 C 
BRANCH  10  11
ATOM     11  C   UNL     1      -9.616  -9.583  27.198  1.00  0.00     0.000 C 
BRANCH  11  12
ATOM     12  C   UNL     1      -8.138  -9.469  27.601  1.00  0.00     0.000 C 
BRANCH  12  13
ATOM     13  C   UNL     1      -7.188  -9.466  26.394  1.00  0.00     0.006 C 
BRANCH  13  14
ATOM     14  C   UNL     1      -5.755  -9.799  26.821  1.00  0.00     0.053 C 
BRANCH  14  15
ATOM     15  C   UNL     1      -5.500 -11.271  26.741  1.00  0.00     0.041 C 
ATOM     16  O   UNL     1      -5.826 -11.914  25.708  1.00  0.00    -0.550 OA
ATOM     17  O   UNL     1      -4.908 -11.936  27.808  1.00  0.00    -0.550 OA
ENDBRANCH  14  15
ENDBRANCH  13  14
ENDBRANCH  12  13
ENDBRANCH  11  12
ENDBRANCH  10  11
ENDBRANCH   9  10
ENDBRANCH   8   9
ENDBRANCH   7   8
ENDBRANCH   6   7
ENDBRANCH   5   6
ENDBRANCH   4   5
ENDBRANCH   3   4
ENDBRANCH   2   3
ENDBRANCH   1   2
BRANCH   1  18
ATOM     18  C   UNL     1      -5.703 -17.889  26.721  1.00  0.00     0.000 C 
BRANCH  18  19
ATOM     19  C   UNL     1      -5.940 -19.047  25.730  1.00  0.00     0.000 C 
BRANCH  19  20
ATOM     20  C   UNL     1      -5.798 -18.674  24.240  1.00  0.00     0.000 C 
BRANCH  20  21
ATOM     21  C   UNL     1      -4.433 -19.007  23.613  1.00  0.00     0.000 C 
BRANCH  21  22
ATOM     22  C   UNL     1      -4.527 -20.076  22.509  1.00  0.00     0.000 C 
BRANCH  22  23
ATOM     23  C   UNL     1      -3.451 -21.163  22.653  1.00  0.00     0.000 C 
BRANCH  23  24
ATOM     24  C   UNL     1      -2.028 -20.601  22.500  1.00  0.00    -0.000 C 
BRANCH  24  25
ATOM     25  C   UNL     1      -1.139 -21.038  23.674  1.00  0.00    -0.000 C 
BRANCH  25  26
ATOM     26  C   UNL     1      -0.241 -19.902  24.192  1.00  0.00    -0.000 C 
BRANCH  26  27
ATOM     27  C   UNL     1      -0.833 -19.197  25.422  1.00  0.00    -0.000 C 
BRANCH  27  28
ATOM     28  C   UNL     1      -1.602 -17.934  25.015  1.00  0.00    -0.000 C 
BRANCH  28  29
ATOM     29  C   UNL     1      -0.687 -16.701  25.045  1.00  0.00    -0.000 C 
BRANCH  29  30
ATOM     30  C   UNL     1       0.038 -16.459  23.708  1.00  0.00    -0.000 C 
BRANCH  30  31
ATOM     31  C   UNL     1       0.323 -17.728  22.886  1.00  0.00    -0.003 C 
ATOM     32  C   UNL     1      -0.143 -17.620  21.434  1.00  0.00     0.004 C 
ENDBRANCH  30  31
ENDBRANCH  29  30
ENDBRANCH  28  29
ENDBRANCH  27  28
ENDBRANCH  26  27
ENDBRANCH  25  26
ENDBRANCH  24  25
ENDBRANCH  23  24
ENDBRANCH  22  23
ENDBRANCH  21  22
ENDBRANCH  20  21
ENDBRANCH  19  20
ENDBRANCH  18  19
ENDBRANCH   1  18
TORSDOF 28
ENDMDL
MODEL 9
REMARK VINA RESULT:    24.917      1.709      9.678
REMARK INTER + INTRA:          66.608
REMARK INTER:                  67.760
REMARK INTRA:                  -1.151
REMARK UNBOUND:                 0.904
REMARK SMILES CCCCCCCCCCCCCCCCCCCCCCCCCCCCCC(=O)[O-]
REMARK SMILES IDX 16 1 17 2 18 3 19 4 20 5 21 6 22 7 23 8 24 9 25 10 26 11
REMARK SMILES IDX 27 12 28 13 29 14 30 15 31 16 32 17 15 18 14 19 13 20 12 21
REMARK SMILES IDX 11 22 10 23 9 24 8 25 7 26 6 27 5 28 4 29 3 30 2 31 1 32
REMARK H PARENT
REMARK Flexibility Score: inf
ROOT
ATOM      1  C   UNL     1      -9.356 -18.031  28.124  1.00  0.00     0.000 C 
ENDROOT
BRANCH   1   2
ATOM      2  C   UNL     1      -8.500 -18.225  26.859  1.00  0.00     0.000 C 
BRANCH   2   3
ATOM      3  C   UNL     1      -7.318 -17.238  26.741  1.00  0.00     0.000 C 
BRANCH   3   4
ATOM      4  C   UNL     1      -5.953 -17.938  26.867  1.00  0.00     0.000 C 
BRANCH   4   5
ATOM      5  C   UNL     1      -5.689 -18.936  25.729  1.00  0.00     0.000 C 
BRANCH   5   6
ATOM      6  C   UNL     1      -5.829 -18.296  24.339  1.00  0.00     0.000 C 
BRANCH   6   7
ATOM      7  C   UNL     1      -4.709 -18.764  23.398  1.00  0.00     0.000 C 
BRANCH   7   8
ATOM      8  C   UNL     1      -4.649 -20.301  23.283  1.00  0.00     0.000 C 
BRANCH   8   9
ATOM      9  C   UNL     1      -3.659 -20.806  22.212  1.00  0.00     0.000 C 
BRANCH   9  10
ATOM     10  C   UNL     1      -2.200 -20.935  22.681  1.00  0.00     0.000 C 
BRANCH  10  11
ATOM     11  C   UNL     1      -1.368 -19.673  22.393  1.00  0.00     0.000 C 
BRANCH  11  12
ATOM     12  C   UNL     1      -0.336 -19.378  23.494  1.00  0.00     0.000 C 
BRANCH  12  13
ATOM     13  C   UNL     1      -0.692 -18.139  24.329  1.00  0.00     0.006 C 
BRANCH  13  14
ATOM     14  C   UNL     1      -1.120 -18.535  25.745  1.00  0.00     0.053 C 
BRANCH  14  15
ATOM     15  C   UNL     1      -2.188 -17.620  26.258  1.00  0.00     0.041 C 
ATOM     16  O   UNL     1      -2.494 -16.582  25.614  1.00  0.00    -0.550 OA
ATOM     17  O   UNL     1      -2.841 -17.909  27.451  1.00  0.00    -0.550 OA
ENDBRANCH  14  15
ENDBRANCH  13  14
ENDBRANCH  12  13
ENDBRANCH  11  12
ENDBRANCH  10  11
ENDBRANCH   9  10
ENDBRANCH   8   9
ENDBRANCH   7   8
ENDBRANCH   6   7
ENDBRANCH   5   6
ENDBRANCH   4   5
ENDBRANCH   3   4
ENDBRANCH   2   3
ENDBRANCH   1   2
BRANCH   1  18
ATOM     18  C   UNL     1     -10.012 -16.646  28.266  1.00  0.00     0.000 C 
BRANCH  18  19
ATOM     19  C   UNL     1      -9.573 -15.603  27.217  1.00  0.00     0.000 C 
BRANCH  19  20
ATOM     20  C   UNL     1     -10.722 -14.958  26.413  1.00  0.00     0.000 C 
BRANCH  20  21
ATOM     21  C   UNL     1     -10.738 -13.419  26.425  1.00  0.00     0.000 C 
BRANCH  21  22
ATOM     22  C   UNL     1     -11.490 -12.839  27.638  1.00  0.00     0.000 C 
BRANCH  22  23
ATOM     23  C   UNL     1     -11.376 -11.309  27.719  1.00  0.00     0.000 C 
BRANCH  23  24
ATOM     24  C   UNL     1     -10.040 -10.791  27.163  1.00  0.00    -0.000 C 
BRANCH  24  25
ATOM     25  C   UNL     1     -10.010  -9.256  27.154  1.00  0.00    -0.000 C 
BRANCH  25  26
ATOM     26  C   UNL     1      -8.775  -8.683  27.869  1.00  0.00    -0.000 C 
BRANCH  26  27
ATOM     27  C   UNL     1      -7.530  -9.567  27.698  1.00  0.00    -0.000 C 
BRANCH  27  28
ATOM     28  C   UNL     1      -7.230  -9.813  26.214  1.00  0.00    -0.000 C 
BRANCH  28  29
ATOM     29  C   UNL     1      -5.756 -10.193  26.008  1.00  0.00    -0.000 C 
BRANCH  29  30
ATOM     30  C   UNL     1      -5.478 -11.683  26.279  1.00  0.00    -0.000 C 
BRANCH  30  31
ATOM     31  C   UNL     1      -4.792 -11.980  27.624  1.00  0.00    -0.003 C 
ATOM     32  C   UNL     1      -4.308 -10.721  28.343  1.00  0.00     0.004 C 
ENDBRANCH  30  31
ENDBRANCH  29  30
ENDBRANCH  28  29
ENDBRANCH  27  28
ENDBRANCH  26  27
ENDBRANCH  25  26
ENDBRANCH  24  25
ENDBRANCH  23  24
ENDBRANCH  22  23
ENDBRANCH  21  22
ENDBRANCH  20  21
ENDBRANCH  19  20
ENDBRANCH  18  19
ENDBRANCH   1  18
TORSDOF 28
ENDMDL
