MODEL 1
REMARK VINA RESULT:    -5.791      0.000      0.000
REMARK INTER + INTRA:          -6.773
REMARK INTER:                  -6.637
REMARK INTRA:                  -0.136
REMARK UNBOUND:                -0.136
REMARK SMILES O=C([O-])C=Cc1ccc(O)cc1
REMARK SMILES IDX 6 1 7 2 12 3 8 4 11 5 9 6 5 7 4 8 2 9 1 10 3 11 10 12
REMARK H PARENT 10 13
REMARK Flexibility Score: inf
ROOT
ATOM      1  C   UNL     1      10.571  -3.998  19.768  1.00  0.00    -0.025 A 
ATOM      2  C   UNL     1       9.195  -4.306  19.745  1.00  0.00     0.012 A 
ATOM      3  C   UNL     1      11.501  -5.050  19.825  1.00  0.00     0.012 A 
ATOM      4  C   UNL     1       8.768  -5.638  19.754  1.00  0.00     0.047 A 
ATOM      5  C   UNL     1      11.070  -6.381  19.833  1.00  0.00     0.047 A 
ATOM      6  C   UNL     1       9.702  -6.678  19.795  1.00  0.00     0.115 A 
ENDROOT
BRANCH   1   7
ATOM      7  C   UNL     1      11.077  -2.603  19.772  1.00  0.00     0.010 C 
ATOM      8  C   UNL     1      11.733  -2.045  18.744  1.00  0.00     0.025 C 
BRANCH   8   9
ATOM      9  C   UNL     1      12.231  -0.661  18.789  1.00  0.00     0.064 C 
ATOM     10  O   UNL     1      11.568   0.288  18.291  1.00  0.00    -0.545 OA
ATOM     11  O   UNL     1      13.455  -0.395  19.389  1.00  0.00    -0.545 OA
ENDBRANCH   8   9
ENDBRANCH   1   7
BRANCH   6  12
ATOM     12  O   UNL     1       9.261  -7.999  19.802  1.00  0.00    -0.508 OA
ATOM     13  H   UNL     1       9.853  -8.753  20.129  1.00  0.00     0.293 HD
ENDBRANCH   6  12
TORSDOF 3
ENDMDL
MODEL 2
REMARK VINA RESULT:    -5.300      1.280      5.985
REMARK INTER + INTRA:          -6.210
REMARK INTER:                  -6.057
REMARK INTRA:                  -0.153
REMARK UNBOUND:                -0.136
REMARK SMILES O=C([O-])C=Cc1ccc(O)cc1
REMARK SMILES IDX 6 1 7 2 12 3 8 4 11 5 9 6 5 7 4 8 2 9 1 10 3 11 10 12
REMARK H PARENT 10 13
REMARK Flexibility Score: inf
ROOT
ATOM      1  C   UNL     1      11.635  -2.588  19.034  1.00  0.00    -0.025 A 
ATOM      2  C   UNL     1      12.866  -1.911  19.150  1.00  0.00     0.012 A 
ATOM      3  C   UNL     1      10.485  -1.854  18.698  1.00  0.00     0.012 A 
ATOM      4  C   UNL     1      12.942  -0.536  18.907  1.00  0.00     0.047 A 
ATOM      5  C   UNL     1      10.565  -0.479  18.456  1.00  0.00     0.047 A 
ATOM      6  C   UNL     1      11.794   0.184  18.558  1.00  0.00     0.115 A 
ENDROOT
BRANCH   1   7
ATOM      7  C   UNL     1      11.497  -4.043  19.292  1.00  0.00     0.010 C 
ATOM      8  C   UNL     1      10.323  -4.655  19.504  1.00  0.00     0.025 C 
BRANCH   8   9
ATOM      9  C   UNL     1      10.226  -6.100  19.768  1.00  0.00     0.064 C 
ATOM     10  O   UNL     1      11.252  -6.790  20.006  1.00  0.00    -0.545 OA
ATOM     11  O   UNL     1       8.980  -6.714  19.751  1.00  0.00    -0.545 OA
ENDBRANCH   8   9
ENDBRANCH   1   7
BRANCH   6  12
ATOM     12  O   UNL     1      11.887   1.552  18.319  1.00  0.00    -0.508 OA
ATOM     13  H   UNL     1      11.568   1.961  17.448  1.00  0.00     0.293 HD
ENDBRANCH   6  12
TORSDOF 3
ENDMDL
MODEL 3
REMARK VINA RESULT:    -5.200     11.720     14.539
REMARK INTER + INTRA:          -6.096
REMARK INTER:                  -5.953
REMARK INTRA:                  -0.143
REMARK UNBOUND:                -0.136
REMARK SMILES O=C([O-])C=Cc1ccc(O)cc1
REMARK SMILES IDX 6 1 7 2 12 3 8 4 11 5 9 6 5 7 4 8 2 9 1 10 3 11 10 12
REMARK H PARENT 10 13
REMARK Flexibility Score: inf
ROOT
ATOM      1  C   UNL     1       6.609   5.592  10.299  1.00  0.00    -0.025 A 
ATOM      2  C   UNL     1       5.875   6.205   9.263  1.00  0.00     0.012 A 
ATOM      3  C   UNL     1       7.398   6.395  11.140  1.00  0.00     0.012 A 
ATOM      4  C   UNL     1       5.914   7.593   9.096  1.00  0.00     0.047 A 
ATOM      5  C   UNL     1       7.434   7.782  10.969  1.00  0.00     0.047 A 
ATOM      6  C   UNL     1       6.690   8.385   9.947  1.00  0.00     0.115 A 
ENDROOT
BRANCH   1   7
ATOM      7  C   UNL     1       6.612   4.123  10.514  1.00  0.00     0.010 C 
ATOM      8  C   UNL     1       7.728   3.391  10.645  1.00  0.00     0.025 C 
BRANCH   8   9
ATOM      9  C   UNL     1       7.692   1.933  10.846  1.00  0.00     0.064 C 
ATOM     10  O   UNL     1       8.390   1.380  11.736  1.00  0.00    -0.545 OA
ATOM     11  O   UNL     1       6.874   1.153  10.039  1.00  0.00    -0.545 OA
ENDBRANCH   8   9
ENDBRANCH   1   7
BRANCH   6  12
ATOM     12  O   UNL     1       6.718   9.766   9.768  1.00  0.00    -0.508 OA
ATOM     13  H   UNL     1       7.569  10.300   9.895  1.00  0.00     0.293 HD
ENDBRANCH   6  12
TORSDOF 3
ENDMDL
MODEL 4
REMARK VINA RESULT:    -4.918     11.079     13.008
REMARK INTER + INTRA:          -5.772
REMARK INTER:                  -5.630
REMARK INTRA:                  -0.142
REMARK UNBOUND:                -0.136
REMARK SMILES O=C([O-])C=Cc1ccc(O)cc1
REMARK SMILES IDX 6 1 7 2 12 3 8 4 11 5 9 6 5 7 4 8 2 9 1 10 3 11 10 12
REMARK H PARENT 10 13
REMARK Flexibility Score: inf
ROOT
ATOM      1  C   UNL     1       7.100   4.443  10.611  1.00  0.00    -0.025 A 
ATOM      2  C   UNL     1       8.080   4.124  11.573  1.00  0.00     0.012 A 
ATOM      3  C   UNL     1       6.574   3.414   9.811  1.00  0.00     0.012 A 
ATOM      4  C   UNL     1       8.501   2.801  11.741  1.00  0.00     0.047 A 
ATOM      5  C   UNL     1       6.998   2.093   9.983  1.00  0.00     0.047 A 
ATOM      6  C   UNL     1       7.962   1.783  10.950  1.00  0.00     0.115 A 
ENDROOT
BRANCH   1   7
ATOM      7  C   UNL     1       6.626   5.831  10.384  1.00  0.00     0.010 C 
ATOM      8  C   UNL     1       7.335   6.923  10.702  1.00  0.00     0.025 C 
BRANCH   8   9
ATOM      9  C   UNL     1       6.827   8.285  10.472  1.00  0.00     0.064 C 
ATOM     10  O   UNL     1       7.239   9.260  11.155  1.00  0.00    -0.545 OA
ATOM     11  O   UNL     1       5.875   8.500   9.484  1.00  0.00    -0.545 OA
ENDBRANCH   8   9
ENDBRANCH   1   7
BRANCH   6  12
ATOM     12  O   UNL     1       8.391   0.470  11.131  1.00  0.00    -0.508 OA
ATOM     13  H   UNL     1       8.888  -0.030  10.404  1.00  0.00     0.293 HD
ENDBRANCH   6  12
TORSDOF 3
ENDMDL
MODEL 5
REMARK VINA RESULT:    -4.913      9.006     10.805
REMARK INTER + INTRA:          -5.766
REMARK INTER:                  -5.613
REMARK INTRA:                  -0.153
REMARK UNBOUND:                -0.136
REMARK SMILES O=C([O-])C=Cc1ccc(O)cc1
REMARK SMILES IDX 6 1 7 2 12 3 8 4 11 5 9 6 5 7 4 8 2 9 1 10 3 11 10 12
REMARK H PARENT 10 13
REMARK Flexibility Score: inf
ROOT
ATOM      1  C   UNL     1      19.780  -4.791  18.643  1.00  0.00    -0.025 A 
ATOM      2  C   UNL     1      19.405  -3.520  18.163  1.00  0.00     0.012 A 
ATOM      3  C   UNL     1      20.841  -4.884  19.560  1.00  0.00     0.012 A 
ATOM      4  C   UNL     1      20.063  -2.371  18.613  1.00  0.00     0.047 A 
ATOM      5  C   UNL     1      21.496  -3.733  20.008  1.00  0.00     0.047 A 
ATOM      6  C   UNL     1      21.108  -2.473  19.537  1.00  0.00     0.115 A 
ENDROOT
BRANCH   1   7
ATOM      7  C   UNL     1      19.123  -6.042  18.190  1.00  0.00     0.010 C 
ATOM      8  C   UNL     1      19.595  -7.270  18.453  1.00  0.00     0.025 C 
BRANCH   8   9
ATOM      9  C   UNL     1      18.921  -8.489  17.977  1.00  0.00     0.064 C 
ATOM     10  O   UNL     1      18.064  -8.443  17.055  1.00  0.00    -0.545 OA
ATOM     11  O   UNL     1      19.236  -9.712  18.555  1.00  0.00    -0.545 OA
ENDBRANCH   8   9
ENDBRANCH   1   7
BRANCH   6  12
ATOM     12  O   UNL     1      21.752  -1.320  19.977  1.00  0.00    -0.508 OA
ATOM     13  H   UNL     1      21.411  -0.397  19.736  1.00  0.00     0.293 HD
ENDBRANCH   6  12
TORSDOF 3
ENDMDL
MODEL 6
REMARK VINA RESULT:    -4.891      2.280      2.932
REMARK INTER + INTRA:          -5.741
REMARK INTER:                  -5.601
REMARK INTRA:                  -0.140
REMARK UNBOUND:                -0.136
REMARK SMILES O=C([O-])C=Cc1ccc(O)cc1
REMARK SMILES IDX 6 1 7 2 12 3 8 4 11 5 9 6 5 7 4 8 2 9 1 10 3 11 10 12
REMARK H PARENT 10 13
REMARK Flexibility Score: inf
ROOT
ATOM      1  C   UNL     1       9.701  -2.943  19.501  1.00  0.00    -0.025 A 
ATOM      2  C   UNL     1      11.074  -3.084  19.213  1.00  0.00     0.012 A 
ATOM      3  C   UNL     1       8.965  -4.081  19.874  1.00  0.00     0.012 A 
ATOM      4  C   UNL     1      11.695  -4.332  19.324  1.00  0.00     0.047 A 
ATOM      5  C   UNL     1       9.590  -5.328  19.983  1.00  0.00     0.047 A 
ATOM      6  C   UNL     1      10.957  -5.456  19.710  1.00  0.00     0.115 A 
ENDROOT
BRANCH   1   7
ATOM      7  C   UNL     1       8.990  -1.645  19.389  1.00  0.00     0.010 C 
ATOM      8  C   UNL     1       9.489  -0.574  18.754  1.00  0.00     0.025 C 
BRANCH   8   9
ATOM      9  C   UNL     1       8.759   0.701  18.673  1.00  0.00     0.064 C 
ATOM     10  O   UNL     1       7.552   0.741  18.313  1.00  0.00    -0.545 OA
ATOM     11  O   UNL     1       9.413   1.883  18.997  1.00  0.00    -0.545 OA
ENDBRANCH   8   9
ENDBRANCH   1   7
BRANCH   6  12
ATOM     12  O   UNL     1      11.591  -6.691  19.816  1.00  0.00    -0.508 OA
ATOM     13  H   UNL     1      11.310  -7.481  19.247  1.00  0.00     0.293 HD
ENDBRANCH   6  12
TORSDOF 3
ENDMDL
MODEL 7
REMARK VINA RESULT:    -4.447      8.607      9.254
REMARK INTER + INTRA:          -5.233
REMARK INTER:                  -5.091
REMARK INTRA:                  -0.142
REMARK UNBOUND:                -0.136
REMARK SMILES O=C([O-])C=Cc1ccc(O)cc1
REMARK SMILES IDX 6 1 7 2 12 3 8 4 11 5 9 6 5 7 4 8 2 9 1 10 3 11 10 12
REMARK H PARENT 10 13
REMARK Flexibility Score: inf
ROOT
ATOM      1  C   UNL     1      19.497  -6.333  19.115  1.00  0.00    -0.025 A 
ATOM      2  C   UNL     1      20.089  -7.495  19.650  1.00  0.00     0.012 A 
ATOM      3  C   UNL     1      18.626  -6.458  18.020  1.00  0.00     0.012 A 
ATOM      4  C   UNL     1      19.791  -8.752  19.113  1.00  0.00     0.047 A 
ATOM      5  C   UNL     1      18.330  -7.716  17.486  1.00  0.00     0.047 A 
ATOM      6  C   UNL     1      18.911  -8.866  18.033  1.00  0.00     0.115 A 
ENDROOT
BRANCH   1   7
ATOM      7  C   UNL     1      19.787  -4.975  19.639  1.00  0.00     0.010 C 
ATOM      8  C   UNL     1      20.183  -3.948  18.873  1.00  0.00     0.025 C 
BRANCH   8   9
ATOM      9  C   UNL     1      20.472  -2.617  19.430  1.00  0.00     0.064 C 
ATOM     10  O   UNL     1      21.628  -2.119  19.364  1.00  0.00    -0.545 OA
ATOM     11  O   UNL     1      19.454  -1.898  20.043  1.00  0.00    -0.545 OA
ENDBRANCH   8   9
ENDBRANCH   1   7
BRANCH   6  12
ATOM     12  O   UNL     1      18.624 -10.125  17.510  1.00  0.00    -0.508 OA
ATOM     13  H   UNL     1      18.856 -10.368  16.554  1.00  0.00     0.293 HD
ENDBRANCH   6  12
TORSDOF 3
ENDMDL
MODEL 8
REMARK VINA RESULT:    -4.167      4.299      5.607
REMARK INTER + INTRA:          -4.911
REMARK INTER:                  -4.762
REMARK INTRA:                  -0.149
REMARK UNBOUND:                -0.136
REMARK SMILES O=C([O-])C=Cc1ccc(O)cc1
REMARK SMILES IDX 6 1 7 2 12 3 8 4 11 5 9 6 5 7 4 8 2 9 1 10 3 11 10 12
REMARK H PARENT 10 13
REMARK Flexibility Score: inf
ROOT
ATOM      1  C   UNL     1      10.835  -0.613  18.628  1.00  0.00    -0.025 A 
ATOM      2  C   UNL     1      11.476  -1.677  17.961  1.00  0.00     0.012 A 
ATOM      3  C   UNL     1      11.570   0.148  19.553  1.00  0.00     0.012 A 
ATOM      4  C   UNL     1      12.826  -1.951  18.201  1.00  0.00     0.047 A 
ATOM      5  C   UNL     1      12.920  -0.129  19.790  1.00  0.00     0.047 A 
ATOM      6  C   UNL     1      13.552  -1.178  19.112  1.00  0.00     0.115 A 
ENDROOT
BRANCH   1   7
ATOM      7  C   UNL     1       9.403  -0.286  18.420  1.00  0.00     0.010 C 
ATOM      8  C   UNL     1       8.853   0.895  18.739  1.00  0.00     0.025 C 
BRANCH   8   9
ATOM      9  C   UNL     1       7.424   1.179  18.528  1.00  0.00     0.064 C 
ATOM     10  O   UNL     1       7.042   1.964  17.619  1.00  0.00    -0.545 OA
ATOM     11  O   UNL     1       6.480   0.572  19.346  1.00  0.00    -0.545 OA
ENDBRANCH   8   9
ENDBRANCH   1   7
BRANCH   6  12
ATOM     12  O   UNL     1      14.897  -1.463  19.338  1.00  0.00    -0.508 OA
ATOM     13  H   UNL     1      15.193  -2.031  20.124  1.00  0.00     0.293 HD
ENDBRANCH   6  12
TORSDOF 3
ENDMDL
