MODEL 1
REMARK VINA RESULT:    -1.736      0.000      0.000
REMARK INTER + INTRA:          -4.193
REMARK INTER:                  -3.359
REMARK INTRA:                  -0.833
REMARK UNBOUND:                -0.833
REMARK SMILES CCCCCCCCCCCCCCCCCC(=O)[O-]
REMARK SMILES IDX 10 1 11 2 12 3 13 4 14 5 15 6 16 7 17 8 18 9 19 10 20 11
REMARK SMILES IDX 9 12 8 13 7 14 6 15 5 16 4 17 3 18 2 19 1 20
REMARK H PARENT
REMARK Flexibility Score: inf
ROOT
ATOM      1  C   UNL     1     -11.123 -11.557  -4.090  1.00  0.00     0.000 C 
ENDROOT
BRANCH   1   2
ATOM      2  C   UNL     1     -11.121 -10.020  -3.993  1.00  0.00     0.000 C 
BRANCH   2   3
ATOM      3  C   UNL     1     -10.728  -9.508  -2.600  1.00  0.00     0.000 C 
BRANCH   3   4
ATOM      4  C   UNL     1     -10.893  -7.987  -2.504  1.00  0.00     0.000 C 
BRANCH   4   5
ATOM      5  C   UNL     1      -9.682  -7.349  -1.806  1.00  0.00     0.000 C 
BRANCH   5   6
ATOM      6  C   UNL     1      -9.399  -7.963  -0.426  1.00  0.00     0.000 C 
BRANCH   6   7
ATOM      7  C   UNL     1      -7.947  -8.438  -0.273  1.00  0.00     0.006 C 
BRANCH   7   8
ATOM      8  C   UNL     1      -7.276  -8.595  -1.641  1.00  0.00     0.053 C 
BRANCH   8   9
ATOM      9  C   UNL     1      -5.823  -8.910  -1.480  1.00  0.00     0.041 C 
ATOM     10  O   UNL     1      -5.354  -9.987  -1.932  1.00  0.00    -0.550 OA
ATOM     11  O   UNL     1      -4.995  -8.033  -0.792  1.00  0.00    -0.550 OA
ENDBRANCH   8   9
ENDBRANCH   7   8
ENDBRANCH   6   7
ENDBRANCH   5   6
ENDBRANCH   4   5
ENDBRANCH   3   4
ENDBRANCH   2   3
ENDBRANCH   1   2
BRANCH   1  12
ATOM     12  C   UNL     1     -10.605 -12.125  -5.424  1.00  0.00     0.000 C 
BRANCH  12  13
ATOM     13  C   UNL     1     -11.072 -11.315  -6.643  1.00  0.00    -0.000 C 
BRANCH  13  14
ATOM     14  C   UNL     1      -9.982 -11.266  -7.723  1.00  0.00    -0.000 C 
BRANCH  14  15
ATOM     15  C   UNL     1     -10.528 -10.821  -9.093  1.00  0.00    -0.000 C 
BRANCH  15  16
ATOM     16  C   UNL     1      -9.810 -11.455 -10.302  1.00  0.00    -0.000 C 
BRANCH  16  17
ATOM     17  C   UNL     1     -10.749 -12.026 -11.381  1.00  0.00    -0.000 C 
BRANCH  17  18
ATOM     18  C   UNL     1     -10.182 -11.878 -12.804  1.00  0.00    -0.000 C 
BRANCH  18  19
ATOM     19  C   UNL     1      -9.539 -10.502 -13.040  1.00  0.00    -0.003 C 
ATOM     20  C   UNL     1      -8.232 -10.589 -13.830  1.00  0.00     0.004 C 
ENDBRANCH  18  19
ENDBRANCH  17  18
ENDBRANCH  16  17
ENDBRANCH  15  16
ENDBRANCH  14  15
ENDBRANCH  13  14
ENDBRANCH  12  13
ENDBRANCH   1  12
TORSDOF 16
ENDMDL
