MODEL 1
REMARK VINA RESULT:    -5.460      0.000      0.000
REMARK INTER + INTRA:          -6.092
REMARK INTER:                  -5.939
REMARK INTRA:                  -0.153
REMARK UNBOUND:                -0.153
REMARK SMILES C[C@H]1[C@H]2C3=CC[C@H]4[C@]5(C)CC[C@@H](O)C(C)(C)[C@H]5CC[C@@]4(C)[C@@]3(C)CC[C@@]2(C(=O)[O-])CC[C@@H]1C
REMARK SMILES IDX 26 1 30 2 25 3 3 4 31 5 24 6 4 7 2 8 32 9 22 10 5 11 1 12
REMARK SMILES IDX 33 13 23 14 20 15 6 16 7 17 19 18 21 19 8 20 18 21 17 22
REMARK SMILES IDX 10 23 9 24 14 25 11 26 12 27 15 28 16 29 27 30 28 31 29 32
REMARK SMILES IDX 13 33
REMARK H PARENT 13 34
REMARK Flexibility Score: inf
ROOT
ATOM      1  C   UNL     1     -57.386  23.671 -11.714  1.00  0.00     0.017 C 
ATOM      2  C   UNL     1     -58.280  24.241 -10.571  1.00  0.00     0.014 C 
ATOM      3  C   UNL     1     -55.884  23.727 -11.226  1.00  0.00     0.014 C 
ATOM      4  C   UNL     1     -57.605  24.482 -13.066  1.00  0.00     0.030 C 
ATOM      5  C   UNL     1     -58.352  25.773 -10.594  1.00  0.00     0.004 C 
ATOM      6  C   UNL     1     -54.782  23.531 -12.313  1.00  0.00     0.013 C 
ATOM      7  C   UNL     1     -56.277  25.103 -13.520  1.00  0.00    -0.063 C 
ATOM      8  C   UNL     1     -58.897  25.371 -13.086  1.00  0.00    -0.003 C 
ATOM      9  C   UNL     1     -59.099  26.295 -11.841  1.00  0.00    -0.011 C 
ATOM     10  C   UNL     1     -55.124  24.108 -13.736  1.00  0.00    -0.006 C 
ATOM     11  C   UNL     1     -55.974  26.370 -13.172  1.00  0.00    -0.027 C 
ATOM     12  C   UNL     1     -59.065  26.130 -14.415  1.00  0.00     0.008 C 
ATOM     13  C   UNL     1     -60.596  26.476 -11.526  1.00  0.00     0.008 C 
ATOM     14  C   UNL     1     -55.616  22.905 -14.610  1.00  0.00     0.017 C 
ATOM     15  C   UNL     1     -53.881  24.840 -14.471  1.00  0.00    -0.020 C 
ATOM     16  C   UNL     1     -54.578  26.754 -12.793  1.00  0.00     0.032 C 
ATOM     17  C   UNL     1     -53.537  26.263 -13.824  1.00  0.00     0.006 C 
ATOM     18  C   UNL     1     -52.626  23.908 -14.499  1.00  0.00     0.008 C 
ATOM     19  C   UNL     1     -54.264  25.096 -15.970  1.00  0.00     0.012 C 
ATOM     20  C   UNL     1     -52.020  26.521 -13.405  1.00  0.00    -0.025 C 
ATOM     21  C   UNL     1     -51.314  24.559 -14.979  1.00  0.00     0.005 C 
ATOM     22  C   UNL     1     -51.133  26.062 -14.618  1.00  0.00     0.003 C 
ATOM     23  C   UNL     1     -51.837  28.064 -13.190  1.00  0.00     0.010 C 
ATOM     24  C   UNL     1     -51.626  25.789 -12.083  1.00  0.00     0.012 C 
ATOM     25  C   UNL     1     -49.627  26.559 -14.637  1.00  0.00    -0.006 C 
ATOM     26  C   UNL     1     -50.382  28.546 -13.169  1.00  0.00     0.033 C 
ATOM     27  C   UNL     1     -49.621  28.109 -14.433  1.00  0.00     0.120 C 
ATOM     28  C   UNL     1     -49.024  26.267 -16.037  1.00  0.00     0.014 C 
ATOM     29  C   UNL     1     -48.705  25.863 -13.592  1.00  0.00     0.014 C 
ENDROOT
BRANCH   1  30
ATOM     30  C   UNL     1     -57.803  22.216 -11.910  1.00  0.00     0.048 C 
ATOM     31  O   UNL     1     -58.232  21.828 -13.031  1.00  0.00    -0.550 OA
ATOM     32  O   UNL     1     -57.754  21.303 -10.860  1.00  0.00    -0.550 OA
ENDBRANCH   1  30
BRANCH  27  33
ATOM     33  O   UNL     1     -48.316  28.641 -14.438  1.00  0.00    -0.393 OA
ATOM     34  H   UNL     1     -48.273  29.361 -15.118  1.00  0.00     0.210 HD
ENDBRANCH  27  33
TORSDOF 2
ENDMDL
MODEL 2
REMARK VINA RESULT:    -5.427      4.446      6.485
REMARK INTER + INTRA:          -6.055
REMARK INTER:                  -5.804
REMARK INTRA:                  -0.251
REMARK UNBOUND:                -0.153
REMARK SMILES C[C@H]1[C@H]2C3=CC[C@H]4[C@]5(C)CC[C@@H](O)C(C)(C)[C@H]5CC[C@@]4(C)[C@@]3(C)CC[C@@]2(C(=O)[O-])CC[C@@H]1C
REMARK SMILES IDX 26 1 30 2 25 3 3 4 31 5 24 6 4 7 2 8 32 9 22 10 5 11 1 12
REMARK SMILES IDX 33 13 23 14 20 15 6 16 7 17 19 18 21 19 8 20 18 21 17 22
REMARK SMILES IDX 10 23 9 24 14 25 11 26 12 27 15 28 16 29 27 30 28 31 29 32
REMARK SMILES IDX 13 33
REMARK H PARENT 13 34
REMARK Flexibility Score: inf
ROOT
ATOM      1  C   UNL     1     -59.137  24.795  -7.372  1.00  0.00     0.017 C 
ATOM      2  C   UNL     1     -60.252  25.334  -6.424  1.00  0.00     0.014 C 
ATOM      3  C   UNL     1     -58.546  26.025  -8.169  1.00  0.00     0.014 C 
ATOM      4  C   UNL     1     -59.710  23.673  -8.344  1.00  0.00     0.030 C 
ATOM      5  C   UNL     1     -61.600  25.492  -7.137  1.00  0.00     0.004 C 
ATOM      6  C   UNL     1     -57.663  25.700  -9.414  1.00  0.00     0.013 C 
ATOM      7  C   UNL     1     -59.529  24.109  -9.804  1.00  0.00    -0.063 C 
ATOM      8  C   UNL     1     -61.093  23.078  -7.903  1.00  0.00    -0.003 C 
ATOM      9  C   UNL     1     -62.197  24.128  -7.548  1.00  0.00    -0.011 C 
ATOM     10  C   UNL     1     -58.083  24.419 -10.225  1.00  0.00    -0.006 C 
ATOM     11  C   UNL     1     -60.533  24.741 -10.446  1.00  0.00    -0.027 C 
ATOM     12  C   UNL     1     -61.600  21.996  -8.873  1.00  0.00     0.008 C 
ATOM     13  C   UNL     1     -63.125  23.598  -6.439  1.00  0.00     0.008 C 
ATOM     14  C   UNL     1     -57.135  23.259  -9.767  1.00  0.00     0.017 C 
ATOM     15  C   UNL     1     -57.990  24.592 -11.833  1.00  0.00    -0.020 C 
ATOM     16  C   UNL     1     -60.256  25.870 -11.391  1.00  0.00     0.032 C 
ATOM     17  C   UNL     1     -59.159  25.515 -12.418  1.00  0.00     0.006 C 
ATOM     18  C   UNL     1     -56.580  25.122 -12.253  1.00  0.00     0.008 C 
ATOM     19  C   UNL     1     -58.140  23.181 -12.499  1.00  0.00     0.012 C 
ATOM     20  C   UNL     1     -58.723  26.725 -13.362  1.00  0.00    -0.025 C 
ATOM     21  C   UNL     1     -56.428  25.532 -13.731  1.00  0.00     0.005 C 
ATOM     22  C   UNL     1     -57.696  26.141 -14.398  1.00  0.00     0.003 C 
ATOM     23  C   UNL     1     -59.999  27.221 -14.128  1.00  0.00     0.010 C 
ATOM     24  C   UNL     1     -58.128  27.929 -12.565  1.00  0.00     0.012 C 
ATOM     25  C   UNL     1     -57.396  27.017 -15.686  1.00  0.00    -0.006 C 
ATOM     26  C   UNL     1     -59.718  28.099 -15.352  1.00  0.00     0.033 C 
ATOM     27  C   UNL     1     -58.762  27.407 -16.340  1.00  0.00     0.120 C 
ATOM     28  C   UNL     1     -56.617  26.147 -16.708  1.00  0.00     0.014 C 
ATOM     29  C   UNL     1     -56.531  28.285 -15.418  1.00  0.00     0.014 C 
ENDROOT
BRANCH   1  30
ATOM     30  C   UNL     1     -58.052  24.201  -6.478  1.00  0.00     0.048 C 
ATOM     31  O   UNL     1     -57.229  24.960  -5.896  1.00  0.00    -0.550 OA
ATOM     32  O   UNL     1     -57.925  22.824  -6.314  1.00  0.00    -0.550 OA
ENDBRANCH   1  30
BRANCH  27  33
ATOM     33  O   UNL     1     -58.591  28.190 -17.500  1.00  0.00    -0.393 OA
ATOM     34  H   UNL     1     -58.805  29.132 -17.277  1.00  0.00     0.210 HD
ENDBRANCH  27  33
TORSDOF 2
ENDMDL
MODEL 3
REMARK VINA RESULT:    -5.163      3.920      5.924
REMARK INTER + INTRA:          -5.768
REMARK INTER:                  -5.517
REMARK INTRA:                  -0.251
REMARK UNBOUND:                -0.153
REMARK SMILES C[C@H]1[C@H]2C3=CC[C@H]4[C@]5(C)CC[C@@H](O)C(C)(C)[C@H]5CC[C@@]4(C)[C@@]3(C)CC[C@@]2(C(=O)[O-])CC[C@@H]1C
REMARK SMILES IDX 26 1 30 2 25 3 3 4 31 5 24 6 4 7 2 8 32 9 22 10 5 11 1 12
REMARK SMILES IDX 33 13 23 14 20 15 6 16 7 17 19 18 21 19 8 20 18 21 17 22
REMARK SMILES IDX 10 23 9 24 14 25 11 26 12 27 15 28 16 29 27 30 28 31 29 32
REMARK SMILES IDX 13 33
REMARK H PARENT 13 34
REMARK Flexibility Score: inf
ROOT
ATOM      1  C   UNL     1     -56.695  23.022  -8.155  1.00  0.00     0.017 C 
ATOM      2  C   UNL     1     -57.765  23.017  -7.020  1.00  0.00     0.014 C 
ATOM      3  C   UNL     1     -56.627  24.486  -8.748  1.00  0.00     0.014 C 
ATOM      4  C   UNL     1     -57.043  21.942  -9.270  1.00  0.00     0.030 C 
ATOM      5  C   UNL     1     -59.189  22.841  -7.561  1.00  0.00     0.004 C 
ATOM      6  C   UNL     1     -55.884  24.661 -10.109  1.00  0.00     0.013 C 
ATOM      7  C   UNL     1     -57.222  22.636 -10.627  1.00  0.00    -0.063 C 
ATOM      8  C   UNL     1     -58.101  20.871  -8.827  1.00  0.00    -0.003 C 
ATOM      9  C   UNL     1     -59.403  21.440  -8.173  1.00  0.00    -0.011 C 
ATOM     10  C   UNL     1     -56.015  23.457 -11.112  1.00  0.00    -0.006 C 
ATOM     11  C   UNL     1     -58.453  23.002 -11.038  1.00  0.00    -0.027 C 
ATOM     12  C   UNL     1     -58.399  19.849  -9.939  1.00  0.00     0.008 C 
ATOM     13  C   UNL     1     -59.952  20.472  -7.108  1.00  0.00     0.008 C 
ATOM     14  C   UNL     1     -54.706  22.607 -10.979  1.00  0.00     0.017 C 
ATOM     15  C   UNL     1     -56.221  23.899 -12.656  1.00  0.00    -0.020 C 
ATOM     16  C   UNL     1     -58.673  24.292 -11.765  1.00  0.00     0.032 C 
ATOM     17  C   UNL     1     -57.687  24.476 -12.939  1.00  0.00     0.006 C 
ATOM     18  C   UNL     1     -55.114  24.914 -13.094  1.00  0.00     0.008 C 
ATOM     19  C   UNL     1     -56.037  22.638 -13.569  1.00  0.00     0.012 C 
ATOM     20  C   UNL     1     -57.781  25.893 -13.665  1.00  0.00    -0.025 C 
ATOM     21  C   UNL     1     -55.316  25.577 -14.470  1.00  0.00     0.005 C 
ATOM     22  C   UNL     1     -56.792  25.841 -14.885  1.00  0.00     0.003 C 
ATOM     23  C   UNL     1     -59.246  26.064 -14.198  1.00  0.00     0.010 C 
ATOM     24  C   UNL     1     -57.463  27.084 -12.706  1.00  0.00     0.012 C 
ATOM     25  C   UNL     1     -56.966  26.956 -15.999  1.00  0.00    -0.006 C 
ATOM     26  C   UNL     1     -59.428  27.166 -15.247  1.00  0.00     0.033 C 
ATOM     27  C   UNL     1     -58.467  26.982 -16.435  1.00  0.00     0.120 C 
ATOM     28  C   UNL     1     -56.124  26.555 -17.240  1.00  0.00     0.014 C 
ATOM     29  C   UNL     1     -56.492  28.377 -15.570  1.00  0.00     0.014 C 
ENDROOT
BRANCH   1  30
ATOM     30  C   UNL     1     -55.360  22.678  -7.499  1.00  0.00     0.048 C 
ATOM     31  O   UNL     1     -54.717  23.565  -6.874  1.00  0.00    -0.550 OA
ATOM     32  O   UNL     1     -54.812  21.402  -7.603  1.00  0.00    -0.550 OA
ENDBRANCH   1  30
BRANCH  27  33
ATOM     33  O   UNL     1     -58.715  27.949 -17.430  1.00  0.00    -0.393 OA
ATOM     34  H   UNL     1     -59.567  28.409 -17.216  1.00  0.00     0.210 HD
ENDBRANCH  27  33
TORSDOF 2
ENDMDL
MODEL 4
REMARK VINA RESULT:    -5.002      2.640      4.244
REMARK INTER + INTRA:          -5.593
REMARK INTER:                  -5.341
REMARK INTRA:                  -0.252
REMARK UNBOUND:                -0.153
REMARK SMILES C[C@H]1[C@H]2C3=CC[C@H]4[C@]5(C)CC[C@@H](O)C(C)(C)[C@H]5CC[C@@]4(C)[C@@]3(C)CC[C@@]2(C(=O)[O-])CC[C@@H]1C
REMARK SMILES IDX 26 1 30 2 25 3 3 4 31 5 24 6 4 7 2 8 32 9 22 10 5 11 1 12
REMARK SMILES IDX 33 13 23 14 20 15 6 16 7 17 19 18 21 19 8 20 18 21 17 22
REMARK SMILES IDX 10 23 9 24 14 25 11 26 12 27 15 28 16 29 27 30 28 31 29 32
REMARK SMILES IDX 13 33
REMARK H PARENT 13 34
REMARK Flexibility Score: inf
ROOT
ATOM      1  C   UNL     1     -55.236  27.025 -12.434  1.00  0.00     0.017 C 
ATOM      2  C   UNL     1     -56.351  27.812 -13.188  1.00  0.00     0.014 C 
ATOM      3  C   UNL     1     -53.839  27.586 -12.917  1.00  0.00     0.014 C 
ATOM      4  C   UNL     1     -55.372  25.460 -12.691  1.00  0.00     0.030 C 
ATOM      5  C   UNL     1     -56.629  27.240 -14.584  1.00  0.00     0.004 C 
ATOM      6  C   UNL     1     -52.579  26.735 -12.567  1.00  0.00     0.013 C 
ATOM      7  C   UNL     1     -54.091  24.928 -13.348  1.00  0.00    -0.063 C 
ATOM      8  C   UNL     1     -56.758  25.017 -13.276  1.00  0.00    -0.003 C 
ATOM      9  C   UNL     1     -57.258  25.832 -14.514  1.00  0.00    -0.011 C 
ATOM     10  C   UNL     1     -52.793  25.177 -12.561  1.00  0.00    -0.006 C 
ATOM     11  C   UNL     1     -54.017  24.828 -14.690  1.00  0.00    -0.027 C 
ATOM     12  C   UNL     1     -56.839  23.496 -13.501  1.00  0.00     0.008 C 
ATOM     13  C   UNL     1     -58.795  25.935 -14.521  1.00  0.00     0.008 C 
ATOM     14  C   UNL     1     -52.987  24.749 -11.066  1.00  0.00     0.017 C 
ATOM     15  C   UNL     1     -51.571  24.337 -13.211  1.00  0.00    -0.020 C 
ATOM     16  C   UNL     1     -52.753  25.161 -15.421  1.00  0.00     0.032 C 
ATOM     17  C   UNL     1     -51.521  24.463 -14.806  1.00  0.00     0.006 C 
ATOM     18  C   UNL     1     -50.209  24.748 -12.562  1.00  0.00     0.008 C 
ATOM     19  C   UNL     1     -51.771  22.819 -12.875  1.00  0.00     0.012 C 
ATOM     20  C   UNL     1     -50.128  24.889 -15.455  1.00  0.00    -0.025 C 
ATOM     21  C   UNL     1     -48.945  24.180 -13.236  1.00  0.00     0.005 C 
ATOM     22  C   UNL     1     -49.024  23.997 -14.780  1.00  0.00     0.003 C 
ATOM     23  C   UNL     1     -50.190  24.557 -16.987  1.00  0.00     0.010 C 
ATOM     24  C   UNL     1     -49.827  26.413 -15.293  1.00  0.00     0.012 C 
ATOM     25  C   UNL     1     -47.613  23.930 -15.501  1.00  0.00    -0.006 C 
ATOM     26  C   UNL     1     -48.833  24.528 -17.698  1.00  0.00     0.033 C 
ATOM     27  C   UNL     1     -47.849  23.570 -17.004  1.00  0.00     0.120 C 
ATOM     28  C   UNL     1     -46.785  22.781 -14.867  1.00  0.00     0.014 C 
ATOM     29  C   UNL     1     -46.760  25.227 -15.373  1.00  0.00     0.014 C 
ENDROOT
BRANCH   1  30
ATOM     30  C   UNL     1     -55.417  27.324 -10.949  1.00  0.00     0.048 C 
ATOM     31  O   UNL     1     -55.973  26.477 -10.198  1.00  0.00    -0.550 OA
ATOM     32  O   UNL     1     -55.011  28.538 -10.402  1.00  0.00    -0.550 OA
ENDBRANCH   1  30
BRANCH  27  33
ATOM     33  O   UNL     1     -46.641  23.486 -17.726  1.00  0.00    -0.393 OA
ATOM     34  H   UNL     1     -46.855  23.473 -18.694  1.00  0.00     0.210 HD
ENDBRANCH  27  33
TORSDOF 2
ENDMDL
MODEL 5
REMARK VINA RESULT:    -5.001      2.754      7.753
REMARK INTER + INTRA:          -5.593
REMARK INTER:                  -5.342
REMARK INTRA:                  -0.251
REMARK UNBOUND:                -0.153
REMARK SMILES C[C@H]1[C@H]2C3=CC[C@H]4[C@]5(C)CC[C@@H](O)C(C)(C)[C@H]5CC[C@@]4(C)[C@@]3(C)CC[C@@]2(C(=O)[O-])CC[C@@H]1C
REMARK SMILES IDX 26 1 30 2 25 3 3 4 31 5 24 6 4 7 2 8 32 9 22 10 5 11 1 12
REMARK SMILES IDX 33 13 23 14 20 15 6 16 7 17 19 18 21 19 8 20 18 21 17 22
REMARK SMILES IDX 10 23 9 24 14 25 11 26 12 27 15 28 16 29 27 30 28 31 29 32
REMARK SMILES IDX 13 33
REMARK H PARENT 13 34
REMARK Flexibility Score: inf
ROOT
ATOM      1  C   UNL     1     -50.089  22.679 -13.667  1.00  0.00     0.017 C 
ATOM      2  C   UNL     1     -49.355  21.861 -14.773  1.00  0.00     0.014 C 
ATOM      3  C   UNL     1     -51.615  22.267 -13.694  1.00  0.00     0.014 C 
ATOM      4  C   UNL     1     -49.888  24.242 -13.887  1.00  0.00     0.030 C 
ATOM      5  C   UNL     1     -49.482  22.507 -16.159  1.00  0.00     0.004 C 
ATOM      6  C   UNL     1     -52.607  23.188 -12.919  1.00  0.00     0.013 C 
ATOM      7  C   UNL     1     -51.253  24.920 -14.071  1.00  0.00    -0.063 C 
ATOM      8  C   UNL     1     -48.725  24.614 -14.871  1.00  0.00    -0.003 C 
ATOM      9  C   UNL     1     -48.728  23.852 -16.237  1.00  0.00    -0.011 C 
ATOM     10  C   UNL     1     -52.250  24.719 -12.917  1.00  0.00    -0.006 C 
ATOM     11  C   UNL     1     -51.741  25.122 -15.312  1.00  0.00    -0.027 C 
ATOM     12  C   UNL     1     -48.570  26.135 -15.046  1.00  0.00     0.008 C 
ATOM     13  C   UNL     1     -47.292  23.628 -16.746  1.00  0.00     0.008 C 
ATOM     14  C   UNL     1     -51.548  25.023 -11.549  1.00  0.00     0.017 C 
ATOM     15  C   UNL     1     -53.526  25.699 -13.100  1.00  0.00    -0.020 C 
ATOM     16  C   UNL     1     -53.198  24.943 -15.607  1.00  0.00     0.032 C 
ATOM     17  C   UNL     1     -54.094  25.692 -14.596  1.00  0.00     0.006 C 
ATOM     18  C   UNL     1     -54.644  25.353 -12.063  1.00  0.00     0.008 C 
ATOM     19  C   UNL     1     -53.081  27.168 -12.784  1.00  0.00     0.012 C 
ATOM     20  C   UNL     1     -55.657  25.426 -14.777  1.00  0.00    -0.025 C 
ATOM     21  C   UNL     1     -55.995  26.066 -12.267  1.00  0.00     0.005 C 
ATOM     22  C   UNL     1     -56.394  26.352 -13.744  1.00  0.00     0.003 C 
ATOM     23  C   UNL     1     -56.054  25.860 -16.230  1.00  0.00     0.010 C 
ATOM     24  C   UNL     1     -56.039  23.923 -14.590  1.00  0.00     0.012 C 
ATOM     25  C   UNL     1     -57.947  26.583 -13.965  1.00  0.00    -0.006 C 
ATOM     26  C   UNL     1     -57.557  26.048 -16.462  1.00  0.00     0.033 C 
ATOM     27  C   UNL     1     -58.169  27.030 -15.447  1.00  0.00     0.120 C 
ATOM     28  C   UNL     1     -58.413  27.746 -13.049  1.00  0.00     0.014 C 
ATOM     29  C   UNL     1     -58.838  25.352 -13.622  1.00  0.00     0.014 C 
ENDROOT
BRANCH   1  30
ATOM     30  C   UNL     1     -49.474  22.260 -12.334  1.00  0.00     0.048 C 
ATOM     31  O   UNL     1     -49.817  21.172 -11.795  1.00  0.00    -0.550 OA
ATOM     32  O   UNL     1     -48.560  23.075 -11.673  1.00  0.00    -0.550 OA
ENDBRANCH   1  30
BRANCH  27  33
ATOM     33  O   UNL     1     -59.529  27.261 -15.735  1.00  0.00    -0.393 OA
ATOM     34  H   UNL     1     -60.044  26.451 -15.487  1.00  0.00     0.210 HD
ENDBRANCH  27  33
TORSDOF 2
ENDMDL
MODEL 6
REMARK VINA RESULT:    -4.876      4.455      7.466
REMARK INTER + INTRA:          -5.456
REMARK INTER:                  -5.209
REMARK INTRA:                  -0.247
REMARK UNBOUND:                -0.153
REMARK SMILES C[C@H]1[C@H]2C3=CC[C@H]4[C@]5(C)CC[C@@H](O)C(C)(C)[C@H]5CC[C@@]4(C)[C@@]3(C)CC[C@@]2(C(=O)[O-])CC[C@@H]1C
REMARK SMILES IDX 26 1 30 2 25 3 3 4 31 5 24 6 4 7 2 8 32 9 22 10 5 11 1 12
REMARK SMILES IDX 33 13 23 14 20 15 6 16 7 17 19 18 21 19 8 20 18 21 17 22
REMARK SMILES IDX 10 23 9 24 14 25 11 26 12 27 15 28 16 29 27 30 28 31 29 32
REMARK SMILES IDX 13 33
REMARK H PARENT 13 34
REMARK Flexibility Score: inf
ROOT
ATOM      1  C   UNL     1     -56.163  17.591  -9.417  1.00  0.00     0.017 C 
ATOM      2  C   UNL     1     -56.598  16.236 -10.054  1.00  0.00     0.014 C 
ATOM      3  C   UNL     1     -57.123  18.717  -9.973  1.00  0.00     0.014 C 
ATOM      4  C   UNL     1     -54.634  17.902  -9.731  1.00  0.00     0.030 C 
ATOM      5  C   UNL     1     -55.999  16.028 -11.451  1.00  0.00     0.004 C 
ATOM      6  C   UNL     1     -56.678  20.196  -9.750  1.00  0.00     0.013 C 
ATOM      7  C   UNL     1     -54.520  19.225 -10.500  1.00  0.00    -0.063 C 
ATOM      8  C   UNL     1     -53.812  16.665 -10.236  1.00  0.00    -0.003 C 
ATOM      9  C   UNL     1     -54.466  15.849 -11.398  1.00  0.00    -0.011 C 
ATOM     10  C   UNL     1     -55.127  20.451  -9.796  1.00  0.00    -0.006 C 
ATOM     11  C   UNL     1     -54.474  19.217 -11.847  1.00  0.00    -0.027 C 
ATOM     12  C   UNL     1     -52.340  17.018 -10.521  1.00  0.00     0.008 C 
ATOM     13  C   UNL     1     -54.108  14.355 -11.292  1.00  0.00     0.008 C 
ATOM     14  C   UNL     1     -54.630  20.513  -8.312  1.00  0.00     0.017 C 
ATOM     15  C   UNL     1     -54.702  21.810 -10.568  1.00  0.00    -0.020 C 
ATOM     16  C   UNL     1     -55.183  20.263 -12.651  1.00  0.00     0.032 C 
ATOM     17  C   UNL     1     -54.870  21.692 -12.155  1.00  0.00     0.006 C 
ATOM     18  C   UNL     1     -55.485  23.038 -10.000  1.00  0.00     0.008 C 
ATOM     19  C   UNL     1     -53.186  22.094 -10.285  1.00  0.00     0.012 C 
ATOM     20  C   UNL     1     -55.704  22.841 -12.882  1.00  0.00    -0.025 C 
ATOM     21  C   UNL     1     -55.332  24.355 -10.786  1.00  0.00     0.005 C 
ATOM     22  C   UNL     1     -55.166  24.209 -12.327  1.00  0.00     0.003 C 
ATOM     23  C   UNL     1     -55.400  22.756 -14.419  1.00  0.00     0.010 C 
ATOM     24  C   UNL     1     -57.245  22.692 -12.675  1.00  0.00     0.012 C 
ATOM     25  C   UNL     1     -55.536  25.514 -13.148  1.00  0.00    -0.006 C 
ATOM     26  C   UNL     1     -55.790  23.999 -15.225  1.00  0.00     0.033 C 
ATOM     27  C   UNL     1     -55.153  25.275 -14.645  1.00  0.00     0.120 C 
ATOM     28  C   UNL     1     -54.672  26.692 -12.625  1.00  0.00     0.014 C 
ATOM     29  C   UNL     1     -57.025  25.955 -13.024  1.00  0.00     0.014 C 
ENDROOT
BRANCH   1  30
ATOM     30  C   UNL     1     -56.364  17.450  -7.910  1.00  0.00     0.048 C 
ATOM     31  O   UNL     1     -57.505  17.638  -7.406  1.00  0.00    -0.550 OA
ATOM     32  O   UNL     1     -55.300  17.150  -7.065  1.00  0.00    -0.550 OA
ENDBRANCH   1  30
BRANCH  27  33
ATOM     33  O   UNL     1     -55.447  26.391 -15.454  1.00  0.00    -0.393 OA
ATOM     34  H   UNL     1     -54.597  26.848 -15.680  1.00  0.00     0.210 HD
ENDBRANCH  27  33
TORSDOF 2
ENDMDL
MODEL 7
REMARK VINA RESULT:    -4.869      3.479      8.505
REMARK INTER + INTRA:          -5.449
REMARK INTER:                  -5.269
REMARK INTRA:                  -0.180
REMARK UNBOUND:                -0.153
REMARK SMILES C[C@H]1[C@H]2C3=CC[C@H]4[C@]5(C)CC[C@@H](O)C(C)(C)[C@H]5CC[C@@]4(C)[C@@]3(C)CC[C@@]2(C(=O)[O-])CC[C@@H]1C
REMARK SMILES IDX 26 1 30 2 25 3 3 4 31 5 24 6 4 7 2 8 32 9 22 10 5 11 1 12
REMARK SMILES IDX 33 13 23 14 20 15 6 16 7 17 19 18 21 19 8 20 18 21 17 22
REMARK SMILES IDX 10 23 9 24 14 25 11 26 12 27 15 28 16 29 27 30 28 31 29 32
REMARK SMILES IDX 13 33
REMARK H PARENT 13 34
REMARK Flexibility Score: inf
ROOT
ATOM      1  C   UNL     1     -56.419  25.574 -14.089  1.00  0.00     0.017 C 
ATOM      2  C   UNL     1     -57.054  25.758 -15.501  1.00  0.00     0.014 C 
ATOM      3  C   UNL     1     -56.816  24.136 -13.565  1.00  0.00     0.014 C 
ATOM      4  C   UNL     1     -56.895  26.723 -13.096  1.00  0.00     0.030 C 
ATOM      5  C   UNL     1     -58.518  26.212 -15.430  1.00  0.00     0.004 C 
ATOM      6  C   UNL     1     -56.589  23.852 -12.048  1.00  0.00     0.013 C 
ATOM      7  C   UNL     1     -57.620  26.104 -11.894  1.00  0.00    -0.063 C 
ATOM      8  C   UNL     1     -57.539  27.966 -13.805  1.00  0.00    -0.003 C 
ATOM      9  C   UNL     1     -58.649  27.641 -14.858  1.00  0.00    -0.011 C 
ATOM     10  C   UNL     1     -56.804  25.079 -11.089  1.00  0.00    -0.006 C 
ATOM     11  C   UNL     1     -58.963  25.987 -11.907  1.00  0.00    -0.027 C 
ATOM     12  C   UNL     1     -57.978  29.049 -12.803  1.00  0.00     0.008 C 
ATOM     13  C   UNL     1     -58.643  28.673 -16.001  1.00  0.00     0.008 C 
ATOM     14  C   UNL     1     -55.386  25.662 -10.768  1.00  0.00     0.017 C 
ATOM     15  C   UNL     1     -57.566  24.715  -9.707  1.00  0.00    -0.020 C 
ATOM     16  C   UNL     1     -59.638  24.776 -11.340  1.00  0.00     0.032 C 
ATOM     17  C   UNL     1     -59.127  24.433  -9.923  1.00  0.00     0.006 C 
ATOM     18  C   UNL     1     -56.865  23.518  -8.985  1.00  0.00     0.008 C 
ATOM     19  C   UNL     1     -57.450  25.938  -8.732  1.00  0.00     0.012 C 
ATOM     20  C   UNL     1     -59.708  23.074  -9.323  1.00  0.00    -0.025 C 
ATOM     21  C   UNL     1     -57.611  22.934  -7.770  1.00  0.00     0.005 C 
ATOM     22  C   UNL     1     -59.165  22.963  -7.852  1.00  0.00     0.003 C 
ATOM     23  C   UNL     1     -61.271  23.195  -9.285  1.00  0.00     0.010 C 
ATOM     24  C   UNL     1     -59.330  21.825 -10.181  1.00  0.00     0.012 C 
ATOM     25  C   UNL     1     -59.887  21.924  -6.896  1.00  0.00    -0.006 C 
ATOM     26  C   UNL     1     -61.978  22.170  -8.393  1.00  0.00     0.033 C 
ATOM     27  C   UNL     1     -61.426  22.192  -6.956  1.00  0.00     0.120 C 
ATOM     28  C   UNL     1     -59.421  22.184  -5.438  1.00  0.00     0.014 C 
ATOM     29  C   UNL     1     -59.575  20.431  -7.212  1.00  0.00     0.014 C 
ENDROOT
BRANCH   1  30
ATOM     30  C   UNL     1     -54.906  25.646 -14.277  1.00  0.00     0.048 C 
ATOM     31  O   UNL     1     -54.243  26.559 -13.713  1.00  0.00    -0.550 OA
ATOM     32  O   UNL     1     -54.236  24.739 -15.094  1.00  0.00    -0.550 OA
ENDBRANCH   1  30
BRANCH  27  33
ATOM     33  O   UNL     1     -62.152  21.310  -6.130  1.00  0.00    -0.393 OA
ATOM     34  H   UNL     1     -61.963  21.540  -5.184  1.00  0.00     0.210 HD
ENDBRANCH  27  33
TORSDOF 2
ENDMDL
MODEL 8
REMARK VINA RESULT:    -4.821      3.794      6.623
REMARK INTER + INTRA:          -5.397
REMARK INTER:                  -5.188
REMARK INTRA:                  -0.208
REMARK UNBOUND:                -0.153
REMARK SMILES C[C@H]1[C@H]2C3=CC[C@H]4[C@]5(C)CC[C@@H](O)C(C)(C)[C@H]5CC[C@@]4(C)[C@@]3(C)CC[C@@]2(C(=O)[O-])CC[C@@H]1C
REMARK SMILES IDX 26 1 30 2 25 3 3 4 31 5 24 6 4 7 2 8 32 9 22 10 5 11 1 12
REMARK SMILES IDX 33 13 23 14 20 15 6 16 7 17 19 18 21 19 8 20 18 21 17 22
REMARK SMILES IDX 10 23 9 24 14 25 11 26 12 27 15 28 16 29 27 30 28 31 29 32
REMARK SMILES IDX 13 33
REMARK H PARENT 13 34
REMARK Flexibility Score: inf
ROOT
ATOM      1  C   UNL     1     -58.879  27.259 -14.336  1.00  0.00     0.017 C 
ATOM      2  C   UNL     1     -60.400  27.493 -14.589  1.00  0.00     0.014 C 
ATOM      3  C   UNL     1     -58.559  25.750 -14.678  1.00  0.00     0.014 C 
ATOM      4  C   UNL     1     -58.489  27.627 -12.837  1.00  0.00     0.030 C 
ATOM      5  C   UNL     1     -61.265  27.062 -13.398  1.00  0.00     0.004 C 
ATOM      6  C   UNL     1     -57.189  25.190 -14.183  1.00  0.00     0.013 C 
ATOM      7  C   UNL     1     -57.907  26.393 -12.134  1.00  0.00    -0.063 C 
ATOM      8  C   UNL     1     -59.561  28.487 -12.081  1.00  0.00    -0.003 C 
ATOM      9  C   UNL     1     -61.030  27.959 -12.163  1.00  0.00    -0.011 C 
ATOM     10  C   UNL     1     -56.677  25.766 -12.812  1.00  0.00    -0.006 C 
ATOM     11  C   UNL     1     -58.711  25.595 -11.402  1.00  0.00    -0.027 C 
ATOM     12  C   UNL     1     -59.134  28.819 -10.639  1.00  0.00     0.008 C 
ATOM     13  C   UNL     1     -62.037  29.125 -12.155  1.00  0.00     0.008 C 
ATOM     14  C   UNL     1     -55.630  26.881 -13.149  1.00  0.00     0.017 C 
ATOM     15  C   UNL     1     -56.000  24.662 -11.840  1.00  0.00    -0.020 C 
ATOM     16  C   UNL     1     -58.546  24.107 -11.418  1.00  0.00     0.032 C 
ATOM     17  C   UNL     1     -57.080  23.680 -11.182  1.00  0.00     0.006 C 
ATOM     18  C   UNL     1     -54.889  23.864 -12.596  1.00  0.00     0.008 C 
ATOM     19  C   UNL     1     -55.277  25.405 -10.664  1.00  0.00     0.012 C 
ATOM     20  C   UNL     1     -56.817  22.114 -11.327  1.00  0.00    -0.025 C 
ATOM     21  C   UNL     1     -54.313  22.643 -11.853  1.00  0.00     0.005 C 
ATOM     22  C   UNL     1     -55.312  21.872 -10.942  1.00  0.00     0.003 C 
ATOM     23  C   UNL     1     -57.736  21.375 -10.292  1.00  0.00     0.010 C 
ATOM     24  C   UNL     1     -57.149  21.575 -12.754  1.00  0.00     0.012 C 
ATOM     25  C   UNL     1     -54.883  20.379 -10.622  1.00  0.00    -0.006 C 
ATOM     26  C   UNL     1     -57.349  19.920 -10.007  1.00  0.00     0.033 C 
ATOM     27  C   UNL     1     -55.880  19.799  -9.566  1.00  0.00     0.120 C 
ATOM     28  C   UNL     1     -53.472  20.396  -9.977  1.00  0.00     0.014 C 
ATOM     29  C   UNL     1     -54.800  19.450 -11.870  1.00  0.00     0.014 C 
ENDROOT
BRANCH   1  30
ATOM     30  C   UNL     1     -58.129  28.170 -15.304  1.00  0.00     0.048 C 
ATOM     31  O   UNL     1     -57.430  29.122 -14.861  1.00  0.00    -0.550 OA
ATOM     32  O   UNL     1     -58.226  27.995 -16.682  1.00  0.00    -0.550 OA
ENDBRANCH   1  30
BRANCH  27  33
ATOM     33  O   UNL     1     -55.571  18.468  -9.219  1.00  0.00    -0.393 OA
ATOM     34  H   UNL     1     -56.183  18.184  -8.492  1.00  0.00     0.210 HD
ENDBRANCH  27  33
TORSDOF 2
ENDMDL
MODEL 9
REMARK VINA RESULT:    -4.816      8.922     12.577
REMARK INTER + INTRA:          -5.391
REMARK INTER:                  -5.142
REMARK INTRA:                  -0.249
REMARK UNBOUND:                -0.153
REMARK SMILES C[C@H]1[C@H]2C3=CC[C@H]4[C@]5(C)CC[C@@H](O)C(C)(C)[C@H]5CC[C@@]4(C)[C@@]3(C)CC[C@@]2(C(=O)[O-])CC[C@@H]1C
REMARK SMILES IDX 26 1 30 2 25 3 3 4 31 5 24 6 4 7 2 8 32 9 22 10 5 11 1 12
REMARK SMILES IDX 33 13 23 14 20 15 6 16 7 17 19 18 21 19 8 20 18 21 17 22
REMARK SMILES IDX 10 23 9 24 14 25 11 26 12 27 15 28 16 29 27 30 28 31 29 32
REMARK SMILES IDX 13 33
REMARK H PARENT 13 34
REMARK Flexibility Score: inf
ROOT
ATOM      1  C   UNL     1     -49.551  14.217 -14.175  1.00  0.00     0.017 C 
ATOM      2  C   UNL     1     -48.885  12.815 -14.017  1.00  0.00     0.014 C 
ATOM      3  C   UNL     1     -49.797  14.800 -12.727  1.00  0.00     0.014 C 
ATOM      4  C   UNL     1     -50.899  14.115 -15.015  1.00  0.00     0.030 C 
ATOM      5  C   UNL     1     -49.913  11.704 -13.769  1.00  0.00     0.004 C 
ATOM      6  C   UNL     1     -50.753  16.028 -12.614  1.00  0.00     0.013 C 
ATOM      7  C   UNL     1     -52.077  14.616 -14.169  1.00  0.00    -0.063 C 
ATOM      8  C   UNL     1     -51.063  12.777 -15.817  1.00  0.00    -0.003 C 
ATOM      9  C   UNL     1     -50.813  11.467 -15.001  1.00  0.00    -0.011 C 
ATOM     10  C   UNL     1     -51.945  16.054 -13.640  1.00  0.00    -0.006 C 
ATOM     11  C   UNL     1     -52.816  13.737 -13.461  1.00  0.00    -0.027 C 
ATOM     12  C   UNL     1     -52.379  12.731 -16.615  1.00  0.00     0.008 C 
ATOM     13  C   UNL     1     -50.209  10.368 -15.896  1.00  0.00     0.008 C 
ATOM     14  C   UNL     1     -51.524  17.012 -14.805  1.00  0.00     0.017 C 
ATOM     15  C   UNL     1     -53.351  16.552 -13.010  1.00  0.00    -0.020 C 
ATOM     16  C   UNL     1     -53.319  14.078 -12.092  1.00  0.00     0.032 C 
ATOM     17  C   UNL     1     -54.017  15.455 -12.052  1.00  0.00     0.006 C 
ATOM     18  C   UNL     1     -53.176  17.920 -12.274  1.00  0.00     0.008 C 
ATOM     19  C   UNL     1     -54.361  16.815 -14.180  1.00  0.00     0.012 C 
ATOM     20  C   UNL     1     -54.450  15.934 -10.594  1.00  0.00    -0.025 C 
ATOM     21  C   UNL     1     -54.386  18.401 -11.450  1.00  0.00     0.005 C 
ATOM     22  C   UNL     1     -55.234  17.283 -10.777  1.00  0.00     0.003 C 
ATOM     23  C   UNL     1     -55.421  14.853 -10.002  1.00  0.00     0.010 C 
ATOM     24  C   UNL     1     -53.236  16.090  -9.624  1.00  0.00     0.012 C 
ATOM     25  C   UNL     1     -56.109  17.779  -9.550  1.00  0.00    -0.006 C 
ATOM     26  C   UNL     1     -56.241  15.313  -8.792  1.00  0.00     0.033 C 
ATOM     27  C   UNL     1     -57.030  16.599  -9.098  1.00  0.00     0.120 C 
ATOM     28  C   UNL     1     -57.027  18.935 -10.030  1.00  0.00     0.014 C 
ATOM     29  C   UNL     1     -55.283  18.326  -8.348  1.00  0.00     0.014 C 
ENDROOT
BRANCH   1  30
ATOM     30  C   UNL     1     -48.546  15.097 -14.913  1.00  0.00     0.048 C 
ATOM     31  O   UNL     1     -48.711  15.354 -16.137  1.00  0.00    -0.550 OA
ATOM     32  O   UNL     1     -47.419  15.602 -14.269  1.00  0.00    -0.550 OA
ENDBRANCH   1  30
BRANCH  27  33
ATOM     33  O   UNL     1     -57.849  16.953  -8.006  1.00  0.00    -0.393 OA
ATOM     34  H   UNL     1     -58.532  16.245  -7.884  1.00  0.00     0.210 HD
ENDBRANCH  27  33
TORSDOF 2
ENDMDL
