MODEL 1
REMARK VINA RESULT:    -3.251      0.000      0.000
REMARK INTER + INTRA:          -6.543
REMARK INTER:                  -5.151
REMARK INTRA:                  -1.392
REMARK UNBOUND:                -1.392
REMARK SMILES CCCCCCCCCCCC(=O)[O-]
REMARK SMILES IDX 7 1 8 2 9 3 10 4 11 5 12 6 13 7 14 8 6 9 5 10 4 11 3 12 2 13
REMARK SMILES IDX 1 14
REMARK H PARENT
REMARK Flexibility Score: inf
ROOT
ATOM      1  C   UNL     1     189.869 176.151 177.139  1.00  0.00     0.000 C 
ENDROOT
BRANCH   1   2
ATOM      2  C   UNL     1     190.770 175.620 176.013  1.00  0.00     0.000 C 
BRANCH   2   3
ATOM      3  C   UNL     1     190.719 174.090 175.886  1.00  0.00     0.000 C 
BRANCH   3   4
ATOM      4  C   UNL     1     190.256 173.626 174.497  1.00  0.00     0.006 C 
BRANCH   4   5
ATOM      5  C   UNL     1     189.877 174.823 173.618  1.00  0.00     0.053 C 
BRANCH   5   6
ATOM      6  C   UNL     1     190.519 174.709 172.271  1.00  0.00     0.041 C 
ATOM      7  O   UNL     1     191.362 173.801 172.046  1.00  0.00    -0.550 OA
ATOM      8  O   UNL     1     190.148 175.574 171.249  1.00  0.00    -0.550 OA
ENDBRANCH   5   6
ENDBRANCH   4   5
ENDBRANCH   3   4
ENDBRANCH   2   3
ENDBRANCH   1   2
BRANCH   1   9
ATOM      9  C   UNL     1     190.077 175.353 178.432  1.00  0.00     0.000 C 
BRANCH   9  10
ATOM     10  C   UNL     1     188.751 175.151 179.174  1.00  0.00    -0.000 C 
BRANCH  10  11
ATOM     11  C   UNL     1     188.141 173.780 178.845  1.00  0.00    -0.000 C 
BRANCH  11  12
ATOM     12  C   UNL     1     186.772 173.892 178.155  1.00  0.00    -0.000 C 
BRANCH  12  13
ATOM     13  C   UNL     1     186.814 173.460 176.683  1.00  0.00    -0.003 C 
ATOM     14  C   UNL     1     186.803 174.671 175.754  1.00  0.00     0.004 C 
ENDBRANCH  12  13
ENDBRANCH  11  12
ENDBRANCH  10  11
ENDBRANCH   9  10
ENDBRANCH   1   9
TORSDOF 10
ENDMDL
MODEL 2
REMARK VINA RESULT:    -3.137      1.197      1.701
REMARK INTER + INTRA:          -6.363
REMARK INTER:                  -5.032
REMARK INTRA:                  -1.331
REMARK UNBOUND:                -1.392
REMARK SMILES CCCCCCCCCCCC(=O)[O-]
REMARK SMILES IDX 7 1 8 2 9 3 10 4 11 5 12 6 13 7 14 8 6 9 5 10 4 11 3 12 2 13
REMARK SMILES IDX 1 14
REMARK H PARENT
REMARK Flexibility Score: inf
ROOT
ATOM      1  C   UNL     1     189.733 176.488 176.343  1.00  0.00     0.000 C 
ENDROOT
BRANCH   1   2
ATOM      2  C   UNL     1     191.064 175.736 176.501  1.00  0.00     0.000 C 
BRANCH   2   3
ATOM      3  C   UNL     1     190.969 174.266 176.061  1.00  0.00     0.000 C 
BRANCH   3   4
ATOM      4  C   UNL     1     189.688 173.966 175.269  1.00  0.00     0.006 C 
BRANCH   4   5
ATOM      5  C   UNL     1     190.013 173.263 173.947  1.00  0.00     0.053 C 
BRANCH   5   6
ATOM      6  C   UNL     1     190.393 174.262 172.900  1.00  0.00     0.041 C 
ATOM      7  O   UNL     1     191.296 173.992 172.065  1.00  0.00    -0.550 OA
ATOM      8  O   UNL     1     189.714 175.471 172.815  1.00  0.00    -0.550 OA
ENDBRANCH   5   6
ENDBRANCH   4   5
ENDBRANCH   3   4
ENDBRANCH   2   3
ENDBRANCH   1   2
BRANCH   1   9
ATOM      9  C   UNL     1     189.308 177.135 177.667  1.00  0.00     0.000 C 
BRANCH   9  10
ATOM     10  C   UNL     1     189.973 176.438 178.860  1.00  0.00    -0.000 C 
BRANCH  10  11
ATOM     11  C   UNL     1     188.950 175.609 179.651  1.00  0.00    -0.000 C 
BRANCH  11  12
ATOM     12  C   UNL     1     188.833 174.165 179.137  1.00  0.00    -0.000 C 
BRANCH  12  13
ATOM     13  C   UNL     1     187.593 173.947 178.259  1.00  0.00    -0.003 C 
ATOM     14  C   UNL     1     186.310 174.121 179.068  1.00  0.00     0.004 C 
ENDBRANCH  12  13
ENDBRANCH  11  12
ENDBRANCH  10  11
ENDBRANCH   9  10
ENDBRANCH   1   9
TORSDOF 10
ENDMDL
MODEL 3
REMARK VINA RESULT:    -3.134      1.612      2.078
REMARK INTER + INTRA:          -6.359
REMARK INTER:                  -5.317
REMARK INTRA:                  -1.042
REMARK UNBOUND:                -1.392
REMARK SMILES CCCCCCCCCCCC(=O)[O-]
REMARK SMILES IDX 7 1 8 2 9 3 10 4 11 5 12 6 13 7 14 8 6 9 5 10 4 11 3 12 2 13
REMARK SMILES IDX 1 14
REMARK H PARENT
REMARK Flexibility Score: inf
ROOT
ATOM      1  C   UNL     1     189.541 176.144 176.333  1.00  0.00     0.000 C 
ENDROOT
BRANCH   1   2
ATOM      2  C   UNL     1     190.660 176.912 175.613  1.00  0.00     0.000 C 
BRANCH   2   3
ATOM      3  C   UNL     1     191.300 176.099 174.476  1.00  0.00     0.000 C 
BRANCH   3   4
ATOM      4  C   UNL     1     190.275 175.637 173.429  1.00  0.00     0.006 C 
BRANCH   4   5
ATOM      5  C   UNL     1     190.576 174.209 172.961  1.00  0.00     0.053 C 
BRANCH   5   6
ATOM      6  C   UNL     1     190.175 173.218 174.009  1.00  0.00     0.041 C 
ATOM      7  O   UNL     1     191.055 172.612 174.676  1.00  0.00    -0.550 OA
ATOM      8  O   UNL     1     188.831 173.002 174.283  1.00  0.00    -0.550 OA
ENDBRANCH   5   6
ENDBRANCH   4   5
ENDBRANCH   3   4
ENDBRANCH   2   3
ENDBRANCH   1   2
BRANCH   1   9
ATOM      9  C   UNL     1     190.120 175.050 177.237  1.00  0.00     0.000 C 
BRANCH   9  10
ATOM     10  C   UNL     1     190.018 175.445 178.715  1.00  0.00    -0.000 C 
BRANCH  10  11
ATOM     11  C   UNL     1     188.594 175.218 179.247  1.00  0.00    -0.000 C 
BRANCH  11  12
ATOM     12  C   UNL     1     188.073 173.802 178.958  1.00  0.00    -0.000 C 
BRANCH  12  13
ATOM     13  C   UNL     1     186.626 173.796 178.446  1.00  0.00    -0.003 C 
ATOM     14  C   UNL     1     186.582 173.777 176.921  1.00  0.00     0.004 C 
ENDBRANCH  12  13
ENDBRANCH  11  12
ENDBRANCH  10  11
ENDBRANCH   9  10
ENDBRANCH   1   9
TORSDOF 10
ENDMDL
MODEL 4
REMARK VINA RESULT:    -3.095      3.366      4.988
REMARK INTER + INTRA:          -6.296
REMARK INTER:                  -4.645
REMARK INTRA:                  -1.652
REMARK UNBOUND:                -1.392
REMARK SMILES CCCCCCCCCCCC(=O)[O-]
REMARK SMILES IDX 7 1 8 2 9 3 10 4 11 5 12 6 13 7 14 8 6 9 5 10 4 11 3 12 2 13
REMARK SMILES IDX 1 14
REMARK H PARENT
REMARK Flexibility Score: inf
ROOT
ATOM      1  C   UNL     1     190.378 176.811 174.246  1.00  0.00     0.000 C 
ENDROOT
BRANCH   1   2
ATOM      2  C   UNL     1     190.006 176.668 175.730  1.00  0.00     0.000 C 
BRANCH   2   3
ATOM      3  C   UNL     1     191.177 176.164 176.588  1.00  0.00     0.000 C 
BRANCH   3   4
ATOM      4  C   UNL     1     190.842 174.872 177.347  1.00  0.00     0.006 C 
BRANCH   4   5
ATOM      5  C   UNL     1     189.328 174.645 177.400  1.00  0.00     0.053 C 
BRANCH   5   6
ATOM      6  C   UNL     1     188.863 174.533 178.818  1.00  0.00     0.041 C 
ATOM      7  O   UNL     1     189.409 175.222 179.720  1.00  0.00    -0.550 OA
ATOM      8  O   UNL     1     187.793 173.705 179.136  1.00  0.00    -0.550 OA
ENDBRANCH   5   6
ENDBRANCH   4   5
ENDBRANCH   3   4
ENDBRANCH   2   3
ENDBRANCH   1   2
BRANCH   1   9
ATOM      9  C   UNL     1     191.275 175.654 173.792  1.00  0.00     0.000 C 
BRANCH   9  10
ATOM     10  C   UNL     1     190.464 174.586 173.047  1.00  0.00    -0.000 C 
BRANCH  10  11
ATOM     11  C   UNL     1     190.254 173.344 173.927  1.00  0.00    -0.000 C 
BRANCH  11  12
ATOM     12  C   UNL     1     188.769 173.057 174.200  1.00  0.00    -0.000 C 
BRANCH  12  13
ATOM     13  C   UNL     1     187.835 174.052 173.497  1.00  0.00    -0.003 C 
ATOM     14  C   UNL     1     186.975 174.807 174.506  1.00  0.00     0.004 C 
ENDBRANCH  12  13
ENDBRANCH  11  12
ENDBRANCH  10  11
ENDBRANCH   9  10
ENDBRANCH   1   9
TORSDOF 10
ENDMDL
MODEL 5
REMARK VINA RESULT:    -3.086      1.482      2.336
REMARK INTER + INTRA:          -6.281
REMARK INTER:                  -5.409
REMARK INTRA:                  -0.872
REMARK UNBOUND:                -1.392
REMARK SMILES CCCCCCCCCCCC(=O)[O-]
REMARK SMILES IDX 7 1 8 2 9 3 10 4 11 5 12 6 13 7 14 8 6 9 5 10 4 11 3 12 2 13
REMARK SMILES IDX 1 14
REMARK H PARENT
REMARK Flexibility Score: inf
ROOT
ATOM      1  C   UNL     1     191.023 175.072 176.809  1.00  0.00     0.000 C 
ENDROOT
BRANCH   1   2
ATOM      2  C   UNL     1     190.778 176.374 176.030  1.00  0.00     0.000 C 
BRANCH   2   3
ATOM      3  C   UNL     1     191.372 176.338 174.614  1.00  0.00     0.000 C 
BRANCH   3   4
ATOM      4  C   UNL     1     190.299 176.426 173.519  1.00  0.00     0.006 C 
BRANCH   4   5
ATOM      5  C   UNL     1     189.530 175.106 173.398  1.00  0.00     0.053 C 
BRANCH   5   6
ATOM      6  C   UNL     1     190.472 173.971 173.147  1.00  0.00     0.041 C 
ATOM      7  O   UNL     1     190.507 172.991 173.937  1.00  0.00    -0.550 OA
ATOM      8  O   UNL     1     191.276 173.972 172.014  1.00  0.00    -0.550 OA
ENDBRANCH   5   6
ENDBRANCH   4   5
ENDBRANCH   3   4
ENDBRANCH   2   3
ENDBRANCH   1   2
BRANCH   1   9
ATOM      9  C   UNL     1     189.818 174.726 177.692  1.00  0.00     0.000 C 
BRANCH   9  10
ATOM     10  C   UNL     1     188.535 174.623 176.858  1.00  0.00    -0.000 C 
BRANCH  10  11
ATOM     11  C   UNL     1     187.444 173.858 177.622  1.00  0.00    -0.000 C 
BRANCH  11  12
ATOM     12  C   UNL     1     187.677 173.853 179.141  1.00  0.00    -0.000 C 
BRANCH  12  13
ATOM     13  C   UNL     1     186.815 174.890 179.875  1.00  0.00    -0.003 C 
ATOM     14  C   UNL     1     185.547 174.252 180.435  1.00  0.00     0.004 C 
ENDBRANCH  12  13
ENDBRANCH  11  12
ENDBRANCH  10  11
ENDBRANCH   9  10
ENDBRANCH   1   9
TORSDOF 10
ENDMDL
MODEL 6
REMARK VINA RESULT:    -3.073      3.729      5.775
REMARK INTER + INTRA:          -6.262
REMARK INTER:                  -4.928
REMARK INTRA:                  -1.334
REMARK UNBOUND:                -1.392
REMARK SMILES CCCCCCCCCCCC(=O)[O-]
REMARK SMILES IDX 7 1 8 2 9 3 10 4 11 5 12 6 13 7 14 8 6 9 5 10 4 11 3 12 2 13
REMARK SMILES IDX 1 14
REMARK H PARENT
REMARK Flexibility Score: inf
ROOT
ATOM      1  C   UNL     1     191.336 176.028 176.221  1.00  0.00     0.000 C 
ENDROOT
BRANCH   1   2
ATOM      2  C   UNL     1     190.958 174.860 177.145  1.00  0.00     0.000 C 
BRANCH   2   3
ATOM      3  C   UNL     1     189.442 174.753 177.375  1.00  0.00     0.000 C 
BRANCH   3   4
ATOM      4  C   UNL     1     189.065 174.779 178.864  1.00  0.00     0.006 C 
BRANCH   4   5
ATOM      5  C   UNL     1     188.751 176.206 179.325  1.00  0.00     0.053 C 
BRANCH   5   6
ATOM      6  C   UNL     1     189.817 176.706 180.248  1.00  0.00     0.041 C 
ATOM      7  O   UNL     1     190.773 177.392 179.798  1.00  0.00    -0.550 OA
ATOM      8  O   UNL     1     189.728 176.458 181.612  1.00  0.00    -0.550 OA
ENDBRANCH   5   6
ENDBRANCH   4   5
ENDBRANCH   3   4
ENDBRANCH   2   3
ENDBRANCH   1   2
BRANCH   1   9
ATOM      9  C   UNL     1     190.115 176.527 175.439  1.00  0.00     0.000 C 
BRANCH   9  10
ATOM     10  C   UNL     1     190.417 176.610 173.938  1.00  0.00    -0.000 C 
BRANCH  10  11
ATOM     11  C   UNL     1     189.749 175.453 173.179  1.00  0.00    -0.000 C 
BRANCH  11  12
ATOM     12  C   UNL     1     190.675 174.236 173.023  1.00  0.00    -0.000 C 
BRANCH  12  13
ATOM     13  C   UNL     1     190.300 173.082 173.963  1.00  0.00    -0.003 C 
ATOM     14  C   UNL     1     188.800 173.066 174.243  1.00  0.00     0.004 C 
ENDBRANCH  12  13
ENDBRANCH  11  12
ENDBRANCH  10  11
ENDBRANCH   9  10
ENDBRANCH   1   9
TORSDOF 10
ENDMDL
MODEL 7
REMARK VINA RESULT:    -3.033      3.908      5.859
REMARK INTER + INTRA:          -6.198
REMARK INTER:                  -5.073
REMARK INTRA:                  -1.126
REMARK UNBOUND:                -1.392
REMARK SMILES CCCCCCCCCCCC(=O)[O-]
REMARK SMILES IDX 7 1 8 2 9 3 10 4 11 5 12 6 13 7 14 8 6 9 5 10 4 11 3 12 2 13
REMARK SMILES IDX 1 14
REMARK H PARENT
REMARK Flexibility Score: inf
ROOT
ATOM      1  C   UNL     1     191.023 175.188 176.886  1.00  0.00     0.000 C 
ENDROOT
BRANCH   1   2
ATOM      2  C   UNL     1     189.766 174.846 177.702  1.00  0.00     0.000 C 
BRANCH   2   3
ATOM      3  C   UNL     1     188.560 174.499 176.816  1.00  0.00     0.000 C 
BRANCH   3   4
ATOM      4  C   UNL     1     187.327 174.081 177.630  1.00  0.00     0.006 C 
BRANCH   4   5
ATOM      5  C   UNL     1     187.696 173.840 179.098  1.00  0.00     0.053 C 
BRANCH   5   6
ATOM      6  C   UNL     1     186.841 174.675 179.998  1.00  0.00     0.041 C 
ATOM      7  O   UNL     1     185.756 174.217 180.445  1.00  0.00    -0.550 OA
ATOM      8  O   UNL     1     187.266 175.940 180.385  1.00  0.00    -0.550 OA
ENDBRANCH   5   6
ENDBRANCH   4   5
ENDBRANCH   3   4
ENDBRANCH   2   3
ENDBRANCH   1   2
BRANCH   1   9
ATOM      9  C   UNL     1     191.106 176.694 176.612  1.00  0.00     0.000 C 
BRANCH   9  10
ATOM     10  C   UNL     1     190.839 177.001 175.133  1.00  0.00    -0.000 C 
BRANCH  10  11
ATOM     11  C   UNL     1     191.356 175.866 174.236  1.00  0.00    -0.000 C 
BRANCH  11  12
ATOM     12  C   UNL     1     190.402 175.551 173.072  1.00  0.00    -0.000 C 
BRANCH  12  13
ATOM     13  C   UNL     1     189.563 174.290 173.320  1.00  0.00    -0.003 C 
ATOM     14  C   UNL     1     190.422 173.157 173.875  1.00  0.00     0.004 C 
ENDBRANCH  12  13
ENDBRANCH  11  12
ENDBRANCH  10  11
ENDBRANCH   9  10
ENDBRANCH   1   9
TORSDOF 10
ENDMDL
MODEL 8
REMARK VINA RESULT:    -3.032      3.360      5.334
REMARK INTER + INTRA:          -6.196
REMARK INTER:                  -4.561
REMARK INTRA:                  -1.635
REMARK UNBOUND:                -1.392
REMARK SMILES CCCCCCCCCCCC(=O)[O-]
REMARK SMILES IDX 7 1 8 2 9 3 10 4 11 5 12 6 13 7 14 8 6 9 5 10 4 11 3 12 2 13
REMARK SMILES IDX 1 14
REMARK H PARENT
REMARK Flexibility Score: inf
ROOT
ATOM      1  C   UNL     1     190.376 177.913 175.068  1.00  0.00     0.000 C 
ENDROOT
BRANCH   1   2
ATOM      2  C   UNL     1     191.474 176.873 175.338  1.00  0.00     0.000 C 
BRANCH   2   3
ATOM      3  C   UNL     1     191.094 175.887 176.454  1.00  0.00     0.000 C 
BRANCH   3   4
ATOM      4  C   UNL     1     189.591 175.903 176.772  1.00  0.00     0.006 C 
BRANCH   4   5
ATOM      5  C   UNL     1     189.086 174.495 177.106  1.00  0.00     0.053 C 
BRANCH   5   6
ATOM      6  C   UNL     1     188.744 174.392 178.559  1.00  0.00     0.041 C 
ATOM      7  O   UNL     1     187.892 173.551 178.951  1.00  0.00    -0.550 OA
ATOM      8  O   UNL     1     189.404 175.189 179.487  1.00  0.00    -0.550 OA
ENDBRANCH   5   6
ENDBRANCH   4   5
ENDBRANCH   3   4
ENDBRANCH   2   3
ENDBRANCH   1   2
BRANCH   1   9
ATOM      9  C   UNL     1     190.148 178.092 173.562  1.00  0.00     0.000 C 
BRANCH   9  10
ATOM     10  C   UNL     1     190.120 176.737 172.845  1.00  0.00    -0.000 C 
BRANCH  10  11
ATOM     11  C   UNL     1     188.772 176.032 173.056  1.00  0.00    -0.000 C 
BRANCH  11  12
ATOM     12  C   UNL     1     188.917 174.508 173.194  1.00  0.00    -0.000 C 
BRANCH  12  13
ATOM     13  C   UNL     1     190.382 174.050 173.196  1.00  0.00    -0.003 C 
ATOM     14  C   UNL     1     190.591 172.878 174.150  1.00  0.00     0.004 C 
ENDBRANCH  12  13
ENDBRANCH  11  12
ENDBRANCH  10  11
ENDBRANCH   9  10
ENDBRANCH   1   9
TORSDOF 10
ENDMDL
