MODEL 1
REMARK VINA RESULT:    -5.345      0.000      0.000
REMARK INTER + INTRA:          -5.658
REMARK INTER:                  -5.658
REMARK INTRA:                   0.000
REMARK UNBOUND:                 0.000
REMARK SMILES O=c1ccc2cc(O)c(O)cc2o1
REMARK SMILES IDX 4 1 3 2 2 3 1 4 13 5 12 6 11 7 9 8 7 9 6 10 5 11 8 12 10 14
REMARK H PARENT 8 13 10 15
REMARK Flexibility Score: inf
ROOT
ATOM      1  C   UNL     1      10.322  -7.256  -9.315  1.00  0.00     0.019 A 
ATOM      2  C   UNL     1       9.524  -7.986 -10.195  1.00  0.00     0.094 A 
ATOM      3  C   UNL     1       8.136  -7.981 -10.016  1.00  0.00     0.336 A 
ATOM      4  O   UNL     1       7.399  -8.635 -10.799  1.00  0.00    -0.246 OA
ATOM      5  O   UNL     1       7.589  -7.288  -9.021  1.00  0.00    -0.423 OA
ATOM      6  C   UNL     1       8.312  -6.577  -8.159  1.00  0.00     0.142 A 
ATOM      7  C   UNL     1       7.681  -5.867  -7.133  1.00  0.00     0.098 A 
ATOM      8  C   UNL     1       8.441  -5.117  -6.223  1.00  0.00     0.161 A 
ATOM      9  C   UNL     1       9.837  -5.077  -6.341  1.00  0.00     0.158 A 
ATOM     10  C   UNL     1      10.476  -5.786  -7.369  1.00  0.00     0.062 A 
ATOM     11  C   UNL     1       9.719  -6.536  -8.279  1.00  0.00     0.022 A 
ENDROOT
BRANCH   9  12
ATOM     12  O   UNL     1      10.584  -4.328  -5.432  1.00  0.00    -0.504 OA
ATOM     13  H   UNL     1      10.171  -3.957  -4.585  1.00  0.00     0.293 HD
ENDBRANCH   9  12
BRANCH   8  14
ATOM     14  O   UNL     1       7.814  -4.410  -5.199  1.00  0.00    -0.504 OA
ATOM     15  H   UNL     1       7.203  -3.623  -5.393  1.00  0.00     0.293 HD
ENDBRANCH   8  14
TORSDOF 2
ENDMDL
MODEL 2
REMARK VINA RESULT:    -5.218      1.729      2.264
REMARK INTER + INTRA:          -5.523
REMARK INTER:                  -5.523
REMARK INTRA:                   0.000
REMARK UNBOUND:                 0.000
REMARK SMILES O=c1ccc2cc(O)c(O)cc2o1
REMARK SMILES IDX 4 1 3 2 2 3 1 4 13 5 12 6 11 7 9 8 7 9 6 10 5 11 8 12 10 14
REMARK H PARENT 8 13 10 15
REMARK Flexibility Score: inf
ROOT
ATOM      1  C   UNL     1       8.114  -8.402  -8.205  1.00  0.00     0.019 A 
ATOM      2  C   UNL     1       8.275  -8.083  -9.552  1.00  0.00     0.094 A 
ATOM      3  C   UNL     1       8.348  -6.736  -9.927  1.00  0.00     0.336 A 
ATOM      4  O   UNL     1       8.492  -6.428 -11.138  1.00  0.00    -0.246 OA
ATOM      5  O   UNL     1       8.265  -5.777  -9.008  1.00  0.00    -0.423 OA
ATOM      6  C   UNL     1       8.112  -6.037  -7.712  1.00  0.00     0.142 A 
ATOM      7  C   UNL     1       8.032  -4.988  -6.792  1.00  0.00     0.098 A 
ATOM      8  C   UNL     1       7.870  -5.258  -5.425  1.00  0.00     0.161 A 
ATOM      9  C   UNL     1       7.789  -6.584  -4.977  1.00  0.00     0.158 A 
ATOM     10  C   UNL     1       7.870  -7.642  -5.895  1.00  0.00     0.062 A 
ATOM     11  C   UNL     1       8.031  -7.373  -7.262  1.00  0.00     0.022 A 
ENDROOT
BRANCH   9  12
ATOM     12  O   UNL     1       7.629  -6.843  -3.617  1.00  0.00    -0.504 OA
ATOM     13  H   UNL     1       7.929  -6.181  -2.911  1.00  0.00     0.293 HD
ENDBRANCH   9  12
BRANCH   8  14
ATOM     14  O   UNL     1       7.789  -4.214  -4.506  1.00  0.00    -0.504 OA
ATOM     15  H   UNL     1       8.161  -3.293  -4.714  1.00  0.00     0.293 HD
ENDBRANCH   8  14
TORSDOF 2
ENDMDL
MODEL 3
REMARK VINA RESULT:    -5.166      1.561      2.018
REMARK INTER + INTRA:          -5.468
REMARK INTER:                  -5.468
REMARK INTRA:                   0.000
REMARK UNBOUND:                 0.000
REMARK SMILES O=c1ccc2cc(O)c(O)cc2o1
REMARK SMILES IDX 4 1 3 2 2 3 1 4 13 5 12 6 11 7 9 8 7 9 6 10 5 11 8 12 10 14
REMARK H PARENT 8 13 10 15
REMARK Flexibility Score: inf
ROOT
ATOM      1  C   UNL     1       8.366  -5.647  -9.051  1.00  0.00     0.019 A 
ATOM      2  C   UNL     1       8.385  -6.698  -9.966  1.00  0.00     0.094 A 
ATOM      3  C   UNL     1       8.220  -8.007  -9.500  1.00  0.00     0.336 A 
ATOM      4  O   UNL     1       8.235  -8.970 -10.310  1.00  0.00    -0.246 OA
ATOM      5  O   UNL     1       8.045  -8.242  -8.202  1.00  0.00    -0.423 OA
ATOM      6  C   UNL     1       8.018  -7.268  -7.295  1.00  0.00     0.142 A 
ATOM      7  C   UNL     1       7.830  -7.575  -5.944  1.00  0.00     0.098 A 
ATOM      8  C   UNL     1       7.802  -6.551  -4.984  1.00  0.00     0.161 A 
ATOM      9  C   UNL     1       7.962  -5.216  -5.379  1.00  0.00     0.158 A 
ATOM     10  C   UNL     1       8.150  -4.901  -6.733  1.00  0.00     0.062 A 
ATOM     11  C   UNL     1       8.179  -5.923  -7.693  1.00  0.00     0.022 A 
ENDROOT
BRANCH   9  12
ATOM     12  O   UNL     1       7.932  -4.205  -4.419  1.00  0.00    -0.504 OA
ATOM     13  H   UNL     1       8.740  -3.996  -3.844  1.00  0.00     0.293 HD
ENDBRANCH   9  12
BRANCH   8  14
ATOM     14  O   UNL     1       7.615  -6.855  -3.638  1.00  0.00    -0.504 OA
ATOM     15  H   UNL     1       8.159  -6.402  -2.911  1.00  0.00     0.293 HD
ENDBRANCH   8  14
TORSDOF 2
ENDMDL
MODEL 4
REMARK VINA RESULT:    -5.157      1.208      2.281
REMARK INTER + INTRA:          -5.459
REMARK INTER:                  -5.459
REMARK INTRA:                   0.000
REMARK UNBOUND:                 0.000
REMARK SMILES O=c1ccc2cc(O)c(O)cc2o1
REMARK SMILES IDX 4 1 3 2 2 3 1 4 13 5 12 6 11 7 9 8 7 9 6 10 5 11 8 12 10 14
REMARK H PARENT 8 13 10 15
REMARK Flexibility Score: inf
ROOT
ATOM      1  C   UNL     1       7.640  -7.726  -8.919  1.00  0.00     0.019 A 
ATOM      2  C   UNL     1       8.344  -8.378  -9.929  1.00  0.00     0.094 A 
ATOM      3  C   UNL     1       9.721  -8.159 -10.047  1.00  0.00     0.336 A 
ATOM      4  O   UNL     1      10.375  -8.737 -10.953  1.00  0.00    -0.246 OA
ATOM      5  O   UNL     1      10.346  -7.339  -9.205  1.00  0.00    -0.423 OA
ATOM      6  C   UNL     1       9.713  -6.697  -8.226  1.00  0.00     0.142 A 
ATOM      7  C   UNL     1      10.422  -5.849  -7.371  1.00  0.00     0.098 A 
ATOM      8  C   UNL     1       9.758  -5.170  -6.338  1.00  0.00     0.161 A 
ATOM      9  C   UNL     1       8.378  -5.342  -6.161  1.00  0.00     0.158 A 
ATOM     10  C   UNL     1       7.660  -6.193  -7.015  1.00  0.00     0.062 A 
ATOM     11  C   UNL     1       8.323  -6.871  -8.047  1.00  0.00     0.022 A 
ENDROOT
BRANCH   9  12
ATOM     12  O   UNL     1       7.726  -4.664  -5.132  1.00  0.00    -0.504 OA
ATOM     13  H   UNL     1       8.205  -3.976  -4.563  1.00  0.00     0.293 HD
ENDBRANCH   9  12
BRANCH   8  14
ATOM     14  O   UNL     1      10.463  -4.324  -5.485  1.00  0.00    -0.504 OA
ATOM     15  H   UNL     1      10.682  -4.593  -4.532  1.00  0.00     0.293 HD
ENDBRANCH   8  14
TORSDOF 2
ENDMDL
MODEL 5
REMARK VINA RESULT:    -5.078     17.366     18.421
REMARK INTER + INTRA:          -5.375
REMARK INTER:                  -5.375
REMARK INTRA:                   0.000
REMARK UNBOUND:                 0.000
REMARK SMILES O=c1ccc2cc(O)c(O)cc2o1
REMARK SMILES IDX 4 1 3 2 2 3 1 4 13 5 12 6 11 7 9 8 7 9 6 10 5 11 8 12 10 14
REMARK H PARENT 8 13 10 15
REMARK Flexibility Score: inf
ROOT
ATOM      1  C   UNL     1      20.756  -1.295 -21.971  1.00  0.00     0.019 A 
ATOM      2  C   UNL     1      21.523  -0.531 -22.850  1.00  0.00     0.094 A 
ATOM      3  C   UNL     1      22.253   0.552 -22.348  1.00  0.00     0.336 A 
ATOM      4  O   UNL     1      22.950   1.254 -23.125  1.00  0.00    -0.246 OA
ATOM      5  O   UNL     1      22.214   0.846 -21.050  1.00  0.00    -0.423 OA
ATOM      6  C   UNL     1      21.496   0.143 -20.177  1.00  0.00     0.142 A 
ATOM      7  C   UNL     1      21.494   0.499 -18.825  1.00  0.00     0.098 A 
ATOM      8  C   UNL     1      20.739  -0.239 -17.902  1.00  0.00     0.161 A 
ATOM      9  C   UNL     1      19.982  -1.338 -18.334  1.00  0.00     0.158 A 
ATOM     10  C   UNL     1      19.981  -1.701 -19.689  1.00  0.00     0.062 A 
ATOM     11  C   UNL     1      20.735  -0.964 -20.613  1.00  0.00     0.022 A 
ENDROOT
BRANCH   9  12
ATOM     12  O   UNL     1      19.235  -2.066 -17.409  1.00  0.00    -0.504 OA
ATOM     13  H   UNL     1      18.934  -3.015 -17.600  1.00  0.00     0.293 HD
ENDBRANCH   9  12
BRANCH   8  14
ATOM     14  O   UNL     1      20.735   0.114 -16.554  1.00  0.00    -0.504 OA
ATOM     15  H   UNL     1      20.768   1.084 -16.259  1.00  0.00     0.293 HD
ENDBRANCH   8  14
TORSDOF 2
ENDMDL
MODEL 6
REMARK VINA RESULT:    -5.069     16.671     18.062
REMARK INTER + INTRA:          -5.365
REMARK INTER:                  -5.365
REMARK INTRA:                   0.000
REMARK UNBOUND:                 0.000
REMARK SMILES O=c1ccc2cc(O)c(O)cc2o1
REMARK SMILES IDX 4 1 3 2 2 3 1 4 13 5 12 6 11 7 9 8 7 9 6 10 5 11 8 12 10 14
REMARK H PARENT 8 13 10 15
REMARK Flexibility Score: inf
ROOT
ATOM      1  C   UNL     1      19.291  -2.075 -18.864  1.00  0.00     0.019 A 
ATOM      2  C   UNL     1      19.045  -1.662 -17.556  1.00  0.00     0.094 A 
ATOM      3  C   UNL     1      19.625  -0.473 -17.099  1.00  0.00     0.336 A 
ATOM      4  O   UNL     1      19.416  -0.083 -15.922  1.00  0.00    -0.246 OA
ATOM      5  O   UNL     1      20.400   0.250 -17.904  1.00  0.00    -0.423 OA
ATOM      6  C   UNL     1      20.660  -0.108 -19.160  1.00  0.00     0.142 A 
ATOM      7  C   UNL     1      21.481   0.693 -19.960  1.00  0.00     0.098 A 
ATOM      8  C   UNL     1      21.758   0.319 -21.283  1.00  0.00     0.161 A 
ATOM      9  C   UNL     1      21.211  -0.860 -21.808  1.00  0.00     0.158 A 
ATOM     10  C   UNL     1      20.386  -1.667 -21.011  1.00  0.00     0.062 A 
ATOM     11  C   UNL     1      20.108  -1.295 -19.688  1.00  0.00     0.022 A 
ENDROOT
BRANCH   9  12
ATOM     12  O   UNL     1      21.492  -1.223 -23.124  1.00  0.00    -0.504 OA
ATOM     13  H   UNL     1      22.020  -0.617 -23.741  1.00  0.00     0.293 HD
ENDBRANCH   9  12
BRANCH   8  14
ATOM     14  O   UNL     1      22.577   1.115 -22.082  1.00  0.00    -0.504 OA
ATOM     15  H   UNL     1      22.201   1.880 -22.632  1.00  0.00     0.293 HD
ENDBRANCH   8  14
TORSDOF 2
ENDMDL
MODEL 7
REMARK VINA RESULT:    -4.998      3.165      4.510
REMARK INTER + INTRA:          -5.291
REMARK INTER:                  -5.291
REMARK INTRA:                   0.000
REMARK UNBOUND:                 0.000
REMARK SMILES O=c1ccc2cc(O)c(O)cc2o1
REMARK SMILES IDX 4 1 3 2 2 3 1 4 13 5 12 6 11 7 9 8 7 9 6 10 5 11 8 12 10 14
REMARK H PARENT 8 13 10 15
REMARK Flexibility Score: inf
ROOT
ATOM      1  C   UNL     1       8.027  -5.437  -7.146  1.00  0.00     0.019 A 
ATOM      2  C   UNL     1       9.104  -6.291  -6.914  1.00  0.00     0.094 A 
ATOM      3  C   UNL     1       9.980  -6.580  -7.967  1.00  0.00     0.336 A 
ATOM      4  O   UNL     1      10.957  -7.349  -7.778  1.00  0.00    -0.246 OA
ATOM      5  O   UNL     1       9.786  -6.045  -9.170  1.00  0.00    -0.423 OA
ATOM      6  C   UNL     1       8.771  -5.224  -9.434  1.00  0.00     0.142 A 
ATOM      7  C   UNL     1       8.618  -4.692 -10.718  1.00  0.00     0.098 A 
ATOM      8  C   UNL     1       7.550  -3.826 -11.000  1.00  0.00     0.161 A 
ATOM      9  C   UNL     1       6.633  -3.494  -9.994  1.00  0.00     0.158 A 
ATOM     10  C   UNL     1       6.781  -4.024  -8.704  1.00  0.00     0.062 A 
ATOM     11  C   UNL     1       7.848  -4.889  -8.420  1.00  0.00     0.022 A 
ENDROOT
BRANCH   9  12
ATOM     12  O   UNL     1       5.575  -2.633 -10.284  1.00  0.00    -0.504 OA
ATOM     13  H   UNL     1       5.237  -2.508 -11.231  1.00  0.00     0.293 HD
ENDBRANCH   9  12
BRANCH   8  14
ATOM     14  O   UNL     1       7.395  -3.295 -12.279  1.00  0.00    -0.504 OA
ATOM     15  H   UNL     1       8.111  -3.404 -12.989  1.00  0.00     0.293 HD
ENDBRANCH   8  14
TORSDOF 2
ENDMDL
MODEL 8
REMARK VINA RESULT:    -4.973      2.068      2.547
REMARK INTER + INTRA:          -5.264
REMARK INTER:                  -5.264
REMARK INTRA:                   0.000
REMARK UNBOUND:                 0.000
REMARK SMILES O=c1ccc2cc(O)c(O)cc2o1
REMARK SMILES IDX 4 1 3 2 2 3 1 4 13 5 12 6 11 7 9 8 7 9 6 10 5 11 8 12 10 14
REMARK H PARENT 8 13 10 15
REMARK Flexibility Score: inf
ROOT
ATOM      1  C   UNL     1      10.880  -6.847  -8.263  1.00  0.00     0.019 A 
ATOM      2  C   UNL     1      11.422  -7.144  -9.511  1.00  0.00     0.094 A 
ATOM      3  C   UNL     1      10.772  -6.682 -10.661  1.00  0.00     0.336 A 
ATOM      4  O   UNL     1      11.244  -6.940 -11.798  1.00  0.00    -0.246 OA
ATOM      5  O   UNL     1       9.653  -5.968 -10.560  1.00  0.00    -0.423 OA
ATOM      6  C   UNL     1       9.102  -5.661  -9.388  1.00  0.00     0.142 A 
ATOM      7  C   UNL     1       7.926  -4.907  -9.343  1.00  0.00     0.098 A 
ATOM      8  C   UNL     1       7.342  -4.581  -8.110  1.00  0.00     0.161 A 
ATOM      9  C   UNL     1       7.939  -5.012  -6.917  1.00  0.00     0.158 A 
ATOM     10  C   UNL     1       9.120  -5.767  -6.954  1.00  0.00     0.062 A 
ATOM     11  C   UNL     1       9.704  -6.094  -8.186  1.00  0.00     0.022 A 
ENDROOT
BRANCH   9  12
ATOM     12  O   UNL     1       7.352  -4.683  -5.695  1.00  0.00    -0.504 OA
ATOM     13  H   UNL     1       7.677  -3.897  -5.145  1.00  0.00     0.293 HD
ENDBRANCH   9  12
BRANCH   8  14
ATOM     14  O   UNL     1       6.169  -3.830  -8.063  1.00  0.00    -0.504 OA
ATOM     15  H   UNL     1       6.184  -2.833  -7.879  1.00  0.00     0.293 HD
ENDBRANCH   8  14
TORSDOF 2
ENDMDL
MODEL 9
REMARK VINA RESULT:    -4.848     16.660     17.910
REMARK INTER + INTRA:          -5.132
REMARK INTER:                  -5.132
REMARK INTRA:                   0.000
REMARK UNBOUND:                 0.000
REMARK SMILES O=c1ccc2cc(O)c(O)cc2o1
REMARK SMILES IDX 4 1 3 2 2 3 1 4 13 5 12 6 11 7 9 8 7 9 6 10 5 11 8 12 10 14
REMARK H PARENT 8 13 10 15
REMARK Flexibility Score: inf
ROOT
ATOM      1  C   UNL     1      20.596   0.246 -17.780  1.00  0.00     0.019 A 
ATOM      2  C   UNL     1      19.817  -0.565 -16.957  1.00  0.00     0.094 A 
ATOM      3  C   UNL     1      19.236  -1.720 -17.495  1.00  0.00     0.336 A 
ATOM      4  O   UNL     1      18.529  -2.465 -16.768  1.00  0.00    -0.246 OA
ATOM      5  O   UNL     1      19.428  -2.036 -18.773  1.00  0.00    -0.423 OA
ATOM      6  C   UNL     1      20.165  -1.291 -19.593  1.00  0.00     0.142 A 
ATOM      7  C   UNL     1      20.332  -1.674 -20.927  1.00  0.00     0.098 A 
ATOM      8  C   UNL     1      21.108  -0.891 -21.795  1.00  0.00     0.161 A 
ATOM      9  C   UNL     1      21.719   0.280 -21.325  1.00  0.00     0.158 A 
ATOM     10  C   UNL     1      21.557   0.669 -19.987  1.00  0.00     0.062 A 
ATOM     11  C   UNL     1      20.781  -0.112 -19.119  1.00  0.00     0.022 A 
ENDROOT
BRANCH   9  12
ATOM     12  O   UNL     1      22.489   1.052 -22.194  1.00  0.00    -0.504 OA
ATOM     13  H   UNL     1      22.107   1.867 -22.660  1.00  0.00     0.293 HD
ENDBRANCH   9  12
BRANCH   8  14
ATOM     14  O   UNL     1      21.275  -1.270 -23.125  1.00  0.00    -0.504 OA
ATOM     15  H   UNL     1      20.554  -1.775 -23.628  1.00  0.00     0.293 HD
ENDBRANCH   8  14
TORSDOF 2
ENDMDL
