MODEL 1
REMARK VINA RESULT:    -4.159      0.000      0.000
REMARK INTER + INTRA:          -8.983
REMARK INTER:                  -7.563
REMARK INTRA:                  -1.420
REMARK UNBOUND:                -1.420
REMARK SMILES CCCCCCCCCCCCCCCC(=O)[O-]
REMARK SMILES IDX 9 1 10 2 11 3 12 4 13 5 14 6 15 7 16 8 17 9 18 10 8 11 7 12
REMARK SMILES IDX 6 13 5 14 4 15 3 16 2 17 1 18
REMARK H PARENT
REMARK Flexibility Score: inf
ROOT
ATOM      1  C   UNL     1      -4.629  24.072 -13.328  1.00  0.00     0.000 C 
ENDROOT
BRANCH   1   2
ATOM      2  C   UNL     1      -4.188  25.548 -13.409  1.00  0.00     0.000 C 
BRANCH   2   3
ATOM      3  C   UNL     1      -5.192  26.558 -12.827  1.00  0.00     0.000 C 
BRANCH   3   4
ATOM      4  C   UNL     1      -6.652  26.121 -13.010  1.00  0.00     0.000 C 
BRANCH   4   5
ATOM      5  C   UNL     1      -7.473  26.401 -11.742  1.00  0.00     0.000 C 
BRANCH   5   6
ATOM      6  C   UNL     1      -6.593  26.599 -10.498  1.00  0.00     0.006 C 
BRANCH   6   7
ATOM      7  C   UNL     1      -6.569  25.364  -9.589  1.00  0.00     0.053 C 
BRANCH   7   8
ATOM      8  C   UNL     1      -6.179  25.749  -8.197  1.00  0.00     0.041 C 
ATOM      9  O   UNL     1      -6.440  26.900  -7.762  1.00  0.00    -0.550 OA
ATOM     10  O   UNL     1      -5.486  24.850  -7.395  1.00  0.00    -0.550 OA
ENDBRANCH   7   8
ENDBRANCH   6   7
ENDBRANCH   5   6
ENDBRANCH   4   5
ENDBRANCH   3   4
ENDBRANCH   2   3
ENDBRANCH   1   2
BRANCH   1  11
ATOM     11  C   UNL     1      -4.265  23.350 -12.016  1.00  0.00     0.000 C 
BRANCH  11  12
ATOM     12  C   UNL     1      -5.001  22.018 -11.786  1.00  0.00    -0.000 C 
BRANCH  12  13
ATOM     13  C   UNL     1      -6.444  22.214 -11.289  1.00  0.00    -0.000 C 
BRANCH  13  14
ATOM     14  C   UNL     1      -7.034  20.940 -10.663  1.00  0.00    -0.000 C 
BRANCH  14  15
ATOM     15  C   UNL     1      -6.493  20.675  -9.247  1.00  0.00    -0.000 C 
BRANCH  15  16
ATOM     16  C   UNL     1      -6.068  19.212  -9.043  1.00  0.00    -0.000 C 
BRANCH  16  17
ATOM     17  C   UNL     1      -7.060  18.422  -8.177  1.00  0.00    -0.003 C 
ATOM     18  C   UNL     1      -7.756  19.333  -7.169  1.00  0.00     0.004 C 
ENDBRANCH  16  17
ENDBRANCH  15  16
ENDBRANCH  14  15
ENDBRANCH  13  14
ENDBRANCH  12  13
ENDBRANCH  11  12
ENDBRANCH   1  11
TORSDOF 14
ENDMDL
MODEL 2
REMARK VINA RESULT:    -4.144      1.192      1.833
REMARK INTER + INTRA:          -8.956
REMARK INTER:                  -7.053
REMARK INTRA:                  -1.903
REMARK UNBOUND:                -1.420
REMARK SMILES CCCCCCCCCCCCCCCC(=O)[O-]
REMARK SMILES IDX 9 1 10 2 11 3 12 4 13 5 14 6 15 7 16 8 17 9 18 10 8 11 7 12
REMARK SMILES IDX 6 13 5 14 4 15 3 16 2 17 1 18
REMARK H PARENT
REMARK Flexibility Score: inf
ROOT
ATOM      1  C   UNL     1      -4.875  24.087 -11.096  1.00  0.00     0.000 C 
ENDROOT
BRANCH   1   2
ATOM      2  C   UNL     1      -4.984  24.262 -12.625  1.00  0.00     0.000 C 
BRANCH   2   3
ATOM      3  C   UNL     1      -4.409  25.581 -13.170  1.00  0.00     0.000 C 
BRANCH   3   4
ATOM      4  C   UNL     1      -5.257  26.804 -12.789  1.00  0.00     0.000 C 
BRANCH   4   5
ATOM      5  C   UNL     1      -6.747  26.542 -13.052  1.00  0.00     0.000 C 
BRANCH   5   6
ATOM      6  C   UNL     1      -7.625  26.825 -11.823  1.00  0.00     0.006 C 
BRANCH   6   7
ATOM      7  C   UNL     1      -6.811  27.302 -10.613  1.00  0.00     0.053 C 
BRANCH   7   8
ATOM      8  C   UNL     1      -7.366  26.722  -9.350  1.00  0.00     0.041 C 
ATOM      9  O   UNL     1      -6.760  26.884  -8.259  1.00  0.00    -0.550 OA
ATOM     10  O   UNL     1      -8.529  25.963  -9.387  1.00  0.00    -0.550 OA
ENDBRANCH   7   8
ENDBRANCH   6   7
ENDBRANCH   5   6
ENDBRANCH   4   5
ENDBRANCH   3   4
ENDBRANCH   2   3
ENDBRANCH   1   2
BRANCH   1  11
ATOM     11  C   UNL     1      -6.127  23.506 -10.412  1.00  0.00     0.000 C 
BRANCH  11  12
ATOM     12  C   UNL     1      -7.258  23.097 -11.372  1.00  0.00    -0.000 C 
BRANCH  12  13
ATOM     13  C   UNL     1      -7.636  21.610 -11.246  1.00  0.00    -0.000 C 
BRANCH  13  14
ATOM     14  C   UNL     1      -6.476  20.671 -11.613  1.00  0.00    -0.000 C 
BRANCH  14  15
ATOM     15  C   UNL     1      -6.116  19.705 -10.470  1.00  0.00    -0.000 C 
BRANCH  15  16
ATOM     16  C   UNL     1      -6.893  20.005  -9.179  1.00  0.00    -0.000 C 
BRANCH  16  17
ATOM     17  C   UNL     1      -7.390  18.732  -8.478  1.00  0.00    -0.003 C 
ATOM     18  C   UNL     1      -7.902  19.043  -7.074  1.00  0.00     0.004 C 
ENDBRANCH  16  17
ENDBRANCH  15  16
ENDBRANCH  14  15
ENDBRANCH  13  14
ENDBRANCH  12  13
ENDBRANCH  11  12
ENDBRANCH   1  11
TORSDOF 14
ENDMDL
MODEL 3
REMARK VINA RESULT:    -4.047      2.549      5.617
REMARK INTER + INTRA:          -8.780
REMARK INTER:                  -6.669
REMARK INTRA:                  -2.111
REMARK UNBOUND:                -1.420
REMARK SMILES CCCCCCCCCCCCCCCC(=O)[O-]
REMARK SMILES IDX 9 1 10 2 11 3 12 4 13 5 14 6 15 7 16 8 17 9 18 10 8 11 7 12
REMARK SMILES IDX 6 13 5 14 4 15 3 16 2 17 1 18
REMARK H PARENT
REMARK Flexibility Score: inf
ROOT
ATOM      1  C   UNL     1      -4.898  24.558 -13.952  1.00  0.00     0.000 C 
ENDROOT
BRANCH   1   2
ATOM      2  C   UNL     1      -4.755  23.136 -13.374  1.00  0.00     0.000 C 
BRANCH   2   3
ATOM      3  C   UNL     1      -5.104  23.005 -11.880  1.00  0.00     0.000 C 
BRANCH   3   4
ATOM      4  C   UNL     1      -5.173  21.545 -11.410  1.00  0.00     0.000 C 
BRANCH   4   5
ATOM      5  C   UNL     1      -6.557  20.941 -11.696  1.00  0.00     0.000 C 
BRANCH   5   6
ATOM      6  C   UNL     1      -7.408  20.783 -10.427  1.00  0.00     0.006 C 
BRANCH   6   7
ATOM      7  C   UNL     1      -6.564  20.469  -9.185  1.00  0.00     0.053 C 
BRANCH   7   8
ATOM      8  C   UNL     1      -7.180  19.350  -8.406  1.00  0.00     0.041 C 
ATOM      9  O   UNL     1      -7.266  18.200  -8.909  1.00  0.00    -0.550 OA
ATOM     10  O   UNL     1      -7.702  19.589  -7.140  1.00  0.00    -0.550 OA
ENDBRANCH   7   8
ENDBRANCH   6   7
ENDBRANCH   5   6
ENDBRANCH   4   5
ENDBRANCH   3   4
ENDBRANCH   2   3
ENDBRANCH   1   2
BRANCH   1  11
ATOM     11  C   UNL     1      -4.330  25.686 -13.069  1.00  0.00     0.000 C 
BRANCH  11  12
ATOM     12  C   UNL     1      -5.331  26.803 -12.724  1.00  0.00    -0.000 C 
BRANCH  12  13
ATOM     13  C   UNL     1      -6.694  26.614 -13.414  1.00  0.00    -0.000 C 
BRANCH  13  14
ATOM     14  C   UNL     1      -7.868  26.633 -12.422  1.00  0.00    -0.000 C 
BRANCH  14  15
ATOM     15  C   UNL     1      -7.705  25.599 -11.295  1.00  0.00    -0.000 C 
BRANCH  15  16
ATOM     16  C   UNL     1      -8.475  24.298 -11.573  1.00  0.00    -0.000 C 
BRANCH  16  17
ATOM     17  C   UNL     1      -9.121  24.278 -12.966  1.00  0.00    -0.003 C 
ATOM     18  C   UNL     1      -8.477  23.218 -13.855  1.00  0.00     0.004 C 
ENDBRANCH  16  17
ENDBRANCH  15  16
ENDBRANCH  14  15
ENDBRANCH  13  14
ENDBRANCH  12  13
ENDBRANCH  11  12
ENDBRANCH   1  11
TORSDOF 14
ENDMDL
MODEL 4
REMARK VINA RESULT:    -3.933     11.169     12.977
REMARK INTER + INTRA:          -8.572
REMARK INTER:                  -6.243
REMARK INTRA:                  -2.329
REMARK UNBOUND:                -1.420
REMARK SMILES CCCCCCCCCCCCCCCC(=O)[O-]
REMARK SMILES IDX 9 1 10 2 11 3 12 4 13 5 14 6 15 7 16 8 17 9 18 10 8 11 7 12
REMARK SMILES IDX 6 13 5 14 4 15 3 16 2 17 1 18
REMARK H PARENT
REMARK Flexibility Score: inf
ROOT
ATOM      1  C   UNL     1     -15.521  25.045 -12.320  1.00  0.00     0.000 C 
ENDROOT
BRANCH   1   2
ATOM      2  C   UNL     1     -16.552  26.009 -11.699  1.00  0.00     0.000 C 
BRANCH   2   3
ATOM      3  C   UNL     1     -16.077  27.466 -11.558  1.00  0.00     0.000 C 
BRANCH   3   4
ATOM      4  C   UNL     1     -16.789  28.422 -12.525  1.00  0.00     0.000 C 
BRANCH   4   5
ATOM      5  C   UNL     1     -15.859  28.829 -13.679  1.00  0.00     0.000 C 
BRANCH   5   6
ATOM      6  C   UNL     1     -16.584  29.632 -14.769  1.00  0.00     0.006 C 
BRANCH   6   7
ATOM      7  C   UNL     1     -16.170  29.213 -16.186  1.00  0.00     0.053 C 
BRANCH   7   8
ATOM      8  C   UNL     1     -17.318  29.369 -17.132  1.00  0.00     0.041 C 
ATOM      9  O   UNL     1     -17.132  29.854 -18.279  1.00  0.00    -0.550 OA
ATOM     10  O   UNL     1     -18.602  29.021 -16.731  1.00  0.00    -0.550 OA
ENDBRANCH   7   8
ENDBRANCH   6   7
ENDBRANCH   5   6
ENDBRANCH   4   5
ENDBRANCH   3   4
ENDBRANCH   2   3
ENDBRANCH   1   2
BRANCH   1  11
ATOM     11  C   UNL     1     -15.356  25.158 -13.849  1.00  0.00     0.000 C 
BRANCH  11  12
ATOM     12  C   UNL     1     -16.561  24.662 -14.667  1.00  0.00    -0.000 C 
BRANCH  12  13
ATOM     13  C   UNL     1     -17.325  25.808 -15.354  1.00  0.00    -0.000 C 
BRANCH  13  14
ATOM     14  C   UNL     1     -18.722  26.032 -14.753  1.00  0.00    -0.000 C 
BRANCH  14  15
ATOM     15  C   UNL     1     -19.670  24.847 -15.009  1.00  0.00    -0.000 C 
BRANCH  15  16
ATOM     16  C   UNL     1     -20.234  24.252 -13.708  1.00  0.00    -0.000 C 
BRANCH  16  17
ATOM     17  C   UNL     1     -19.543  22.941 -13.308  1.00  0.00    -0.003 C 
ATOM     18  C   UNL     1     -18.845  23.078 -11.957  1.00  0.00     0.004 C 
ENDBRANCH  16  17
ENDBRANCH  15  16
ENDBRANCH  14  15
ENDBRANCH  13  14
ENDBRANCH  12  13
ENDBRANCH  11  12
ENDBRANCH   1  11
TORSDOF 14
ENDMDL
MODEL 5
REMARK VINA RESULT:    -3.891      2.179      2.597
REMARK INTER + INTRA:          -8.496
REMARK INTER:                  -6.880
REMARK INTRA:                  -1.615
REMARK UNBOUND:                -1.420
REMARK SMILES CCCCCCCCCCCCCCCC(=O)[O-]
REMARK SMILES IDX 9 1 10 2 11 3 12 4 13 5 14 6 15 7 16 8 17 9 18 10 8 11 7 12
REMARK SMILES IDX 6 13 5 14 4 15 3 16 2 17 1 18
REMARK H PARENT
REMARK Flexibility Score: inf
ROOT
ATOM      1  C   UNL     1      -5.242  24.294 -14.115  1.00  0.00     0.000 C 
ENDROOT
BRANCH   1   2
ATOM      2  C   UNL     1      -4.847  25.497 -13.234  1.00  0.00     0.000 C 
BRANCH   2   3
ATOM      3  C   UNL     1      -5.977  26.508 -12.970  1.00  0.00     0.000 C 
BRANCH   3   4
ATOM      4  C   UNL     1      -6.120  26.869 -11.485  1.00  0.00     0.000 C 
BRANCH   4   5
ATOM      5  C   UNL     1      -6.121  25.607 -10.610  1.00  0.00     0.000 C 
BRANCH   5   6
ATOM      6  C   UNL     1      -7.524  25.235 -10.106  1.00  0.00     0.006 C 
BRANCH   6   7
ATOM      7  C   UNL     1      -8.338  24.456 -11.147  1.00  0.00     0.053 C 
BRANCH   7   8
ATOM      8  C   UNL     1      -9.588  25.201 -11.496  1.00  0.00     0.041 C 
ATOM      9  O   UNL     1      -9.651  25.870 -12.559  1.00  0.00    -0.550 OA
ATOM     10  O   UNL     1     -10.669  25.193 -10.622  1.00  0.00    -0.550 OA
ENDBRANCH   7   8
ENDBRANCH   6   7
ENDBRANCH   5   6
ENDBRANCH   4   5
ENDBRANCH   3   4
ENDBRANCH   2   3
ENDBRANCH   1   2
BRANCH   1  11
ATOM     11  C   UNL     1      -5.687  23.035 -13.345  1.00  0.00     0.000 C 
BRANCH  11  12
ATOM     12  C   UNL     1      -4.806  22.670 -12.138  1.00  0.00    -0.000 C 
BRANCH  12  13
ATOM     13  C   UNL     1      -5.293  21.407 -11.406  1.00  0.00    -0.000 C 
BRANCH  13  14
ATOM     14  C   UNL     1      -6.390  21.708 -10.372  1.00  0.00    -0.000 C 
BRANCH  14  15
ATOM     15  C   UNL     1      -6.385  20.710  -9.201  1.00  0.00    -0.000 C 
BRANCH  15  16
ATOM     16  C   UNL     1      -6.659  19.268  -9.653  1.00  0.00    -0.000 C 
BRANCH  16  17
ATOM     17  C   UNL     1      -7.030  18.340  -8.487  1.00  0.00    -0.003 C 
ATOM     18  C   UNL     1      -7.675  19.124  -7.347  1.00  0.00     0.004 C 
ENDBRANCH  16  17
ENDBRANCH  15  16
ENDBRANCH  14  15
ENDBRANCH  13  14
ENDBRANCH  12  13
ENDBRANCH  11  12
ENDBRANCH   1  11
TORSDOF 14
ENDMDL
MODEL 6
REMARK VINA RESULT:    -3.868      6.838      8.843
REMARK INTER + INTRA:          -8.453
REMARK INTER:                  -6.113
REMARK INTRA:                  -2.340
REMARK UNBOUND:                -1.420
REMARK SMILES CCCCCCCCCCCCCCCC(=O)[O-]
REMARK SMILES IDX 9 1 10 2 11 3 12 4 13 5 14 6 15 7 16 8 17 9 18 10 8 11 7 12
REMARK SMILES IDX 6 13 5 14 4 15 3 16 2 17 1 18
REMARK H PARENT
REMARK Flexibility Score: inf
ROOT
ATOM      1  C   UNL     1      -7.894  28.786  -9.017  1.00  0.00     0.000 C 
ENDROOT
BRANCH   1   2
ATOM      2  C   UNL     1      -8.872  29.659  -9.830  1.00  0.00     0.000 C 
BRANCH   2   3
ATOM      3  C   UNL     1     -10.320  29.668  -9.310  1.00  0.00     0.000 C 
BRANCH   3   4
ATOM      4  C   UNL     1     -10.837  31.082  -9.010  1.00  0.00     0.000 C 
BRANCH   4   5
ATOM      5  C   UNL     1     -12.195  31.030  -8.294  1.00  0.00     0.000 C 
BRANCH   5   6
ATOM      6  C   UNL     1     -12.702  29.594  -8.089  1.00  0.00     0.006 C 
BRANCH   6   7
ATOM      7  C   UNL     1     -12.928  29.253  -6.611  1.00  0.00     0.053 C 
BRANCH   7   8
ATOM      8  C   UNL     1     -12.449  27.866  -6.316  1.00  0.00     0.041 C 
ATOM      9  O   UNL     1     -12.281  27.494  -5.126  1.00  0.00    -0.550 OA
ATOM     10  O   UNL     1     -12.144  27.001  -7.360  1.00  0.00    -0.550 OA
ENDBRANCH   7   8
ENDBRANCH   6   7
ENDBRANCH   5   6
ENDBRANCH   4   5
ENDBRANCH   3   4
ENDBRANCH   2   3
ENDBRANCH   1   2
BRANCH   1  11
ATOM     11  C   UNL     1      -6.404  29.139  -9.186  1.00  0.00     0.000 C 
BRANCH  11  12
ATOM     12  C   UNL     1      -6.061  30.622  -8.962  1.00  0.00    -0.000 C 
BRANCH  12  13
ATOM     13  C   UNL     1      -5.210  30.852  -7.701  1.00  0.00    -0.000 C 
BRANCH  13  14
ATOM     14  C   UNL     1      -5.918  31.735  -6.661  1.00  0.00    -0.000 C 
BRANCH  14  15
ATOM     15  C   UNL     1      -6.996  30.968  -5.874  1.00  0.00    -0.000 C 
BRANCH  15  16
ATOM     16  C   UNL     1      -8.419  31.433  -6.218  1.00  0.00    -0.000 C 
BRANCH  16  17
ATOM     17  C   UNL     1      -9.498  30.470  -5.702  1.00  0.00    -0.003 C 
ATOM     18  C   UNL     1      -8.956  29.047  -5.592  1.00  0.00     0.004 C 
ENDBRANCH  16  17
ENDBRANCH  15  16
ENDBRANCH  14  15
ENDBRANCH  13  14
ENDBRANCH  12  13
ENDBRANCH  11  12
ENDBRANCH   1  11
TORSDOF 14
ENDMDL
MODEL 7
REMARK VINA RESULT:    -3.821      6.669      8.626
REMARK INTER + INTRA:          -8.367
REMARK INTER:                  -6.653
REMARK INTRA:                  -1.715
REMARK UNBOUND:                -1.420
REMARK SMILES CCCCCCCCCCCCCCCC(=O)[O-]
REMARK SMILES IDX 9 1 10 2 11 3 12 4 13 5 14 6 15 7 16 8 17 9 18 10 8 11 7 12
REMARK SMILES IDX 6 13 5 14 4 15 3 16 2 17 1 18
REMARK H PARENT
REMARK Flexibility Score: inf
ROOT
ATOM      1  C   UNL     1      -9.142  30.203 -10.057  1.00  0.00     0.000 C 
ENDROOT
BRANCH   1   2
ATOM      2  C   UNL     1      -8.462  28.908  -9.568  1.00  0.00     0.000 C 
BRANCH   2   3
ATOM      3  C   UNL     1      -6.973  29.054  -9.203  1.00  0.00     0.000 C 
BRANCH   3   4
ATOM      4  C   UNL     1      -6.561  30.512  -8.956  1.00  0.00     0.000 C 
BRANCH   4   5
ATOM      5  C   UNL     1      -5.052  30.617  -8.685  1.00  0.00     0.000 C 
BRANCH   5   6
ATOM      6  C   UNL     1      -4.732  31.420  -7.415  1.00  0.00     0.006 C 
BRANCH   6   7
ATOM      7  C   UNL     1      -5.989  31.789  -6.617  1.00  0.00     0.053 C 
BRANCH   7   8
ATOM      8  C   UNL     1      -5.621  32.214  -5.231  1.00  0.00     0.041 C 
ATOM      9  O   UNL     1      -6.082  31.597  -4.236  1.00  0.00    -0.550 OA
ATOM     10  O   UNL     1      -4.803  33.321  -5.037  1.00  0.00    -0.550 OA
ENDBRANCH   7   8
ENDBRANCH   6   7
ENDBRANCH   5   6
ENDBRANCH   4   5
ENDBRANCH   3   4
ENDBRANCH   2   3
ENDBRANCH   1   2
BRANCH   1  11
ATOM     11  C   UNL     1     -10.222  30.771  -9.116  1.00  0.00     0.000 C 
BRANCH  11  12
ATOM     12  C   UNL     1     -10.118  30.302  -7.654  1.00  0.00    -0.000 C 
BRANCH  12  13
ATOM     13  C   UNL     1     -11.419  30.529  -6.863  1.00  0.00    -0.000 C 
BRANCH  13  14
ATOM     14  C   UNL     1     -12.677  30.355  -7.729  1.00  0.00    -0.000 C 
BRANCH  14  15
ATOM     15  C   UNL     1     -13.100  28.882  -7.863  1.00  0.00    -0.000 C 
BRANCH  15  16
ATOM     16  C   UNL     1     -13.260  28.446  -9.328  1.00  0.00    -0.000 C 
BRANCH  16  17
ATOM     17  C   UNL     1     -12.240  27.375  -9.743  1.00  0.00    -0.003 C 
ATOM     18  C   UNL     1     -11.446  26.878  -8.538  1.00  0.00     0.004 C 
ENDBRANCH  16  17
ENDBRANCH  15  16
ENDBRANCH  14  15
ENDBRANCH  13  14
ENDBRANCH  12  13
ENDBRANCH  11  12
ENDBRANCH   1  11
TORSDOF 14
ENDMDL
MODEL 8
REMARK VINA RESULT:    -3.806      2.708      5.634
REMARK INTER + INTRA:          -8.341
REMARK INTER:                  -5.630
REMARK INTRA:                  -2.712
REMARK UNBOUND:                -1.420
REMARK SMILES CCCCCCCCCCCCCCCC(=O)[O-]
REMARK SMILES IDX 9 1 10 2 11 3 12 4 13 5 14 6 15 7 16 8 17 9 18 10 8 11 7 12
REMARK SMILES IDX 6 13 5 14 4 15 3 16 2 17 1 18
REMARK H PARENT
REMARK Flexibility Score: inf
ROOT
ATOM      1  C   UNL     1      -5.467  26.508 -12.793  1.00  0.00     0.000 C 
ENDROOT
BRANCH   1   2
ATOM      2  C   UNL     1      -4.265  25.565 -13.006  1.00  0.00     0.000 C 
BRANCH   2   3
ATOM      3  C   UNL     1      -4.489  24.454 -14.047  1.00  0.00     0.000 C 
BRANCH   3   4
ATOM      4  C   UNL     1      -4.197  23.051 -13.495  1.00  0.00     0.000 C 
BRANCH   4   5
ATOM      5  C   UNL     1      -4.648  22.933 -12.031  1.00  0.00     0.000 C 
BRANCH   5   6
ATOM      6  C   UNL     1      -5.379  21.613 -11.740  1.00  0.00     0.006 C 
BRANCH   6   7
ATOM      7  C   UNL     1      -6.036  21.595 -10.354  1.00  0.00     0.053 C 
BRANCH   7   8
ATOM      8  C   UNL     1      -7.216  20.675 -10.349  1.00  0.00     0.041 C 
ATOM      9  O   UNL     1      -7.927  20.551 -11.380  1.00  0.00    -0.550 OA
ATOM     10  O   UNL     1      -7.557  19.989  -9.189  1.00  0.00    -0.550 OA
ENDBRANCH   7   8
ENDBRANCH   6   7
ENDBRANCH   5   6
ENDBRANCH   4   5
ENDBRANCH   3   4
ENDBRANCH   2   3
ENDBRANCH   1   2
BRANCH   1  11
ATOM     11  C   UNL     1      -6.031  26.538 -11.359  1.00  0.00     0.000 C 
BRANCH  11  12
ATOM     12  C   UNL     1      -7.532  26.218 -11.248  1.00  0.00    -0.000 C 
BRANCH  12  13
ATOM     13  C   UNL     1      -7.808  24.715 -11.064  1.00  0.00    -0.000 C 
BRANCH  13  14
ATOM     14  C   UNL     1      -8.763  24.154 -12.129  1.00  0.00    -0.000 C 
BRANCH  14  15
ATOM     15  C   UNL     1      -8.016  23.561 -13.337  1.00  0.00    -0.000 C 
BRANCH  15  16
ATOM     16  C   UNL     1      -8.220  24.385 -14.618  1.00  0.00    -0.000 C 
BRANCH  16  17
ATOM     17  C   UNL     1      -9.217  25.538 -14.428  1.00  0.00    -0.003 C 
ATOM     18  C   UNL     1      -8.565  26.883 -14.741  1.00  0.00     0.004 C 
ENDBRANCH  16  17
ENDBRANCH  15  16
ENDBRANCH  14  15
ENDBRANCH  13  14
ENDBRANCH  12  13
ENDBRANCH  11  12
ENDBRANCH   1  11
TORSDOF 14
ENDMDL
MODEL 9
REMARK VINA RESULT:    -3.783      2.755      6.270
REMARK INTER + INTRA:          -8.299
REMARK INTER:                  -6.671
REMARK INTRA:                  -1.628
REMARK UNBOUND:                -1.420
REMARK SMILES CCCCCCCCCCCCCCCC(=O)[O-]
REMARK SMILES IDX 9 1 10 2 11 3 12 4 13 5 14 6 15 7 16 8 17 9 18 10 8 11 7 12
REMARK SMILES IDX 6 13 5 14 4 15 3 16 2 17 1 18
REMARK H PARENT
REMARK Flexibility Score: inf
ROOT
ATOM      1  C   UNL     1      -8.673  25.128 -12.573  1.00  0.00     0.000 C 
ENDROOT
BRANCH   1   2
ATOM      2  C   UNL     1      -8.075  24.257 -11.450  1.00  0.00     0.000 C 
BRANCH   2   3
ATOM      3  C   UNL     1      -7.355  22.984 -11.930  1.00  0.00     0.000 C 
BRANCH   3   4
ATOM      4  C   UNL     1      -8.279  21.759 -11.979  1.00  0.00     0.000 C 
BRANCH   4   5
ATOM      5  C   UNL     1      -7.724  20.617 -11.115  1.00  0.00     0.000 C 
BRANCH   5   6
ATOM      6  C   UNL     1      -6.852  21.122  -9.955  1.00  0.00     0.006 C 
BRANCH   6   7
ATOM      7  C   UNL     1      -6.150  19.983  -9.205  1.00  0.00     0.053 C 
BRANCH   7   8
ATOM      8  C   UNL     1      -7.141  19.192  -8.410  1.00  0.00     0.041 C 
ATOM      9  O   UNL     1      -7.652  19.680  -7.369  1.00  0.00    -0.550 OA
ATOM     10  O   UNL     1      -7.465  17.897  -8.795  1.00  0.00    -0.550 OA
ENDBRANCH   7   8
ENDBRANCH   6   7
ENDBRANCH   5   6
ENDBRANCH   4   5
ENDBRANCH   3   4
ENDBRANCH   2   3
ENDBRANCH   1   2
BRANCH   1  11
ATOM     11  C   UNL     1      -7.989  26.494 -12.779  1.00  0.00     0.000 C 
BRANCH  11  12
ATOM     12  C   UNL     1      -6.761  26.469 -13.706  1.00  0.00    -0.000 C 
BRANCH  12  13
ATOM     13  C   UNL     1      -5.460  26.856 -12.980  1.00  0.00    -0.000 C 
BRANCH  13  14
ATOM     14  C   UNL     1      -4.441  25.706 -12.938  1.00  0.00    -0.000 C 
BRANCH  14  15
ATOM     15  C   UNL     1      -4.313  24.982 -14.290  1.00  0.00    -0.000 C 
BRANCH  15  16
ATOM     16  C   UNL     1      -4.446  23.457 -14.157  1.00  0.00    -0.000 C 
BRANCH  16  17
ATOM     17  C   UNL     1      -5.460  22.862 -15.145  1.00  0.00    -0.003 C 
ATOM     18  C   UNL     1      -5.910  23.905 -16.164  1.00  0.00     0.004 C 
ENDBRANCH  16  17
ENDBRANCH  15  16
ENDBRANCH  14  15
ENDBRANCH  13  14
ENDBRANCH  12  13
ENDBRANCH  11  12
ENDBRANCH   1  11
TORSDOF 14
ENDMDL
