MODEL 1
REMARK VINA RESULT:    -3.756      0.000      0.000
REMARK INTER + INTRA:         -13.472
REMARK INTER:                  -9.464
REMARK INTRA:                  -4.008
REMARK UNBOUND:                -4.008
REMARK SMILES CCCCCCCCCCCCCCCCCCCCCCCCCCCC(=O)[O-]
REMARK SMILES IDX 15 1 16 2 17 3 18 4 19 5 20 6 21 7 22 8 23 9 24 10 25 11
REMARK SMILES IDX 26 12 27 13 28 14 29 15 30 16 14 17 13 18 12 19 11 20 10 21
REMARK SMILES IDX 9 22 8 23 7 24 6 25 5 26 4 27 3 28 2 29 1 30
REMARK H PARENT
REMARK Flexibility Score: inf
ROOT
ATOM      1  C   UNL     1      20.436   9.796  31.655  1.00  0.00     0.000 C 
ENDROOT
BRANCH   1   2
ATOM      2  C   UNL     1      18.973   9.600  32.092  1.00  0.00     0.000 C 
BRANCH   2   3
ATOM      3  C   UNL     1      18.629   8.128  32.370  1.00  0.00     0.000 C 
BRANCH   3   4
ATOM      4  C   UNL     1      19.899   7.300  32.616  1.00  0.00     0.000 C 
BRANCH   4   5
ATOM      5  C   UNL     1      19.900   6.597  33.987  1.00  0.00     0.000 C 
BRANCH   5   6
ATOM      6  C   UNL     1      18.886   7.164  34.999  1.00  0.00     0.000 C 
BRANCH   6   7
ATOM      7  C   UNL     1      19.412   7.148  36.445  1.00  0.00     0.000 C 
BRANCH   7   8
ATOM      8  C   UNL     1      19.733   8.556  36.973  1.00  0.00     0.000 C 
BRANCH   8   9
ATOM      9  C   UNL     1      19.826   9.608  35.853  1.00  0.00     0.000 C 
BRANCH   9  10
ATOM     10  C   UNL     1      21.258   9.769  35.312  1.00  0.00     0.000 C 
BRANCH  10  11
ATOM     11  C   UNL     1      21.859  11.147  35.638  1.00  0.00     0.000 C 
BRANCH  11  12
ATOM     12  C   UNL     1      21.733  12.148  34.474  1.00  0.00     0.006 C 
BRANCH  12  13
ATOM     13  C   UNL     1      20.931  13.414  34.822  1.00  0.00     0.053 C 
BRANCH  13  14
ATOM     14  C   UNL     1      19.460  13.151  34.953  1.00  0.00     0.041 C 
ATOM     15  O   UNL     1      18.886  13.294  36.065  1.00  0.00    -0.550 OA
ATOM     16  O   UNL     1      18.718  12.774  33.841  1.00  0.00    -0.550 OA
ENDBRANCH  13  14
ENDBRANCH  12  13
ENDBRANCH  11  12
ENDBRANCH  10  11
ENDBRANCH   9  10
ENDBRANCH   8   9
ENDBRANCH   7   8
ENDBRANCH   6   7
ENDBRANCH   5   6
ENDBRANCH   4   5
ENDBRANCH   3   4
ENDBRANCH   2   3
ENDBRANCH   1   2
BRANCH   1  17
ATOM     17  C   UNL     1      20.624  10.665  30.394  1.00  0.00     0.000 C 
BRANCH  17  18
ATOM     18  C   UNL     1      19.321  11.050  29.674  1.00  0.00     0.000 C 
BRANCH  18  19
ATOM     19  C   UNL     1      18.881  12.493  29.977  1.00  0.00     0.000 C 
BRANCH  19  20
ATOM     20  C   UNL     1      20.012  13.516  29.781  1.00  0.00     0.000 C 
BRANCH  20  21
ATOM     21  C   UNL     1      20.499  14.199  31.076  1.00  0.00     0.000 C 
BRANCH  21  22
ATOM     22  C   UNL     1      22.007  14.512  31.127  1.00  0.00    -0.000 C 
BRANCH  22  23
ATOM     23  C   UNL     1      22.766  14.288  29.805  1.00  0.00    -0.000 C 
BRANCH  23  24
ATOM     24  C   UNL     1      23.287  15.586  29.152  1.00  0.00    -0.000 C 
BRANCH  24  25
ATOM     25  C   UNL     1      24.555  16.124  29.836  1.00  0.00    -0.000 C 
BRANCH  25  26
ATOM     26  C   UNL     1      24.283  17.358  30.715  1.00  0.00    -0.000 C 
BRANCH  26  27
ATOM     27  C   UNL     1      23.067  18.210  30.295  1.00  0.00    -0.000 C 
BRANCH  27  28
ATOM     28  C   UNL     1      21.860  18.142  31.249  1.00  0.00    -0.000 C 
BRANCH  28  29
ATOM     29  C   UNL     1      20.534  17.863  30.521  1.00  0.00    -0.003 C 
ATOM     30  C   UNL     1      20.116  19.055  29.664  1.00  0.00     0.004 C 
ENDBRANCH  28  29
ENDBRANCH  27  28
ENDBRANCH  26  27
ENDBRANCH  25  26
ENDBRANCH  24  25
ENDBRANCH  23  24
ENDBRANCH  22  23
ENDBRANCH  21  22
ENDBRANCH  20  21
ENDBRANCH  19  20
ENDBRANCH  18  19
ENDBRANCH  17  18
ENDBRANCH   1  17
TORSDOF 26
ENDMDL
MODEL 2
REMARK VINA RESULT:    -3.677      2.508      8.155
REMARK INTER + INTRA:         -13.274
REMARK INTER:                  -9.149
REMARK INTRA:                  -4.124
REMARK UNBOUND:                -4.008
REMARK SMILES CCCCCCCCCCCCCCCCCCCCCCCCCCCC(=O)[O-]
REMARK SMILES IDX 15 1 16 2 17 3 18 4 19 5 20 6 21 7 22 8 23 9 24 10 25 11
REMARK SMILES IDX 26 12 27 13 28 14 29 15 30 16 14 17 13 18 12 19 11 20 10 21
REMARK SMILES IDX 9 22 8 23 7 24 6 25 5 26 4 27 3 28 2 29 1 30
REMARK H PARENT
REMARK Flexibility Score: inf
ROOT
ATOM      1  C   UNL     1      21.762  11.482  35.688  1.00  0.00     0.000 C 
ENDROOT
BRANCH   1   2
ATOM      2  C   UNL     1      21.946  12.452  34.506  1.00  0.00     0.000 C 
BRANCH   2   3
ATOM      3  C   UNL     1      20.854  13.532  34.449  1.00  0.00     0.000 C 
BRANCH   3   4
ATOM      4  C   UNL     1      19.732  13.237  35.456  1.00  0.00     0.000 C 
BRANCH   4   5
ATOM      5  C   UNL     1      18.365  13.012  34.781  1.00  0.00     0.000 C 
BRANCH   5   6
ATOM      6  C   UNL     1      18.421  12.191  33.478  1.00  0.00     0.000 C 
BRANCH   6   7
ATOM      7  C   UNL     1      18.192  13.048  32.221  1.00  0.00     0.000 C 
BRANCH   7   8
ATOM      8  C   UNL     1      18.980  12.534  31.004  1.00  0.00     0.000 C 
BRANCH   8   9
ATOM      9  C   UNL     1      19.913  13.599  30.402  1.00  0.00     0.000 C 
BRANCH   9  10
ATOM     10  C   UNL     1      21.386  13.378  30.788  1.00  0.00     0.000 C 
BRANCH  10  11
ATOM     11  C   UNL     1      22.113  14.694  31.115  1.00  0.00     0.000 C 
BRANCH  11  12
ATOM     12  C   UNL     1      21.290  15.943  30.747  1.00  0.00     0.006 C 
BRANCH  12  13
ATOM     13  C   UNL     1      21.898  17.263  31.252  1.00  0.00     0.053 C 
BRANCH  13  14
ATOM     14  C   UNL     1      23.110  17.679  30.473  1.00  0.00     0.041 C 
ATOM     15  O   UNL     1      24.218  17.831  31.054  1.00  0.00    -0.550 OA
ATOM     16  O   UNL     1      23.023  17.873  29.100  1.00  0.00    -0.550 OA
ENDBRANCH  13  14
ENDBRANCH  12  13
ENDBRANCH  11  12
ENDBRANCH  10  11
ENDBRANCH   9  10
ENDBRANCH   8   9
ENDBRANCH   7   8
ENDBRANCH   6   7
ENDBRANCH   5   6
ENDBRANCH   4   5
ENDBRANCH   3   4
ENDBRANCH   2   3
ENDBRANCH   1   2
BRANCH   1  17
ATOM     17  C   UNL     1      21.829   9.987  35.314  1.00  0.00     0.000 C 
BRANCH  17  18
ATOM     18  C   UNL     1      20.599   9.452  34.561  1.00  0.00     0.000 C 
BRANCH  18  19
ATOM     19  C   UNL     1      19.394   9.214  35.487  1.00  0.00     0.000 C 
BRANCH  19  20
ATOM     20  C   UNL     1      19.736   8.327  36.695  1.00  0.00     0.000 C 
BRANCH  20  21
ATOM     21  C   UNL     1      19.127   6.910  36.652  1.00  0.00     0.000 C 
BRANCH  21  22
ATOM     22  C   UNL     1      17.908   6.746  35.724  1.00  0.00    -0.000 C 
BRANCH  22  23
ATOM     23  C   UNL     1      18.133   5.834  34.503  1.00  0.00    -0.000 C 
BRANCH  23  24
ATOM     24  C   UNL     1      18.605   6.583  33.238  1.00  0.00    -0.000 C 
BRANCH  24  25
ATOM     25  C   UNL     1      20.037   6.203  32.825  1.00  0.00    -0.000 C 
BRANCH  25  26
ATOM     26  C   UNL     1      20.175   5.942  31.315  1.00  0.00    -0.000 C 
BRANCH  26  27
ATOM     27  C   UNL     1      18.920   6.261  30.475  1.00  0.00    -0.000 C 
BRANCH  27  28
ATOM     28  C   UNL     1      19.031   7.510  29.581  1.00  0.00    -0.000 C 
BRANCH  28  29
ATOM     29  C   UNL     1      19.152   8.815  30.387  1.00  0.00    -0.003 C 
ATOM     30  C   UNL     1      20.580   9.354  30.349  1.00  0.00     0.004 C 
ENDBRANCH  28  29
ENDBRANCH  27  28
ENDBRANCH  26  27
ENDBRANCH  25  26
ENDBRANCH  24  25
ENDBRANCH  23  24
ENDBRANCH  22  23
ENDBRANCH  21  22
ENDBRANCH  20  21
ENDBRANCH  19  20
ENDBRANCH  18  19
ENDBRANCH  17  18
ENDBRANCH   1  17
TORSDOF 26
ENDMDL
MODEL 3
REMARK VINA RESULT:    -3.671      2.110      4.340
REMARK INTER + INTRA:         -13.258
REMARK INTER:                  -9.461
REMARK INTRA:                  -3.797
REMARK UNBOUND:                -4.008
REMARK SMILES CCCCCCCCCCCCCCCCCCCCCCCCCCCC(=O)[O-]
REMARK SMILES IDX 15 1 16 2 17 3 18 4 19 5 20 6 21 7 22 8 23 9 24 10 25 11
REMARK SMILES IDX 26 12 27 13 28 14 29 15 30 16 14 17 13 18 12 19 11 20 10 21
REMARK SMILES IDX 9 22 8 23 7 24 6 25 5 26 4 27 3 28 2 29 1 30
REMARK H PARENT
REMARK Flexibility Score: inf
ROOT
ATOM      1  C   UNL     1      21.632  12.681  35.264  1.00  0.00     0.000 C 
ENDROOT
BRANCH   1   2
ATOM      2  C   UNL     1      21.914  11.293  34.658  1.00  0.00     0.000 C 
BRANCH   2   3
ATOM      3  C   UNL     1      20.960  10.210  35.187  1.00  0.00     0.000 C 
BRANCH   3   4
ATOM      4  C   UNL     1      19.749  10.838  35.895  1.00  0.00     0.000 C 
BRANCH   4   5
ATOM      5  C   UNL     1      18.553  11.063  34.951  1.00  0.00     0.000 C 
BRANCH   5   6
ATOM      6  C   UNL     1      18.407  10.007  33.838  1.00  0.00     0.000 C 
BRANCH   6   7
ATOM      7  C   UNL     1      18.335  10.627  32.432  1.00  0.00     0.000 C 
BRANCH   7   8
ATOM      8  C   UNL     1      19.090   9.796  31.381  1.00  0.00     0.000 C 
BRANCH   8   9
ATOM      9  C   UNL     1      20.129   8.847  32.003  1.00  0.00     0.000 C 
BRANCH   9  10
ATOM     10  C   UNL     1      19.866   7.372  31.653  1.00  0.00     0.000 C 
BRANCH  10  11
ATOM     11  C   UNL     1      20.259   6.416  32.792  1.00  0.00     0.000 C 
BRANCH  11  12
ATOM     12  C   UNL     1      19.372   6.572  34.041  1.00  0.00     0.006 C 
BRANCH  12  13
ATOM     13  C   UNL     1      20.159   6.808  35.342  1.00  0.00     0.053 C 
BRANCH  13  14
ATOM     14  C   UNL     1      19.294   6.736  36.565  1.00  0.00     0.041 C 
ATOM     15  O   UNL     1      19.310   7.670  37.410  1.00  0.00    -0.550 OA
ATOM     16  O   UNL     1      18.450   5.649  36.759  1.00  0.00    -0.550 OA
ENDBRANCH  13  14
ENDBRANCH  12  13
ENDBRANCH  11  12
ENDBRANCH  10  11
ENDBRANCH   9  10
ENDBRANCH   8   9
ENDBRANCH   7   8
ENDBRANCH   6   7
ENDBRANCH   5   6
ENDBRANCH   4   5
ENDBRANCH   3   4
ENDBRANCH   2   3
ENDBRANCH   1   2
BRANCH   1  17
ATOM     17  C   UNL     1      21.178  13.749  34.248  1.00  0.00     0.000 C 
BRANCH  17  18
ATOM     18  C   UNL     1      20.779  13.202  32.867  1.00  0.00     0.000 C 
BRANCH  18  19
ATOM     19  C   UNL     1      21.563  13.861  31.719  1.00  0.00     0.000 C 
BRANCH  19  20
ATOM     20  C   UNL     1      21.477  13.066  30.405  1.00  0.00     0.000 C 
BRANCH  20  21
ATOM     21  C   UNL     1      22.619  13.342  29.404  1.00  0.00     0.000 C 
BRANCH  21  22
ATOM     22  C   UNL     1      22.754  14.807  28.949  1.00  0.00    -0.000 C 
BRANCH  22  23
ATOM     23  C   UNL     1      24.140  15.439  29.178  1.00  0.00    -0.000 C 
BRANCH  23  24
ATOM     24  C   UNL     1      24.276  16.183  30.524  1.00  0.00    -0.000 C 
BRANCH  24  25
ATOM     25  C   UNL     1      23.762  17.631  30.454  1.00  0.00    -0.000 C 
BRANCH  25  26
ATOM     26  C   UNL     1      22.420  17.824  31.183  1.00  0.00    -0.000 C 
BRANCH  26  27
ATOM     27  C   UNL     1      21.218  18.154  30.273  1.00  0.00    -0.000 C 
BRANCH  27  28
ATOM     28  C   UNL     1      20.186  17.022  30.115  1.00  0.00    -0.000 C 
BRANCH  28  29
ATOM     29  C   UNL     1      18.878  17.489  29.455  1.00  0.00    -0.003 C 
ATOM     30  C   UNL     1      18.272  18.668  30.211  1.00  0.00     0.004 C 
ENDBRANCH  28  29
ENDBRANCH  27  28
ENDBRANCH  26  27
ENDBRANCH  25  26
ENDBRANCH  24  25
ENDBRANCH  23  24
ENDBRANCH  22  23
ENDBRANCH  21  22
ENDBRANCH  20  21
ENDBRANCH  19  20
ENDBRANCH  18  19
ENDBRANCH  17  18
ENDBRANCH   1  17
TORSDOF 26
ENDMDL
MODEL 4
REMARK VINA RESULT:    -3.576      2.174      4.662
REMARK INTER + INTRA:         -13.018
REMARK INTER:                  -8.614
REMARK INTRA:                  -4.404
REMARK UNBOUND:                -4.008
REMARK SMILES CCCCCCCCCCCCCCCCCCCCCCCCCCCC(=O)[O-]
REMARK SMILES IDX 15 1 16 2 17 3 18 4 19 5 20 6 21 7 22 8 23 9 24 10 25 11
REMARK SMILES IDX 26 12 27 13 28 14 29 15 30 16 14 17 13 18 12 19 11 20 10 21
REMARK SMILES IDX 9 22 8 23 7 24 6 25 5 26 4 27 3 28 2 29 1 30
REMARK H PARENT
REMARK Flexibility Score: inf
ROOT
ATOM      1  C   UNL     1      20.319  10.645  35.558  1.00  0.00     0.000 C 
ENDROOT
BRANCH   1   2
ATOM      2  C   UNL     1      21.040  10.084  34.318  1.00  0.00     0.000 C 
BRANCH   2   3
ATOM      3  C   UNL     1      20.093   9.877  33.125  1.00  0.00     0.000 C 
BRANCH   3   4
ATOM      4  C   UNL     1      20.861   9.927  31.795  1.00  0.00     0.000 C 
BRANCH   4   5
ATOM      5  C   UNL     1      20.100   9.253  30.638  1.00  0.00     0.000 C 
BRANCH   5   6
ATOM      6  C   UNL     1      18.572   9.192  30.825  1.00  0.00     0.000 C 
BRANCH   6   7
ATOM      7  C   UNL     1      17.958   7.881  30.301  1.00  0.00     0.000 C 
BRANCH   7   8
ATOM      8  C   UNL     1      18.950   6.707  30.344  1.00  0.00     0.000 C 
BRANCH   8   9
ATOM      9  C   UNL     1      18.485   5.564  31.265  1.00  0.00     0.000 C 
BRANCH   9  10
ATOM     10  C   UNL     1      18.734   5.868  32.752  1.00  0.00     0.000 C 
BRANCH  10  11
ATOM     11  C   UNL     1      20.210   6.180  33.052  1.00  0.00     0.000 C 
BRANCH  11  12
ATOM     12  C   UNL     1      20.451   6.600  34.514  1.00  0.00     0.006 C 
BRANCH  12  13
ATOM     13  C   UNL     1      19.185   7.081  35.243  1.00  0.00     0.053 C 
BRANCH  13  14
ATOM     14  C   UNL     1      19.252   6.868  36.726  1.00  0.00     0.041 C 
ATOM     15  O   UNL     1      19.191   5.704  37.204  1.00  0.00    -0.550 OA
ATOM     16  O   UNL     1      19.409   7.953  37.579  1.00  0.00    -0.550 OA
ENDBRANCH  13  14
ENDBRANCH  12  13
ENDBRANCH  11  12
ENDBRANCH  10  11
ENDBRANCH   9  10
ENDBRANCH   8   9
ENDBRANCH   7   8
ENDBRANCH   6   7
ENDBRANCH   5   6
ENDBRANCH   4   5
ENDBRANCH   3   4
ENDBRANCH   2   3
ENDBRANCH   1   2
BRANCH   1  17
ATOM     17  C   UNL     1      20.647  12.117  35.886  1.00  0.00     0.000 C 
BRANCH  17  18
ATOM     18  C   UNL     1      19.977  13.150  34.965  1.00  0.00     0.000 C 
BRANCH  18  19
ATOM     19  C   UNL     1      20.981  13.858  34.039  1.00  0.00     0.000 C 
BRANCH  19  20
ATOM     20  C   UNL     1      20.883  13.385  32.580  1.00  0.00     0.000 C 
BRANCH  20  21
ATOM     21  C   UNL     1      19.446  13.285  32.025  1.00  0.00     0.000 C 
BRANCH  21  22
ATOM     22  C   UNL     1      19.341  12.879  30.542  1.00  0.00    -0.000 C 
BRANCH  22  23
ATOM     23  C   UNL     1      20.323  13.596  29.597  1.00  0.00    -0.000 C 
BRANCH  23  24
ATOM     24  C   UNL     1      21.515  12.723  29.150  1.00  0.00    -0.000 C 
BRANCH  24  25
ATOM     25  C   UNL     1      22.866  13.443  29.303  1.00  0.00    -0.000 C 
BRANCH  25  26
ATOM     26  C   UNL     1      22.764  14.961  29.070  1.00  0.00    -0.000 C 
BRANCH  26  27
ATOM     27  C   UNL     1      23.091  15.838  30.296  1.00  0.00    -0.000 C 
BRANCH  27  28
ATOM     28  C   UNL     1      21.868  16.436  31.018  1.00  0.00    -0.000 C 
BRANCH  28  29
ATOM     29  C   UNL     1      22.017  17.940  31.303  1.00  0.00    -0.003 C 
ATOM     30  C   UNL     1      22.820  18.632  30.206  1.00  0.00     0.004 C 
ENDBRANCH  28  29
ENDBRANCH  27  28
ENDBRANCH  26  27
ENDBRANCH  25  26
ENDBRANCH  24  25
ENDBRANCH  23  24
ENDBRANCH  22  23
ENDBRANCH  21  22
ENDBRANCH  20  21
ENDBRANCH  19  20
ENDBRANCH  18  19
ENDBRANCH  17  18
ENDBRANCH   1  17
TORSDOF 26
ENDMDL
MODEL 5
REMARK VINA RESULT:    -3.476      2.984      5.352
REMARK INTER + INTRA:         -12.767
REMARK INTER:                  -9.397
REMARK INTRA:                  -3.370
REMARK UNBOUND:                -4.008
REMARK SMILES CCCCCCCCCCCCCCCCCCCCCCCCCCCC(=O)[O-]
REMARK SMILES IDX 15 1 16 2 17 3 18 4 19 5 20 6 21 7 22 8 23 9 24 10 25 11
REMARK SMILES IDX 26 12 27 13 28 14 29 15 30 16 14 17 13 18 12 19 11 20 10 21
REMARK SMILES IDX 9 22 8 23 7 24 6 25 5 26 4 27 3 28 2 29 1 30
REMARK H PARENT
REMARK Flexibility Score: inf
ROOT
ATOM      1  C   UNL     1      20.660  12.190  35.982  1.00  0.00     0.000 C 
ENDROOT
BRANCH   1   2
ATOM      2  C   UNL     1      21.893  11.568  35.303  1.00  0.00     0.000 C 
BRANCH   2   3
ATOM      3  C   UNL     1      21.973  10.045  35.497  1.00  0.00     0.000 C 
BRANCH   3   4
ATOM      4  C   UNL     1      20.573   9.436  35.668  1.00  0.00     0.000 C 
BRANCH   4   5
ATOM      5  C   UNL     1      20.492   7.976  35.182  1.00  0.00     0.000 C 
BRANCH   5   6
ATOM      6  C   UNL     1      19.796   7.012  36.162  1.00  0.00     0.000 C 
BRANCH   6   7
ATOM      7  C   UNL     1      18.356   6.668  35.741  1.00  0.00     0.000 C 
BRANCH   7   8
ATOM      8  C   UNL     1      18.119   6.866  34.235  1.00  0.00     0.000 C 
BRANCH   8   9
ATOM      9  C   UNL     1      17.952   5.538  33.475  1.00  0.00     0.000 C 
BRANCH   9  10
ATOM     10  C   UNL     1      18.280   5.669  31.978  1.00  0.00     0.000 C 
BRANCH  10  11
ATOM     11  C   UNL     1      19.686   6.241  31.729  1.00  0.00     0.000 C 
BRANCH  11  12
ATOM     12  C   UNL     1      19.764   7.116  30.464  1.00  0.00     0.006 C 
BRANCH  12  13
ATOM     13  C   UNL     1      20.555   6.476  29.310  1.00  0.00     0.053 C 
BRANCH  13  14
ATOM     14  C   UNL     1      20.886   5.035  29.562  1.00  0.00     0.041 C 
ATOM     15  O   UNL     1      21.997   4.715  30.062  1.00  0.00    -0.550 OA
ATOM     16  O   UNL     1      19.955   4.046  29.269  1.00  0.00    -0.550 OA
ENDBRANCH  13  14
ENDBRANCH  12  13
ENDBRANCH  11  12
ENDBRANCH  10  11
ENDBRANCH   9  10
ENDBRANCH   8   9
ENDBRANCH   7   8
ENDBRANCH   6   7
ENDBRANCH   5   6
ENDBRANCH   4   5
ENDBRANCH   3   4
ENDBRANCH   2   3
ENDBRANCH   1   2
BRANCH   1  17
ATOM     17  C   UNL     1      20.043  13.388  35.232  1.00  0.00     0.000 C 
BRANCH  17  18
ATOM     18  C   UNL     1      18.766  13.066  34.437  1.00  0.00     0.000 C 
BRANCH  18  19
ATOM     19  C   UNL     1      19.055  12.711  32.969  1.00  0.00     0.000 C 
BRANCH  19  20
ATOM     20  C   UNL     1      18.376  11.404  32.527  1.00  0.00     0.000 C 
BRANCH  20  21
ATOM     21  C   UNL     1      19.316  10.183  32.435  1.00  0.00     0.000 C 
BRANCH  21  22
ATOM     22  C   UNL     1      20.743  10.489  31.942  1.00  0.00    -0.000 C 
BRANCH  22  23
ATOM     23  C   UNL     1      20.884  10.669  30.418  1.00  0.00    -0.000 C 
BRANCH  23  24
ATOM     24  C   UNL     1      21.934  11.723  30.005  1.00  0.00    -0.000 C 
BRANCH  24  25
ATOM     25  C   UNL     1      21.762  13.055  30.755  1.00  0.00    -0.000 C 
BRANCH  25  26
ATOM     26  C   UNL     1      22.243  14.267  29.938  1.00  0.00    -0.000 C 
BRANCH  26  27
ATOM     27  C   UNL     1      22.729  15.471  30.771  1.00  0.00    -0.000 C 
BRANCH  27  28
ATOM     28  C   UNL     1      22.824  16.803  30.003  1.00  0.00    -0.000 C 
BRANCH  28  29
ATOM     29  C   UNL     1      22.339  18.007  30.828  1.00  0.00    -0.003 C 
ATOM     30  C   UNL     1      22.316  19.278  29.984  1.00  0.00     0.004 C 
ENDBRANCH  28  29
ENDBRANCH  27  28
ENDBRANCH  26  27
ENDBRANCH  25  26
ENDBRANCH  24  25
ENDBRANCH  23  24
ENDBRANCH  22  23
ENDBRANCH  21  22
ENDBRANCH  20  21
ENDBRANCH  19  20
ENDBRANCH  18  19
ENDBRANCH  17  18
ENDBRANCH   1  17
TORSDOF 26
ENDMDL
MODEL 6
REMARK VINA RESULT:    -3.275      2.040      4.576
REMARK INTER + INTRA:         -12.260
REMARK INTER:                  -8.892
REMARK INTRA:                  -3.367
REMARK UNBOUND:                -4.008
REMARK SMILES CCCCCCCCCCCCCCCCCCCCCCCCCCCC(=O)[O-]
REMARK SMILES IDX 15 1 16 2 17 3 18 4 19 5 20 6 21 7 22 8 23 9 24 10 25 11
REMARK SMILES IDX 26 12 27 13 28 14 29 15 30 16 14 17 13 18 12 19 11 20 10 21
REMARK SMILES IDX 9 22 8 23 7 24 6 25 5 26 4 27 3 28 2 29 1 30
REMARK H PARENT
REMARK Flexibility Score: inf
ROOT
ATOM      1  C   UNL     1      22.009  11.728  35.628  1.00  0.00     0.000 C 
ENDROOT
BRANCH   1   2
ATOM      2  C   UNL     1      21.836  10.266  35.178  1.00  0.00     0.000 C 
BRANCH   2   3
ATOM      3  C   UNL     1      20.368   9.810  35.195  1.00  0.00     0.000 C 
BRANCH   3   4
ATOM      4  C   UNL     1      19.982   9.241  36.569  1.00  0.00     0.000 C 
BRANCH   4   5
ATOM      5  C   UNL     1      19.288   7.869  36.476  1.00  0.00     0.000 C 
BRANCH   5   6
ATOM      6  C   UNL     1      20.043   6.824  35.632  1.00  0.00     0.000 C 
BRANCH   6   7
ATOM      7  C   UNL     1      19.415   6.609  34.244  1.00  0.00     0.000 C 
BRANCH   7   8
ATOM      8  C   UNL     1      20.447   6.705  33.108  1.00  0.00     0.000 C 
BRANCH   8   9
ATOM      9  C   UNL     1      20.081   5.836  31.892  1.00  0.00     0.000 C 
BRANCH   9  10
ATOM     10  C   UNL     1      18.571   5.839  31.597  1.00  0.00     0.000 C 
BRANCH  10  11
ATOM     11  C   UNL     1      18.264   5.918  30.092  1.00  0.00     0.000 C 
BRANCH  11  12
ATOM     12  C   UNL     1      18.048   7.361  29.598  1.00  0.00     0.006 C 
BRANCH  12  13
ATOM     13  C   UNL     1      19.311   8.018  29.015  1.00  0.00     0.053 C 
BRANCH  13  14
ATOM     14  C   UNL     1      19.950   8.989  29.961  1.00  0.00     0.041 C 
ATOM     15  O   UNL     1      19.371   9.307  31.034  1.00  0.00    -0.550 OA
ATOM     16  O   UNL     1      21.200   9.524  29.672  1.00  0.00    -0.550 OA
ENDBRANCH  13  14
ENDBRANCH  12  13
ENDBRANCH  11  12
ENDBRANCH  10  11
ENDBRANCH   9  10
ENDBRANCH   8   9
ENDBRANCH   7   8
ENDBRANCH   6   7
ENDBRANCH   5   6
ENDBRANCH   4   5
ENDBRANCH   3   4
ENDBRANCH   2   3
ENDBRANCH   1   2
BRANCH   1  17
ATOM     17  C   UNL     1      20.798  12.641  35.343  1.00  0.00     0.000 C 
BRANCH  17  18
ATOM     18  C   UNL     1      21.056  13.757  34.317  1.00  0.00     0.000 C 
BRANCH  18  19
ATOM     19  C   UNL     1      21.284  13.215  32.896  1.00  0.00     0.000 C 
BRANCH  19  20
ATOM     20  C   UNL     1      20.073  12.439  32.352  1.00  0.00     0.000 C 
BRANCH  20  21
ATOM     21  C   UNL     1      19.231  13.202  31.307  1.00  0.00     0.000 C 
BRANCH  21  22
ATOM     22  C   UNL     1      19.328  12.664  29.866  1.00  0.00    -0.000 C 
BRANCH  22  23
ATOM     23  C   UNL     1      20.594  13.082  29.096  1.00  0.00    -0.000 C 
BRANCH  23  24
ATOM     24  C   UNL     1      20.961  14.574  29.253  1.00  0.00    -0.000 C 
BRANCH  24  25
ATOM     25  C   UNL     1      22.480  14.814  29.227  1.00  0.00    -0.000 C 
BRANCH  25  26
ATOM     26  C   UNL     1      22.976  15.638  30.429  1.00  0.00    -0.000 C 
BRANCH  26  27
ATOM     27  C   UNL     1      21.882  16.418  31.189  1.00  0.00    -0.000 C 
BRANCH  27  28
ATOM     28  C   UNL     1      22.020  17.951  31.144  1.00  0.00    -0.000 C 
BRANCH  28  29
ATOM     29  C   UNL     1      22.655  18.458  29.839  1.00  0.00    -0.003 C 
ATOM     30  C   UNL     1      22.537  19.976  29.723  1.00  0.00     0.004 C 
ENDBRANCH  28  29
ENDBRANCH  27  28
ENDBRANCH  26  27
ENDBRANCH  25  26
ENDBRANCH  24  25
ENDBRANCH  23  24
ENDBRANCH  22  23
ENDBRANCH  21  22
ENDBRANCH  20  21
ENDBRANCH  19  20
ENDBRANCH  18  19
ENDBRANCH  17  18
ENDBRANCH   1  17
TORSDOF 26
ENDMDL
MODEL 7
REMARK VINA RESULT:    -3.248      2.406      4.699
REMARK INTER + INTRA:         -12.192
REMARK INTER:                  -8.424
REMARK INTRA:                  -3.768
REMARK UNBOUND:                -4.008
REMARK SMILES CCCCCCCCCCCCCCCCCCCCCCCCCCCC(=O)[O-]
REMARK SMILES IDX 15 1 16 2 17 3 18 4 19 5 20 6 21 7 22 8 23 9 24 10 25 11
REMARK SMILES IDX 26 12 27 13 28 14 29 15 30 16 14 17 13 18 12 19 11 20 10 21
REMARK SMILES IDX 9 22 8 23 7 24 6 25 5 26 4 27 3 28 2 29 1 30
REMARK H PARENT
REMARK Flexibility Score: inf
ROOT
ATOM      1  C   UNL     1      18.786  11.715  33.611  1.00  0.00     0.000 C 
ENDROOT
BRANCH   1   2
ATOM      2  C   UNL     1      18.039  12.583  34.640  1.00  0.00     0.000 C 
BRANCH   2   3
ATOM      3  C   UNL     1      18.989  13.308  35.608  1.00  0.00     0.000 C 
BRANCH   3   4
ATOM      4  C   UNL     1      20.407  13.398  35.025  1.00  0.00     0.000 C 
BRANCH   4   5
ATOM      5  C   UNL     1      21.440  12.590  35.834  1.00  0.00     0.000 C 
BRANCH   5   6
ATOM      6  C   UNL     1      22.395  11.733  34.981  1.00  0.00     0.000 C 
BRANCH   6   7
ATOM      7  C   UNL     1      21.891  10.292  34.786  1.00  0.00     0.000 C 
BRANCH   7   8
ATOM      8  C   UNL     1      20.951   9.837  35.915  1.00  0.00     0.000 C 
BRANCH   8   9
ATOM      9  C   UNL     1      19.912   8.803  35.447  1.00  0.00     0.000 C 
BRANCH   9  10
ATOM     10  C   UNL     1      20.493   7.798  34.437  1.00  0.00     0.000 C 
BRANCH  10  11
ATOM     11  C   UNL     1      19.467   6.735  34.006  1.00  0.00     0.000 C 
BRANCH  11  12
ATOM     12  C   UNL     1      18.883   6.996  32.605  1.00  0.00     0.006 C 
BRANCH  12  13
ATOM     13  C   UNL     1      18.910   5.768  31.679  1.00  0.00     0.053 C 
BRANCH  13  14
ATOM     14  C   UNL     1      19.856   5.930  30.527  1.00  0.00     0.041 C 
ATOM     15  O   UNL     1      19.665   6.834  29.670  1.00  0.00    -0.550 OA
ATOM     16  O   UNL     1      20.965   5.101  30.414  1.00  0.00    -0.550 OA
ENDBRANCH  13  14
ENDBRANCH  12  13
ENDBRANCH  11  12
ENDBRANCH  10  11
ENDBRANCH   9  10
ENDBRANCH   8   9
ENDBRANCH   7   8
ENDBRANCH   6   7
ENDBRANCH   5   6
ENDBRANCH   4   5
ENDBRANCH   3   4
ENDBRANCH   2   3
ENDBRANCH   1   2
BRANCH   1  17
ATOM     17  C   UNL     1      17.876  10.900  32.670  1.00  0.00     0.000 C 
BRANCH  17  18
ATOM     18  C   UNL     1      18.157  11.094  31.170  1.00  0.00     0.000 C 
BRANCH  18  19
ATOM     19  C   UNL     1      19.225  10.124  30.636  1.00  0.00     0.000 C 
BRANCH  19  20
ATOM     20  C   UNL     1      20.607  10.350  31.271  1.00  0.00     0.000 C 
BRANCH  20  21
ATOM     21  C   UNL     1      21.600  11.145  30.397  1.00  0.00     0.000 C 
BRANCH  21  22
ATOM     22  C   UNL     1      21.194  12.600  30.099  1.00  0.00    -0.000 C 
BRANCH  22  23
ATOM     23  C   UNL     1      21.089  13.516  31.333  1.00  0.00    -0.000 C 
BRANCH  23  24
ATOM     24  C   UNL     1      22.004  14.757  31.274  1.00  0.00    -0.000 C 
BRANCH  24  25
ATOM     25  C   UNL     1      22.766  14.867  29.942  1.00  0.00    -0.000 C 
BRANCH  25  26
ATOM     26  C   UNL     1      24.086  15.648  30.071  1.00  0.00    -0.000 C 
BRANCH  26  27
ATOM     27  C   UNL     1      24.036  17.110  29.579  1.00  0.00    -0.000 C 
BRANCH  27  28
ATOM     28  C   UNL     1      23.180  18.060  30.437  1.00  0.00    -0.000 C 
BRANCH  28  29
ATOM     29  C   UNL     1      21.843  18.428  29.772  1.00  0.00    -0.003 C 
ATOM     30  C   UNL     1      20.681  18.274  30.749  1.00  0.00     0.004 C 
ENDBRANCH  28  29
ENDBRANCH  27  28
ENDBRANCH  26  27
ENDBRANCH  25  26
ENDBRANCH  24  25
ENDBRANCH  23  24
ENDBRANCH  22  23
ENDBRANCH  21  22
ENDBRANCH  20  21
ENDBRANCH  19  20
ENDBRANCH  18  19
ENDBRANCH  17  18
ENDBRANCH   1  17
TORSDOF 26
ENDMDL
MODEL 8
REMARK VINA RESULT:    -3.247      2.469      8.468
REMARK INTER + INTRA:         -12.190
REMARK INTER:                  -8.981
REMARK INTRA:                  -3.209
REMARK UNBOUND:                -4.008
REMARK SMILES CCCCCCCCCCCCCCCCCCCCCCCCCCCC(=O)[O-]
REMARK SMILES IDX 15 1 16 2 17 3 18 4 19 5 20 6 21 7 22 8 23 9 24 10 25 11
REMARK SMILES IDX 26 12 27 13 28 14 29 15 30 16 14 17 13 18 12 19 11 20 10 21
REMARK SMILES IDX 9 22 8 23 7 24 6 25 5 26 4 27 3 28 2 29 1 30
REMARK H PARENT
REMARK Flexibility Score: inf
ROOT
ATOM      1  C   UNL     1      21.057  10.242  35.214  1.00  0.00     0.000 C 
ENDROOT
BRANCH   1   2
ATOM      2  C   UNL     1      19.885  11.140  35.652  1.00  0.00     0.000 C 
BRANCH   2   3
ATOM      3  C   UNL     1      20.251  12.633  35.657  1.00  0.00     0.000 C 
BRANCH   3   4
ATOM      4  C   UNL     1      21.522  12.893  34.833  1.00  0.00     0.000 C 
BRANCH   4   5
ATOM      5  C   UNL     1      21.222  13.427  33.420  1.00  0.00     0.000 C 
BRANCH   5   6
ATOM      6  C   UNL     1      19.770  13.213  32.949  1.00  0.00     0.000 C 
BRANCH   6   7
ATOM      7  C   UNL     1      19.621  13.295  31.419  1.00  0.00     0.000 C 
BRANCH   7   8
ATOM      8  C   UNL     1      20.414  14.464  30.810  1.00  0.00     0.000 C 
BRANCH   8   9
ATOM      9  C   UNL     1      21.355  14.021  29.676  1.00  0.00     0.000 C 
BRANCH   9  10
ATOM     10  C   UNL     1      22.810  14.462  29.909  1.00  0.00     0.000 C 
BRANCH  10  11
ATOM     11  C   UNL     1      23.081  15.890  29.404  1.00  0.00     0.000 C 
BRANCH  11  12
ATOM     12  C   UNL     1      24.362  16.504  29.998  1.00  0.00     0.006 C 
BRANCH  12  13
ATOM     13  C   UNL     1      24.112  17.738  30.882  1.00  0.00     0.053 C 
BRANCH  13  14
ATOM     14  C   UNL     1      22.704  18.244  30.787  1.00  0.00     0.041 C 
ATOM     15  O   UNL     1      21.842  17.887  31.634  1.00  0.00    -0.550 OA
ATOM     16  O   UNL     1      22.349  19.132  29.779  1.00  0.00    -0.550 OA
ENDBRANCH  13  14
ENDBRANCH  12  13
ENDBRANCH  11  12
ENDBRANCH  10  11
ENDBRANCH   9  10
ENDBRANCH   8   9
ENDBRANCH   7   8
ENDBRANCH   6   7
ENDBRANCH   5   6
ENDBRANCH   4   5
ENDBRANCH   3   4
ENDBRANCH   2   3
ENDBRANCH   1   2
BRANCH   1  17
ATOM     17  C   UNL     1      20.896   9.604  33.819  1.00  0.00     0.000 C 
BRANCH  17  18
ATOM     18  C   UNL     1      19.540   9.863  33.141  1.00  0.00     0.000 C 
BRANCH  18  19
ATOM     19  C   UNL     1      19.566   9.569  31.631  1.00  0.00     0.000 C 
BRANCH  19  20
ATOM     20  C   UNL     1      18.211   9.075  31.096  1.00  0.00     0.000 C 
BRANCH  20  21
ATOM     21  C   UNL     1      18.185   8.765  29.585  1.00  0.00     0.000 C 
BRANCH  21  22
ATOM     22  C   UNL     1      18.467   7.297  29.211  1.00  0.00    -0.000 C 
BRANCH  22  23
ATOM     23  C   UNL     1      19.836   6.758  29.666  1.00  0.00    -0.000 C 
BRANCH  23  24
ATOM     24  C   UNL     1      19.751   5.678  30.766  1.00  0.00    -0.000 C 
BRANCH  24  25
ATOM     25  C   UNL     1      18.303   5.383  31.194  1.00  0.00    -0.000 C 
BRANCH  25  26
ATOM     26  C   UNL     1      18.119   5.385  32.722  1.00  0.00    -0.000 C 
BRANCH  26  27
ATOM     27  C   UNL     1      19.126   6.253  33.505  1.00  0.00    -0.000 C 
BRANCH  27  28
ATOM     28  C   UNL     1      18.590   6.854  34.818  1.00  0.00    -0.000 C 
BRANCH  28  29
ATOM     29  C   UNL     1      19.655   6.923  35.925  1.00  0.00    -0.003 C 
ATOM     30  C   UNL     1      19.255   6.072  37.127  1.00  0.00     0.004 C 
ENDBRANCH  28  29
ENDBRANCH  27  28
ENDBRANCH  26  27
ENDBRANCH  25  26
ENDBRANCH  24  25
ENDBRANCH  23  24
ENDBRANCH  22  23
ENDBRANCH  21  22
ENDBRANCH  20  21
ENDBRANCH  19  20
ENDBRANCH  18  19
ENDBRANCH  17  18
ENDBRANCH   1  17
TORSDOF 26
ENDMDL
MODEL 9
REMARK VINA RESULT:    -3.236      2.144      4.734
REMARK INTER + INTRA:         -12.163
REMARK INTER:                  -8.802
REMARK INTRA:                  -3.361
REMARK UNBOUND:                -4.008
REMARK SMILES CCCCCCCCCCCCCCCCCCCCCCCCCCCC(=O)[O-]
REMARK SMILES IDX 15 1 16 2 17 3 18 4 19 5 20 6 21 7 22 8 23 9 24 10 25 11
REMARK SMILES IDX 26 12 27 13 28 14 29 15 30 16 14 17 13 18 12 19 11 20 10 21
REMARK SMILES IDX 9 22 8 23 7 24 6 25 5 26 4 27 3 28 2 29 1 30
REMARK H PARENT
REMARK Flexibility Score: inf
ROOT
ATOM      1  C   UNL     1      21.461  11.903  35.297  1.00  0.00     0.000 C 
ENDROOT
BRANCH   1   2
ATOM      2  C   UNL     1      20.750  13.268  35.246  1.00  0.00     0.000 C 
BRANCH   2   3
ATOM      3  C   UNL     1      19.276  13.185  35.676  1.00  0.00     0.000 C 
BRANCH   3   4
ATOM      4  C   UNL     1      18.360  12.946  34.466  1.00  0.00     0.000 C 
BRANCH   4   5
ATOM      5  C   UNL     1      17.926  11.474  34.324  1.00  0.00     0.000 C 
BRANCH   5   6
ATOM      6  C   UNL     1      17.991  10.922  32.887  1.00  0.00     0.000 C 
BRANCH   6   7
ATOM      7  C   UNL     1      18.956   9.732  32.747  1.00  0.00     0.000 C 
BRANCH   7   8
ATOM      8  C   UNL     1      18.720   8.928  31.458  1.00  0.00     0.000 C 
BRANCH   8   9
ATOM      9  C   UNL     1      18.559   7.419  31.715  1.00  0.00     0.000 C 
BRANCH   9  10
ATOM     10  C   UNL     1      19.907   6.680  31.754  1.00  0.00     0.000 C 
BRANCH  10  11
ATOM     11  C   UNL     1      20.254   6.160  33.160  1.00  0.00     0.000 C 
BRANCH  11  12
ATOM     12  C   UNL     1      19.286   6.670  34.245  1.00  0.00     0.006 C 
BRANCH  12  13
ATOM     13  C   UNL     1      19.985   7.312  35.455  1.00  0.00     0.053 C 
BRANCH  13  14
ATOM     14  C   UNL     1      19.365   6.916  36.762  1.00  0.00     0.041 C 
ATOM     15  O   UNL     1      19.338   7.728  37.724  1.00  0.00    -0.550 OA
ATOM     16  O   UNL     1      18.792   5.659  36.908  1.00  0.00    -0.550 OA
ENDBRANCH  13  14
ENDBRANCH  12  13
ENDBRANCH  11  12
ENDBRANCH  10  11
ENDBRANCH   9  10
ENDBRANCH   8   9
ENDBRANCH   7   8
ENDBRANCH   6   7
ENDBRANCH   5   6
ENDBRANCH   4   5
ENDBRANCH   3   4
ENDBRANCH   2   3
ENDBRANCH   1   2
BRANCH   1  17
ATOM     17  C   UNL     1      22.053  11.432  33.952  1.00  0.00     0.000 C 
BRANCH  17  18
ATOM     18  C   UNL     1      21.688  12.309  32.742  1.00  0.00     0.000 C 
BRANCH  18  19
ATOM     19  C   UNL     1      21.715  11.530  31.416  1.00  0.00     0.000 C 
BRANCH  19  20
ATOM     20  C   UNL     1      22.025  12.425  30.204  1.00  0.00     0.000 C 
BRANCH  20  21
ATOM     21  C   UNL     1      20.945  12.422  29.102  1.00  0.00     0.000 C 
BRANCH  21  22
ATOM     22  C   UNL     1      20.233  13.769  28.877  1.00  0.00    -0.000 C 
BRANCH  22  23
ATOM     23  C   UNL     1      20.077  14.644  30.134  1.00  0.00    -0.000 C 
BRANCH  23  24
ATOM     24  C   UNL     1      19.440  16.024  29.863  1.00  0.00    -0.000 C 
BRANCH  24  25
ATOM     25  C   UNL     1      20.398  16.986  29.139  1.00  0.00    -0.000 C 
BRANCH  25  26
ATOM     26  C   UNL     1      20.761  18.219  29.986  1.00  0.00    -0.000 C 
BRANCH  26  27
ATOM     27  C   UNL     1      22.248  18.631  29.945  1.00  0.00    -0.000 C 
BRANCH  27  28
ATOM     28  C   UNL     1      23.148  17.933  30.981  1.00  0.00    -0.000 C 
BRANCH  28  29
ATOM     29  C   UNL     1      24.260  17.088  30.338  1.00  0.00    -0.003 C 
ATOM     30  C   UNL     1      23.751  15.697  29.970  1.00  0.00     0.004 C 
ENDBRANCH  28  29
ENDBRANCH  27  28
ENDBRANCH  26  27
ENDBRANCH  25  26
ENDBRANCH  24  25
ENDBRANCH  23  24
ENDBRANCH  22  23
ENDBRANCH  21  22
ENDBRANCH  20  21
ENDBRANCH  19  20
ENDBRANCH  18  19
ENDBRANCH  17  18
ENDBRANCH   1  17
TORSDOF 26
ENDMDL
