MODEL 1
REMARK VINA RESULT:    14.310      0.000      0.000
REMARK INTER + INTRA:          30.059
REMARK INTER:                  31.042
REMARK INTRA:                  -0.983
REMARK UNBOUND:                -0.983
REMARK SMILES CCCCCCCCCCCCCCCCCCCCCC(=O)[O-]
REMARK SMILES IDX 12 1 11 2 10 3 9 4 8 5 7 6 6 7 5 8 4 9 3 10 2 11 1 12 13 13
REMARK SMILES IDX 14 14 15 15 16 16 17 17 18 18 19 19 20 20 21 21 22 22 23 23
REMARK SMILES IDX 24 24
REMARK H PARENT
REMARK Flexibility Score: inf
ROOT
ATOM      1  C   UNL     1      13.863  -9.978   3.736  1.00  0.00     0.000 C 
ENDROOT
BRANCH   1   2
ATOM      2  C   UNL     1      12.746 -10.971   4.110  1.00  0.00     0.000 C 
BRANCH   2   3
ATOM      3  C   UNL     1      11.792 -10.517   5.237  1.00  0.00     0.000 C 
BRANCH   3   4
ATOM      4  C   UNL     1      11.058 -11.653   5.984  1.00  0.00    -0.000 C 
BRANCH   4   5
ATOM      5  C   UNL     1      11.154 -13.029   5.300  1.00  0.00    -0.000 C 
BRANCH   5   6
ATOM      6  C   UNL     1      12.347 -13.868   5.788  1.00  0.00    -0.000 C 
BRANCH   6   7
ATOM      7  C   UNL     1      13.058 -13.243   7.000  1.00  0.00    -0.000 C 
BRANCH   7   8
ATOM      8  C   UNL     1      14.230 -14.103   7.501  1.00  0.00    -0.000 C 
BRANCH   8   9
ATOM      9  C   UNL     1      14.850 -14.960   6.386  1.00  0.00    -0.000 C 
BRANCH   9  10
ATOM     10  C   UNL     1      15.849 -16.001   6.925  1.00  0.00    -0.000 C 
BRANCH  10  11
ATOM     11  C   UNL     1      17.310 -15.585   6.696  1.00  0.00    -0.003 C 
ATOM     12  C   UNL     1      18.279 -16.765   6.771  1.00  0.00     0.004 C 
ENDBRANCH  10  11
ENDBRANCH   9  10
ENDBRANCH   8   9
ENDBRANCH   7   8
ENDBRANCH   6   7
ENDBRANCH   5   6
ENDBRANCH   4   5
ENDBRANCH   3   4
ENDBRANCH   2   3
ENDBRANCH   1   2
BRANCH   1  13
ATOM     13  C   UNL     1      14.602 -10.280   2.418  1.00  0.00     0.000 C 
BRANCH  13  14
ATOM     14  C   UNL     1      15.906  -9.473   2.234  1.00  0.00     0.000 C 
BRANCH  14  15
ATOM     15  C   UNL     1      15.649  -7.978   1.973  1.00  0.00     0.000 C 
BRANCH  15  16
ATOM     16  C   UNL     1      16.426  -7.069   2.941  1.00  0.00     0.000 C 
BRANCH  16  17
ATOM     17  C   UNL     1      15.666  -6.821   4.255  1.00  0.00     0.000 C 
BRANCH  17  18
ATOM     18  C   UNL     1      16.553  -6.183   5.336  1.00  0.00     0.000 C 
BRANCH  18  19
ATOM     19  C   UNL     1      15.761  -5.786   6.590  1.00  0.00     0.000 C 
BRANCH  19  20
ATOM     20  C   UNL     1      15.880  -4.278   6.859  1.00  0.00     0.006 C 
BRANCH  20  21
ATOM     21  C   UNL     1      14.654  -3.501   6.362  1.00  0.00     0.053 C 
BRANCH  21  22
ATOM     22  C   UNL     1      14.775  -2.034   6.643  1.00  0.00     0.041 C 
ATOM     23  O   UNL     1      13.806  -1.263   6.414  1.00  0.00    -0.550 OA
ATOM     24  O   UNL     1      15.970  -1.511   7.122  1.00  0.00    -0.550 OA
ENDBRANCH  21  22
ENDBRANCH  20  21
ENDBRANCH  19  20
ENDBRANCH  18  19
ENDBRANCH  17  18
ENDBRANCH  16  17
ENDBRANCH  15  16
ENDBRANCH  14  15
ENDBRANCH  13  14
ENDBRANCH   1  13
TORSDOF 20
ENDMDL
MODEL 2
REMARK VINA RESULT:    14.984      4.989      8.201
REMARK INTER + INTRA:          31.520
REMARK INTER:                  32.630
REMARK INTRA:                  -1.110
REMARK UNBOUND:                -0.983
REMARK SMILES CCCCCCCCCCCCCCCCCCCCCC(=O)[O-]
REMARK SMILES IDX 12 1 11 2 10 3 9 4 8 5 7 6 6 7 5 8 4 9 3 10 2 11 1 12 13 13
REMARK SMILES IDX 14 14 15 15 16 16 17 17 18 18 19 19 20 20 21 21 22 22 23 23
REMARK SMILES IDX 24 24
REMARK H PARENT
REMARK Flexibility Score: inf
ROOT
ATOM      1  C   UNL     1      11.727 -18.977   5.805  1.00  0.00     0.000 C 
ENDROOT
BRANCH   1   2
ATOM      2  C   UNL     1      12.607 -20.222   6.030  1.00  0.00     0.000 C 
BRANCH   2   3
ATOM      3  C   UNL     1      13.154 -20.410   7.462  1.00  0.00     0.000 C 
BRANCH   3   4
ATOM      4  C   UNL     1      13.963 -19.221   8.026  1.00  0.00    -0.000 C 
BRANCH   4   5
ATOM      5  C   UNL     1      14.877 -18.530   6.997  1.00  0.00    -0.000 C 
BRANCH   5   6
ATOM      6  C   UNL     1      14.899 -16.999   7.135  1.00  0.00    -0.000 C 
BRANCH   6   7
ATOM      7  C   UNL     1      16.317 -16.413   7.043  1.00  0.00    -0.000 C 
BRANCH   7   8
ATOM      8  C   UNL     1      17.395 -17.501   6.897  1.00  0.00    -0.000 C 
BRANCH   8   9
ATOM      9  C   UNL     1      18.807 -16.913   6.745  1.00  0.00    -0.000 C 
BRANCH   9  10
ATOM     10  C   UNL     1      19.049 -16.306   5.351  1.00  0.00    -0.000 C 
BRANCH  10  11
ATOM     11  C   UNL     1      19.125 -17.376   4.251  1.00  0.00    -0.003 C 
ATOM     12  C   UNL     1      18.216 -17.066   3.061  1.00  0.00     0.004 C 
ENDBRANCH  10  11
ENDBRANCH   9  10
ENDBRANCH   8   9
ENDBRANCH   7   8
ENDBRANCH   6   7
ENDBRANCH   5   6
ENDBRANCH   4   5
ENDBRANCH   3   4
ENDBRANCH   2   3
ENDBRANCH   1   2
BRANCH   1  13
ATOM     13  C   UNL     1      11.809 -18.353   4.398  1.00  0.00     0.000 C 
BRANCH  13  14
ATOM     14  C   UNL     1      11.650 -16.817   4.385  1.00  0.00     0.000 C 
BRANCH  14  15
ATOM     15  C   UNL     1      10.293 -16.365   3.816  1.00  0.00     0.000 C 
BRANCH  15  16
ATOM     16  C   UNL     1       9.362 -15.794   4.899  1.00  0.00     0.000 C 
BRANCH  16  17
ATOM     17  C   UNL     1       9.900 -14.488   5.511  1.00  0.00     0.000 C 
BRANCH  17  18
ATOM     18  C   UNL     1       9.303 -13.238   4.845  1.00  0.00     0.000 C 
BRANCH  18  19
ATOM     19  C   UNL     1       9.703 -11.940   5.562  1.00  0.00     0.000 C 
BRANCH  19  20
ATOM     20  C   UNL     1      11.047 -12.105   6.286  1.00  0.00     0.006 C 
BRANCH  20  21
ATOM     21  C   UNL     1      12.236 -12.089   5.316  1.00  0.00     0.053 C 
BRANCH  21  22
ATOM     22  C   UNL     1      12.379 -10.762   4.635  1.00  0.00     0.041 C 
ATOM     23  O   UNL     1      13.183 -10.627   3.675  1.00  0.00    -0.550 OA
ATOM     24  O   UNL     1      11.655  -9.665   5.084  1.00  0.00    -0.550 OA
ENDBRANCH  21  22
ENDBRANCH  20  21
ENDBRANCH  19  20
ENDBRANCH  18  19
ENDBRANCH  17  18
ENDBRANCH  16  17
ENDBRANCH  15  16
ENDBRANCH  14  15
ENDBRANCH  13  14
ENDBRANCH   1  13
TORSDOF 20
ENDMDL
MODEL 3
REMARK VINA RESULT:    15.036      1.689      2.931
REMARK INTER + INTRA:          31.632
REMARK INTER:                  32.529
REMARK INTRA:                  -0.897
REMARK UNBOUND:                -0.983
REMARK SMILES CCCCCCCCCCCCCCCCCCCCCC(=O)[O-]
REMARK SMILES IDX 12 1 11 2 10 3 9 4 8 5 7 6 6 7 5 8 4 9 3 10 2 11 1 12 13 13
REMARK SMILES IDX 14 14 15 15 16 16 17 17 18 18 19 19 20 20 21 21 22 22 23 23
REMARK SMILES IDX 24 24
REMARK H PARENT
REMARK Flexibility Score: inf
ROOT
ATOM      1  C   UNL     1      11.497 -10.206   5.286  1.00  0.00     0.000 C 
ENDROOT
BRANCH   1   2
ATOM      2  C   UNL     1      10.453 -11.047   6.046  1.00  0.00     0.000 C 
BRANCH   2   3
ATOM      3  C   UNL     1       9.829 -12.218   5.256  1.00  0.00     0.000 C 
BRANCH   3   4
ATOM      4  C   UNL     1      10.198 -13.631   5.760  1.00  0.00    -0.000 C 
BRANCH   4   5
ATOM      5  C   UNL     1      11.478 -14.215   5.135  1.00  0.00    -0.000 C 
BRANCH   5   6
ATOM      6  C   UNL     1      12.758 -13.817   5.888  1.00  0.00    -0.000 C 
BRANCH   6   7
ATOM      7  C   UNL     1      13.786 -14.957   5.960  1.00  0.00    -0.000 C 
BRANCH   7   8
ATOM      8  C   UNL     1      14.885 -14.694   7.003  1.00  0.00    -0.000 C 
BRANCH   8   9
ATOM      9  C   UNL     1      15.972 -15.781   6.999  1.00  0.00    -0.000 C 
BRANCH   9  10
ATOM     10  C   UNL     1      17.378 -15.212   6.735  1.00  0.00    -0.000 C 
BRANCH  10  11
ATOM     11  C   UNL     1      18.449 -16.310   6.650  1.00  0.00    -0.003 C 
ATOM     12  C   UNL     1      17.850 -17.711   6.523  1.00  0.00     0.004 C 
ENDBRANCH  10  11
ENDBRANCH   9  10
ENDBRANCH   8   9
ENDBRANCH   7   8
ENDBRANCH   6   7
ENDBRANCH   5   6
ENDBRANCH   4   5
ENDBRANCH   3   4
ENDBRANCH   2   3
ENDBRANCH   1   2
BRANCH   1  13
ATOM     13  C   UNL     1      12.442 -10.999   4.362  1.00  0.00     0.000 C 
BRANCH  13  14
ATOM     14  C   UNL     1      13.622 -10.168   3.813  1.00  0.00     0.000 C 
BRANCH  14  15
ATOM     15  C   UNL     1      14.380 -10.887   2.682  1.00  0.00     0.000 C 
BRANCH  15  16
ATOM     16  C   UNL     1      15.635 -10.118   2.233  1.00  0.00     0.000 C 
BRANCH  16  17
ATOM     17  C   UNL     1      15.335  -8.648   1.891  1.00  0.00     0.000 C 
BRANCH  17  18
ATOM     18  C   UNL     1      16.594  -7.768   1.927  1.00  0.00     0.000 C 
BRANCH  18  19
ATOM     19  C   UNL     1      16.660  -6.884   3.181  1.00  0.00     0.000 C 
BRANCH  19  20
ATOM     20  C   UNL     1      15.316  -6.884   3.923  1.00  0.00     0.006 C 
BRANCH  20  21
ATOM     21  C   UNL     1      15.490  -7.020   5.442  1.00  0.00     0.053 C 
BRANCH  21  22
ATOM     22  C   UNL     1      16.265  -5.873   6.017  1.00  0.00     0.041 C 
ATOM     23  O   UNL     1      15.676  -4.985   6.688  1.00  0.00    -0.550 OA
ATOM     24  O   UNL     1      17.629  -5.763   5.779  1.00  0.00    -0.550 OA
ENDBRANCH  21  22
ENDBRANCH  20  21
ENDBRANCH  19  20
ENDBRANCH  18  19
ENDBRANCH  17  18
ENDBRANCH  16  17
ENDBRANCH  15  16
ENDBRANCH  14  15
ENDBRANCH  13  14
ENDBRANCH   1  13
TORSDOF 20
ENDMDL
MODEL 4
REMARK VINA RESULT:    15.202      5.920      9.083
REMARK INTER + INTRA:          31.994
REMARK INTER:                  32.922
REMARK INTRA:                  -0.928
REMARK UNBOUND:                -0.983
REMARK SMILES CCCCCCCCCCCCCCCCCCCCCC(=O)[O-]
REMARK SMILES IDX 12 1 11 2 10 3 9 4 8 5 7 6 6 7 5 8 4 9 3 10 2 11 1 12 13 13
REMARK SMILES IDX 14 14 15 15 16 16 17 17 18 18 19 19 20 20 21 21 22 22 23 23
REMARK SMILES IDX 24 24
REMARK H PARENT
REMARK Flexibility Score: inf
ROOT
ATOM      1  C   UNL     1      12.787 -19.133   7.247  1.00  0.00     0.000 C 
ENDROOT
BRANCH   1   2
ATOM      2  C   UNL     1      14.147 -19.271   7.957  1.00  0.00     0.000 C 
BRANCH   2   3
ATOM      3  C   UNL     1      15.320 -18.492   7.321  1.00  0.00     0.000 C 
BRANCH   3   4
ATOM      4  C   UNL     1      14.952 -17.125   6.703  1.00  0.00    -0.000 C 
BRANCH   4   5
ATOM      5  C   UNL     1      15.734 -15.933   7.285  1.00  0.00    -0.000 C 
BRANCH   5   6
ATOM      6  C   UNL     1      17.075 -15.682   6.576  1.00  0.00    -0.000 C 
BRANCH   6   7
ATOM      7  C   UNL     1      18.201 -16.591   7.094  1.00  0.00    -0.000 C 
BRANCH   7   8
ATOM      8  C   UNL     1      19.107 -17.108   5.963  1.00  0.00    -0.000 C 
BRANCH   8   9
ATOM      9  C   UNL     1      18.877 -16.362   4.638  1.00  0.00    -0.000 C 
BRANCH   9  10
ATOM     10  C   UNL     1      19.095 -17.261   3.407  1.00  0.00    -0.000 C 
BRANCH  10  11
ATOM     11  C   UNL     1      17.863 -17.308   2.490  1.00  0.00    -0.003 C 
ATOM     12  C   UNL     1      17.466 -15.930   1.962  1.00  0.00     0.004 C 
ENDBRANCH  10  11
ENDBRANCH   9  10
ENDBRANCH   8   9
ENDBRANCH   7   8
ENDBRANCH   6   7
ENDBRANCH   5   6
ENDBRANCH   4   5
ENDBRANCH   3   4
ENDBRANCH   2   3
ENDBRANCH   1   2
BRANCH   1  13
ATOM     13  C   UNL     1      12.427 -20.275   6.277  1.00  0.00     0.000 C 
BRANCH  13  14
ATOM     14  C   UNL     1      11.730 -19.801   4.983  1.00  0.00     0.000 C 
BRANCH  14  15
ATOM     15  C   UNL     1      12.488 -18.656   4.285  1.00  0.00     0.000 C 
BRANCH  15  16
ATOM     16  C   UNL     1      11.558 -17.507   3.861  1.00  0.00     0.000 C 
BRANCH  16  17
ATOM     17  C   UNL     1      10.819 -16.876   5.055  1.00  0.00     0.000 C 
BRANCH  17  18
ATOM     18  C   UNL     1       9.995 -15.643   4.650  1.00  0.00     0.000 C 
BRANCH  18  19
ATOM     19  C   UNL     1      10.336 -14.404   5.491  1.00  0.00     0.000 C 
BRANCH  19  20
ATOM     20  C   UNL     1       9.404 -13.234   5.145  1.00  0.00     0.006 C 
BRANCH  20  21
ATOM     21  C   UNL     1       9.984 -11.881   5.580  1.00  0.00     0.053 C 
BRANCH  21  22
ATOM     22  C   UNL     1      11.482 -11.897   5.593  1.00  0.00     0.041 C 
ATOM     23  O   UNL     1      12.100 -12.673   6.370  1.00  0.00    -0.550 OA
ATOM     24  O   UNL     1      12.197 -11.030   4.776  1.00  0.00    -0.550 OA
ENDBRANCH  21  22
ENDBRANCH  20  21
ENDBRANCH  19  20
ENDBRANCH  18  19
ENDBRANCH  17  18
ENDBRANCH  16  17
ENDBRANCH  15  16
ENDBRANCH  14  15
ENDBRANCH  13  14
ENDBRANCH   1  13
TORSDOF 20
ENDMDL
MODEL 5
REMARK VINA RESULT:    15.231      6.602      9.001
REMARK INTER + INTRA:          32.056
REMARK INTER:                  32.710
REMARK INTRA:                  -0.654
REMARK UNBOUND:                -0.983
REMARK SMILES CCCCCCCCCCCCCCCCCCCCCC(=O)[O-]
REMARK SMILES IDX 12 1 11 2 10 3 9 4 8 5 7 6 6 7 5 8 4 9 3 10 2 11 1 12 13 13
REMARK SMILES IDX 14 14 15 15 16 16 17 17 18 18 19 19 20 20 21 21 22 22 23 23
REMARK SMILES IDX 24 24
REMARK H PARENT
REMARK Flexibility Score: inf
ROOT
ATOM      1  C   UNL     1      11.467 -11.339   5.604  1.00  0.00     0.000 C 
ENDROOT
BRANCH   1   2
ATOM      2  C   UNL     1      10.130 -11.750   6.250  1.00  0.00     0.000 C 
BRANCH   2   3
ATOM      3  C   UNL     1       8.978 -12.064   5.270  1.00  0.00     0.000 C 
BRANCH   3   4
ATOM      4  C   UNL     1       8.864 -13.540   4.828  1.00  0.00    -0.000 C 
BRANCH   4   5
ATOM      5  C   UNL     1      10.031 -14.432   5.290  1.00  0.00    -0.000 C 
BRANCH   5   6
ATOM      6  C   UNL     1      10.110 -15.768   4.532  1.00  0.00    -0.000 C 
BRANCH   6   7
ATOM      7  C   UNL     1      11.452 -16.490   4.738  1.00  0.00    -0.000 C 
BRANCH   7   8
ATOM      8  C   UNL     1      11.324 -18.017   4.611  1.00  0.00    -0.000 C 
BRANCH   8   9
ATOM      9  C   UNL     1      11.467 -18.733   5.963  1.00  0.00    -0.000 C 
BRANCH   9  10
ATOM     10  C   UNL     1      11.838 -20.220   5.810  1.00  0.00    -0.000 C 
BRANCH  10  11
ATOM     11  C   UNL     1      12.905 -20.665   6.821  1.00  0.00    -0.003 C 
ATOM     12  C   UNL     1      13.703 -19.493   7.393  1.00  0.00     0.004 C 
ENDBRANCH  10  11
ENDBRANCH   9  10
ENDBRANCH   8   9
ENDBRANCH   7   8
ENDBRANCH   6   7
ENDBRANCH   5   6
ENDBRANCH   4   5
ENDBRANCH   3   4
ENDBRANCH   2   3
ENDBRANCH   1   2
BRANCH   1  13
ATOM     13  C   UNL     1      12.493 -12.475   5.426  1.00  0.00     0.000 C 
BRANCH  13  14
ATOM     14  C   UNL     1      12.689 -13.344   6.688  1.00  0.00     0.000 C 
BRANCH  14  15
ATOM     15  C   UNL     1      14.072 -14.018   6.736  1.00  0.00     0.000 C 
BRANCH  15  16
ATOM     16  C   UNL     1      14.008 -15.518   6.401  1.00  0.00     0.000 C 
BRANCH  16  17
ATOM     17  C   UNL     1      15.403 -16.140   6.212  1.00  0.00     0.000 C 
BRANCH  17  18
ATOM     18  C   UNL     1      16.385 -15.726   7.319  1.00  0.00     0.000 C 
BRANCH  18  19
ATOM     19  C   UNL     1      17.771 -15.356   6.770  1.00  0.00     0.000 C 
BRANCH  19  20
ATOM     20  C   UNL     1      18.832 -16.363   7.235  1.00  0.00     0.006 C 
BRANCH  20  21
ATOM     21  C   UNL     1      18.730 -17.701   6.490  1.00  0.00     0.053 C 
BRANCH  21  22
ATOM     22  C   UNL     1      18.992 -17.541   5.023  1.00  0.00     0.041 C 
ATOM     23  O   UNL     1      19.056 -16.390   4.513  1.00  0.00    -0.550 OA
ATOM     24  O   UNL     1      19.125 -18.660   4.211  1.00  0.00    -0.550 OA
ENDBRANCH  21  22
ENDBRANCH  20  21
ENDBRANCH  19  20
ENDBRANCH  18  19
ENDBRANCH  17  18
ENDBRANCH  16  17
ENDBRANCH  15  16
ENDBRANCH  14  15
ENDBRANCH  13  14
ENDBRANCH   1  13
TORSDOF 20
ENDMDL
MODEL 6
REMARK VINA RESULT:    15.458      4.986      9.954
REMARK INTER + INTRA:          32.548
REMARK INTER:                  33.583
REMARK INTRA:                  -1.034
REMARK UNBOUND:                -0.983
REMARK SMILES CCCCCCCCCCCCCCCCCCCCCC(=O)[O-]
REMARK SMILES IDX 12 1 11 2 10 3 9 4 8 5 7 6 6 7 5 8 4 9 3 10 2 11 1 12 13 13
REMARK SMILES IDX 14 14 15 15 16 16 17 17 18 18 19 19 20 20 21 21 22 22 23 23
REMARK SMILES IDX 24 24
REMARK H PARENT
REMARK Flexibility Score: inf
ROOT
ATOM      1  C   UNL     1      11.519 -10.668   5.475  1.00  0.00     0.000 C 
ENDROOT
BRANCH   1   2
ATOM      2  C   UNL     1      12.431 -10.086   4.377  1.00  0.00     0.000 C 
BRANCH   2   3
ATOM      3  C   UNL     1      13.528 -11.033   3.842  1.00  0.00     0.000 C 
BRANCH   3   4
ATOM      4  C   UNL     1      14.127 -10.648   2.471  1.00  0.00    -0.000 C 
BRANCH   4   5
ATOM      5  C   UNL     1      15.509  -9.974   2.549  1.00  0.00    -0.000 C 
BRANCH   5   6
ATOM      6  C   UNL     1      15.549  -8.591   1.876  1.00  0.00    -0.000 C 
BRANCH   6   7
ATOM      7  C   UNL     1      16.675  -7.697   2.420  1.00  0.00    -0.000 C 
BRANCH   7   8
ATOM      8  C   UNL     1      16.201  -6.787   3.567  1.00  0.00    -0.000 C 
BRANCH   8   9
ATOM      9  C   UNL     1      17.368  -6.094   4.288  1.00  0.00    -0.000 C 
BRANCH   9  10
ATOM     10  C   UNL     1      17.163  -6.023   5.813  1.00  0.00    -0.000 C 
BRANCH  10  11
ATOM     11  C   UNL     1      15.703  -5.740   6.196  1.00  0.00    -0.003 C 
ATOM     12  C   UNL     1      15.546  -4.471   7.033  1.00  0.00     0.004 C 
ENDBRANCH  10  11
ENDBRANCH   9  10
ENDBRANCH   8   9
ENDBRANCH   7   8
ENDBRANCH   6   7
ENDBRANCH   5   6
ENDBRANCH   4   5
ENDBRANCH   3   4
ENDBRANCH   2   3
ENDBRANCH   1   2
BRANCH   1  13
ATOM     13  C   UNL     1      11.355 -12.200   5.456  1.00  0.00     0.000 C 
BRANCH  13  14
ATOM     14  C   UNL     1      12.248 -12.937   6.479  1.00  0.00     0.000 C 
BRANCH  14  15
ATOM     15  C   UNL     1      13.082 -14.061   5.838  1.00  0.00     0.000 C 
BRANCH  15  16
ATOM     16  C   UNL     1      14.279 -14.476   6.711  1.00  0.00     0.000 C 
BRANCH  16  17
ATOM     17  C   UNL     1      14.994 -15.729   6.174  1.00  0.00     0.000 C 
BRANCH  17  18
ATOM     18  C   UNL     1      16.016 -16.295   7.173  1.00  0.00     0.000 C 
BRANCH  18  19
ATOM     19  C   UNL     1      17.330 -15.499   7.187  1.00  0.00     0.000 C 
BRANCH  19  20
ATOM     20  C   UNL     1      18.485 -16.338   6.621  1.00  0.00     0.006 C 
BRANCH  20  21
ATOM     21  C   UNL     1      18.745 -16.042   5.138  1.00  0.00     0.053 C 
BRANCH  21  22
ATOM     22  C   UNL     1      18.840 -17.300   4.329  1.00  0.00     0.041 C 
ATOM     23  O   UNL     1      18.681 -17.264   3.080  1.00  0.00    -0.550 OA
ATOM     24  O   UNL     1      19.066 -18.519   4.958  1.00  0.00    -0.550 OA
ENDBRANCH  21  22
ENDBRANCH  20  21
ENDBRANCH  19  20
ENDBRANCH  18  19
ENDBRANCH  17  18
ENDBRANCH  16  17
ENDBRANCH  15  16
ENDBRANCH  14  15
ENDBRANCH  13  14
ENDBRANCH   1  13
TORSDOF 20
ENDMDL
MODEL 7
REMARK VINA RESULT:    16.015      4.478      9.790
REMARK INTER + INTRA:          33.758
REMARK INTER:                  34.473
REMARK INTRA:                  -0.716
REMARK UNBOUND:                -0.983
REMARK SMILES CCCCCCCCCCCCCCCCCCCCCC(=O)[O-]
REMARK SMILES IDX 12 1 11 2 10 3 9 4 8 5 7 6 6 7 5 8 4 9 3 10 2 11 1 12 13 13
REMARK SMILES IDX 14 14 15 15 16 16 17 17 18 18 19 19 20 20 21 21 22 22 23 23
REMARK SMILES IDX 24 24
REMARK H PARENT
REMARK Flexibility Score: inf
ROOT
ATOM      1  C   UNL     1      12.947 -11.317   4.335  1.00  0.00     0.000 C 
ENDROOT
BRANCH   1   2
ATOM      2  C   UNL     1      13.475 -10.556   3.104  1.00  0.00     0.000 C 
BRANCH   2   3
ATOM      3  C   UNL     1      14.678  -9.621   3.356  1.00  0.00     0.000 C 
BRANCH   3   4
ATOM      4  C   UNL     1      15.486  -9.224   2.100  1.00  0.00    -0.000 C 
BRANCH   4   5
ATOM      5  C   UNL     1      15.791  -7.719   1.991  1.00  0.00    -0.000 C 
BRANCH   5   6
ATOM      6  C   UNL     1      16.768  -7.218   3.067  1.00  0.00    -0.000 C 
BRANCH   6   7
ATOM      7  C   UNL     1      16.072  -6.407   4.172  1.00  0.00    -0.000 C 
BRANCH   7   8
ATOM      8  C   UNL     1      16.843  -6.444   5.503  1.00  0.00    -0.000 C 
BRANCH   8   9
ATOM      9  C   UNL     1      16.047  -5.823   6.661  1.00  0.00    -0.000 C 
BRANCH   9  10
ATOM     10  C   UNL     1      15.822  -4.310   6.482  1.00  0.00    -0.000 C 
BRANCH  10  11
ATOM     11  C   UNL     1      14.342  -3.919   6.603  1.00  0.00    -0.003 C 
ATOM     12  C   UNL     1      14.105  -2.425   6.376  1.00  0.00     0.004 C 
ENDBRANCH  10  11
ENDBRANCH   9  10
ENDBRANCH   8   9
ENDBRANCH   7   8
ENDBRANCH   6   7
ENDBRANCH   5   6
ENDBRANCH   4   5
ENDBRANCH   3   4
ENDBRANCH   2   3
ENDBRANCH   1   2
BRANCH   1  13
ATOM     13  C   UNL     1      11.748 -10.666   5.052  1.00  0.00     0.000 C 
BRANCH  13  14
ATOM     14  C   UNL     1      10.942 -11.644   5.935  1.00  0.00     0.000 C 
BRANCH  14  15
ATOM     15  C   UNL     1      11.007 -13.096   5.427  1.00  0.00     0.000 C 
BRANCH  15  16
ATOM     16  C   UNL     1      12.235 -13.853   5.964  1.00  0.00     0.000 C 
BRANCH  16  17
ATOM     17  C   UNL     1      12.743 -13.280   7.299  1.00  0.00     0.000 C 
BRANCH  17  18
ATOM     18  C   UNL     1      14.218 -13.622   7.561  1.00  0.00     0.000 C 
BRANCH  18  19
ATOM     19  C   UNL     1      14.710 -14.802   6.710  1.00  0.00     0.000 C 
BRANCH  19  20
ATOM     20  C   UNL     1      16.244 -14.869   6.699  1.00  0.00     0.006 C 
BRANCH  20  21
ATOM     21  C   UNL     1      16.766 -16.293   6.936  1.00  0.00     0.053 C 
BRANCH  21  22
ATOM     22  C   UNL     1      18.237 -16.397   6.673  1.00  0.00     0.041 C 
ATOM     23  O   UNL     1      18.687 -16.208   5.512  1.00  0.00    -0.550 OA
ATOM     24  O   UNL     1      19.108 -16.739   7.700  1.00  0.00    -0.550 OA
ENDBRANCH  21  22
ENDBRANCH  20  21
ENDBRANCH  19  20
ENDBRANCH  18  19
ENDBRANCH  17  18
ENDBRANCH  16  17
ENDBRANCH  15  16
ENDBRANCH  14  15
ENDBRANCH  13  14
ENDBRANCH   1  13
TORSDOF 20
ENDMDL
MODEL 8
REMARK VINA RESULT:    16.434      1.495      3.412
REMARK INTER + INTRA:          34.666
REMARK INTER:                  35.386
REMARK INTRA:                  -0.720
REMARK UNBOUND:                -0.983
REMARK SMILES CCCCCCCCCCCCCCCCCCCCCC(=O)[O-]
REMARK SMILES IDX 12 1 11 2 10 3 9 4 8 5 7 6 6 7 5 8 4 9 3 10 2 11 1 12 13 13
REMARK SMILES IDX 14 14 15 15 16 16 17 17 18 18 19 19 20 20 21 21 22 22 23 23
REMARK SMILES IDX 24 24
REMARK H PARENT
REMARK Flexibility Score: inf
ROOT
ATOM      1  C   UNL     1      10.668 -11.887   5.642  1.00  0.00     0.000 C 
ENDROOT
BRANCH   1   2
ATOM      2  C   UNL     1      11.568 -13.108   5.370  1.00  0.00     0.000 C 
BRANCH   2   3
ATOM      3  C   UNL     1      12.546 -13.489   6.504  1.00  0.00     0.000 C 
BRANCH   3   4
ATOM      4  C   UNL     1      13.684 -14.453   6.104  1.00  0.00    -0.000 C 
BRANCH   4   5
ATOM      5  C   UNL     1      14.765 -14.642   7.184  1.00  0.00    -0.000 C 
BRANCH   5   6
ATOM      6  C   UNL     1      15.775 -15.751   6.845  1.00  0.00    -0.000 C 
BRANCH   6   7
ATOM      7  C   UNL     1      17.183 -15.206   6.555  1.00  0.00    -0.000 C 
BRANCH   7   8
ATOM      8  C   UNL     1      18.289 -16.212   6.919  1.00  0.00    -0.000 C 
BRANCH   8   9
ATOM      9  C   UNL     1      18.407 -17.351   5.894  1.00  0.00    -0.000 C 
BRANCH   9  10
ATOM     10  C   UNL     1      19.125 -16.916   4.603  1.00  0.00    -0.000 C 
BRANCH  10  11
ATOM     11  C   UNL     1      18.684 -17.735   3.381  1.00  0.00    -0.003 C 
ATOM     12  C   UNL     1      17.936 -16.896   2.345  1.00  0.00     0.004 C 
ENDBRANCH  10  11
ENDBRANCH   9  10
ENDBRANCH   8   9
ENDBRANCH   7   8
ENDBRANCH   6   7
ENDBRANCH   5   6
ENDBRANCH   4   5
ENDBRANCH   3   4
ENDBRANCH   2   3
ENDBRANCH   1   2
BRANCH   1  13
ATOM     13  C   UNL     1      11.379 -10.521   5.614  1.00  0.00     0.000 C 
BRANCH  13  14
ATOM     14  C   UNL     1      12.684 -10.512   4.788  1.00  0.00     0.000 C 
BRANCH  14  15
ATOM     15  C   UNL     1      13.013  -9.123   4.211  1.00  0.00     0.000 C 
BRANCH  15  16
ATOM     16  C   UNL     1      14.417  -8.637   4.610  1.00  0.00     0.000 C 
BRANCH  16  17
ATOM     17  C   UNL     1      14.602  -7.126   4.390  1.00  0.00     0.000 C 
BRANCH  17  18
ATOM     18  C   UNL     1      15.633  -6.515   5.352  1.00  0.00     0.000 C 
BRANCH  18  19
ATOM     19  C   UNL     1      14.978  -5.810   6.549  1.00  0.00     0.000 C 
BRANCH  19  20
ATOM     20  C   UNL     1      14.708  -4.332   6.235  1.00  0.00     0.006 C 
BRANCH  20  21
ATOM     21  C   UNL     1      15.613  -3.391   7.042  1.00  0.00     0.053 C 
BRANCH  21  22
ATOM     22  C   UNL     1      15.334  -1.951   6.733  1.00  0.00     0.041 C 
ATOM     23  O   UNL     1      16.225  -1.080   6.919  1.00  0.00    -0.550 OA
ATOM     24  O   UNL     1      14.080  -1.565   6.277  1.00  0.00    -0.550 OA
ENDBRANCH  21  22
ENDBRANCH  20  21
ENDBRANCH  19  20
ENDBRANCH  18  19
ENDBRANCH  17  18
ENDBRANCH  16  17
ENDBRANCH  15  16
ENDBRANCH  14  15
ENDBRANCH  13  14
ENDBRANCH   1  13
TORSDOF 20
ENDMDL
