MODEL 1
REMARK VINA RESULT:     8.973      0.000      0.000
REMARK INTER + INTRA:          31.296
REMARK INTER:                  23.661
REMARK INTRA:                   7.634
REMARK UNBOUND:                 7.634
REMARK SMILES CCCCCCCCCCCCCCCCCCCCCCCCCCCCCC(=O)[O-]
REMARK SMILES IDX 16 1 17 2 18 3 19 4 20 5 21 6 22 7 23 8 24 9 25 10 26 11
REMARK SMILES IDX 27 12 28 13 29 14 30 15 31 16 32 17 15 18 14 19 13 20 12 21
REMARK SMILES IDX 11 22 10 23 9 24 8 25 7 26 6 27 5 28 4 29 3 30 2 31 1 32
REMARK H PARENT
REMARK Flexibility Score: inf
ROOT
ATOM      1  C   UNL     1      -7.403  15.146 -13.304  1.00  0.00     0.000 C 
ENDROOT
BRANCH   1   2
ATOM      2  C   UNL     1      -6.097  15.956 -13.264  1.00  0.00     0.000 C 
BRANCH   2   3
ATOM      3  C   UNL     1      -5.858  16.772 -14.549  1.00  0.00     0.000 C 
BRANCH   3   4
ATOM      4  C   UNL     1      -4.991  18.032 -14.375  1.00  0.00     0.000 C 
BRANCH   4   5
ATOM      5  C   UNL     1      -5.549  19.254 -15.122  1.00  0.00     0.000 C 
BRANCH   5   6
ATOM      6  C   UNL     1      -4.875  20.574 -14.709  1.00  0.00     0.000 C 
BRANCH   6   7
ATOM      7  C   UNL     1      -5.247  21.101 -13.310  1.00  0.00     0.000 C 
BRANCH   7   8
ATOM      8  C   UNL     1      -6.012  20.069 -12.463  1.00  0.00     0.000 C 
BRANCH   8   9
ATOM      9  C   UNL     1      -7.540  20.173 -12.625  1.00  0.00     0.000 C 
BRANCH   9  10
ATOM     10  C   UNL     1      -8.016  20.964 -13.858  1.00  0.00     0.000 C 
BRANCH  10  11
ATOM     11  C   UNL     1      -8.905  20.136 -14.798  1.00  0.00     0.000 C 
BRANCH  11  12
ATOM     12  C   UNL     1      -8.251  18.783 -15.123  1.00  0.00     0.000 C 
BRANCH  12  13
ATOM     13  C   UNL     1      -8.303  17.799 -13.943  1.00  0.00     0.006 C 
BRANCH  13  14
ATOM     14  C   UNL     1      -9.682  17.750 -13.269  1.00  0.00     0.053 C 
BRANCH  14  15
ATOM     15  C   UNL     1      -9.737  16.655 -12.247  1.00  0.00     0.041 C 
ATOM     16  O   UNL     1     -10.623  15.764 -12.322  1.00  0.00    -0.550 OA
ATOM     17  O   UNL     1      -8.794  16.607 -11.226  1.00  0.00    -0.550 OA
ENDBRANCH  14  15
ENDBRANCH  13  14
ENDBRANCH  12  13
ENDBRANCH  11  12
ENDBRANCH  10  11
ENDBRANCH   9  10
ENDBRANCH   8   9
ENDBRANCH   7   8
ENDBRANCH   6   7
ENDBRANCH   5   6
ENDBRANCH   4   5
ENDBRANCH   3   4
ENDBRANCH   2   3
ENDBRANCH   1   2
BRANCH   1  18
ATOM     18  C   UNL     1      -7.624  14.447 -14.655  1.00  0.00     0.000 C 
BRANCH  18  19
ATOM     19  C   UNL     1      -9.020  13.807 -14.758  1.00  0.00     0.000 C 
BRANCH  19  20
ATOM     20  C   UNL     1      -8.961  12.290 -14.998  1.00  0.00     0.000 C 
BRANCH  20  21
ATOM     21  C   UNL     1      -7.518  11.751 -15.045  1.00  0.00     0.000 C 
BRANCH  21  22
ATOM     22  C   UNL     1      -6.463  12.875 -15.125  1.00  0.00     0.000 C 
BRANCH  22  23
ATOM     23  C   UNL     1      -5.048  12.440 -14.695  1.00  0.00     0.000 C 
BRANCH  23  24
ATOM     24  C   UNL     1      -4.875  12.141 -13.194  1.00  0.00    -0.000 C 
BRANCH  24  25
ATOM     25  C   UNL     1      -6.150  12.297 -12.346  1.00  0.00    -0.000 C 
BRANCH  25  26
ATOM     26  C   UNL     1      -6.093  13.500 -11.391  1.00  0.00    -0.000 C 
BRANCH  26  27
ATOM     27  C   UNL     1      -6.982  13.320 -10.149  1.00  0.00    -0.000 C 
BRANCH  27  28
ATOM     28  C   UNL     1      -6.271  13.517  -8.791  1.00  0.00    -0.000 C 
BRANCH  28  29
ATOM     29  C   UNL     1      -6.483  12.394  -7.755  1.00  0.00    -0.000 C 
BRANCH  29  30
ATOM     30  C   UNL     1      -6.643  12.891  -6.300  1.00  0.00    -0.000 C 
BRANCH  30  31
ATOM     31  C   UNL     1      -7.441  11.927  -5.407  1.00  0.00    -0.003 C 
ATOM     32  C   UNL     1      -8.950  12.026  -5.627  1.00  0.00     0.004 C 
ENDBRANCH  30  31
ENDBRANCH  29  30
ENDBRANCH  28  29
ENDBRANCH  27  28
ENDBRANCH  26  27
ENDBRANCH  25  26
ENDBRANCH  24  25
ENDBRANCH  23  24
ENDBRANCH  22  23
ENDBRANCH  21  22
ENDBRANCH  20  21
ENDBRANCH  19  20
ENDBRANCH  18  19
ENDBRANCH   1  18
TORSDOF 28
ENDMDL
MODEL 2
REMARK VINA RESULT:    10.588      2.421      8.296
REMARK INTER + INTRA:          35.553
REMARK INTER:                  37.129
REMARK INTRA:                  -1.576
REMARK UNBOUND:                 7.634
REMARK SMILES CCCCCCCCCCCCCCCCCCCCCCCCCCCCCC(=O)[O-]
REMARK SMILES IDX 16 1 17 2 18 3 19 4 20 5 21 6 22 7 23 8 24 9 25 10 26 11
REMARK SMILES IDX 27 12 28 13 29 14 30 15 31 16 32 17 15 18 14 19 13 20 12 21
REMARK SMILES IDX 11 22 10 23 9 24 8 25 7 26 6 27 5 28 4 29 3 30 2 31 1 32
REMARK H PARENT
REMARK Flexibility Score: inf
ROOT
ATOM      1  C   UNL     1      -6.748  14.324  -9.477  1.00  0.00     0.000 C 
ENDROOT
BRANCH   1   2
ATOM      2  C   UNL     1      -6.688  13.641  -8.100  1.00  0.00     0.000 C 
BRANCH   2   3
ATOM      3  C   UNL     1      -5.650  14.279  -7.158  1.00  0.00     0.000 C 
BRANCH   3   4
ATOM      4  C   UNL     1      -5.519  13.611  -5.777  1.00  0.00     0.000 C 
BRANCH   4   5
ATOM      5  C   UNL     1      -6.742  12.758  -5.403  1.00  0.00     0.000 C 
BRANCH   5   6
ATOM      6  C   UNL     1      -6.440  11.714  -4.313  1.00  0.00     0.000 C 
BRANCH   6   7
ATOM      7  C   UNL     1      -7.275  10.421  -4.383  1.00  0.00     0.000 C 
BRANCH   7   8
ATOM      8  C   UNL     1      -8.735  10.669  -4.802  1.00  0.00     0.000 C 
BRANCH   8   9
ATOM      9  C   UNL     1      -9.026  10.236  -6.250  1.00  0.00     0.000 C 
BRANCH   9  10
ATOM     10  C   UNL     1      -9.585  11.342  -7.165  1.00  0.00     0.000 C 
BRANCH  10  11
ATOM     11  C   UNL     1      -9.604  12.725  -6.496  1.00  0.00     0.000 C 
BRANCH  11  12
ATOM     12  C   UNL     1     -10.879  13.498  -6.870  1.00  0.00     0.000 C 
BRANCH  12  13
ATOM     13  C   UNL     1     -11.025  13.707  -8.386  1.00  0.00     0.006 C 
BRANCH  13  14
ATOM     14  C   UNL     1     -12.079  14.765  -8.742  1.00  0.00     0.053 C 
BRANCH  14  15
ATOM     15  C   UNL     1     -12.587  15.447  -7.508  1.00  0.00     0.041 C 
ATOM     16  O   UNL     1     -11.829  16.204  -6.846  1.00  0.00    -0.550 OA
ATOM     17  O   UNL     1     -13.905  15.265  -7.103  1.00  0.00    -0.550 OA
ENDBRANCH  14  15
ENDBRANCH  13  14
ENDBRANCH  12  13
ENDBRANCH  11  12
ENDBRANCH  10  11
ENDBRANCH   9  10
ENDBRANCH   8   9
ENDBRANCH   7   8
ENDBRANCH   6   7
ENDBRANCH   5   6
ENDBRANCH   4   5
ENDBRANCH   3   4
ENDBRANCH   2   3
ENDBRANCH   1   2
BRANCH   1  18
ATOM     18  C   UNL     1      -7.227  13.375 -10.586  1.00  0.00     0.000 C 
BRANCH  18  19
ATOM     19  C   UNL     1      -6.935  13.929 -11.992  1.00  0.00     0.000 C 
BRANCH  19  20
ATOM     20  C   UNL     1      -7.618  13.115 -13.103  1.00  0.00     0.000 C 
BRANCH  20  21
ATOM     21  C   UNL     1      -6.945  13.302 -14.477  1.00  0.00     0.000 C 
BRANCH  21  22
ATOM     22  C   UNL     1      -5.636  14.116 -14.395  1.00  0.00     0.000 C 
BRANCH  22  23
ATOM     23  C   UNL     1      -5.693  15.472 -15.125  1.00  0.00     0.000 C 
BRANCH  23  24
ATOM     24  C   UNL     1      -4.900  16.614 -14.462  1.00  0.00    -0.000 C 
BRANCH  24  25
ATOM     25  C   UNL     1      -5.311  18.033 -14.898  1.00  0.00    -0.000 C 
BRANCH  25  26
ATOM     26  C   UNL     1      -5.476  19.000 -13.714  1.00  0.00    -0.000 C 
BRANCH  26  27
ATOM     27  C   UNL     1      -6.160  20.319 -14.112  1.00  0.00    -0.000 C 
BRANCH  27  28
ATOM     28  C   UNL     1      -7.558  20.173 -14.753  1.00  0.00    -0.000 C 
BRANCH  28  29
ATOM     29  C   UNL     1      -8.477  19.108 -14.120  1.00  0.00    -0.000 C 
BRANCH  29  30
ATOM     30  C   UNL     1      -8.129  18.754 -12.656  1.00  0.00    -0.000 C 
BRANCH  30  31
ATOM     31  C   UNL     1      -8.242  17.253 -12.344  1.00  0.00    -0.003 C 
ATOM     32  C   UNL     1      -9.577  16.654 -12.782  1.00  0.00     0.004 C 
ENDBRANCH  30  31
ENDBRANCH  29  30
ENDBRANCH  28  29
ENDBRANCH  27  28
ENDBRANCH  26  27
ENDBRANCH  25  26
ENDBRANCH  24  25
ENDBRANCH  23  24
ENDBRANCH  22  23
ENDBRANCH  21  22
ENDBRANCH  20  21
ENDBRANCH  19  20
ENDBRANCH  18  19
ENDBRANCH   1  18
TORSDOF 28
ENDMDL
MODEL 3
REMARK VINA RESULT:    10.593      2.262      3.403
REMARK INTER + INTRA:          35.566
REMARK INTER:                  36.656
REMARK INTRA:                  -1.090
REMARK UNBOUND:                 7.634
REMARK SMILES CCCCCCCCCCCCCCCCCCCCCCCCCCCCCC(=O)[O-]
REMARK SMILES IDX 16 1 17 2 18 3 19 4 20 5 21 6 22 7 23 8 24 9 25 10 26 11
REMARK SMILES IDX 27 12 28 13 29 14 30 15 31 16 32 17 15 18 14 19 13 20 12 21
REMARK SMILES IDX 11 22 10 23 9 24 8 25 7 26 6 27 5 28 4 29 3 30 2 31 1 32
REMARK H PARENT
REMARK Flexibility Score: inf
ROOT
ATOM      1  C   UNL     1      -6.884  15.915 -13.600  1.00  0.00     0.000 C 
ENDROOT
BRANCH   1   2
ATOM      2  C   UNL     1      -5.499  16.566 -13.751  1.00  0.00     0.000 C 
BRANCH   2   3
ATOM      3  C   UNL     1      -5.437  17.583 -14.906  1.00  0.00     0.000 C 
BRANCH   3   4
ATOM      4  C   UNL     1      -5.050  19.016 -14.499  1.00  0.00     0.000 C 
BRANCH   4   5
ATOM      5  C   UNL     1      -6.072  20.068 -14.960  1.00  0.00     0.000 C 
BRANCH   5   6
ATOM      6  C   UNL     1      -7.529  19.651 -14.694  1.00  0.00     0.000 C 
BRANCH   6   7
ATOM      7  C   UNL     1      -8.095  20.055 -13.319  1.00  0.00     0.000 C 
BRANCH   7   8
ATOM      8  C   UNL     1      -7.950  18.947 -12.261  1.00  0.00     0.000 C 
BRANCH   8   9
ATOM      9  C   UNL     1      -9.037  17.862 -12.375  1.00  0.00     0.000 C 
BRANCH   9  10
ATOM     10  C   UNL     1      -8.799  16.603 -11.520  1.00  0.00     0.000 C 
BRANCH  10  11
ATOM     11  C   UNL     1     -10.075  16.091 -10.834  1.00  0.00     0.000 C 
BRANCH  11  12
ATOM     12  C   UNL     1      -9.775  14.861  -9.963  1.00  0.00     0.000 C 
BRANCH  12  13
ATOM     13  C   UNL     1     -11.046  14.105  -9.544  1.00  0.00     0.006 C 
BRANCH  13  14
ATOM     14  C   UNL     1     -12.014  14.975  -8.729  1.00  0.00     0.053 C 
BRANCH  14  15
ATOM     15  C   UNL     1     -11.881  14.690  -7.263  1.00  0.00     0.041 C 
ATOM     16  O   UNL     1     -11.120  13.770  -6.864  1.00  0.00    -0.550 OA
ATOM     17  O   UNL     1     -12.580  15.457  -6.338  1.00  0.00    -0.550 OA
ENDBRANCH  14  15
ENDBRANCH  13  14
ENDBRANCH  12  13
ENDBRANCH  11  12
ENDBRANCH  10  11
ENDBRANCH   9  10
ENDBRANCH   8   9
ENDBRANCH   7   8
ENDBRANCH   6   7
ENDBRANCH   5   6
ENDBRANCH   4   5
ENDBRANCH   3   4
ENDBRANCH   2   3
ENDBRANCH   1   2
BRANCH   1  18
ATOM     18  C   UNL     1      -7.575  15.678 -14.952  1.00  0.00     0.000 C 
BRANCH  18  19
ATOM     19  C   UNL     1      -8.395  14.375 -14.966  1.00  0.00     0.000 C 
BRANCH  19  20
ATOM     20  C   UNL     1      -7.559  13.144 -14.578  1.00  0.00     0.000 C 
BRANCH  20  21
ATOM     21  C   UNL     1      -6.119  13.208 -15.121  1.00  0.00     0.000 C 
BRANCH  21  22
ATOM     22  C   UNL     1      -5.055  13.035 -14.016  1.00  0.00     0.000 C 
BRANCH  22  23
ATOM     23  C   UNL     1      -5.581  12.352 -12.739  1.00  0.00     0.000 C 
BRANCH  23  24
ATOM     24  C   UNL     1      -6.887  12.935 -12.165  1.00  0.00    -0.000 C 
BRANCH  24  25
ATOM     25  C   UNL     1      -6.721  13.768 -10.881  1.00  0.00    -0.000 C 
BRANCH  25  26
ATOM     26  C   UNL     1      -6.438  12.907  -9.640  1.00  0.00    -0.000 C 
BRANCH  26  27
ATOM     27  C   UNL     1      -6.589  13.689  -8.324  1.00  0.00    -0.000 C 
BRANCH  27  28
ATOM     28  C   UNL     1      -6.080  12.962  -7.059  1.00  0.00    -0.000 C 
BRANCH  28  29
ATOM     29  C   UNL     1      -6.827  11.665  -6.686  1.00  0.00    -0.000 C 
BRANCH  29  30
ATOM     30  C   UNL     1      -8.211  11.890  -6.036  1.00  0.00    -0.000 C 
BRANCH  30  31
ATOM     31  C   UNL     1      -8.290  11.404  -4.579  1.00  0.00    -0.003 C 
ATOM     32  C   UNL     1      -6.939  11.438  -3.868  1.00  0.00     0.004 C 
ENDBRANCH  30  31
ENDBRANCH  29  30
ENDBRANCH  28  29
ENDBRANCH  27  28
ENDBRANCH  26  27
ENDBRANCH  25  26
ENDBRANCH  24  25
ENDBRANCH  23  24
ENDBRANCH  22  23
ENDBRANCH  21  22
ENDBRANCH  20  21
ENDBRANCH  19  20
ENDBRANCH  18  19
ENDBRANCH   1  18
TORSDOF 28
ENDMDL
MODEL 4
REMARK VINA RESULT:    10.598      3.212      8.464
REMARK INTER + INTRA:          35.580
REMARK INTER:                  36.289
REMARK INTRA:                  -0.709
REMARK UNBOUND:                 7.634
REMARK SMILES CCCCCCCCCCCCCCCCCCCCCCCCCCCCCC(=O)[O-]
REMARK SMILES IDX 16 1 17 2 18 3 19 4 20 5 21 6 22 7 23 8 24 9 25 10 26 11
REMARK SMILES IDX 27 12 28 13 29 14 30 15 31 16 32 17 15 18 14 19 13 20 12 21
REMARK SMILES IDX 11 22 10 23 9 24 8 25 7 26 6 27 5 28 4 29 3 30 2 31 1 32
REMARK H PARENT
REMARK Flexibility Score: inf
ROOT
ATOM      1  C   UNL     1      -7.057  14.123  -9.329  1.00  0.00     0.000 C 
ENDROOT
BRANCH   1   2
ATOM      2  C   UNL     1      -6.196  13.212  -8.438  1.00  0.00     0.000 C 
BRANCH   2   3
ATOM      3  C   UNL     1      -6.097  13.714  -6.985  1.00  0.00     0.000 C 
BRANCH   3   4
ATOM      4  C   UNL     1      -6.751  12.803  -5.930  1.00  0.00     0.000 C 
BRANCH   4   5
ATOM      5  C   UNL     1      -6.885  11.344  -6.396  1.00  0.00     0.000 C 
BRANCH   5   6
ATOM      6  C   UNL     1      -8.342  10.849  -6.420  1.00  0.00     0.000 C 
BRANCH   6   7
ATOM      7  C   UNL     1      -9.142  11.078  -5.123  1.00  0.00     0.000 C 
BRANCH   7   8
ATOM      8  C   UNL     1     -10.403  11.934  -5.337  1.00  0.00     0.000 C 
BRANCH   8   9
ATOM      9  C   UNL     1     -10.187  13.081  -6.341  1.00  0.00     0.000 C 
BRANCH   9  10
ATOM     10  C   UNL     1     -10.612  12.774  -7.789  1.00  0.00     0.000 C 
BRANCH  10  11
ATOM     11  C   UNL     1     -11.802  13.624  -8.260  1.00  0.00     0.000 C 
BRANCH  11  12
ATOM     12  C   UNL     1     -11.670  15.074  -7.768  1.00  0.00     0.000 C 
BRANCH  12  13
ATOM     13  C   UNL     1     -12.330  15.299  -6.398  1.00  0.00     0.006 C 
BRANCH  13  14
ATOM     14  C   UNL     1     -12.414  16.784  -6.015  1.00  0.00     0.053 C 
BRANCH  14  15
ATOM     15  C   UNL     1     -13.161  16.961  -4.728  1.00  0.00     0.041 C 
ATOM     16  O   UNL     1     -13.594  18.096  -4.399  1.00  0.00    -0.550 OA
ATOM     17  O   UNL     1     -13.400  15.866  -3.905  1.00  0.00    -0.550 OA
ENDBRANCH  14  15
ENDBRANCH  13  14
ENDBRANCH  12  13
ENDBRANCH  11  12
ENDBRANCH  10  11
ENDBRANCH   9  10
ENDBRANCH   8   9
ENDBRANCH   7   8
ENDBRANCH   6   7
ENDBRANCH   5   6
ENDBRANCH   4   5
ENDBRANCH   3   4
ENDBRANCH   2   3
ENDBRANCH   1   2
BRANCH   1  18
ATOM     18  C   UNL     1      -7.776  13.348 -10.445  1.00  0.00     0.000 C 
BRANCH  18  19
ATOM     19  C   UNL     1      -7.582  14.002 -11.825  1.00  0.00     0.000 C 
BRANCH  19  20
ATOM     20  C   UNL     1      -6.336  13.481 -12.558  1.00  0.00     0.000 C 
BRANCH  20  21
ATOM     21  C   UNL     1      -6.683  12.539 -13.726  1.00  0.00     0.000 C 
BRANCH  21  22
ATOM     22  C   UNL     1      -6.326  13.139 -15.103  1.00  0.00     0.000 C 
BRANCH  22  23
ATOM     23  C   UNL     1      -5.812  14.590 -15.042  1.00  0.00     0.000 C 
BRANCH  23  24
ATOM     24  C   UNL     1      -6.659  15.557 -14.193  1.00  0.00    -0.000 C 
BRANCH  24  25
ATOM     25  C   UNL     1      -8.100  15.771 -14.689  1.00  0.00    -0.000 C 
BRANCH  25  26
ATOM     26  C   UNL     1      -8.879  16.795 -13.847  1.00  0.00    -0.000 C 
BRANCH  26  27
ATOM     27  C   UNL     1      -7.990  17.530 -12.828  1.00  0.00    -0.000 C 
BRANCH  27  28
ATOM     28  C   UNL     1      -8.208  19.057 -12.740  1.00  0.00    -0.000 C 
BRANCH  28  29
ATOM     29  C   UNL     1      -7.443  19.903 -13.779  1.00  0.00    -0.000 C 
BRANCH  29  30
ATOM     30  C   UNL     1      -6.357  19.127 -14.559  1.00  0.00    -0.000 C 
BRANCH  30  31
ATOM     31  C   UNL     1      -4.929  19.624 -14.281  1.00  0.00    -0.003 C 
ATOM     32  C   UNL     1      -4.889  21.063 -13.772  1.00  0.00     0.004 C 
ENDBRANCH  30  31
ENDBRANCH  29  30
ENDBRANCH  28  29
ENDBRANCH  27  28
ENDBRANCH  26  27
ENDBRANCH  25  26
ENDBRANCH  24  25
ENDBRANCH  23  24
ENDBRANCH  22  23
ENDBRANCH  21  22
ENDBRANCH  20  21
ENDBRANCH  19  20
ENDBRANCH  18  19
ENDBRANCH   1  18
TORSDOF 28
ENDMDL
MODEL 5
REMARK VINA RESULT:    10.860      2.047      8.244
REMARK INTER + INTRA:          36.270
REMARK INTER:                  38.940
REMARK INTRA:                  -2.670
REMARK UNBOUND:                 7.634
REMARK SMILES CCCCCCCCCCCCCCCCCCCCCCCCCCCCCC(=O)[O-]
REMARK SMILES IDX 16 1 17 2 18 3 19 4 20 5 21 6 22 7 23 8 24 9 25 10 26 11
REMARK SMILES IDX 27 12 28 13 29 14 30 15 31 16 32 17 15 18 14 19 13 20 12 21
REMARK SMILES IDX 11 22 10 23 9 24 8 25 7 26 6 27 5 28 4 29 3 30 2 31 1 32
REMARK H PARENT
REMARK Flexibility Score: inf
ROOT
ATOM      1  C   UNL     1      -8.214  15.260 -10.763  1.00  0.00     0.000 C 
ENDROOT
BRANCH   1   2
ATOM      2  C   UNL     1      -7.291  14.031 -10.681  1.00  0.00     0.000 C 
BRANCH   2   3
ATOM      3  C   UNL     1      -6.290  14.110  -9.513  1.00  0.00     0.000 C 
BRANCH   3   4
ATOM      4  C   UNL     1      -6.280  12.890  -8.574  1.00  0.00     0.000 C 
BRANCH   4   5
ATOM      5  C   UNL     1      -6.811  13.210  -7.167  1.00  0.00     0.000 C 
BRANCH   5   6
ATOM      6  C   UNL     1      -5.789  12.915  -6.055  1.00  0.00     0.000 C 
BRANCH   6   7
ATOM      7  C   UNL     1      -6.327  12.112  -4.855  1.00  0.00     0.000 C 
BRANCH   7   8
ATOM      8  C   UNL     1      -7.715  11.500  -5.114  1.00  0.00     0.000 C 
BRANCH   8   9
ATOM      9  C   UNL     1      -8.685  11.692  -3.935  1.00  0.00     0.000 C 
BRANCH   9  10
ATOM     10  C   UNL     1      -9.926  10.779  -3.951  1.00  0.00     0.000 C 
BRANCH  10  11
ATOM     11  C   UNL     1     -10.927  11.144  -5.058  1.00  0.00     0.000 C 
BRANCH  11  12
ATOM     12  C   UNL     1     -10.509  12.440  -5.771  1.00  0.00     0.000 C 
BRANCH  12  13
ATOM     13  C   UNL     1     -10.276  12.242  -7.277  1.00  0.00     0.006 C 
BRANCH  13  14
ATOM     14  C   UNL     1     -10.403  13.547  -8.076  1.00  0.00     0.053 C 
BRANCH  14  15
ATOM     15  C   UNL     1     -11.691  14.243  -7.757  1.00  0.00     0.041 C 
ATOM     16  O   UNL     1     -12.771  13.839  -8.264  1.00  0.00    -0.550 OA
ATOM     17  O   UNL     1     -11.701  15.323  -6.881  1.00  0.00    -0.550 OA
ENDBRANCH  14  15
ENDBRANCH  13  14
ENDBRANCH  12  13
ENDBRANCH  11  12
ENDBRANCH  10  11
ENDBRANCH   9  10
ENDBRANCH   8   9
ENDBRANCH   7   8
ENDBRANCH   6   7
ENDBRANCH   5   6
ENDBRANCH   4   5
ENDBRANCH   3   4
ENDBRANCH   2   3
ENDBRANCH   1   2
BRANCH   1  18
ATOM     18  C   UNL     1      -7.802  16.233 -11.878  1.00  0.00     0.000 C 
BRANCH  18  19
ATOM     19  C   UNL     1      -8.953  16.513 -12.861  1.00  0.00     0.000 C 
BRANCH  19  20
ATOM     20  C   UNL     1      -9.345  17.998 -12.908  1.00  0.00     0.000 C 
BRANCH  20  21
ATOM     21  C   UNL     1      -8.638  18.765 -14.041  1.00  0.00     0.000 C 
BRANCH  21  22
ATOM     22  C   UNL     1      -7.863  20.000 -13.534  1.00  0.00     0.000 C 
BRANCH  22  23
ATOM     23  C   UNL     1      -6.768  19.674 -12.499  1.00  0.00     0.000 C 
BRANCH  23  24
ATOM     24  C   UNL     1      -5.683  18.688 -12.972  1.00  0.00    -0.000 C 
BRANCH  24  25
ATOM     25  C   UNL     1      -5.253  18.845 -14.442  1.00  0.00    -0.000 C 
BRANCH  25  26
ATOM     26  C   UNL     1      -4.920  17.505 -15.116  1.00  0.00    -0.000 C 
BRANCH  26  27
ATOM     27  C   UNL     1      -5.581  16.304 -14.417  1.00  0.00    -0.000 C 
BRANCH  27  28
ATOM     28  C   UNL     1      -4.879  14.945 -14.631  1.00  0.00    -0.000 C 
BRANCH  28  29
ATOM     29  C   UNL     1      -5.785  13.791 -15.111  1.00  0.00    -0.000 C 
BRANCH  29  30
ATOM     30  C   UNL     1      -7.042  13.564 -14.241  1.00  0.00    -0.000 C 
BRANCH  30  31
ATOM     31  C   UNL     1      -6.990  12.268 -13.415  1.00  0.00    -0.003 C 
ATOM     32  C   UNL     1      -5.566  11.846 -13.061  1.00  0.00     0.004 C 
ENDBRANCH  30  31
ENDBRANCH  29  30
ENDBRANCH  28  29
ENDBRANCH  27  28
ENDBRANCH  26  27
ENDBRANCH  25  26
ENDBRANCH  24  25
ENDBRANCH  23  24
ENDBRANCH  22  23
ENDBRANCH  21  22
ENDBRANCH  20  21
ENDBRANCH  19  20
ENDBRANCH  18  19
ENDBRANCH   1  18
TORSDOF 28
ENDMDL
MODEL 6
REMARK VINA RESULT:    11.048      2.342      8.175
REMARK INTER + INTRA:          36.767
REMARK INTER:                  34.318
REMARK INTRA:                   2.449
REMARK UNBOUND:                 7.634
REMARK SMILES CCCCCCCCCCCCCCCCCCCCCCCCCCCCCC(=O)[O-]
REMARK SMILES IDX 16 1 17 2 18 3 19 4 20 5 21 6 22 7 23 8 24 9 25 10 26 11
REMARK SMILES IDX 27 12 28 13 29 14 30 15 31 16 32 17 15 18 14 19 13 20 12 21
REMARK SMILES IDX 11 22 10 23 9 24 8 25 7 26 6 27 5 28 4 29 3 30 2 31 1 32
REMARK H PARENT
REMARK Flexibility Score: inf
ROOT
ATOM      1  C   UNL     1      -7.877  14.423 -10.310  1.00  0.00     0.000 C 
ENDROOT
BRANCH   1   2
ATOM      2  C   UNL     1      -7.468  13.136  -9.574  1.00  0.00     0.000 C 
BRANCH   2   3
ATOM      3  C   UNL     1      -6.185  13.306  -8.738  1.00  0.00     0.000 C 
BRANCH   3   4
ATOM      4  C   UNL     1      -6.265  14.363  -7.620  1.00  0.00     0.000 C 
BRANCH   4   5
ATOM      5  C   UNL     1      -5.896  13.802  -6.237  1.00  0.00     0.000 C 
BRANCH   5   6
ATOM      6  C   UNL     1      -6.517  12.422  -5.959  1.00  0.00     0.000 C 
BRANCH   6   7
ATOM      7  C   UNL     1      -6.554  11.995  -4.479  1.00  0.00     0.000 C 
BRANCH   7   8
ATOM      8  C   UNL     1      -7.874  11.311  -4.083  1.00  0.00     0.000 C 
BRANCH   8   9
ATOM      9  C   UNL     1      -8.591  10.654  -5.276  1.00  0.00     0.000 C 
BRANCH   9  10
ATOM     10  C   UNL     1      -8.819  11.573  -6.491  1.00  0.00     0.000 C 
BRANCH  10  11
ATOM     11  C   UNL     1     -10.164  12.314  -6.441  1.00  0.00     0.000 C 
BRANCH  11  12
ATOM     12  C   UNL     1     -10.519  12.901  -7.816  1.00  0.00     0.000 C 
BRANCH  12  13
ATOM     13  C   UNL     1     -11.636  13.955  -7.743  1.00  0.00     0.006 C 
BRANCH  13  14
ATOM     14  C   UNL     1     -11.543  14.835  -6.488  1.00  0.00     0.053 C 
BRANCH  14  15
ATOM     15  C   UNL     1     -12.390  16.063  -6.635  1.00  0.00     0.041 C 
ATOM     16  O   UNL     1     -12.752  16.707  -5.616  1.00  0.00    -0.550 OA
ATOM     17  O   UNL     1     -12.760  16.507  -7.900  1.00  0.00    -0.550 OA
ENDBRANCH  14  15
ENDBRANCH  13  14
ENDBRANCH  12  13
ENDBRANCH  11  12
ENDBRANCH  10  11
ENDBRANCH   9  10
ENDBRANCH   8   9
ENDBRANCH   7   8
ENDBRANCH   6   7
ENDBRANCH   5   6
ENDBRANCH   4   5
ENDBRANCH   3   4
ENDBRANCH   2   3
ENDBRANCH   1   2
BRANCH   1  18
ATOM     18  C   UNL     1      -6.700  15.082 -11.045  1.00  0.00     0.000 C 
BRANCH  18  19
ATOM     19  C   UNL     1      -6.633  14.668 -12.526  1.00  0.00     0.000 C 
BRANCH  19  20
ATOM     20  C   UNL     1      -6.970  13.184 -12.742  1.00  0.00     0.000 C 
BRANCH  20  21
ATOM     21  C   UNL     1      -7.573  12.907 -14.133  1.00  0.00     0.000 C 
BRANCH  21  22
ATOM     22  C   UNL     1      -7.544  14.146 -15.054  1.00  0.00     0.000 C 
BRANCH  22  23
ATOM     23  C   UNL     1      -6.822  15.364 -14.446  1.00  0.00     0.000 C 
BRANCH  23  24
ATOM     24  C   UNL     1      -5.342  15.521 -14.841  1.00  0.00    -0.000 C 
BRANCH  24  25
ATOM     25  C   UNL     1      -4.891  16.965 -15.125  1.00  0.00    -0.000 C 
BRANCH  25  26
ATOM     26  C   UNL     1      -5.731  18.014 -14.378  1.00  0.00    -0.000 C 
BRANCH  26  27
ATOM     27  C   UNL     1      -4.875  19.124 -13.744  1.00  0.00    -0.000 C 
BRANCH  27  28
ATOM     28  C   UNL     1      -5.594  20.474 -13.531  1.00  0.00    -0.000 C 
BRANCH  28  29
ATOM     29  C   UNL     1      -6.811  20.736 -14.442  1.00  0.00    -0.000 C 
BRANCH  29  30
ATOM     30  C   UNL     1      -8.176  20.426 -13.788  1.00  0.00    -0.000 C 
BRANCH  30  31
ATOM     31  C   UNL     1      -8.085  19.428 -12.621  1.00  0.00    -0.003 C 
ATOM     32  C   UNL     1      -8.591  18.035 -12.991  1.00  0.00     0.004 C 
ENDBRANCH  30  31
ENDBRANCH  29  30
ENDBRANCH  28  29
ENDBRANCH  27  28
ENDBRANCH  26  27
ENDBRANCH  25  26
ENDBRANCH  24  25
ENDBRANCH  23  24
ENDBRANCH  22  23
ENDBRANCH  21  22
ENDBRANCH  20  21
ENDBRANCH  19  20
ENDBRANCH  18  19
ENDBRANCH   1  18
TORSDOF 28
ENDMDL
