MODEL 1
REMARK VINA RESULT:    -4.237      0.000      0.000
REMARK INTER + INTRA:          -7.671
REMARK INTER:                  -6.713
REMARK INTRA:                  -0.958
REMARK UNBOUND:                -0.958
REMARK SMILES CCCCCCCCCCCC(=O)[O-]
REMARK SMILES IDX 7 1 8 2 9 3 10 4 11 5 12 6 13 7 14 8 6 9 5 10 4 11 3 12 2 13
REMARK SMILES IDX 1 14
REMARK H PARENT
REMARK Flexibility Score: inf
ROOT
ATOM      1  C   UNL     1     -10.773   3.752  17.558  1.00  0.00     0.000 C 
ENDROOT
BRANCH   1   2
ATOM      2  C   UNL     1     -10.890   3.275  16.101  1.00  0.00     0.000 C 
BRANCH   2   3
ATOM      3  C   UNL     1      -9.651   2.492  15.636  1.00  0.00     0.000 C 
BRANCH   3   4
ATOM      4  C   UNL     1      -9.933   0.989  15.452  1.00  0.00     0.006 C 
BRANCH   4   5
ATOM      5  C   UNL     1     -10.541   0.618  14.090  1.00  0.00     0.053 C 
BRANCH   5   6
ATOM      6  C   UNL     1     -11.991   0.257  14.201  1.00  0.00     0.041 C 
ATOM      7  O   UNL     1     -12.637   0.548  15.241  1.00  0.00    -0.550 OA
ATOM      8  O   UNL     1     -12.634  -0.372  13.144  1.00  0.00    -0.550 OA
ENDBRANCH   5   6
ENDBRANCH   4   5
ENDBRANCH   3   4
ENDBRANCH   2   3
ENDBRANCH   1   2
BRANCH   1   9
ATOM      9  C   UNL     1     -11.048   2.632  18.573  1.00  0.00     0.000 C 
BRANCH   9  10
ATOM     10  C   UNL     1      -9.953   2.581  19.646  1.00  0.00    -0.000 C 
BRANCH  10  11
ATOM     11  C   UNL     1      -8.739   1.778  19.157  1.00  0.00    -0.000 C 
BRANCH  11  12
ATOM     12  C   UNL     1      -9.056   0.275  19.003  1.00  0.00    -0.000 C 
BRANCH  12  13
ATOM     13  C   UNL     1      -9.309  -0.440  20.342  1.00  0.00    -0.003 C 
ATOM     14  C   UNL     1     -10.144  -1.709  20.194  1.00  0.00     0.004 C 
ENDBRANCH  12  13
ENDBRANCH  11  12
ENDBRANCH  10  11
ENDBRANCH   9  10
ENDBRANCH   1   9
TORSDOF 10
ENDMDL
MODEL 2
REMARK VINA RESULT:    -4.224      3.462      5.915
REMARK INTER + INTRA:          -7.651
REMARK INTER:                  -6.830
REMARK INTRA:                  -0.821
REMARK UNBOUND:                -0.958
REMARK SMILES CCCCCCCCCCCC(=O)[O-]
REMARK SMILES IDX 7 1 8 2 9 3 10 4 11 5 12 6 13 7 14 8 6 9 5 10 4 11 3 12 2 13
REMARK SMILES IDX 1 14
REMARK H PARENT
REMARK Flexibility Score: inf
ROOT
ATOM      1  C   UNL     1     -11.245   2.025  17.704  1.00  0.00     0.000 C 
ENDROOT
BRANCH   1   2
ATOM      2  C   UNL     1     -10.799   0.842  18.579  1.00  0.00     0.000 C 
BRANCH   2   3
ATOM      3  C   UNL     1      -9.269   0.746  18.705  1.00  0.00     0.000 C 
BRANCH   3   4
ATOM      4  C   UNL     1      -8.820  -0.377  19.658  1.00  0.00     0.006 C 
BRANCH   4   5
ATOM      5  C   UNL     1      -9.904  -0.843  20.645  1.00  0.00     0.053 C 
BRANCH   5   6
ATOM      6  C   UNL     1      -9.630  -0.376  22.041  1.00  0.00     0.041 C 
ATOM      7  O   UNL     1      -8.708  -0.903  22.717  1.00  0.00    -0.550 OA
ATOM      8  O   UNL     1     -10.371   0.665  22.584  1.00  0.00    -0.550 OA
ENDBRANCH   5   6
ENDBRANCH   4   5
ENDBRANCH   3   4
ENDBRANCH   2   3
ENDBRANCH   1   2
BRANCH   1   9
ATOM      9  C   UNL     1     -10.069   2.719  16.999  1.00  0.00     0.000 C 
BRANCH   9  10
ATOM     10  C   UNL     1     -10.138   2.509  15.481  1.00  0.00    -0.000 C 
BRANCH  10  11
ATOM     11  C   UNL     1      -9.662   1.101  15.097  1.00  0.00    -0.000 C 
BRANCH  11  12
ATOM     12  C   UNL     1     -10.575   0.443  14.039  1.00  0.00    -0.000 C 
BRANCH  12  13
ATOM     13  C   UNL     1     -12.060   0.414  14.442  1.00  0.00    -0.003 C 
ATOM     14  C   UNL     1     -12.861  -0.649  13.696  1.00  0.00     0.004 C 
ENDBRANCH  12  13
ENDBRANCH  11  12
ENDBRANCH  10  11
ENDBRANCH   9  10
ENDBRANCH   1   9
TORSDOF 10
ENDMDL
MODEL 3
REMARK VINA RESULT:    -4.190      1.503      2.508
REMARK INTER + INTRA:          -7.597
REMARK INTER:                  -6.982
REMARK INTRA:                  -0.615
REMARK UNBOUND:                -0.958
REMARK SMILES CCCCCCCCCCCC(=O)[O-]
REMARK SMILES IDX 7 1 8 2 9 3 10 4 11 5 12 6 13 7 14 8 6 9 5 10 4 11 3 12 2 13
REMARK SMILES IDX 1 14
REMARK H PARENT
REMARK Flexibility Score: inf
ROOT
ATOM      1  C   UNL     1      -9.990   1.022  17.841  1.00  0.00     0.000 C 
ENDROOT
BRANCH   1   2
ATOM      2  C   UNL     1      -9.696   2.363  17.150  1.00  0.00     0.000 C 
BRANCH   2   3
ATOM      3  C   UNL     1      -9.542   2.221  15.626  1.00  0.00     0.000 C 
BRANCH   3   4
ATOM      4  C   UNL     1      -9.721   0.769  15.144  1.00  0.00     0.006 C 
BRANCH   4   5
ATOM      5  C   UNL     1     -10.586   0.619  13.883  1.00  0.00     0.053 C 
BRANCH   5   6
ATOM      6  C   UNL     1     -11.998   0.245  14.212  1.00  0.00     0.041 C 
ATOM      7  O   UNL     1     -12.619  -0.581  13.493  1.00  0.00    -0.550 OA
ATOM      8  O   UNL     1     -12.618   0.784  15.332  1.00  0.00    -0.550 OA
ENDBRANCH   5   6
ENDBRANCH   4   5
ENDBRANCH   3   4
ENDBRANCH   2   3
ENDBRANCH   1   2
BRANCH   1   9
ATOM      9  C   UNL     1      -9.330   0.908  19.224  1.00  0.00     0.000 C 
BRANCH   9  10
ATOM     10  C   UNL     1      -8.800  -0.511  19.464  1.00  0.00    -0.000 C 
BRANCH  10  11
ATOM     11  C   UNL     1      -9.488  -1.160  20.673  1.00  0.00    -0.000 C 
BRANCH  11  12
ATOM     12  C   UNL     1     -10.094  -0.113  21.632  1.00  0.00    -0.000 C 
BRANCH  12  13
ATOM     13  C   UNL     1      -9.502  -0.163  23.052  1.00  0.00    -0.003 C 
ATOM     14  C   UNL     1      -9.400   1.212  23.707  1.00  0.00     0.004 C 
ENDBRANCH  12  13
ENDBRANCH  11  12
ENDBRANCH  10  11
ENDBRANCH   9  10
ENDBRANCH   1   9
TORSDOF 10
ENDMDL
MODEL 4
REMARK VINA RESULT:    -4.186      1.290      2.144
REMARK INTER + INTRA:          -7.591
REMARK INTER:                  -6.490
REMARK INTRA:                  -1.101
REMARK UNBOUND:                -0.958
REMARK SMILES CCCCCCCCCCCC(=O)[O-]
REMARK SMILES IDX 7 1 8 2 9 3 10 4 11 5 12 6 13 7 14 8 6 9 5 10 4 11 3 12 2 13
REMARK SMILES IDX 1 14
REMARK H PARENT
REMARK Flexibility Score: inf
ROOT
ATOM      1  C   UNL     1     -10.150   2.902  19.206  1.00  0.00     0.000 C 
ENDROOT
BRANCH   1   2
ATOM      2  C   UNL     1     -11.408   2.490  18.424  1.00  0.00     0.000 C 
BRANCH   2   3
ATOM      3  C   UNL     1     -11.594   3.306  17.134  1.00  0.00     0.000 C 
BRANCH   3   4
ATOM      4  C   UNL     1     -11.243   2.503  15.867  1.00  0.00     0.006 C 
BRANCH   4   5
ATOM      5  C   UNL     1     -12.147   1.285  15.616  1.00  0.00     0.053 C 
BRANCH   5   6
ATOM      6  C   UNL     1     -11.730   0.518  14.399  1.00  0.00     0.041 C 
ATOM      7  O   UNL     1     -10.511   0.403  14.109  1.00  0.00    -0.550 OA
ATOM      8  O   UNL     1     -12.688  -0.097  13.603  1.00  0.00    -0.550 OA
ENDBRANCH   5   6
ENDBRANCH   4   5
ENDBRANCH   3   4
ENDBRANCH   2   3
ENDBRANCH   1   2
BRANCH   1   9
ATOM      9  C   UNL     1      -8.968   1.949  18.974  1.00  0.00     0.000 C 
BRANCH   9  10
ATOM     10  C   UNL     1      -9.460   0.540  18.618  1.00  0.00    -0.000 C 
BRANCH  10  11
ATOM     11  C   UNL     1      -8.766  -0.522  19.481  1.00  0.00    -0.000 C 
BRANCH  11  12
ATOM     12  C   UNL     1      -9.720  -1.144  20.523  1.00  0.00    -0.000 C 
BRANCH  12  13
ATOM     13  C   UNL     1     -11.187  -0.716  20.346  1.00  0.00    -0.003 C 
ATOM     14  C   UNL     1     -11.712   0.120  21.510  1.00  0.00     0.004 C 
ENDBRANCH  12  13
ENDBRANCH  11  12
ENDBRANCH  10  11
ENDBRANCH   9  10
ENDBRANCH   1   9
TORSDOF 10
ENDMDL
MODEL 5
REMARK VINA RESULT:    -4.116      1.557      2.823
REMARK INTER + INTRA:          -7.481
REMARK INTER:                  -6.395
REMARK INTRA:                  -1.085
REMARK UNBOUND:                -0.958
REMARK SMILES CCCCCCCCCCCC(=O)[O-]
REMARK SMILES IDX 7 1 8 2 9 3 10 4 11 5 12 6 13 7 14 8 6 9 5 10 4 11 3 12 2 13
REMARK SMILES IDX 1 14
REMARK H PARENT
REMARK Flexibility Score: inf
ROOT
ATOM      1  C   UNL     1      -8.792   1.766  19.153  1.00  0.00     0.000 C 
ENDROOT
BRANCH   1   2
ATOM      2  C   UNL     1      -9.235   2.822  18.127  1.00  0.00     0.000 C 
BRANCH   2   3
ATOM      3  C   UNL     1     -10.723   2.696  17.757  1.00  0.00     0.000 C 
BRANCH   3   4
ATOM      4  C   UNL     1     -10.954   2.639  16.235  1.00  0.00     0.006 C 
BRANCH   4   5
ATOM      5  C   UNL     1      -9.811   1.983  15.443  1.00  0.00     0.053 C 
BRANCH   5   6
ATOM      6  C   UNL     1     -10.301   0.870  14.569  1.00  0.00     0.041 C 
ATOM      7  O   UNL     1     -11.523   0.569  14.551  1.00  0.00    -0.550 OA
ATOM      8  O   UNL     1      -9.412   0.186  13.749  1.00  0.00    -0.550 OA
ENDBRANCH   5   6
ENDBRANCH   4   5
ENDBRANCH   3   4
ENDBRANCH   2   3
ENDBRANCH   1   2
BRANCH   1   9
ATOM      9  C   UNL     1      -9.205   0.341  18.754  1.00  0.00     0.000 C 
BRANCH   9  10
ATOM     10  C   UNL     1      -8.896  -0.655  19.879  1.00  0.00    -0.000 C 
BRANCH  10  11
ATOM     11  C   UNL     1     -10.092  -1.580  20.142  1.00  0.00    -0.000 C 
BRANCH  11  12
ATOM     12  C   UNL     1     -11.421  -0.801  20.251  1.00  0.00    -0.000 C 
BRANCH  12  13
ATOM     13  C   UNL     1     -11.534   0.045  21.531  1.00  0.00    -0.003 C 
ATOM     14  C   UNL     1     -11.840   1.514  21.253  1.00  0.00     0.004 C 
ENDBRANCH  12  13
ENDBRANCH  11  12
ENDBRANCH  10  11
ENDBRANCH   9  10
ENDBRANCH   1   9
TORSDOF 10
ENDMDL
MODEL 6
REMARK VINA RESULT:    -4.100      1.579      2.611
REMARK INTER + INTRA:          -7.454
REMARK INTER:                  -6.164
REMARK INTRA:                  -1.291
REMARK UNBOUND:                -0.958
REMARK SMILES CCCCCCCCCCCC(=O)[O-]
REMARK SMILES IDX 7 1 8 2 9 3 10 4 11 5 12 6 13 7 14 8 6 9 5 10 4 11 3 12 2 13
REMARK SMILES IDX 1 14
REMARK H PARENT
REMARK Flexibility Score: inf
ROOT
ATOM      1  C   UNL     1      -9.546   2.817  19.665  1.00  0.00     0.000 C 
ENDROOT
BRANCH   1   2
ATOM      2  C   UNL     1      -8.786   1.690  18.948  1.00  0.00     0.000 C 
BRANCH   2   3
ATOM      3  C   UNL     1      -9.559   1.133  17.740  1.00  0.00     0.000 C 
BRANCH   3   4
ATOM      4  C   UNL     1     -10.263   2.235  16.926  1.00  0.00     0.006 C 
BRANCH   4   5
ATOM      5  C   UNL     1      -9.875   2.272  15.438  1.00  0.00     0.053 C 
BRANCH   5   6
ATOM      6  C   UNL     1     -10.340   1.050  14.707  1.00  0.00     0.041 C 
ATOM      7  O   UNL     1      -9.514   0.329  14.089  1.00  0.00    -0.550 OA
ATOM      8  O   UNL     1     -11.681   0.689  14.737  1.00  0.00    -0.550 OA
ENDBRANCH   5   6
ENDBRANCH   4   5
ENDBRANCH   3   4
ENDBRANCH   2   3
ENDBRANCH   1   2
BRANCH   1   9
ATOM      9  C   UNL     1     -10.159   2.364  20.999  1.00  0.00     0.000 C 
BRANCH   9  10
ATOM     10  C   UNL     1     -11.506   1.665  20.775  1.00  0.00    -0.000 C 
BRANCH  10  11
ATOM     11  C   UNL     1     -11.504   0.256  21.384  1.00  0.00    -0.000 C 
BRANCH  11  12
ATOM     12  C   UNL     1     -11.398  -0.846  20.308  1.00  0.00    -0.000 C 
BRANCH  12  13
ATOM     13  C   UNL     1     -10.009  -1.504  20.238  1.00  0.00    -0.003 C 
ATOM     14  C   UNL     1      -9.106  -1.124  21.408  1.00  0.00     0.004 C 
ENDBRANCH  12  13
ENDBRANCH  11  12
ENDBRANCH  10  11
ENDBRANCH   9  10
ENDBRANCH   1   9
TORSDOF 10
ENDMDL
MODEL 7
REMARK VINA RESULT:    -4.078      1.633      2.576
REMARK INTER + INTRA:          -7.419
REMARK INTER:                  -5.870
REMARK INTRA:                  -1.549
REMARK UNBOUND:                -0.958
REMARK SMILES CCCCCCCCCCCC(=O)[O-]
REMARK SMILES IDX 7 1 8 2 9 3 10 4 11 5 12 6 13 7 14 8 6 9 5 10 4 11 3 12 2 13
REMARK SMILES IDX 1 14
REMARK H PARENT
REMARK Flexibility Score: inf
ROOT
ATOM      1  C   UNL     1     -11.484   4.665  17.875  1.00  0.00     0.000 C 
ENDROOT
BRANCH   1   2
ATOM      2  C   UNL     1     -11.347   3.862  16.570  1.00  0.00     0.000 C 
BRANCH   2   3
ATOM      3  C   UNL     1     -12.503   2.869  16.366  1.00  0.00     0.000 C 
BRANCH   3   4
ATOM      4  C   UNL     1     -12.014   1.455  16.002  1.00  0.00     0.006 C 
BRANCH   4   5
ATOM      5  C   UNL     1     -10.558   1.392  15.513  1.00  0.00     0.053 C 
BRANCH   5   6
ATOM      6  C   UNL     1     -10.418   0.569  14.270  1.00  0.00     0.041 C 
ATOM      7  O   UNL     1      -9.317   0.522  13.662  1.00  0.00    -0.550 OA
ATOM      8  O   UNL     1     -11.495  -0.171  13.801  1.00  0.00    -0.550 OA
ENDBRANCH   5   6
ENDBRANCH   4   5
ENDBRANCH   3   4
ENDBRANCH   2   3
ENDBRANCH   1   2
BRANCH   1   9
ATOM      9  C   UNL     1     -12.397   3.979  18.902  1.00  0.00     0.000 C 
BRANCH   9  10
ATOM     10  C   UNL     1     -11.573   3.297  20.001  1.00  0.00    -0.000 C 
BRANCH  10  11
ATOM     11  C   UNL     1     -11.329   1.818  19.671  1.00  0.00    -0.000 C 
BRANCH  11  12
ATOM     12  C   UNL     1      -9.826   1.486  19.548  1.00  0.00    -0.000 C 
BRANCH  12  13
ATOM     13  C   UNL     1      -8.913   2.720  19.659  1.00  0.00    -0.003 C 
ATOM     14  C   UNL     1      -8.143   3.012  18.374  1.00  0.00     0.004 C 
ENDBRANCH  12  13
ENDBRANCH  11  12
ENDBRANCH  10  11
ENDBRANCH   9  10
ENDBRANCH   1   9
TORSDOF 10
ENDMDL
MODEL 8
REMARK VINA RESULT:    -4.063      2.574      5.079
REMARK INTER + INTRA:          -7.396
REMARK INTER:                  -6.263
REMARK INTRA:                  -1.134
REMARK UNBOUND:                -0.958
REMARK SMILES CCCCCCCCCCCC(=O)[O-]
REMARK SMILES IDX 7 1 8 2 9 3 10 4 11 5 12 6 13 7 14 8 6 9 5 10 4 11 3 12 2 13
REMARK SMILES IDX 1 14
REMARK H PARENT
REMARK Flexibility Score: inf
ROOT
ATOM      1  C   UNL     1     -10.264   2.796  19.479  1.00  0.00     0.000 C 
ENDROOT
BRANCH   1   2
ATOM      2  C   UNL     1      -8.985   1.967  19.270  1.00  0.00     0.000 C 
BRANCH   2   3
ATOM      3  C   UNL     1      -9.279   0.558  18.729  1.00  0.00     0.000 C 
BRANCH   3   4
ATOM      4  C   UNL     1      -8.828  -0.555  19.694  1.00  0.00     0.006 C 
BRANCH   4   5
ATOM      5  C   UNL     1      -9.564  -0.561  21.044  1.00  0.00     0.053 C 
BRANCH   5   6
ATOM      6  C   UNL     1     -11.050  -0.630  20.873  1.00  0.00     0.041 C 
ATOM      7  O   UNL     1     -11.793   0.204  21.453  1.00  0.00    -0.550 OA
ATOM      8  O   UNL     1     -11.611  -1.595  20.047  1.00  0.00    -0.550 OA
ENDBRANCH   5   6
ENDBRANCH   4   5
ENDBRANCH   3   4
ENDBRANCH   2   3
ENDBRANCH   1   2
BRANCH   1   9
ATOM      9  C   UNL     1     -11.433   2.315  18.606  1.00  0.00     0.000 C 
BRANCH   9  10
ATOM     10  C   UNL     1     -11.827   3.384  17.578  1.00  0.00    -0.000 C 
BRANCH  10  11
ATOM     11  C   UNL     1     -12.143   2.751  16.216  1.00  0.00    -0.000 C 
BRANCH  11  12
ATOM     12  C   UNL     1     -11.347   1.449  15.978  1.00  0.00    -0.000 C 
BRANCH  12  13
ATOM     13  C   UNL     1     -10.020   1.668  15.230  1.00  0.00    -0.003 C 
ATOM     14  C   UNL     1      -9.788   0.653  14.114  1.00  0.00     0.004 C 
ENDBRANCH  12  13
ENDBRANCH  11  12
ENDBRANCH  10  11
ENDBRANCH   9  10
ENDBRANCH   1   9
TORSDOF 10
ENDMDL
MODEL 9
REMARK VINA RESULT:    -3.979      1.875      3.624
REMARK INTER + INTRA:          -7.263
REMARK INTER:                  -6.013
REMARK INTRA:                  -1.250
REMARK UNBOUND:                -0.958
REMARK SMILES CCCCCCCCCCCC(=O)[O-]
REMARK SMILES IDX 7 1 8 2 9 3 10 4 11 5 12 6 13 7 14 8 6 9 5 10 4 11 3 12 2 13
REMARK SMILES IDX 1 14
REMARK H PARENT
REMARK Flexibility Score: inf
ROOT
ATOM      1  C   UNL     1      -9.491   0.629  18.608  1.00  0.00     0.000 C 
ENDROOT
BRANCH   1   2
ATOM      2  C   UNL     1      -8.957   2.028  18.957  1.00  0.00     0.000 C 
BRANCH   2   3
ATOM      3  C   UNL     1     -10.080   3.068  19.105  1.00  0.00     0.000 C 
BRANCH   3   4
ATOM      4  C   UNL     1     -11.451   2.530  18.654  1.00  0.00     0.006 C 
BRANCH   4   5
ATOM      5  C   UNL     1     -12.040   3.241  17.425  1.00  0.00     0.053 C 
BRANCH   5   6
ATOM      6  C   UNL     1     -11.624   2.585  16.144  1.00  0.00     0.041 C 
ATOM      7  O   UNL     1     -10.592   2.976  15.539  1.00  0.00    -0.550 OA
ATOM      8  O   UNL     1     -12.357   1.521  15.638  1.00  0.00    -0.550 OA
ENDBRANCH   5   6
ENDBRANCH   4   5
ENDBRANCH   3   4
ENDBRANCH   2   3
ENDBRANCH   1   2
BRANCH   1   9
ATOM      9  C   UNL     1      -8.769  -0.491  19.373  1.00  0.00     0.000 C 
BRANCH   9  10
ATOM     10  C   UNL     1      -9.705  -1.149  20.395  1.00  0.00    -0.000 C 
BRANCH  10  11
ATOM     11  C   UNL     1      -9.294  -0.792  21.831  1.00  0.00    -0.000 C 
BRANCH  11  12
ATOM     12  C   UNL     1      -9.991   0.490  22.336  1.00  0.00    -0.000 C 
BRANCH  12  13
ATOM     13  C   UNL     1     -11.428   0.656  21.812  1.00  0.00    -0.003 C 
ATOM     14  C   UNL     1     -12.489   0.332  22.860  1.00  0.00     0.004 C 
ENDBRANCH  12  13
ENDBRANCH  11  12
ENDBRANCH  10  11
ENDBRANCH   9  10
ENDBRANCH   1   9
TORSDOF 10
ENDMDL
