MODEL 1
REMARK VINA RESULT:    -2.030      0.000      0.000
REMARK INTER + INTRA:          -2.089
REMARK INTER:                  -2.089
REMARK INTRA:                   0.000
REMARK UNBOUND:                 0.000
REMARK SMILES CC1(C)[C@@H]2CC[C@@](C)(C2)[C@H]1O
REMARK SMILES IDX 1 1 2 2 4 3 5 4 6 5 7 6 9 7 10 8 8 9 3 10 11 11
REMARK H PARENT 11 12
REMARK Flexibility Score: inf
ROOT
ATOM      1  C   UNL     1     124.459 108.556 131.919  1.00  0.00     0.014 C 
ATOM      2  C   UNL     1     125.251 109.748 132.511  1.00  0.00    -0.006 C 
ATOM      3  C   UNL     1     126.765 109.432 132.758  1.00  0.00    -0.002 C 
ATOM      4  C   UNL     1     126.945 108.095 133.506  1.00  0.00     0.005 C 
ATOM      5  C   UNL     1     126.375 108.405 134.899  1.00  0.00     0.010 C 
ATOM      6  C   UNL     1     126.046 109.913 134.806  1.00  0.00    -0.006 C 
ATOM      7  C   UNL     1     127.125 110.406 133.867  1.00  0.00     0.013 C 
ATOM      8  C   UNL     1     124.756 110.096 133.958  1.00  0.00     0.126 C 
ATOM      9  C   UNL     1     126.034 110.613 136.171  1.00  0.00     0.014 C 
ATOM     10  C   UNL     1     125.117 110.929 131.513  1.00  0.00     0.014 C 
ENDROOT
BRANCH   8  11
ATOM     11  O   UNL     1     124.279 111.418 134.037  1.00  0.00    -0.392 OA
ATOM     12  H   UNL     1     125.024 111.976 134.381  1.00  0.00     0.211 HD
ENDBRANCH   8  11
TORSDOF 1
ENDMDL
MODEL 2
REMARK VINA RESULT:    -2.022      1.463      2.509
REMARK INTER + INTRA:          -2.081
REMARK INTER:                  -2.081
REMARK INTRA:                   0.000
REMARK UNBOUND:                 0.000
REMARK SMILES CC1(C)[C@@H]2CC[C@@](C)(C2)[C@H]1O
REMARK SMILES IDX 1 1 2 2 4 3 5 4 6 5 7 6 9 7 10 8 8 9 3 10 11 11
REMARK H PARENT 11 12
REMARK Flexibility Score: inf
ROOT
ATOM      1  C   UNL     1     124.337 110.902 132.571  1.00  0.00     0.014 C 
ATOM      2  C   UNL     1     124.595 110.374 134.004  1.00  0.00    -0.006 C 
ATOM      3  C   UNL     1     126.003 110.761 134.569  1.00  0.00    -0.002 C 
ATOM      4  C   UNL     1     127.121 110.454 133.551  1.00  0.00     0.005 C 
ATOM      5  C   UNL     1     127.125 108.918 133.502  1.00  0.00     0.010 C 
ATOM      6  C   UNL     1     126.086 108.540 134.584  1.00  0.00    -0.006 C 
ATOM      7  C   UNL     1     126.261 109.661 135.585  1.00  0.00     0.013 C 
ATOM      8  C   UNL     1     124.659 108.808 134.028  1.00  0.00     0.126 C 
ATOM      9  C   UNL     1     126.307 107.139 135.168  1.00  0.00     0.014 C 
ATOM     10  C   UNL     1     123.484 110.960 134.915  1.00  0.00     0.014 C 
ENDROOT
BRANCH   8  11
ATOM     11  O   UNL     1     123.674 108.262 134.873  1.00  0.00    -0.392 OA
ATOM     12  H   UNL     1     124.024 107.395 135.206  1.00  0.00     0.211 HD
ENDBRANCH   8  11
TORSDOF 1
ENDMDL
MODEL 3
REMARK VINA RESULT:    -1.964      1.561      2.538
REMARK INTER + INTRA:          -2.022
REMARK INTER:                  -2.022
REMARK INTRA:                   0.000
REMARK UNBOUND:                 0.000
REMARK SMILES CC1(C)[C@@H]2CC[C@@](C)(C2)[C@H]1O
REMARK SMILES IDX 1 1 2 2 4 3 5 4 6 5 7 6 9 7 10 8 8 9 3 10 11 11
REMARK H PARENT 11 12
REMARK Flexibility Score: inf
ROOT
ATOM      1  C   UNL     1     123.331 107.925 134.729  1.00  0.00     0.014 C 
ATOM      2  C   UNL     1     124.614 108.004 133.865  1.00  0.00    -0.006 C 
ATOM      3  C   UNL     1     125.917 107.614 134.644  1.00  0.00    -0.002 C 
ATOM      4  C   UNL     1     126.000 108.342 136.001  1.00  0.00     0.005 C 
ATOM      5  C   UNL     1     126.211 109.808 135.589  1.00  0.00     0.010 C 
ATOM      6  C   UNL     1     126.336 109.715 134.050  1.00  0.00    -0.006 C 
ATOM      7  C   UNL     1     126.992 108.363 133.875  1.00  0.00     0.013 C 
ATOM      8  C   UNL     1     124.923 109.482 133.443  1.00  0.00     0.126 C 
ATOM      9  C   UNL     1     127.125 110.879 133.438  1.00  0.00     0.014 C 
ATOM     10  C   UNL     1     124.416 107.047 132.661  1.00  0.00     0.014 C 
ENDROOT
BRANCH   8  11
ATOM     11  O   UNL     1     124.942 109.626 132.043  1.00  0.00    -0.392 OA
ATOM     12  H   UNL     1     124.097 109.236 131.699  1.00  0.00     0.211 HD
ENDBRANCH   8  11
TORSDOF 1
ENDMDL
MODEL 4
REMARK VINA RESULT:    -1.933      1.528      3.567
REMARK INTER + INTRA:          -1.990
REMARK INTER:                  -1.990
REMARK INTRA:                   0.000
REMARK UNBOUND:                 0.000
REMARK SMILES CC1(C)[C@@H]2CC[C@@](C)(C2)[C@H]1O
REMARK SMILES IDX 1 1 2 2 4 3 5 4 6 5 7 6 9 7 10 8 8 9 3 10 11 11
REMARK H PARENT 11 12
REMARK Flexibility Score: inf
ROOT
ATOM      1  C   UNL     1     125.976 109.779 136.026  1.00  0.00     0.014 C 
ATOM      2  C   UNL     1     125.962 108.587 135.038  1.00  0.00    -0.006 C 
ATOM      3  C   UNL     1     127.080 108.669 133.943  1.00  0.00    -0.002 C 
ATOM      4  C   UNL     1     127.117 110.062 133.283  1.00  0.00     0.005 C 
ATOM      5  C   UNL     1     125.796 110.104 132.500  1.00  0.00     0.010 C 
ATOM      6  C   UNL     1     125.223 108.685 132.721  1.00  0.00    -0.006 C 
ATOM      7  C   UNL     1     126.485 107.854 132.808  1.00  0.00     0.013 C 
ATOM      8  C   UNL     1     124.659 108.588 134.167  1.00  0.00     0.126 C 
ATOM      9  C   UNL     1     124.258 108.244 131.613  1.00  0.00     0.014 C 
ATOM     10  C   UNL     1     126.143 107.294 135.876  1.00  0.00     0.014 C 
ENDROOT
BRANCH   8  11
ATOM     11  O   UNL     1     123.917 107.405 134.344  1.00  0.00    -0.392 OA
ATOM     12  H   UNL     1     123.527 107.440 135.256  1.00  0.00     0.211 HD
ENDBRANCH   8  11
TORSDOF 1
ENDMDL
MODEL 5
REMARK VINA RESULT:    -1.924      1.586      2.998
REMARK INTER + INTRA:          -1.980
REMARK INTER:                  -1.980
REMARK INTRA:                   0.000
REMARK UNBOUND:                 0.000
REMARK SMILES CC1(C)[C@@H]2CC[C@@](C)(C2)[C@H]1O
REMARK SMILES IDX 1 1 2 2 4 3 5 4 6 5 7 6 9 7 10 8 8 9 3 10 11 11
REMARK H PARENT 11 12
REMARK Flexibility Score: inf
ROOT
ATOM      1  C   UNL     1     123.949 111.833 133.628  1.00  0.00     0.014 C 
ATOM      2  C   UNL     1     124.290 110.606 134.510  1.00  0.00    -0.006 C 
ATOM      3  C   UNL     1     125.533 110.828 135.437  1.00  0.00    -0.002 C 
ATOM      4  C   UNL     1     126.722 111.417 134.651  1.00  0.00     0.005 C 
ATOM      5  C   UNL     1     127.125 110.258 133.725  1.00  0.00     0.010 C 
ATOM      6  C   UNL     1     126.187 109.116 134.179  1.00  0.00    -0.006 C 
ATOM      7  C   UNL     1     126.035 109.411 135.656  1.00  0.00     0.013 C 
ATOM      8  C   UNL     1     124.757 109.391 133.635  1.00  0.00     0.126 C 
ATOM      9  C   UNL     1     126.744 107.720 133.874  1.00  0.00     0.014 C 
ATOM     10  C   UNL     1     123.039 110.299 135.373  1.00  0.00     0.014 C 
ENDROOT
BRANCH   8  11
ATOM     11  O   UNL     1     123.921 108.273 133.814  1.00  0.00    -0.392 OA
ATOM     12  H   UNL     1     123.023 108.523 133.474  1.00  0.00     0.211 HD
ENDBRANCH   8  11
TORSDOF 1
ENDMDL
MODEL 6
REMARK VINA RESULT:    -1.896      1.507      3.137
REMARK INTER + INTRA:          -1.951
REMARK INTER:                  -1.951
REMARK INTRA:                   0.000
REMARK UNBOUND:                 0.000
REMARK SMILES CC1(C)[C@@H]2CC[C@@](C)(C2)[C@H]1O
REMARK SMILES IDX 1 1 2 2 4 3 5 4 6 5 7 6 9 7 10 8 8 9 3 10 11 11
REMARK H PARENT 11 12
REMARK Flexibility Score: inf
ROOT
ATOM      1  C   UNL     1     125.972 108.212 137.049  1.00  0.00     0.014 C 
ATOM      2  C   UNL     1     125.254 109.090 135.995  1.00  0.00    -0.006 C 
ATOM      3  C   UNL     1     124.936 108.331 134.661  1.00  0.00    -0.002 C 
ATOM      4  C   UNL     1     126.171 107.568 134.141  1.00  0.00     0.005 C 
ATOM      5  C   UNL     1     127.125 108.701 133.732  1.00  0.00     0.010 C 
ATOM      6  C   UNL     1     126.269 109.968 133.964  1.00  0.00    -0.006 C 
ATOM      7  C   UNL     1     124.878 109.462 133.649  1.00  0.00     0.013 C 
ATOM      8  C   UNL     1     126.185 110.246 135.491  1.00  0.00     0.126 C 
ATOM      9  C   UNL     1     126.712 111.161 133.107  1.00  0.00     0.014 C 
ATOM     10  C   UNL     1     123.936 109.595 136.638  1.00  0.00     0.014 C 
ENDROOT
BRANCH   8  11
ATOM     11  O   UNL     1     125.622 111.512 135.747  1.00  0.00    -0.392 OA
ATOM     12  H   UNL     1     126.333 112.068 136.161  1.00  0.00     0.211 HD
ENDBRANCH   8  11
TORSDOF 1
ENDMDL
MODEL 7
REMARK VINA RESULT:    -1.846      1.100      2.999
REMARK INTER + INTRA:          -1.899
REMARK INTER:                  -1.899
REMARK INTRA:                   0.000
REMARK UNBOUND:                 0.000
REMARK SMILES CC1(C)[C@@H]2CC[C@@](C)(C2)[C@H]1O
REMARK SMILES IDX 1 1 2 2 4 3 5 4 6 5 7 6 9 7 10 8 8 9 3 10 11 11
REMARK H PARENT 11 12
REMARK Flexibility Score: inf
ROOT
ATOM      1  C   UNL     1     127.124 111.757 134.169  1.00  0.00     0.014 C 
ATOM      2  C   UNL     1     126.225 110.615 134.706  1.00  0.00    -0.006 C 
ATOM      3  C   UNL     1     126.752 109.184 134.349  1.00  0.00    -0.002 C 
ATOM      4  C   UNL     1     127.118 109.077 132.854  1.00  0.00     0.005 C 
ATOM      5  C   UNL     1     125.750 109.177 132.161  1.00  0.00     0.010 C 
ATOM      6  C   UNL     1     124.765 109.215 133.352  1.00  0.00    -0.006 C 
ATOM      7  C   UNL     1     125.481 108.354 134.370  1.00  0.00     0.013 C 
ATOM      8  C   UNL     1     124.822 110.624 134.008  1.00  0.00     0.126 C 
ATOM      9  C   UNL     1     123.360 108.720 132.989  1.00  0.00     0.014 C 
ATOM     10  C   UNL     1     126.150 110.778 136.247  1.00  0.00     0.014 C 
ENDROOT
BRANCH   8  11
ATOM     11  O   UNL     1     123.781 110.791 134.942  1.00  0.00    -0.392 OA
ATOM     12  H   UNL     1     124.206 110.959 135.823  1.00  0.00     0.211 HD
ENDBRANCH   8  11
TORSDOF 1
ENDMDL
MODEL 8
REMARK VINA RESULT:    -1.742      1.441      2.316
REMARK INTER + INTRA:          -1.793
REMARK INTER:                  -1.793
REMARK INTRA:                   0.000
REMARK UNBOUND:                 0.000
REMARK SMILES CC1(C)[C@@H]2CC[C@@](C)(C2)[C@H]1O
REMARK SMILES IDX 1 1 2 2 4 3 5 4 6 5 7 6 9 7 10 8 8 9 3 10 11 11
REMARK H PARENT 11 12
REMARK Flexibility Score: inf
ROOT
ATOM      1  C   UNL     1     124.772 111.041 132.934  1.00  0.00     0.014 C 
ATOM      2  C   UNL     1     125.955 110.279 133.581  1.00  0.00    -0.006 C 
ATOM      3  C   UNL     1     126.427 109.037 132.753  1.00  0.00    -0.002 C 
ATOM      4  C   UNL     1     125.234 108.152 132.336  1.00  0.00     0.005 C 
ATOM      5  C   UNL     1     124.755 107.573 133.677  1.00  0.00     0.010 C 
ATOM      6  C   UNL     1     125.807 108.110 134.676  1.00  0.00    -0.006 C 
ATOM      7  C   UNL     1     127.053 108.153 133.818  1.00  0.00     0.013 C 
ATOM      8  C   UNL     1     125.529 109.618 134.937  1.00  0.00     0.126 C 
ATOM      9  C   UNL     1     125.941 107.243 135.934  1.00  0.00     0.014 C 
ATOM     10  C   UNL     1     127.125 111.288 133.728  1.00  0.00     0.014 C 
ENDROOT
BRANCH   8  11
ATOM     11  O   UNL     1     126.303 110.097 136.012  1.00  0.00    -0.392 OA
ATOM     12  H   UNL     1     127.082 110.571 135.621  1.00  0.00     0.211 HD
ENDBRANCH   8  11
TORSDOF 1
ENDMDL
