MODEL 1
REMARK VINA RESULT:    -5.798      0.000      0.000
REMARK INTER + INTRA:          -7.202
REMARK INTER:                  -6.985
REMARK INTRA:                  -0.217
REMARK UNBOUND:                -0.217
REMARK SMILES O=c1c(O)c(-c2ccc(O)c(O)c2)oc2cc(O)cc(O)c12
REMARK SMILES IDX 5 1 3 2 2 3 1 4 22 5 20 6 19 7 17 8 16 9 15 10 14 11 6 12
REMARK SMILES IDX 7 13 8 14 9 15 13 16 11 17 10 18 12 20 4 22 21 24 18 26
REMARK H PARENT 10 19 12 21 4 23 21 25 18 27
REMARK Flexibility Score: inf
ROOT
ATOM      1  C   UNL     1      33.425 -37.811   9.869  1.00  0.00     0.180 A 
ATOM      2  C   UNL     1      32.106 -37.329   9.819  1.00  0.00     0.208 A 
ATOM      3  C   UNL     1      31.576 -36.921   8.584  1.00  0.00     0.238 A 
ATOM      4  O   UNL     1      30.414 -36.439   8.555  1.00  0.00    -0.285 OA
ATOM      5  C   UNL     1      32.366 -37.015   7.413  1.00  0.00     0.111 A 
ATOM      6  C   UNL     1      31.918 -36.668   6.103  1.00  0.00     0.134 A 
ATOM      7  C   UNL     1      32.826 -36.677   5.037  1.00  0.00     0.093 A 
ATOM      8  C   UNL     1      34.150 -37.085   5.222  1.00  0.00     0.123 A 
ATOM      9  C   UNL     1      34.580 -37.483   6.485  1.00  0.00     0.094 A 
ATOM     10  C   UNL     1      33.707 -37.449   7.576  1.00  0.00     0.146 A 
ATOM     11  O   UNL     1      34.162 -37.826   8.764  1.00  0.00    -0.452 OA
ENDROOT
BRANCH   1  12
ATOM     12  C   UNL     1      34.045 -38.283  11.128  1.00  0.00     0.025 A 
ATOM     13  C   UNL     1      34.338 -39.643  11.335  1.00  0.00     0.016 A 
ATOM     14  C   UNL     1      34.944 -40.062  12.522  1.00  0.00     0.051 A 
ATOM     15  C   UNL     1      35.278 -39.129  13.513  1.00  0.00     0.157 A 
ATOM     16  C   UNL     1      34.400 -37.350  12.117  1.00  0.00     0.062 A 
ATOM     17  C   UNL     1      35.007 -37.767  13.306  1.00  0.00     0.158 A 
BRANCH  15  18
ATOM     18  O   UNL     1      35.881 -39.552  14.697  1.00  0.00    -0.504 OA
ATOM     19  H   UNL     1      36.445 -40.393  14.735  1.00  0.00     0.293 HD
ENDBRANCH  15  18
BRANCH  17  20
ATOM     20  O   UNL     1      35.333 -36.814  14.271  1.00  0.00    -0.504 OA
ATOM     21  H   UNL     1      34.716 -36.043  14.496  1.00  0.00     0.293 HD
ENDBRANCH  17  20
ENDBRANCH   1  12
BRANCH   2  22
ATOM     22  O   UNL     1      31.352 -37.223  10.991  1.00  0.00    -0.502 OA
ATOM     23  H   UNL     1      31.420 -37.897  11.745  1.00  0.00     0.293 HD
ENDBRANCH   2  22
BRANCH   6  24
ATOM     24  O   UNL     1      30.596 -36.336   5.793  1.00  0.00    -0.507 OA
ATOM     25  H   UNL     1      30.276 -36.037   4.884  1.00  0.00     0.293 HD
ENDBRANCH   6  24
BRANCH   8  26
ATOM     26  O   UNL     1      35.042 -37.107   4.153  1.00  0.00    -0.508 OA
ATOM     27  H   UNL     1      34.720 -37.181   3.195  1.00  0.00     0.293 HD
ENDBRANCH   8  26
TORSDOF 6
ENDMDL
MODEL 2
REMARK VINA RESULT:    -5.331      1.867      7.000
REMARK INTER + INTRA:          -6.639
REMARK INTER:                  -6.830
REMARK INTRA:                   0.191
REMARK UNBOUND:                -0.217
REMARK SMILES O=c1c(O)c(-c2ccc(O)c(O)c2)oc2cc(O)cc(O)c12
REMARK SMILES IDX 5 1 3 2 2 3 1 4 22 5 20 6 19 7 17 8 16 9 15 10 14 11 6 12
REMARK SMILES IDX 7 13 8 14 9 15 13 16 11 17 10 18 12 20 4 22 21 24 18 26
REMARK H PARENT 10 19 12 21 4 23 21 25 18 27
REMARK Flexibility Score: inf
ROOT
ATOM      1  C   UNL     1      33.154 -36.627   6.636  1.00  0.00     0.180 A 
ATOM      2  C   UNL     1      31.766 -36.445   6.766  1.00  0.00     0.208 A 
ATOM      3  C   UNL     1      31.199 -36.427   8.050  1.00  0.00     0.238 A 
ATOM      4  O   UNL     1      29.949 -36.319   8.157  1.00  0.00    -0.285 OA
ATOM      5  C   UNL     1      32.027 -36.576   9.188  1.00  0.00     0.111 A 
ATOM      6  C   UNL     1      31.565 -36.533  10.538  1.00  0.00     0.134 A 
ATOM      7  C   UNL     1      32.453 -36.822  11.582  1.00  0.00     0.093 A 
ATOM      8  C   UNL     1      33.802 -37.087  11.328  1.00  0.00     0.123 A 
ATOM      9  C   UNL     1      34.274 -37.071  10.018  1.00  0.00     0.094 A 
ATOM     10  C   UNL     1      33.405 -36.823   8.953  1.00  0.00     0.146 A 
ATOM     11  O   UNL     1      33.895 -36.829   7.719  1.00  0.00    -0.452 OA
ENDROOT
BRANCH   1  12
ATOM     12  C   UNL     1      33.828 -36.632   5.318  1.00  0.00     0.025 A 
ATOM     13  C   UNL     1      35.090 -36.037   5.138  1.00  0.00     0.016 A 
ATOM     14  C   UNL     1      35.717 -36.074   3.890  1.00  0.00     0.051 A 
ATOM     15  C   UNL     1      35.102 -36.717   2.808  1.00  0.00     0.157 A 
ATOM     16  C   UNL     1      33.226 -37.293   4.234  1.00  0.00     0.062 A 
ATOM     17  C   UNL     1      33.851 -37.332   2.984  1.00  0.00     0.158 A 
BRANCH  15  18
ATOM     18  O   UNL     1      35.730 -36.750   1.565  1.00  0.00    -0.504 OA
ATOM     19  H   UNL     1      36.266 -37.555   1.261  1.00  0.00     0.293 HD
ENDBRANCH  15  18
BRANCH  17  20
ATOM     20  O   UNL     1      33.216 -37.986   1.928  1.00  0.00    -0.504 OA
ATOM     21  H   UNL     1      33.065 -37.540   1.032  1.00  0.00     0.293 HD
ENDBRANCH  17  20
ENDBRANCH   1  12
BRANCH   2  22
ATOM     22  O   UNL     1      30.964 -36.324   5.627  1.00  0.00    -0.502 OA
ATOM     23  H   UNL     1      30.813 -37.092   4.984  1.00  0.00     0.293 HD
ENDBRANCH   2  22
BRANCH   6  24
ATOM     24  O   UNL     1      30.261 -36.189  10.906  1.00  0.00    -0.507 OA
ATOM     25  H   UNL     1      29.953 -35.252  11.122  1.00  0.00     0.293 HD
ENDBRANCH   6  24
BRANCH   8  26
ATOM     26  O   UNL     1      34.682 -37.357  12.373  1.00  0.00    -0.508 OA
ATOM     27  H   UNL     1      35.677 -37.184  12.286  1.00  0.00     0.293 HD
ENDBRANCH   8  26
TORSDOF 6
ENDMDL
MODEL 3
REMARK VINA RESULT:    -5.285      9.803     13.758
REMARK INTER + INTRA:          -6.583
REMARK INTER:                  -6.255
REMARK INTRA:                  -0.329
REMARK UNBOUND:                -0.217
REMARK SMILES O=c1c(O)c(-c2ccc(O)c(O)c2)oc2cc(O)cc(O)c12
REMARK SMILES IDX 5 1 3 2 2 3 1 4 22 5 20 6 19 7 17 8 16 9 15 10 14 11 6 12
REMARK SMILES IDX 7 13 8 14 9 15 13 16 11 17 10 18 12 20 4 22 21 24 18 26
REMARK H PARENT 10 19 12 21 4 23 21 25 18 27
REMARK Flexibility Score: inf
ROOT
ATOM      1  C   UNL     1      36.782 -39.687  -2.618  1.00  0.00     0.180 A 
ATOM      2  C   UNL     1      37.752 -39.110  -3.456  1.00  0.00     0.208 A 
ATOM      3  C   UNL     1      38.666 -38.195  -2.909  1.00  0.00     0.238 A 
ATOM      4  O   UNL     1      39.497 -37.640  -3.676  1.00  0.00    -0.285 OA
ATOM      5  C   UNL     1      38.609 -37.880  -1.531  1.00  0.00     0.111 A 
ATOM      6  C   UNL     1      39.510 -36.998  -0.863  1.00  0.00     0.134 A 
ATOM      7  C   UNL     1      39.280 -36.659   0.477  1.00  0.00     0.093 A 
ATOM      8  C   UNL     1      38.219 -37.223   1.190  1.00  0.00     0.123 A 
ATOM      9  C   UNL     1      37.371 -38.132   0.563  1.00  0.00     0.094 A 
ATOM     10  C   UNL     1      37.552 -38.461  -0.782  1.00  0.00     0.146 A 
ATOM     11  O   UNL     1      36.714 -39.323  -1.343  1.00  0.00    -0.452 OA
ENDROOT
BRANCH   1  12
ATOM     12  C   UNL     1      35.801 -40.679  -3.116  1.00  0.00     0.025 A 
ATOM     13  C   UNL     1      36.120 -42.046  -3.197  1.00  0.00     0.016 A 
ATOM     14  C   UNL     1      35.170 -42.967  -3.647  1.00  0.00     0.051 A 
ATOM     15  C   UNL     1      33.886 -42.539  -4.009  1.00  0.00     0.157 A 
ATOM     16  C   UNL     1      34.506 -40.258  -3.460  1.00  0.00     0.062 A 
ATOM     17  C   UNL     1      33.553 -41.178  -3.911  1.00  0.00     0.158 A 
BRANCH  15  18
ATOM     18  O   UNL     1      32.942 -43.460  -4.459  1.00  0.00    -0.504 OA
ATOM     19  H   UNL     1      32.456 -43.336  -5.340  1.00  0.00     0.293 HD
ENDBRANCH  15  18
BRANCH  17  20
ATOM     20  O   UNL     1      32.282 -40.721  -4.258  1.00  0.00    -0.504 OA
ATOM     21  H   UNL     1      31.468 -41.324  -4.236  1.00  0.00     0.293 HD
ENDBRANCH  17  20
ENDBRANCH   1  12
BRANCH   2  22
ATOM     22  O   UNL     1      37.776 -39.417  -4.820  1.00  0.00    -0.502 OA
ATOM     23  H   UNL     1      36.989 -39.845  -5.294  1.00  0.00     0.293 HD
ENDBRANCH   2  22
BRANCH   6  24
ATOM     24  O   UNL     1      40.652 -36.452  -1.456  1.00  0.00    -0.507 OA
ATOM     25  H   UNL     1      41.599 -36.730  -1.244  1.00  0.00     0.293 HD
ENDBRANCH   6  24
BRANCH   8  26
ATOM     26  O   UNL     1      38.007 -36.893   2.526  1.00  0.00    -0.508 OA
ATOM     27  H   UNL     1      37.644 -37.570   3.189  1.00  0.00     0.293 HD
ENDBRANCH   8  26
TORSDOF 6
ENDMDL
MODEL 4
REMARK VINA RESULT:    -5.248      1.253      2.875
REMARK INTER + INTRA:          -6.539
REMARK INTER:                  -6.239
REMARK INTRA:                  -0.300
REMARK UNBOUND:                -0.217
REMARK SMILES O=c1c(O)c(-c2ccc(O)c(O)c2)oc2cc(O)cc(O)c12
REMARK SMILES IDX 5 1 3 2 2 3 1 4 22 5 20 6 19 7 17 8 16 9 15 10 14 11 6 12
REMARK SMILES IDX 7 13 8 14 9 15 13 16 11 17 10 18 12 20 4 22 21 24 18 26
REMARK H PARENT 10 19 12 21 4 23 21 25 18 27
REMARK Flexibility Score: inf
ROOT
ATOM      1  C   UNL     1      34.086 -38.415   9.515  1.00  0.00     0.180 A 
ATOM      2  C   UNL     1      35.105 -38.778   8.617  1.00  0.00     0.208 A 
ATOM      3  C   UNL     1      34.926 -38.530   7.247  1.00  0.00     0.238 A 
ATOM      4  O   UNL     1      35.818 -38.907   6.443  1.00  0.00    -0.285 OA
ATOM      5  C   UNL     1      33.739 -37.907   6.793  1.00  0.00     0.111 A 
ATOM      6  C   UNL     1      33.468 -37.571   5.433  1.00  0.00     0.134 A 
ATOM      7  C   UNL     1      32.206 -37.076   5.081  1.00  0.00     0.093 A 
ATOM      8  C   UNL     1      31.228 -36.843   6.051  1.00  0.00     0.123 A 
ATOM      9  C   UNL     1      31.504 -37.112   7.389  1.00  0.00     0.094 A 
ATOM     10  C   UNL     1      32.740 -37.641   7.766  1.00  0.00     0.146 A 
ATOM     11  O   UNL     1      32.957 -37.892   9.051  1.00  0.00    -0.452 OA
ENDROOT
BRANCH   1  12
ATOM     12  C   UNL     1      34.213 -38.621  10.976  1.00  0.00     0.025 A 
ATOM     13  C   UNL     1      33.953 -39.872  11.564  1.00  0.00     0.016 A 
ATOM     14  C   UNL     1      34.101 -40.049  12.942  1.00  0.00     0.051 A 
ATOM     15  C   UNL     1      34.524 -38.985  13.750  1.00  0.00     0.157 A 
ATOM     16  C   UNL     1      34.657 -37.564  11.788  1.00  0.00     0.062 A 
ATOM     17  C   UNL     1      34.807 -37.738  13.168  1.00  0.00     0.158 A 
BRANCH  15  18
ATOM     18  O   UNL     1      34.670 -39.165  15.125  1.00  0.00    -0.504 OA
ATOM     19  H   UNL     1      33.900 -39.009  15.765  1.00  0.00     0.293 HD
ENDBRANCH  15  18
BRANCH  17  20
ATOM     20  O   UNL     1      35.236 -36.662  13.944  1.00  0.00    -0.504 OA
ATOM     21  H   UNL     1      36.126 -36.206  13.787  1.00  0.00     0.293 HD
ENDBRANCH  17  20
ENDBRANCH   1  12
BRANCH   2  22
ATOM     22  O   UNL     1      36.260 -39.413   9.084  1.00  0.00    -0.502 OA
ATOM     23  H   UNL     1      37.153 -38.938   9.149  1.00  0.00     0.293 HD
ENDBRANCH   2  22
BRANCH   6  24
ATOM     24  O   UNL     1      34.406 -37.678   4.402  1.00  0.00    -0.507 OA
ATOM     25  H   UNL     1      35.274 -38.190   4.464  1.00  0.00     0.293 HD
ENDBRANCH   6  24
BRANCH   8  26
ATOM     26  O   UNL     1      29.981 -36.336   5.694  1.00  0.00    -0.508 OA
ATOM     27  H   UNL     1      29.248 -36.935   5.331  1.00  0.00     0.293 HD
ENDBRANCH   8  26
TORSDOF 6
ENDMDL
MODEL 5
REMARK VINA RESULT:    -5.230      1.590      2.520
REMARK INTER + INTRA:          -6.518
REMARK INTER:                  -6.215
REMARK INTRA:                  -0.303
REMARK UNBOUND:                -0.217
REMARK SMILES O=c1c(O)c(-c2ccc(O)c(O)c2)oc2cc(O)cc(O)c12
REMARK SMILES IDX 5 1 3 2 2 3 1 4 22 5 20 6 19 7 17 8 16 9 15 10 14 11 6 12
REMARK SMILES IDX 7 13 8 14 9 15 13 16 11 17 10 18 12 20 4 22 21 24 18 26
REMARK H PARENT 10 19 12 21 4 23 21 25 18 27
REMARK Flexibility Score: inf
ROOT
ATOM      1  C   UNL     1      33.598 -37.673   7.923  1.00  0.00     0.180 A 
ATOM      2  C   UNL     1      32.446 -37.248   7.238  1.00  0.00     0.208 A 
ATOM      3  C   UNL     1      32.524 -37.017   5.855  1.00  0.00     0.238 A 
ATOM      4  O   UNL     1      31.504 -36.584   5.257  1.00  0.00    -0.285 OA
ATOM      5  C   UNL     1      33.745 -37.229   5.172  1.00  0.00     0.111 A 
ATOM      6  C   UNL     1      33.927 -37.064   3.766  1.00  0.00     0.134 A 
ATOM      7  C   UNL     1      35.211 -37.176   3.218  1.00  0.00     0.093 A 
ATOM      8  C   UNL     1      36.309 -37.510   4.016  1.00  0.00     0.123 A 
ATOM      9  C   UNL     1      36.130 -37.731   5.379  1.00  0.00     0.094 A 
ATOM     10  C   UNL     1      34.868 -37.591   5.961  1.00  0.00     0.146 A 
ATOM     11  O   UNL     1      34.745 -37.801   7.266  1.00  0.00    -0.452 OA
ENDROOT
BRANCH   1  12
ATOM     12  C   UNL     1      33.589 -37.962   9.375  1.00  0.00     0.025 A 
ATOM     13  C   UNL     1      33.065 -39.166   9.879  1.00  0.00     0.016 A 
ATOM     14  C   UNL     1      33.089 -39.427  11.252  1.00  0.00     0.051 A 
ATOM     15  C   UNL     1      33.647 -38.496  12.139  1.00  0.00     0.157 A 
ATOM     16  C   UNL     1      34.166 -37.042  10.267  1.00  0.00     0.062 A 
ATOM     17  C   UNL     1      34.191 -37.301  11.642  1.00  0.00     0.158 A 
BRANCH  15  18
ATOM     18  O   UNL     1      33.667 -38.760  13.507  1.00  0.00    -0.504 OA
ATOM     19  H   UNL     1      34.537 -38.898  14.009  1.00  0.00     0.293 HD
ENDBRANCH  15  18
BRANCH  17  20
ATOM     20  O   UNL     1      34.760 -36.358  12.498  1.00  0.00    -0.504 OA
ATOM     21  H   UNL     1      34.586 -35.366  12.397  1.00  0.00     0.293 HD
ENDBRANCH  17  20
ENDBRANCH   1  12
BRANCH   2  22
ATOM     22  O   UNL     1      31.256 -37.023   7.936  1.00  0.00    -0.502 OA
ATOM     23  H   UNL     1      30.842 -36.102   8.022  1.00  0.00     0.293 HD
ENDBRANCH   2  22
BRANCH   6  24
ATOM     24  O   UNL     1      32.884 -36.821   2.868  1.00  0.00    -0.507 OA
ATOM     25  H   UNL     1      31.904 -36.840   3.106  1.00  0.00     0.293 HD
ENDBRANCH   6  24
BRANCH   8  26
ATOM     26  O   UNL     1      37.579 -37.634   3.460  1.00  0.00    -0.508 OA
ATOM     27  H   UNL     1      38.074 -36.833   3.083  1.00  0.00     0.293 HD
ENDBRANCH   8  26
TORSDOF 6
ENDMDL
MODEL 6
REMARK VINA RESULT:    -5.153      7.419     11.190
REMARK INTER + INTRA:          -6.425
REMARK INTER:                  -6.102
REMARK INTRA:                  -0.323
REMARK UNBOUND:                -0.217
REMARK SMILES O=c1c(O)c(-c2ccc(O)c(O)c2)oc2cc(O)cc(O)c12
REMARK SMILES IDX 5 1 3 2 2 3 1 4 22 5 20 6 19 7 17 8 16 9 15 10 14 11 6 12
REMARK SMILES IDX 7 13 8 14 9 15 13 16 11 17 10 18 12 20 4 22 21 24 18 26
REMARK H PARENT 10 19 12 21 4 23 21 25 18 27
REMARK Flexibility Score: inf
ROOT
ATOM      1  C   UNL     1      34.380 -39.703   0.058  1.00  0.00     0.180 A 
ATOM      2  C   UNL     1      33.461 -39.471   1.096  1.00  0.00     0.208 A 
ATOM      3  C   UNL     1      33.774 -38.522   2.083  1.00  0.00     0.238 A 
ATOM      4  O   UNL     1      32.972 -38.359   3.039  1.00  0.00    -0.285 OA
ATOM      5  C   UNL     1      34.994 -37.808   2.012  1.00  0.00     0.111 A 
ATOM      6  C   UNL     1      35.396 -36.796   2.935  1.00  0.00     0.134 A 
ATOM      7  C   UNL     1      36.681 -36.247   2.843  1.00  0.00     0.093 A 
ATOM      8  C   UNL     1      37.554 -36.626   1.820  1.00  0.00     0.123 A 
ATOM      9  C   UNL     1      37.148 -37.568   0.879  1.00  0.00     0.094 A 
ATOM     10  C   UNL     1      35.886 -38.161   0.966  1.00  0.00     0.146 A 
ATOM     11  O   UNL     1      35.544 -39.063   0.055  1.00  0.00    -0.452 OA
ENDROOT
BRANCH   1  12
ATOM     12  C   UNL     1      34.110 -40.667  -1.033  1.00  0.00     0.025 A 
ATOM     13  C   UNL     1      34.474 -42.021  -0.920  1.00  0.00     0.016 A 
ATOM     14  C   UNL     1      34.188 -42.918  -1.953  1.00  0.00     0.051 A 
ATOM     15  C   UNL     1      33.523 -42.479  -3.106  1.00  0.00     0.157 A 
ATOM     16  C   UNL     1      33.425 -40.238  -2.182  1.00  0.00     0.062 A 
ATOM     17  C   UNL     1      33.137 -41.133  -3.218  1.00  0.00     0.158 A 
BRANCH  15  18
ATOM     18  O   UNL     1      33.241 -43.377  -4.135  1.00  0.00    -0.504 OA
ATOM     19  H   UNL     1      32.300 -43.497  -4.492  1.00  0.00     0.293 HD
ENDBRANCH  15  18
BRANCH  17  20
ATOM     20  O   UNL     1      32.468 -40.668  -4.349  1.00  0.00    -0.504 OA
ATOM     21  H   UNL     1      31.649 -41.134  -4.721  1.00  0.00     0.293 HD
ENDBRANCH  17  20
ENDBRANCH   1  12
BRANCH   2  22
ATOM     22  O   UNL     1      32.273 -40.204   1.159  1.00  0.00    -0.502 OA
ATOM     23  H   UNL     1      31.940 -40.767   0.385  1.00  0.00     0.293 HD
ENDBRANCH   2  22
BRANCH   6  24
ATOM     24  O   UNL     1      34.568 -36.280   3.936  1.00  0.00    -0.507 OA
ATOM     25  H   UNL     1      33.917 -36.826   4.482  1.00  0.00     0.293 HD
ENDBRANCH   6  24
BRANCH   8  26
ATOM     26  O   UNL     1      38.824 -36.063   1.725  1.00  0.00    -0.508 OA
ATOM     27  H   UNL     1      38.954 -35.064   1.609  1.00  0.00     0.293 HD
ENDBRANCH   8  26
TORSDOF 6
ENDMDL
MODEL 7
REMARK VINA RESULT:    -5.107      6.258     11.281
REMARK INTER + INTRA:          -6.370
REMARK INTER:                  -6.062
REMARK INTRA:                  -0.307
REMARK UNBOUND:                -0.217
REMARK SMILES O=c1c(O)c(-c2ccc(O)c(O)c2)oc2cc(O)cc(O)c12
REMARK SMILES IDX 5 1 3 2 2 3 1 4 22 5 20 6 19 7 17 8 16 9 15 10 14 11 6 12
REMARK SMILES IDX 7 13 8 14 9 15 13 16 11 17 10 18 12 20 4 22 21 24 18 26
REMARK H PARENT 10 19 12 21 4 23 21 25 18 27
REMARK Flexibility Score: inf
ROOT
ATOM      1  C   UNL     1      34.529 -39.595   0.160  1.00  0.00     0.180 A 
ATOM      2  C   UNL     1      35.785 -39.013   0.398  1.00  0.00     0.208 A 
ATOM      3  C   UNL     1      35.948 -38.178   1.515  1.00  0.00     0.238 A 
ATOM      4  O   UNL     1      37.061 -37.616   1.692  1.00  0.00    -0.285 OA
ATOM      5  C   UNL     1      34.858 -37.948   2.387  1.00  0.00     0.111 A 
ATOM      6  C   UNL     1      34.919 -37.152   3.570  1.00  0.00     0.134 A 
ATOM      7  C   UNL     1      33.746 -36.887   4.288  1.00  0.00     0.093 A 
ATOM      8  C   UNL     1      32.525 -37.443   3.901  1.00  0.00     0.123 A 
ATOM      9  C   UNL     1      32.465 -38.270   2.782  1.00  0.00     0.094 A 
ATOM     10  C   UNL     1      33.612 -38.523   2.025  1.00  0.00     0.146 A 
ATOM     11  O   UNL     1      33.508 -39.308   0.960  1.00  0.00    -0.452 OA
ENDROOT
BRANCH   1  12
ATOM     12  C   UNL     1      34.286 -40.507  -0.982  1.00  0.00     0.025 A 
ATOM     13  C   UNL     1      34.683 -41.855  -0.939  1.00  0.00     0.016 A 
ATOM     14  C   UNL     1      34.423 -42.703  -2.019  1.00  0.00     0.051 A 
ATOM     15  C   UNL     1      33.751 -42.221  -3.150  1.00  0.00     0.157 A 
ATOM     16  C   UNL     1      33.594 -40.035  -2.110  1.00  0.00     0.062 A 
ATOM     17  C   UNL     1      33.332 -40.881  -3.193  1.00  0.00     0.158 A 
BRANCH  15  18
ATOM     18  O   UNL     1      33.495 -43.069  -4.226  1.00  0.00    -0.504 OA
ATOM     19  H   UNL     1      32.896 -42.788  -4.994  1.00  0.00     0.293 HD
ENDBRANCH  15  18
BRANCH  17  20
ATOM     20  O   UNL     1      32.655 -40.373  -4.301  1.00  0.00    -0.504 OA
ATOM     21  H   UNL     1      32.832 -40.709  -5.240  1.00  0.00     0.293 HD
ENDBRANCH  17  20
ENDBRANCH   1  12
BRANCH   2  22
ATOM     22  O   UNL     1      36.843 -39.236  -0.489  1.00  0.00    -0.502 OA
ATOM     23  H   UNL     1      37.016 -40.140  -0.912  1.00  0.00     0.293 HD
ENDBRANCH   2  22
BRANCH   6  24
ATOM     24  O   UNL     1      36.103 -36.625   4.095  1.00  0.00    -0.507 OA
ATOM     25  H   UNL     1      36.494 -35.728   3.846  1.00  0.00     0.293 HD
ENDBRANCH   6  24
BRANCH   8  26
ATOM     26  O   UNL     1      31.365 -37.188   4.629  1.00  0.00    -0.508 OA
ATOM     27  H   UNL     1      31.123 -36.250   4.928  1.00  0.00     0.293 HD
ENDBRANCH   8  26
TORSDOF 6
ENDMDL
MODEL 8
REMARK VINA RESULT:    -5.099     11.662     14.069
REMARK INTER + INTRA:          -6.360
REMARK INTER:                  -6.135
REMARK INTRA:                  -0.225
REMARK UNBOUND:                -0.217
REMARK SMILES O=c1c(O)c(-c2ccc(O)c(O)c2)oc2cc(O)cc(O)c12
REMARK SMILES IDX 5 1 3 2 2 3 1 4 22 5 20 6 19 7 17 8 16 9 15 10 14 11 6 12
REMARK SMILES IDX 7 13 8 14 9 15 13 16 11 17 10 18 12 20 4 22 21 24 18 26
REMARK H PARENT 10 19 12 21 4 23 21 25 18 27
REMARK Flexibility Score: inf
ROOT
ATOM      1  C   UNL     1      37.449 -39.483  -2.635  1.00  0.00     0.180 A 
ATOM      2  C   UNL     1      37.415 -38.928  -1.344  1.00  0.00     0.208 A 
ATOM      3  C   UNL     1      38.431 -38.037  -0.959  1.00  0.00     0.238 A 
ATOM      4  O   UNL     1      38.425 -37.586   0.216  1.00  0.00    -0.285 OA
ATOM      5  C   UNL     1      39.458 -37.702  -1.874  1.00  0.00     0.111 A 
ATOM      6  C   UNL     1      40.514 -36.781  -1.605  1.00  0.00     0.134 A 
ATOM      7  C   UNL     1      41.548 -36.624  -2.536  1.00  0.00     0.093 A 
ATOM      8  C   UNL     1      41.529 -37.306  -3.755  1.00  0.00     0.123 A 
ATOM      9  C   UNL     1      40.471 -38.161  -4.052  1.00  0.00     0.094 A 
ATOM     10  C   UNL     1      39.444 -38.367  -3.128  1.00  0.00     0.146 A 
ATOM     11  O   UNL     1      38.460 -39.199  -3.447  1.00  0.00    -0.452 OA
ENDROOT
BRANCH   1  12
ATOM     12  C   UNL     1      36.400 -40.409  -3.122  1.00  0.00     0.025 A 
ATOM     13  C   UNL     1      36.654 -41.782  -3.285  1.00  0.00     0.016 A 
ATOM     14  C   UNL     1      35.642 -42.640  -3.724  1.00  0.00     0.051 A 
ATOM     15  C   UNL     1      34.360 -42.142  -3.993  1.00  0.00     0.157 A 
ATOM     16  C   UNL     1      35.108 -39.919  -3.374  1.00  0.00     0.062 A 
ATOM     17  C   UNL     1      34.093 -40.775  -3.813  1.00  0.00     0.158 A 
BRANCH  15  18
ATOM     18  O   UNL     1      33.354 -43.001  -4.432  1.00  0.00    -0.504 OA
ATOM     19  H   UNL     1      32.909 -42.881  -5.335  1.00  0.00     0.293 HD
ENDBRANCH  15  18
BRANCH  17  20
ATOM     20  O   UNL     1      32.826 -40.251  -4.066  1.00  0.00    -0.504 OA
ATOM     21  H   UNL     1      32.187 -40.679  -4.724  1.00  0.00     0.293 HD
ENDBRANCH  17  20
ENDBRANCH   1  12
BRANCH   2  22
ATOM     22  O   UNL     1      36.405 -39.290  -0.449  1.00  0.00    -0.502 OA
ATOM     23  H   UNL     1      36.578 -39.877   0.359  1.00  0.00     0.293 HD
ENDBRANCH   2  22
BRANCH   6  24
ATOM     24  O   UNL     1      40.579 -35.982  -0.459  1.00  0.00    -0.507 OA
ATOM     25  H   UNL     1      39.899 -35.988   0.286  1.00  0.00     0.293 HD
ENDBRANCH   6  24
BRANCH   8  26
ATOM     26  O   UNL     1      42.553 -37.132  -4.683  1.00  0.00    -0.508 OA
ATOM     27  H   UNL     1      42.676 -36.256  -5.179  1.00  0.00     0.293 HD
ENDBRANCH   8  26
TORSDOF 6
ENDMDL
MODEL 9
REMARK VINA RESULT:    -5.039      6.166     10.923
REMARK INTER + INTRA:          -6.288
REMARK INTER:                  -6.038
REMARK INTRA:                  -0.250
REMARK UNBOUND:                -0.217
REMARK SMILES O=c1c(O)c(-c2ccc(O)c(O)c2)oc2cc(O)cc(O)c12
REMARK SMILES IDX 5 1 3 2 2 3 1 4 22 5 20 6 19 7 17 8 16 9 15 10 14 11 6 12
REMARK SMILES IDX 7 13 8 14 9 15 13 16 11 17 10 18 12 20 4 22 21 24 18 26
REMARK H PARENT 10 19 12 21 4 23 21 25 18 27
REMARK Flexibility Score: inf
ROOT
ATOM      1  C   UNL     1      33.340 -40.083   0.457  1.00  0.00     0.180 A 
ATOM      2  C   UNL     1      32.296 -40.731   1.139  1.00  0.00     0.208 A 
ATOM      3  C   UNL     1      31.890 -40.237   2.390  1.00  0.00     0.238 A 
ATOM      4  O   UNL     1      30.992 -40.854   3.020  1.00  0.00    -0.285 OA
ATOM      5  C   UNL     1      32.523 -39.095   2.935  1.00  0.00     0.111 A 
ATOM      6  C   UNL     1      32.167 -38.485   4.175  1.00  0.00     0.134 A 
ATOM      7  C   UNL     1      32.946 -37.436   4.679  1.00  0.00     0.093 A 
ATOM      8  C   UNL     1      34.030 -36.932   3.956  1.00  0.00     0.123 A 
ATOM      9  C   UNL     1      34.348 -37.481   2.716  1.00  0.00     0.094 A 
ATOM     10  C   UNL     1      33.612 -38.552   2.204  1.00  0.00     0.146 A 
ATOM     11  O   UNL     1      33.957 -39.053   1.024  1.00  0.00    -0.452 OA
ENDROOT
BRANCH   1  12
ATOM     12  C   UNL     1      33.806 -40.528  -0.876  1.00  0.00     0.025 A 
ATOM     13  C   UNL     1      35.011 -41.236  -1.032  1.00  0.00     0.016 A 
ATOM     14  C   UNL     1      35.418 -41.666  -2.298  1.00  0.00     0.051 A 
ATOM     15  C   UNL     1      34.623 -41.409  -3.422  1.00  0.00     0.157 A 
ATOM     16  C   UNL     1      33.002 -40.292  -2.004  1.00  0.00     0.062 A 
ATOM     17  C   UNL     1      33.407 -40.721  -3.273  1.00  0.00     0.158 A 
BRANCH  15  18
ATOM     18  O   UNL     1      35.034 -41.838  -4.683  1.00  0.00    -0.504 OA
ATOM     19  H   UNL     1      34.820 -42.769  -5.023  1.00  0.00     0.293 HD
ENDBRANCH  15  18
BRANCH  17  20
ATOM     20  O   UNL     1      32.590 -40.456  -4.371  1.00  0.00    -0.504 OA
ATOM     21  H   UNL     1      31.595 -40.641  -4.359  1.00  0.00     0.293 HD
ENDBRANCH  17  20
ENDBRANCH   1  12
BRANCH   2  22
ATOM     22  O   UNL     1      31.701 -41.871   0.593  1.00  0.00    -0.502 OA
ATOM     23  H   UNL     1      30.750 -42.147   0.812  1.00  0.00     0.293 HD
ENDBRANCH   2  22
BRANCH   6  24
ATOM     24  O   UNL     1      31.049 -38.851   4.932  1.00  0.00    -0.507 OA
ATOM     25  H   UNL     1      30.765 -39.802   5.114  1.00  0.00     0.293 HD
ENDBRANCH   6  24
BRANCH   8  26
ATOM     26  O   UNL     1      34.790 -35.878   4.456  1.00  0.00    -0.508 OA
ATOM     27  H   UNL     1      34.760 -34.956   4.036  1.00  0.00     0.293 HD
ENDBRANCH   8  26
TORSDOF 6
ENDMDL
