MODEL 1
REMARK VINA RESULT:    -4.183      0.000      0.000
REMARK INTER + INTRA:          -4.153
REMARK INTER:                  -4.549
REMARK INTRA:                   0.397
REMARK UNBOUND:                 0.397
REMARK SMILES C[C@H]1[C@H](C)CC[C@@]2(C(=O)[O-])CC[C@@]3(C)C(=CC[C@@H]4[C@@]5(C)CC[C@@H](O)C(C)(C)[C@@H]5CC[C@]43C)[C@@H]12
REMARK SMILES IDX 7 1 6 2 11 3 33 4 5 5 12 6 15 7 2 8 3 9 13 10 16 11 1 12
REMARK SMILES IDX 4 13 14 14 31 15 17 16 18 17 30 18 32 19 19 20 29 21 28 22
REMARK SMILES IDX 21 23 20 24 25 25 22 26 23 27 26 28 27 29 8 30 9 31 10 32
REMARK SMILES IDX 24 33
REMARK H PARENT 24 34
REMARK Flexibility Score: inf
ROOT
ATOM      1  C   UNL     1     -10.798   8.223  -0.158  1.00  0.00     0.017 C 
ATOM      2  C   UNL     1     -11.978   8.559   0.798  1.00  0.00     0.014 C 
ATOM      3  C   UNL     1      -9.570   9.104   0.176  1.00  0.00     0.014 C 
ATOM      4  C   UNL     1     -10.385   6.703  -0.085  1.00  0.00     0.030 C 
ATOM      5  C   UNL     1     -11.880   7.903   2.174  1.00  0.00     0.004 C 
ATOM      6  C   UNL     1      -8.410   8.898  -0.822  1.00  0.00     0.013 C 
ATOM      7  C   UNL     1      -9.084   6.422  -0.877  1.00  0.00    -0.063 C 
ATOM      8  C   UNL     1     -10.525   5.941   1.288  1.00  0.00    -0.003 C 
ATOM      9  C   UNL     1     -11.788   6.374   2.080  1.00  0.00    -0.011 C 
ATOM     10  C   UNL     1      -7.868   7.434  -0.887  1.00  0.00    -0.006 C 
ATOM     11  C   UNL     1      -9.197   5.437  -1.819  1.00  0.00    -0.027 C 
ATOM     12  C   UNL     1      -9.300   5.966   2.209  1.00  0.00     0.008 C 
ATOM     13  C   UNL     1     -13.076   5.734   1.529  1.00  0.00     0.008 C 
ATOM     14  C   UNL     1      -6.982   7.239   0.385  1.00  0.00     0.017 C 
ATOM     15  C   UNL     1      -6.953   7.201  -2.202  1.00  0.00    -0.020 C 
ATOM     16  C   UNL     1      -8.574   5.522  -3.196  1.00  0.00     0.032 C 
ATOM     17  C   UNL     1      -7.942   6.913  -3.390  1.00  0.00     0.006 C 
ATOM     18  C   UNL     1      -5.984   8.401  -2.531  1.00  0.00     0.008 C 
ATOM     19  C   UNL     1      -6.007   5.959  -1.957  1.00  0.00     0.012 C 
ATOM     20  C   UNL     1      -7.449   7.311  -4.837  1.00  0.00    -0.025 C 
ATOM     21  C   UNL     1      -6.393   9.408  -3.628  1.00  0.00     0.005 C 
ATOM     22  C   UNL     1      -7.273   8.874  -4.798  1.00  0.00     0.003 C 
ATOM     23  C   UNL     1      -8.560   6.976  -5.883  1.00  0.00     0.010 C 
ATOM     24  C   UNL     1      -6.167   6.532  -5.227  1.00  0.00     0.012 C 
ATOM     25  C   UNL     1      -7.036   9.581  -6.189  1.00  0.00    -0.006 C 
ATOM     26  C   UNL     1      -8.357   7.628  -7.261  1.00  0.00     0.033 C 
ATOM     27  C   UNL     1      -8.174   9.156  -7.175  1.00  0.00     0.120 C 
ATOM     28  C   UNL     1      -5.645   9.270  -6.812  1.00  0.00     0.014 C 
ATOM     29  C   UNL     1      -7.115  11.124  -6.003  1.00  0.00     0.014 C 
ENDROOT
BRANCH   1  30
ATOM     30  C   UNL     1     -11.306   8.572  -1.565  1.00  0.00     0.048 C 
ATOM     31  O   UNL     1     -10.560   9.171  -2.384  1.00  0.00    -0.550 OA
ATOM     32  O   UNL     1     -12.655   8.408  -1.896  1.00  0.00    -0.550 OA
ENDBRANCH   1  30
BRANCH  27  33
ATOM     33  O   UNL     1      -9.396   9.735  -6.780  1.00  0.00    -0.393 OA
ATOM     34  H   UNL     1     -10.086   9.025  -6.835  1.00  0.00     0.210 HD
ENDBRANCH  27  33
TORSDOF 2
ENDMDL
MODEL 2
REMARK VINA RESULT:    -2.979      3.642      9.327
REMARK INTER + INTRA:          -2.844
REMARK INTER:                  -2.704
REMARK INTRA:                  -0.140
REMARK UNBOUND:                 0.397
REMARK SMILES C[C@H]1[C@H](C)CC[C@@]2(C(=O)[O-])CC[C@@]3(C)C(=CC[C@@H]4[C@@]5(C)CC[C@@H](O)C(C)(C)[C@@H]5CC[C@]43C)[C@@H]12
REMARK SMILES IDX 7 1 6 2 11 3 33 4 5 5 12 6 15 7 2 8 3 9 13 10 16 11 1 12
REMARK SMILES IDX 4 13 14 14 31 15 17 16 18 17 30 18 32 19 19 20 29 21 28 22
REMARK SMILES IDX 21 23 20 24 25 25 22 26 23 27 26 28 27 29 8 30 9 31 10 32
REMARK SMILES IDX 24 33
REMARK H PARENT 24 34
REMARK Flexibility Score: inf
ROOT
ATOM      1  C   UNL     1      -3.886   9.903  -9.225  1.00  0.00     0.017 C 
ATOM      2  C   UNL     1      -2.648  10.290 -10.084  1.00  0.00     0.014 C 
ATOM      3  C   UNL     1      -4.849  11.108  -9.099  1.00  0.00     0.014 C 
ATOM      4  C   UNL     1      -4.667   8.671  -9.824  1.00  0.00     0.030 C 
ATOM      5  C   UNL     1      -2.892  10.254 -11.591  1.00  0.00     0.004 C 
ATOM      6  C   UNL     1      -6.035  10.815  -8.155  1.00  0.00     0.013 C 
ATOM      7  C   UNL     1      -6.005   8.423  -9.086  1.00  0.00    -0.063 C 
ATOM      8  C   UNL     1      -4.706   8.483 -11.389  1.00  0.00    -0.003 C 
ATOM      9  C   UNL     1      -3.366   8.875 -12.068  1.00  0.00    -0.011 C 
ATOM     10  C   UNL     1      -6.929   9.611  -8.595  1.00  0.00    -0.006 C 
ATOM     11  C   UNL     1      -6.154   7.157  -8.593  1.00  0.00    -0.027 C 
ATOM     12  C   UNL     1      -5.875   9.148 -12.125  1.00  0.00     0.008 C 
ATOM     13  C   UNL     1      -2.287   7.788 -11.908  1.00  0.00     0.008 C 
ATOM     14  C   UNL     1      -7.821  10.133  -9.766  1.00  0.00     0.017 C 
ATOM     15  C   UNL     1      -7.887   9.115  -7.388  1.00  0.00    -0.020 C 
ATOM     16  C   UNL     1      -6.752   6.853  -7.236  1.00  0.00     0.032 C 
ATOM     17  C   UNL     1      -7.017   8.170  -6.483  1.00  0.00     0.006 C 
ATOM     18  C   UNL     1      -8.528  10.290  -6.553  1.00  0.00     0.008 C 
ATOM     19  C   UNL     1      -9.112   8.324  -7.996  1.00  0.00     0.012 C 
ATOM     20  C   UNL     1      -7.410   8.088  -4.956  1.00  0.00    -0.025 C 
ATOM     21  C   UNL     1      -7.891  10.673  -5.199  1.00  0.00     0.005 C 
ATOM     22  C   UNL     1      -7.187   9.539  -4.393  1.00  0.00     0.003 C 
ATOM     23  C   UNL     1      -6.431   7.126  -4.210  1.00  0.00     0.010 C 
ATOM     24  C   UNL     1      -8.851   7.545  -4.776  1.00  0.00     0.012 C 
ATOM     25  C   UNL     1      -7.255   9.695  -2.823  1.00  0.00    -0.006 C 
ATOM     26  C   UNL     1      -6.479   7.228  -2.676  1.00  0.00     0.033 C 
ATOM     27  C   UNL     1      -6.272   8.669  -2.170  1.00  0.00     0.120 C 
ATOM     28  C   UNL     1      -8.687   9.506  -2.245  1.00  0.00     0.014 C 
ATOM     29  C   UNL     1      -6.789  11.125  -2.427  1.00  0.00     0.014 C 
ENDROOT
BRANCH   1  30
ATOM     30  C   UNL     1      -3.322   9.555  -7.839  1.00  0.00     0.048 C 
ATOM     31  O   UNL     1      -3.126  10.458  -6.983  1.00  0.00    -0.550 OA
ATOM     32  O   UNL     1      -2.837   8.272  -7.569  1.00  0.00    -0.550 OA
ENDBRANCH   1  30
BRANCH  27  33
ATOM     33  O   UNL     1      -4.940   9.048  -2.424  1.00  0.00    -0.393 OA
ATOM     34  H   UNL     1      -4.450   8.987  -1.563  1.00  0.00     0.210 HD
ENDBRANCH  27  33
TORSDOF 2
ENDMDL
MODEL 3
REMARK VINA RESULT:    -2.651      1.643      7.240
REMARK INTER + INTRA:          -2.487
REMARK INTER:                  -2.986
REMARK INTRA:                   0.499
REMARK UNBOUND:                 0.397
REMARK SMILES C[C@H]1[C@H](C)CC[C@@]2(C(=O)[O-])CC[C@@]3(C)C(=CC[C@@H]4[C@@]5(C)CC[C@@H](O)C(C)(C)[C@@H]5CC[C@]43C)[C@@H]12
REMARK SMILES IDX 7 1 6 2 11 3 33 4 5 5 12 6 15 7 2 8 3 9 13 10 16 11 1 12
REMARK SMILES IDX 4 13 14 14 31 15 17 16 18 17 30 18 32 19 19 20 29 21 28 22
REMARK SMILES IDX 21 23 20 24 25 25 22 26 23 27 26 28 27 29 8 30 9 31 10 32
REMARK SMILES IDX 24 33
REMARK H PARENT 24 34
REMARK Flexibility Score: inf
ROOT
ATOM      1  C   UNL     1      -7.207   8.353  -5.522  1.00  0.00     0.017 C 
ATOM      2  C   UNL     1      -6.744   7.954  -6.953  1.00  0.00     0.014 C 
ATOM      3  C   UNL     1      -6.261   7.740  -4.462  1.00  0.00     0.014 C 
ATOM      4  C   UNL     1      -7.263   9.917  -5.327  1.00  0.00     0.030 C 
ATOM      5  C   UNL     1      -5.589   8.792  -7.497  1.00  0.00     0.004 C 
ATOM      6  C   UNL     1      -6.745   8.003  -3.020  1.00  0.00     0.013 C 
ATOM      7  C   UNL     1      -7.522  10.304  -3.850  1.00  0.00    -0.063 C 
ATOM      8  C   UNL     1      -6.223  10.818  -6.097  1.00  0.00    -0.003 C 
ATOM      9  C   UNL     1      -5.923  10.289  -7.525  1.00  0.00    -0.011 C 
ATOM     10  C   UNL     1      -6.865   9.516  -2.646  1.00  0.00    -0.006 C 
ATOM     11  C   UNL     1      -8.599  11.125  -3.660  1.00  0.00    -0.027 C 
ATOM     12  C   UNL     1      -4.910  11.117  -5.365  1.00  0.00     0.008 C 
ATOM     13  C   UNL     1      -7.043  10.629  -8.526  1.00  0.00     0.008 C 
ATOM     14  C   UNL     1      -5.409  10.019  -2.388  1.00  0.00     0.017 C 
ATOM     15  C   UNL     1      -7.737   9.723  -1.297  1.00  0.00    -0.020 C 
ATOM     16  C   UNL     1      -9.579  10.965  -2.519  1.00  0.00     0.032 C 
ATOM     17  C   UNL     1      -9.248   9.685  -1.729  1.00  0.00     0.006 C 
ATOM     18  C   UNL     1      -7.430   8.667  -0.166  1.00  0.00     0.008 C 
ATOM     19  C   UNL     1      -7.378  11.125  -0.664  1.00  0.00     0.012 C 
ATOM     20  C   UNL     1     -10.284   9.188  -0.646  1.00  0.00    -0.025 C 
ATOM     21  C   UNL     1      -8.390   7.471   0.016  1.00  0.00     0.005 C 
ATOM     22  C   UNL     1      -9.889   7.695  -0.350  1.00  0.00     0.003 C 
ATOM     23  C   UNL     1     -11.724   9.194  -1.252  1.00  0.00     0.010 C 
ATOM     24  C   UNL     1     -10.281  10.111   0.599  1.00  0.00     0.012 C 
ATOM     25  C   UNL     1     -10.917   6.860   0.509  1.00  0.00    -0.006 C 
ATOM     26  C   UNL     1     -12.765   8.410  -0.436  1.00  0.00     0.033 C 
ATOM     27  C   UNL     1     -12.330   6.958  -0.155  1.00  0.00     0.120 C 
ATOM     28  C   UNL     1     -10.993   7.314   1.995  1.00  0.00     0.014 C 
ATOM     29  C   UNL     1     -10.492   5.364   0.512  1.00  0.00     0.014 C 
ENDROOT
BRANCH   1  30
ATOM     30  C   UNL     1      -8.609   7.744  -5.367  1.00  0.00     0.048 C 
ATOM     31  O   UNL     1      -9.018   7.362  -4.239  1.00  0.00    -0.550 OA
ATOM     32  O   UNL     1      -9.375   7.425  -6.491  1.00  0.00    -0.550 OA
ENDBRANCH   1  30
BRANCH  27  33
ATOM     33  O   UNL     1     -12.343   6.242  -1.368  1.00  0.00    -0.393 OA
ATOM     34  H   UNL     1     -11.546   6.527  -1.884  1.00  0.00     0.210 HD
ENDBRANCH  27  33
TORSDOF 2
ENDMDL
MODEL 4
REMARK VINA RESULT:    -2.457      1.740      2.954
REMARK INTER + INTRA:          -2.276
REMARK INTER:                  -3.108
REMARK INTRA:                   0.832
REMARK UNBOUND:                 0.397
REMARK SMILES C[C@H]1[C@H](C)CC[C@@]2(C(=O)[O-])CC[C@@]3(C)C(=CC[C@@H]4[C@@]5(C)CC[C@@H](O)C(C)(C)[C@@H]5CC[C@]43C)[C@@H]12
REMARK SMILES IDX 7 1 6 2 11 3 33 4 5 5 12 6 15 7 2 8 3 9 13 10 16 11 1 12
REMARK SMILES IDX 4 13 14 14 31 15 17 16 18 17 30 18 32 19 19 20 29 21 28 22
REMARK SMILES IDX 21 23 20 24 25 25 22 26 23 27 26 28 27 29 8 30 9 31 10 32
REMARK SMILES IDX 24 33
REMARK H PARENT 24 34
REMARK Flexibility Score: inf
ROOT
ATOM      1  C   UNL     1      -9.756   6.932  -1.519  1.00  0.00     0.017 C 
ATOM      2  C   UNL     1     -10.687   6.128  -0.568  1.00  0.00     0.014 C 
ATOM      3  C   UNL     1     -10.076   8.444  -1.431  1.00  0.00     0.014 C 
ATOM      4  C   UNL     1      -8.230   6.703  -1.196  1.00  0.00     0.030 C 
ATOM      5  C   UNL     1     -10.250   6.136   0.896  1.00  0.00     0.004 C 
ATOM      6  C   UNL     1      -9.263   9.277  -2.447  1.00  0.00     0.013 C 
ATOM      7  C   UNL     1      -7.319   7.660  -2.005  1.00  0.00    -0.063 C 
ATOM      8  C   UNL     1      -7.798   6.452   0.300  1.00  0.00    -0.003 C 
ATOM      9  C   UNL     1      -8.827   5.590   1.078  1.00  0.00    -0.011 C 
ATOM     10  C   UNL     1      -7.713   9.168  -2.277  1.00  0.00    -0.006 C 
ATOM     11  C   UNL     1      -6.352   7.033  -2.741  1.00  0.00    -0.027 C 
ATOM     12  C   UNL     1      -7.434   7.695   1.120  1.00  0.00     0.008 C 
ATOM     13  C   UNL     1      -8.718   4.092   0.736  1.00  0.00     0.008 C 
ATOM     14  C   UNL     1      -7.344  10.062  -1.050  1.00  0.00     0.017 C 
ATOM     15  C   UNL     1      -6.936   9.725  -3.583  1.00  0.00    -0.020 C 
ATOM     16  C   UNL     1      -5.974   7.447  -4.147  1.00  0.00     0.032 C 
ATOM     17  C   UNL     1      -6.928   8.555  -4.633  1.00  0.00     0.006 C 
ATOM     18  C   UNL     1      -7.559  11.042  -4.187  1.00  0.00     0.008 C 
ATOM     19  C   UNL     1      -5.460  10.113  -3.176  1.00  0.00     0.012 C 
ATOM     20  C   UNL     1      -6.875   8.967  -6.156  1.00  0.00    -0.025 C 
ATOM     21  C   UNL     1      -8.480  10.931  -5.421  1.00  0.00     0.005 C 
ATOM     22  C   UNL     1      -8.207   9.762  -6.416  1.00  0.00     0.003 C 
ATOM     23  C   UNL     1      -6.896   7.686  -7.051  1.00  0.00     0.010 C 
ATOM     24  C   UNL     1      -5.583   9.760  -6.479  1.00  0.00     0.012 C 
ATOM     25  C   UNL     1      -8.547  10.075  -7.925  1.00  0.00    -0.006 C 
ATOM     26  C   UNL     1      -7.202   7.948  -8.535  1.00  0.00     0.033 C 
ATOM     27  C   UNL     1      -8.507   8.742  -8.742  1.00  0.00     0.120 C 
ATOM     28  C   UNL     1      -7.596  11.125  -8.568  1.00  0.00     0.014 C 
ATOM     29  C   UNL     1      -9.989  10.652  -8.019  1.00  0.00     0.014 C 
ENDROOT
BRANCH   1  30
ATOM     30  C   UNL     1     -10.085   6.424  -2.931  1.00  0.00     0.048 C 
ATOM     31  O   UNL     1     -10.894   5.473  -3.096  1.00  0.00    -0.550 OA
ATOM     32  O   UNL     1      -9.354   6.869  -4.036  1.00  0.00    -0.550 OA
ENDBRANCH   1  30
BRANCH  27  33
ATOM     33  O   UNL     1      -9.594   7.923  -8.382  1.00  0.00    -0.393 OA
ATOM     34  H   UNL     1      -9.296   6.982  -8.479  1.00  0.00     0.210 HD
ENDBRANCH  27  33
TORSDOF 2
ENDMDL
MODEL 5
REMARK VINA RESULT:    -1.931      2.292      8.037
REMARK INTER + INTRA:          -1.704
REMARK INTER:                  -2.137
REMARK INTRA:                   0.433
REMARK UNBOUND:                 0.397
REMARK SMILES C[C@H]1[C@H](C)CC[C@@]2(C(=O)[O-])CC[C@@]3(C)C(=CC[C@@H]4[C@@]5(C)CC[C@@H](O)C(C)(C)[C@@H]5CC[C@]43C)[C@@H]12
REMARK SMILES IDX 7 1 6 2 11 3 33 4 5 5 12 6 15 7 2 8 3 9 13 10 16 11 1 12
REMARK SMILES IDX 4 13 14 14 31 15 17 16 18 17 30 18 32 19 19 20 29 21 28 22
REMARK SMILES IDX 21 23 20 24 25 25 22 26 23 27 26 28 27 29 8 30 9 31 10 32
REMARK SMILES IDX 24 33
REMARK H PARENT 24 34
REMARK Flexibility Score: inf
ROOT
ATOM      1  C   UNL     1      -9.078   9.433  -9.074  1.00  0.00     0.017 C 
ATOM      2  C   UNL     1      -9.753   9.877 -10.402  1.00  0.00     0.014 C 
ATOM      3  C   UNL     1      -9.578   8.027  -8.662  1.00  0.00     0.014 C 
ATOM      4  C   UNL     1      -7.505   9.416  -9.179  1.00  0.00     0.030 C 
ATOM      5  C   UNL     1      -9.120   9.283 -11.659  1.00  0.00     0.004 C 
ATOM      6  C   UNL     1      -9.033   7.589  -7.286  1.00  0.00     0.013 C 
ATOM      7  C   UNL     1      -6.851   8.778  -7.929  1.00  0.00    -0.063 C 
ATOM      8  C   UNL     1      -6.839   9.049 -10.560  1.00  0.00    -0.003 C 
ATOM      9  C   UNL     1      -7.627   9.620 -11.769  1.00  0.00    -0.011 C 
ATOM     10  C   UNL     1      -7.474   7.517  -7.203  1.00  0.00    -0.006 C 
ATOM     11  C   UNL     1      -5.923   9.569  -7.310  1.00  0.00    -0.027 C 
ATOM     12  C   UNL     1      -6.530   7.566 -10.794  1.00  0.00     0.008 C 
ATOM     13  C   UNL     1      -7.372  11.124 -11.982  1.00  0.00     0.008 C 
ATOM     14  C   UNL     1      -7.057   6.201  -7.934  1.00  0.00     0.017 C 
ATOM     15  C   UNL     1      -6.967   7.446  -5.667  1.00  0.00    -0.020 C 
ATOM     16  C   UNL     1      -5.803   9.695  -5.806  1.00  0.00     0.032 C 
ATOM     17  C   UNL     1      -6.952   8.924  -5.131  1.00  0.00     0.006 C 
ATOM     18  C   UNL     1      -7.836   6.504  -4.748  1.00  0.00     0.008 C 
ATOM     19  C   UNL     1      -5.512   6.832  -5.634  1.00  0.00     0.012 C 
ATOM     20  C   UNL     1      -7.168   9.119  -3.579  1.00  0.00    -0.025 C 
ATOM     21  C   UNL     1      -8.899   7.139  -3.825  1.00  0.00     0.005 C 
ATOM     22  C   UNL     1      -8.616   8.576  -3.292  1.00  0.00     0.003 C 
ATOM     23  C   UNL     1      -7.146  10.641  -3.230  1.00  0.00     0.010 C 
ATOM     24  C   UNL     1      -6.050   8.420  -2.764  1.00  0.00     0.012 C 
ATOM     25  C   UNL     1      -9.203   8.884  -1.858  1.00  0.00    -0.006 C 
ATOM     26  C   UNL     1      -7.689  10.985  -1.833  1.00  0.00     0.033 C 
ATOM     27  C   UNL     1      -9.103  10.421  -1.589  1.00  0.00     0.120 C 
ATOM     28  C   UNL     1      -8.497   8.094  -0.719  1.00  0.00     0.014 C 
ATOM     29  C   UNL     1     -10.707   8.488  -1.821  1.00  0.00     0.014 C 
ENDROOT
BRANCH   1  30
ATOM     30  C   UNL     1      -9.533  10.461  -8.026  1.00  0.00     0.048 C 
ATOM     31  O   UNL     1      -8.741  10.850  -7.127  1.00  0.00    -0.550 OA
ATOM     32  O   UNL     1     -10.876  10.834  -7.931  1.00  0.00    -0.550 OA
ENDBRANCH   1  30
BRANCH  27  33
ATOM     33  O   UNL     1     -10.012  11.115  -2.410  1.00  0.00    -0.393 OA
ATOM     34  H   UNL     1     -10.598  10.438  -2.835  1.00  0.00     0.210 HD
ENDBRANCH  27  33
TORSDOF 2
ENDMDL
MODEL 6
REMARK VINA RESULT:    -1.826      2.332      7.145
REMARK INTER + INTRA:          -1.589
REMARK INTER:                  -1.439
REMARK INTRA:                  -0.150
REMARK UNBOUND:                 0.397
REMARK SMILES C[C@H]1[C@H](C)CC[C@@]2(C(=O)[O-])CC[C@@]3(C)C(=CC[C@@H]4[C@@]5(C)CC[C@@H](O)C(C)(C)[C@@H]5CC[C@]43C)[C@@H]12
REMARK SMILES IDX 7 1 6 2 11 3 33 4 5 5 12 6 15 7 2 8 3 9 13 10 16 11 1 12
REMARK SMILES IDX 4 13 14 14 31 15 17 16 18 17 30 18 32 19 19 20 29 21 28 22
REMARK SMILES IDX 21 23 20 24 25 25 22 26 23 27 26 28 27 29 8 30 9 31 10 32
REMARK SMILES IDX 24 33
REMARK H PARENT 24 34
REMARK Flexibility Score: inf
ROOT
ATOM      1  C   UNL     1      -7.696   9.751  -3.394  1.00  0.00     0.017 C 
ATOM      2  C   UNL     1      -7.604  11.125  -4.116  1.00  0.00     0.014 C 
ATOM      3  C   UNL     1      -9.174   9.401  -3.092  1.00  0.00     0.014 C 
ATOM      4  C   UNL     1      -7.047   8.588  -4.237  1.00  0.00     0.030 C 
ATOM      5  C   UNL     1      -7.897  11.069  -5.614  1.00  0.00     0.004 C 
ATOM      6  C   UNL     1      -9.314   8.104  -2.266  1.00  0.00     0.013 C 
ATOM      7  C   UNL     1      -7.325   7.198  -3.611  1.00  0.00    -0.063 C 
ATOM      8  C   UNL     1      -7.123   8.654  -5.810  1.00  0.00    -0.003 C 
ATOM      9  C   UNL     1      -6.962  10.101  -6.351  1.00  0.00    -0.011 C 
ATOM     10  C   UNL     1      -8.717   6.834  -2.953  1.00  0.00    -0.006 C 
ATOM     11  C   UNL     1      -6.204   6.456  -3.362  1.00  0.00    -0.027 C 
ATOM     12  C   UNL     1      -8.339   7.987  -6.462  1.00  0.00     0.008 C 
ATOM     13  C   UNL     1      -5.496  10.571  -6.345  1.00  0.00     0.008 C 
ATOM     14  C   UNL     1      -9.745   6.404  -4.046  1.00  0.00     0.017 C 
ATOM     15  C   UNL     1      -8.538   5.621  -1.896  1.00  0.00    -0.020 C 
ATOM     16  C   UNL     1      -6.011   5.630  -2.108  1.00  0.00     0.032 C 
ATOM     17  C   UNL     1      -7.184   5.879  -1.141  1.00  0.00     0.006 C 
ATOM     18  C   UNL     1      -9.743   5.464  -0.890  1.00  0.00     0.008 C 
ATOM     19  C   UNL     1      -8.478   4.255  -2.687  1.00  0.00     0.012 C 
ATOM     20  C   UNL     1      -7.070   5.313   0.329  1.00  0.00    -0.025 C 
ATOM     21  C   UNL     1      -9.601   6.039   0.536  1.00  0.00     0.005 C 
ATOM     22  C   UNL     1      -8.169   6.078   1.153  1.00  0.00     0.003 C 
ATOM     23  C   UNL     1      -5.675   5.679   0.929  1.00  0.00     0.010 C 
ATOM     24  C   UNL     1      -7.214   3.770   0.348  1.00  0.00     0.012 C 
ATOM     25  C   UNL     1      -8.113   5.901   2.720  1.00  0.00    -0.006 C 
ATOM     26  C   UNL     1      -5.568   5.500   2.452  1.00  0.00     0.033 C 
ATOM     27  C   UNL     1      -6.673   6.254   3.219  1.00  0.00     0.120 C 
ATOM     28  C   UNL     1      -8.508   4.473   3.195  1.00  0.00     0.014 C 
ATOM     29  C   UNL     1      -9.107   6.893   3.388  1.00  0.00     0.014 C 
ENDROOT
BRANCH   1  30
ATOM     30  C   UNL     1      -6.938   9.939  -2.070  1.00  0.00     0.048 C 
ATOM     31  O   UNL     1      -7.521  10.418  -1.062  1.00  0.00    -0.550 OA
ATOM     32  O   UNL     1      -5.552   9.767  -2.014  1.00  0.00    -0.550 OA
ENDBRANCH   1  30
BRANCH  27  33
ATOM     33  O   UNL     1      -6.444   7.638   3.093  1.00  0.00    -0.393 OA
ATOM     34  H   UNL     1      -7.152   7.998   2.498  1.00  0.00     0.210 HD
ENDBRANCH  27  33
TORSDOF 2
ENDMDL
MODEL 7
REMARK VINA RESULT:    -1.523      1.696      7.520
REMARK INTER + INTRA:          -1.260
REMARK INTER:                  -1.634
REMARK INTRA:                   0.374
REMARK UNBOUND:                 0.397
REMARK SMILES C[C@H]1[C@H](C)CC[C@@]2(C(=O)[O-])CC[C@@]3(C)C(=CC[C@@H]4[C@@]5(C)CC[C@@H](O)C(C)(C)[C@@H]5CC[C@]43C)[C@@H]12
REMARK SMILES IDX 7 1 6 2 11 3 33 4 5 5 12 6 15 7 2 8 3 9 13 10 16 11 1 12
REMARK SMILES IDX 4 13 14 14 31 15 17 16 18 17 30 18 32 19 19 20 29 21 28 22
REMARK SMILES IDX 21 23 20 24 25 25 22 26 23 27 26 28 27 29 8 30 9 31 10 32
REMARK SMILES IDX 24 33
REMARK H PARENT 24 34
REMARK Flexibility Score: inf
ROOT
ATOM      1  C   UNL     1      -8.005   9.303  -7.673  1.00  0.00     0.017 C 
ATOM      2  C   UNL     1      -8.073   9.646  -9.189  1.00  0.00     0.014 C 
ATOM      3  C   UNL     1      -8.500   7.857  -7.428  1.00  0.00     0.014 C 
ATOM      4  C   UNL     1      -6.550   9.461  -7.089  1.00  0.00     0.030 C 
ATOM      5  C   UNL     1      -6.903   9.106 -10.009  1.00  0.00     0.004 C 
ATOM      6  C   UNL     1      -8.570   7.506  -5.926  1.00  0.00     0.013 C 
ATOM      7  C   UNL     1      -6.448   8.922  -5.640  1.00  0.00    -0.063 C 
ATOM      8  C   UNL     1      -5.317   9.148  -8.021  1.00  0.00    -0.003 C 
ATOM      9  C   UNL     1      -5.550   9.606  -9.486  1.00  0.00    -0.011 C 
ATOM     10  C   UNL     1      -7.204   7.612  -5.175  1.00  0.00    -0.006 C 
ATOM     11  C   UNL     1      -5.961   9.823  -4.734  1.00  0.00    -0.027 C 
ATOM     12  C   UNL     1      -4.799   7.706  -8.002  1.00  0.00     0.008 C 
ATOM     13  C   UNL     1      -5.370  11.125  -9.663  1.00  0.00     0.008 C 
ATOM     14  C   UNL     1      -6.388   6.339  -5.568  1.00  0.00     0.017 C 
ATOM     15  C   UNL     1      -7.412   7.625  -3.570  1.00  0.00    -0.020 C 
ATOM     16  C   UNL     1      -6.521   9.987  -3.337  1.00  0.00     0.032 C 
ATOM     17  C   UNL     1      -7.771   9.104  -3.175  1.00  0.00     0.006 C 
ATOM     18  C   UNL     1      -8.502   6.606  -3.056  1.00  0.00     0.008 C 
ATOM     19  C   UNL     1      -6.066   7.178  -2.873  1.00  0.00     0.012 C 
ATOM     20  C   UNL     1      -8.659   9.299  -1.884  1.00  0.00    -0.025 C 
ATOM     21  C   UNL     1      -9.915   7.133  -2.724  1.00  0.00     0.005 C 
ATOM     22  C   UNL     1     -10.030   8.602  -2.215  1.00  0.00     0.003 C 
ATOM     23  C   UNL     1      -8.934  10.820  -1.658  1.00  0.00     0.010 C 
ATOM     24  C   UNL     1      -7.947   8.745  -0.624  1.00  0.00     0.012 C 
ATOM     25  C   UNL     1     -11.208   8.866  -1.198  1.00  0.00    -0.006 C 
ATOM     26  C   UNL     1     -10.061  11.125  -0.657  1.00  0.00     0.033 C 
ATOM     27  C   UNL     1     -11.380  10.409  -1.011  1.00  0.00     0.120 C 
ATOM     28  C   UNL     1     -10.998   8.181   0.183  1.00  0.00     0.014 C 
ATOM     29  C   UNL     1     -12.533   8.304  -1.787  1.00  0.00     0.014 C 
ENDROOT
BRANCH   1  30
ATOM     30  C   UNL     1      -8.965  10.291  -6.992  1.00  0.00     0.048 C 
ATOM     31  O   UNL     1     -10.015  10.667  -7.576  1.00  0.00    -0.550 OA
ATOM     32  O   UNL     1      -8.599  10.937  -5.808  1.00  0.00    -0.550 OA
ENDBRANCH   1  30
BRANCH  27  33
ATOM     33  O   UNL     1     -11.901  10.983  -2.187  1.00  0.00    -0.393 OA
ATOM     34  H   UNL     1     -12.223  11.891  -1.951  1.00  0.00     0.210 HD
ENDBRANCH  27  33
TORSDOF 2
ENDMDL
MODEL 8
REMARK VINA RESULT:    -1.387      3.135      8.053
REMARK INTER + INTRA:          -1.112
REMARK INTER:                  -1.486
REMARK INTRA:                   0.374
REMARK UNBOUND:                 0.397
REMARK SMILES C[C@H]1[C@H](C)CC[C@@]2(C(=O)[O-])CC[C@@]3(C)C(=CC[C@@H]4[C@@]5(C)CC[C@@H](O)C(C)(C)[C@@H]5CC[C@]43C)[C@@H]12
REMARK SMILES IDX 7 1 6 2 11 3 33 4 5 5 12 6 15 7 2 8 3 9 13 10 16 11 1 12
REMARK SMILES IDX 4 13 14 14 31 15 17 16 18 17 30 18 32 19 19 20 29 21 28 22
REMARK SMILES IDX 21 23 20 24 25 25 22 26 23 27 26 28 27 29 8 30 9 31 10 32
REMARK SMILES IDX 24 33
REMARK H PARENT 24 34
REMARK Flexibility Score: inf
ROOT
ATOM      1  C   UNL     1      -8.111   9.741  -0.438  1.00  0.00     0.017 C 
ATOM      2  C   UNL     1      -7.890  11.022  -1.292  1.00  0.00     0.014 C 
ATOM      3  C   UNL     1      -9.605   9.598  -0.061  1.00  0.00     0.014 C 
ATOM      4  C   UNL     1      -7.634   8.436  -1.184  1.00  0.00     0.030 C 
ATOM      5  C   UNL     1      -8.248  10.863  -2.768  1.00  0.00     0.004 C 
ATOM      6  C   UNL     1      -9.861   8.408   0.889  1.00  0.00     0.013 C 
ATOM      7  C   UNL     1      -8.045   7.153  -0.420  1.00  0.00    -0.063 C 
ATOM      8  C   UNL     1      -7.765   8.366  -2.754  1.00  0.00    -0.003 C 
ATOM      9  C   UNL     1      -7.461   9.728  -3.435  1.00  0.00    -0.011 C 
ATOM     10  C   UNL     1      -9.442   7.018   0.310  1.00  0.00    -0.006 C 
ATOM     11  C   UNL     1      -7.008   6.309  -0.134  1.00  0.00    -0.027 C 
ATOM     12  C   UNL     1      -9.076   7.791  -3.303  1.00  0.00     0.008 C 
ATOM     13  C   UNL     1      -5.952  10.020  -3.518  1.00  0.00     0.008 C 
ATOM     14  C   UNL     1     -10.556   6.614  -0.706  1.00  0.00     0.017 C 
ATOM     15  C   UNL     1      -9.362   5.895   1.473  1.00  0.00    -0.020 C 
ATOM     16  C   UNL     1      -6.861   5.585   1.187  1.00  0.00     0.032 C 
ATOM     17  C   UNL     1      -7.957   6.059   2.160  1.00  0.00     0.006 C 
ATOM     18  C   UNL     1     -10.535   5.974   2.525  1.00  0.00     0.008 C 
ATOM     19  C   UNL     1      -9.491   4.464   0.815  1.00  0.00     0.012 C 
ATOM     20  C   UNL     1      -7.850   5.621   3.673  1.00  0.00    -0.025 C 
ATOM     21  C   UNL     1     -10.270   6.657   3.884  1.00  0.00     0.005 C 
ATOM     22  C   UNL     1      -8.820   6.583   4.452  1.00  0.00     0.003 C 
ATOM     23  C   UNL     1      -6.399   5.873   4.194  1.00  0.00     0.010 C 
ATOM     24  C   UNL     1      -8.169   4.114   3.845  1.00  0.00     0.012 C 
ATOM     25  C   UNL     1      -8.720   6.545   6.027  1.00  0.00    -0.006 C 
ATOM     26  C   UNL     1      -6.252   5.824   5.724  1.00  0.00     0.033 C 
ATOM     27  C   UNL     1      -7.231   6.770   6.447  1.00  0.00     0.120 C 
ATOM     28  C   UNL     1      -9.258   5.224   6.648  1.00  0.00     0.014 C 
ATOM     29  C   UNL     1      -9.567   7.705   6.625  1.00  0.00     0.014 C 
ENDROOT
BRANCH   1  30
ATOM     30  C   UNL     1      -7.283   9.958   0.838  1.00  0.00     0.048 C 
ATOM     31  O   UNL     1      -7.159  11.111   1.331  1.00  0.00    -0.550 OA
ATOM     32  O   UNL     1      -6.499   8.927   1.363  1.00  0.00    -0.550 OA
ENDBRANCH   1  30
BRANCH  27  33
ATOM     33  O   UNL     1      -6.850   8.100   6.182  1.00  0.00    -0.393 OA
ATOM     34  H   UNL     1      -6.512   8.126   5.250  1.00  0.00     0.210 HD
ENDBRANCH  27  33
TORSDOF 2
ENDMDL
