MODEL 1
REMARK VINA RESULT:    -7.873      0.000      0.000
REMARK INTER + INTRA:          -8.658
REMARK INTER:                  -8.564
REMARK INTRA:                  -0.095
REMARK UNBOUND:                -0.095
REMARK SMILES C[C@@H]1[C@H](C)CC[C@@]2(C(=O)[O-])CC[C@@]3(C)C(=CC[C@@H]4[C@@]5(C)CC[C@@H](O)C(C)(C)[C@H]5CC[C@]43C)[C@@H]12
REMARK SMILES IDX 7 1 6 2 11 3 33 4 5 5 12 6 15 7 2 8 3 9 13 10 16 11 1 12
REMARK SMILES IDX 4 13 14 14 31 15 17 16 18 17 30 18 32 19 19 20 29 21 28 22
REMARK SMILES IDX 21 23 20 24 25 25 22 26 23 27 26 28 27 29 8 30 9 31 10 32
REMARK SMILES IDX 24 33
REMARK H PARENT 24 34
REMARK Flexibility Score: inf
ROOT
ATOM      1  C   UNL     1      18.731  25.065  38.187  1.00  0.00     0.017 C 
ATOM      2  C   UNL     1      18.656  26.452  37.505  1.00  0.00     0.014 C 
ATOM      3  C   UNL     1      19.792  25.138  39.338  1.00  0.00     0.014 C 
ATOM      4  C   UNL     1      17.270  24.685  38.672  1.00  0.00     0.030 C 
ATOM      5  C   UNL     1      17.886  26.438  36.181  1.00  0.00     0.004 C 
ATOM      6  C   UNL     1      19.324  24.461  40.621  1.00  0.00     0.013 C 
ATOM      7  C   UNL     1      16.949  25.166  40.122  1.00  0.00    -0.063 C 
ATOM      8  C   UNL     1      16.150  25.080  37.619  1.00  0.00    -0.003 C 
ATOM      9  C   UNL     1      16.606  25.556  36.190  1.00  0.00    -0.011 C 
ATOM     10  C   UNL     1      18.037  25.114  41.213  1.00  0.00    -0.006 C 
ATOM     11  C   UNL     1      15.689  25.505  40.522  1.00  0.00    -0.027 C 
ATOM     12  C   UNL     1      15.071  23.974  37.568  1.00  0.00     0.008 C 
ATOM     13  C   UNL     1      16.656  24.476  35.082  1.00  0.00     0.008 C 
ATOM     14  C   UNL     1      18.387  26.624  41.501  1.00  0.00     0.017 C 
ATOM     15  C   UNL     1      17.518  24.324  42.561  1.00  0.00    -0.020 C 
ATOM     16  C   UNL     1      15.323  25.520  41.983  1.00  0.00     0.032 C 
ATOM     17  C   UNL     1      15.936  24.255  42.610  1.00  0.00     0.006 C 
ATOM     18  C   UNL     1      17.948  22.830  42.589  1.00  0.00     0.008 C 
ATOM     19  C   UNL     1      18.174  25.003  43.807  1.00  0.00     0.012 C 
ATOM     20  C   UNL     1      15.265  23.699  43.936  1.00  0.00    -0.025 C 
ATOM     21  C   UNL     1      17.218  21.925  43.616  1.00  0.00     0.005 C 
ATOM     22  C   UNL     1      16.164  22.551  44.599  1.00  0.00     0.003 C 
ATOM     23  C   UNL     1      13.834  23.139  43.586  1.00  0.00     0.010 C 
ATOM     24  C   UNL     1      15.060  24.874  44.938  1.00  0.00     0.012 C 
ATOM     25  C   UNL     1      15.337  21.406  45.343  1.00  0.00    -0.006 C 
ATOM     26  C   UNL     1      13.848  21.657  43.212  1.00  0.00     0.033 C 
ATOM     27  C   UNL     1      14.268  20.751  44.387  1.00  0.00     0.120 C 
ATOM     28  C   UNL     1      14.616  21.982  46.598  1.00  0.00     0.014 C 
ATOM     29  C   UNL     1      16.301  20.318  45.907  1.00  0.00     0.014 C 
ENDROOT
BRANCH   1  30
ATOM     30  C   UNL     1      19.277  24.037  37.197  1.00  0.00     0.048 C 
ATOM     31  O   UNL     1      20.117  24.355  36.319  1.00  0.00    -0.550 OA
ATOM     32  O   UNL     1      18.756  22.742  37.176  1.00  0.00    -0.550 OA
ENDBRANCH   1  30
BRANCH  27  33
ATOM     33  O   UNL     1      14.727  19.531  43.861  1.00  0.00    -0.393 OA
ATOM     34  H   UNL     1      14.826  19.653  42.877  1.00  0.00     0.210 HD
ENDBRANCH  27  33
TORSDOF 2
ENDMDL
MODEL 2
REMARK VINA RESULT:    -7.506      3.162      5.986
REMARK INTER + INTRA:          -8.259
REMARK INTER:                  -8.069
REMARK INTRA:                  -0.189
REMARK UNBOUND:                -0.095
REMARK SMILES C[C@@H]1[C@H](C)CC[C@@]2(C(=O)[O-])CC[C@@]3(C)C(=CC[C@@H]4[C@@]5(C)CC[C@@H](O)C(C)(C)[C@H]5CC[C@]43C)[C@@H]12
REMARK SMILES IDX 7 1 6 2 11 3 33 4 5 5 12 6 15 7 2 8 3 9 13 10 16 11 1 12
REMARK SMILES IDX 4 13 14 14 31 15 17 16 18 17 30 18 32 19 19 20 29 21 28 22
REMARK SMILES IDX 21 23 20 24 25 25 22 26 23 27 26 28 27 29 8 30 9 31 10 32
REMARK SMILES IDX 24 33
REMARK H PARENT 24 34
REMARK Flexibility Score: inf
ROOT
ATOM      1  C   UNL     1      15.664  24.734  42.884  1.00  0.00     0.017 C 
ATOM      2  C   UNL     1      15.330  24.744  41.373  1.00  0.00     0.014 C 
ATOM      3  C   UNL     1      14.343  25.002  43.684  1.00  0.00     0.014 C 
ATOM      4  C   UNL     1      16.356  23.346  43.217  1.00  0.00     0.030 C 
ATOM      5  C   UNL     1      16.570  24.795  40.477  1.00  0.00     0.004 C 
ATOM      6  C   UNL     1      14.182  24.085  44.891  1.00  0.00     0.013 C 
ATOM      7  C   UNL     1      15.346  22.229  43.630  1.00  0.00    -0.063 C 
ATOM      8  C   UNL     1      17.377  22.883  42.095  1.00  0.00    -0.003 C 
ATOM      9  C   UNL     1      17.751  23.906  40.960  1.00  0.00    -0.011 C 
ATOM     10  C   UNL     1      14.120  22.577  44.498  1.00  0.00    -0.006 C 
ATOM     11  C   UNL     1      15.570  20.907  43.379  1.00  0.00    -0.027 C 
ATOM     12  C   UNL     1      18.618  22.238  42.755  1.00  0.00     0.008 C 
ATOM     13  C   UNL     1      19.036  24.742  41.174  1.00  0.00     0.008 C 
ATOM     14  C   UNL     1      12.886  22.411  43.531  1.00  0.00     0.017 C 
ATOM     15  C   UNL     1      14.011  21.607  45.824  1.00  0.00    -0.020 C 
ATOM     16  C   UNL     1      14.845  19.842  44.160  1.00  0.00     0.032 C 
ATOM     17  C   UNL     1      14.858  20.282  45.634  1.00  0.00     0.006 C 
ATOM     18  C   UNL     1      14.626  22.252  47.098  1.00  0.00     0.008 C 
ATOM     19  C   UNL     1      12.496  21.367  46.129  1.00  0.00     0.012 C 
ATOM     20  C   UNL     1      14.708  19.149  46.736  1.00  0.00    -0.025 C 
ATOM     21  C   UNL     1      14.894  21.297  48.290  1.00  0.00     0.005 C 
ATOM     22  C   UNL     1      14.481  19.785  48.188  1.00  0.00     0.003 C 
ATOM     23  C   UNL     1      16.008  18.256  46.727  1.00  0.00     0.010 C 
ATOM     24  C   UNL     1      13.517  18.221  46.357  1.00  0.00     0.012 C 
ATOM     25  C   UNL     1      15.115  18.945  49.388  1.00  0.00    -0.006 C 
ATOM     26  C   UNL     1      17.086  18.763  47.684  1.00  0.00     0.033 C 
ATOM     27  C   UNL     1      16.653  18.685  49.162  1.00  0.00     0.120 C 
ATOM     28  C   UNL     1      14.384  17.577  49.543  1.00  0.00     0.014 C 
ATOM     29  C   UNL     1      14.879  19.673  50.746  1.00  0.00     0.014 C 
ENDROOT
BRANCH   1  30
ATOM     30  C   UNL     1      16.583  25.910  43.213  1.00  0.00     0.048 C 
ATOM     31  O   UNL     1      17.440  25.835  44.128  1.00  0.00    -0.550 OA
ATOM     32  O   UNL     1      16.399  27.139  42.577  1.00  0.00    -0.550 OA
ENDBRANCH   1  30
BRANCH  27  33
ATOM     33  O   UNL     1      17.441  19.588  49.900  1.00  0.00    -0.393 OA
ATOM     34  H   UNL     1      18.196  19.069  50.290  1.00  0.00     0.210 HD
ENDBRANCH  27  33
TORSDOF 2
ENDMDL
MODEL 3
REMARK VINA RESULT:    -7.442      1.278      7.844
REMARK INTER + INTRA:          -8.189
REMARK INTER:                  -7.978
REMARK INTRA:                  -0.211
REMARK UNBOUND:                -0.095
REMARK SMILES C[C@@H]1[C@H](C)CC[C@@]2(C(=O)[O-])CC[C@@]3(C)C(=CC[C@@H]4[C@@]5(C)CC[C@@H](O)C(C)(C)[C@H]5CC[C@]43C)[C@@H]12
REMARK SMILES IDX 7 1 6 2 11 3 33 4 5 5 12 6 15 7 2 8 3 9 13 10 16 11 1 12
REMARK SMILES IDX 4 13 14 14 31 15 17 16 18 17 30 18 32 19 19 20 29 21 28 22
REMARK SMILES IDX 21 23 20 24 25 25 22 26 23 27 26 28 27 29 8 30 9 31 10 32
REMARK SMILES IDX 24 33
REMARK H PARENT 24 34
REMARK Flexibility Score: inf
ROOT
ATOM      1  C   UNL     1      13.998  21.960  44.839  1.00  0.00     0.017 C 
ATOM      2  C   UNL     1      14.180  21.918  46.375  1.00  0.00     0.014 C 
ATOM      3  C   UNL     1      13.308  23.315  44.460  1.00  0.00     0.014 C 
ATOM      4  C   UNL     1      15.423  21.748  44.177  1.00  0.00     0.030 C 
ATOM      5  C   UNL     1      14.563  20.533  46.904  1.00  0.00     0.004 C 
ATOM      6  C   UNL     1      13.940  23.985  43.246  1.00  0.00     0.013 C 
ATOM      7  C   UNL     1      16.199  23.080  43.927  1.00  0.00    -0.063 C 
ATOM      8  C   UNL     1      16.291  20.649  44.922  1.00  0.00    -0.003 C 
ATOM      9  C   UNL     1      15.591  19.768  46.023  1.00  0.00    -0.011 C 
ATOM     10  C   UNL     1      15.443  24.342  43.467  1.00  0.00    -0.006 C 
ATOM     11  C   UNL     1      17.561  23.154  43.958  1.00  0.00    -0.027 C 
ATOM     12  C   UNL     1      17.068  19.807  43.884  1.00  0.00     0.008 C 
ATOM     13  C   UNL     1      15.036  18.398  45.566  1.00  0.00     0.008 C 
ATOM     14  C   UNL     1      15.498  25.316  44.705  1.00  0.00     0.017 C 
ATOM     15  C   UNL     1      16.116  25.005  42.119  1.00  0.00    -0.020 C 
ATOM     16  C   UNL     1      18.286  24.291  43.286  1.00  0.00     0.032 C 
ATOM     17  C   UNL     1      17.607  24.509  41.922  1.00  0.00     0.006 C 
ATOM     18  C   UNL     1      15.409  24.559  40.808  1.00  0.00     0.008 C 
ATOM     19  C   UNL     1      15.957  26.558  42.208  1.00  0.00     0.012 C 
ATOM     20  C   UNL     1      18.467  25.200  40.781  1.00  0.00    -0.025 C 
ATOM     21  C   UNL     1      16.175  24.833  39.487  1.00  0.00     0.005 C 
ATOM     22  C   UNL     1      17.552  25.588  39.525  1.00  0.00     0.003 C 
ATOM     23  C   UNL     1      19.613  24.211  40.338  1.00  0.00     0.010 C 
ATOM     24  C   UNL     1      19.161  26.468  41.359  1.00  0.00     0.012 C 
ATOM     25  C   UNL     1      18.287  25.491  38.112  1.00  0.00    -0.006 C 
ATOM     26  C   UNL     1      19.197  23.293  39.189  1.00  0.00     0.033 C 
ATOM     27  C   UNL     1      18.916  24.063  37.884  1.00  0.00     0.120 C 
ATOM     28  C   UNL     1      19.410  26.566  38.006  1.00  0.00     0.014 C 
ATOM     29  C   UNL     1      17.298  25.840  36.959  1.00  0.00     0.014 C 
ENDROOT
BRANCH   1  30
ATOM     30  C   UNL     1      13.015  20.871  44.409  1.00  0.00     0.048 C 
ATOM     31  O   UNL     1      13.147  20.263  43.319  1.00  0.00    -0.550 OA
ATOM     32  O   UNL     1      11.875  20.618  45.175  1.00  0.00    -0.550 OA
ENDBRANCH   1  30
BRANCH  27  33
ATOM     33  O   UNL     1      18.095  23.263  37.068  1.00  0.00    -0.393 OA
ATOM     34  H   UNL     1      17.242  23.117  37.562  1.00  0.00     0.210 HD
ENDBRANCH  27  33
TORSDOF 2
ENDMDL
MODEL 4
REMARK VINA RESULT:    -7.289      2.901      5.062
REMARK INTER + INTRA:          -8.023
REMARK INTER:                  -8.487
REMARK INTRA:                   0.463
REMARK UNBOUND:                -0.095
REMARK SMILES C[C@@H]1[C@H](C)CC[C@@]2(C(=O)[O-])CC[C@@]3(C)C(=CC[C@@H]4[C@@]5(C)CC[C@@H](O)C(C)(C)[C@H]5CC[C@]43C)[C@@H]12
REMARK SMILES IDX 7 1 6 2 11 3 33 4 5 5 12 6 15 7 2 8 3 9 13 10 16 11 1 12
REMARK SMILES IDX 4 13 14 14 31 15 17 16 18 17 30 18 32 19 19 20 29 21 28 22
REMARK SMILES IDX 21 23 20 24 25 25 22 26 23 27 26 28 27 29 8 30 9 31 10 32
REMARK SMILES IDX 24 33
REMARK H PARENT 24 34
REMARK Flexibility Score: inf
ROOT
ATOM      1  C   UNL     1      17.415  25.574  42.737  1.00  0.00     0.017 C 
ATOM      2  C   UNL     1      16.918  25.933  41.316  1.00  0.00     0.014 C 
ATOM      3  C   UNL     1      16.396  26.152  43.778  1.00  0.00     0.014 C 
ATOM      4  C   UNL     1      17.589  23.999  42.804  1.00  0.00     0.030 C 
ATOM      5  C   UNL     1      17.967  25.693  40.227  1.00  0.00     0.004 C 
ATOM      6  C   UNL     1      16.066  25.170  44.896  1.00  0.00     0.013 C 
ATOM      7  C   UNL     1      16.303  23.248  43.273  1.00  0.00    -0.063 C 
ATOM      8  C   UNL     1      18.219  23.393  41.480  1.00  0.00    -0.003 C 
ATOM      9  C   UNL     1      18.794  24.389  40.405  1.00  0.00    -0.011 C 
ATOM     10  C   UNL     1      15.409  23.856  44.372  1.00  0.00    -0.006 C 
ATOM     11  C   UNL     1      15.995  21.986  42.855  1.00  0.00    -0.027 C 
ATOM     12  C   UNL     1      19.213  22.266  41.845  1.00  0.00     0.008 C 
ATOM     13  C   UNL     1      20.311  24.686  40.474  1.00  0.00     0.008 C 
ATOM     14  C   UNL     1      14.087  24.279  43.623  1.00  0.00     0.017 C 
ATOM     15  C   UNL     1      15.123  22.789  45.592  1.00  0.00    -0.020 C 
ATOM     16  C   UNL     1      15.037  21.128  43.639  1.00  0.00     0.032 C 
ATOM     17  C   UNL     1      15.398  21.301  45.126  1.00  0.00     0.006 C 
ATOM     18  C   UNL     1      16.087  22.976  46.797  1.00  0.00     0.008 C 
ATOM     19  C   UNL     1      13.677  23.041  46.131  1.00  0.00     0.012 C 
ATOM     20  C   UNL     1      14.986  20.132  46.117  1.00  0.00    -0.025 C 
ATOM     21  C   UNL     1      16.138  21.813  47.822  1.00  0.00     0.005 C 
ATOM     22  C   UNL     1      15.192  20.572  47.643  1.00  0.00     0.003 C 
ATOM     23  C   UNL     1      15.858  18.858  45.793  1.00  0.00     0.010 C 
ATOM     24  C   UNL     1      13.500  19.742  45.861  1.00  0.00     0.012 C 
ATOM     25  C   UNL     1      15.624  19.388  48.624  1.00  0.00    -0.006 C 
ATOM     26  C   UNL     1      17.159  18.807  46.593  1.00  0.00     0.033 C 
ATOM     27  C   UNL     1      16.919  18.654  48.108  1.00  0.00     0.120 C 
ATOM     28  C   UNL     1      14.470  18.350  48.766  1.00  0.00     0.014 C 
ATOM     29  C   UNL     1      15.844  19.932  50.068  1.00  0.00     0.014 C 
ENDROOT
BRANCH   1  30
ATOM     30  C   UNL     1      18.732  26.294  43.017  1.00  0.00     0.048 C 
ATOM     31  O   UNL     1      19.365  26.112  44.087  1.00  0.00    -0.550 OA
ATOM     32  O   UNL     1      19.197  27.268  42.131  1.00  0.00    -0.550 OA
ENDBRANCH   1  30
BRANCH  27  33
ATOM     33  O   UNL     1      18.069  19.102  48.784  1.00  0.00    -0.393 OA
ATOM     34  H   UNL     1      17.828  19.952  49.243  1.00  0.00     0.210 HD
ENDBRANCH  27  33
TORSDOF 2
ENDMDL
MODEL 5
REMARK VINA RESULT:    -7.289      1.725      2.404
REMARK INTER + INTRA:          -8.023
REMARK INTER:                  -7.864
REMARK INTRA:                  -0.159
REMARK UNBOUND:                -0.095
REMARK SMILES C[C@@H]1[C@H](C)CC[C@@]2(C(=O)[O-])CC[C@@]3(C)C(=CC[C@@H]4[C@@]5(C)CC[C@@H](O)C(C)(C)[C@H]5CC[C@]43C)[C@@H]12
REMARK SMILES IDX 7 1 6 2 11 3 33 4 5 5 12 6 15 7 2 8 3 9 13 10 16 11 1 12
REMARK SMILES IDX 4 13 14 14 31 15 17 16 18 17 30 18 32 19 19 20 29 21 28 22
REMARK SMILES IDX 21 23 20 24 25 25 22 26 23 27 26 28 27 29 8 30 9 31 10 32
REMARK SMILES IDX 24 33
REMARK H PARENT 24 34
REMARK Flexibility Score: inf
ROOT
ATOM      1  C   UNL     1      19.386  26.032  40.725  1.00  0.00     0.017 C 
ATOM      2  C   UNL     1      19.270  27.308  39.858  1.00  0.00     0.014 C 
ATOM      3  C   UNL     1      19.526  26.464  42.225  1.00  0.00     0.014 C 
ATOM      4  C   UNL     1      18.118  25.127  40.425  1.00  0.00     0.030 C 
ATOM      5  C   UNL     1      19.429  27.041  38.359  1.00  0.00     0.004 C 
ATOM      6  C   UNL     1      18.663  25.633  43.167  1.00  0.00     0.013 C 
ATOM      7  C   UNL     1      16.905  25.422  41.364  1.00  0.00    -0.063 C 
ATOM      8  C   UNL     1      17.727  25.105  38.888  1.00  0.00    -0.003 C 
ATOM      9  C   UNL     1      18.727  25.749  37.856  1.00  0.00    -0.011 C 
ATOM     10  C   UNL     1      17.140  25.750  42.852  1.00  0.00    -0.006 C 
ATOM     11  C   UNL     1      15.610  25.262  40.964  1.00  0.00    -0.027 C 
ATOM     12  C   UNL     1      17.283  23.680  38.484  1.00  0.00     0.008 C 
ATOM     13  C   UNL     1      19.730  24.790  37.171  1.00  0.00     0.008 C 
ATOM     14  C   UNL     1      16.766  27.276  42.989  1.00  0.00     0.017 C 
ATOM     15  C   UNL     1      16.238  24.793  43.842  1.00  0.00    -0.020 C 
ATOM     16  C   UNL     1      14.506  25.107  41.977  1.00  0.00     0.032 C 
ATOM     17  C   UNL     1      15.024  24.144  43.059  1.00  0.00     0.006 C 
ATOM     18  C   UNL     1      17.025  23.563  44.376  1.00  0.00     0.008 C 
ATOM     19  C   UNL     1      15.824  25.638  45.092  1.00  0.00     0.012 C 
ATOM     20  C   UNL     1      13.943  23.349  43.907  1.00  0.00    -0.025 C 
ATOM     21  C   UNL     1      16.178  22.429  45.011  1.00  0.00     0.005 C 
ATOM     22  C   UNL     1      14.623  22.599  45.148  1.00  0.00     0.003 C 
ATOM     23  C   UNL     1      13.224  22.308  42.966  1.00  0.00     0.010 C 
ATOM     24  C   UNL     1      12.851  24.341  44.404  1.00  0.00     0.012 C 
ATOM     25  C   UNL     1      13.937  21.212  45.543  1.00  0.00    -0.006 C 
ATOM     26  C   UNL     1      13.915  20.945  42.945  1.00  0.00     0.033 C 
ATOM     27  C   UNL     1      13.864  20.232  44.311  1.00  0.00     0.120 C 
ATOM     28  C   UNL     1      12.498  21.452  46.091  1.00  0.00     0.014 C 
ATOM     29  C   UNL     1      14.702  20.545  46.726  1.00  0.00     0.014 C 
ENDROOT
BRANCH   1  30
ATOM     30  C   UNL     1      20.685  25.301  40.391  1.00  0.00     0.048 C 
ATOM     31  O   UNL     1      20.704  24.064  40.175  1.00  0.00    -0.550 OA
ATOM     32  O   UNL     1      21.902  25.983  40.440  1.00  0.00    -0.550 OA
ENDBRANCH   1  30
BRANCH  27  33
ATOM     33  O   UNL     1      14.899  19.279  44.350  1.00  0.00    -0.393 OA
ATOM     34  H   UNL     1      15.754  19.767  44.202  1.00  0.00     0.210 HD
ENDBRANCH  27  33
TORSDOF 2
ENDMDL
MODEL 6
REMARK VINA RESULT:    -7.241      6.408     10.394
REMARK INTER + INTRA:          -7.971
REMARK INTER:                  -7.759
REMARK INTRA:                  -0.212
REMARK UNBOUND:                -0.095
REMARK SMILES C[C@@H]1[C@H](C)CC[C@@]2(C(=O)[O-])CC[C@@]3(C)C(=CC[C@@H]4[C@@]5(C)CC[C@@H](O)C(C)(C)[C@H]5CC[C@]43C)[C@@H]12
REMARK SMILES IDX 7 1 6 2 11 3 33 4 5 5 12 6 15 7 2 8 3 9 13 10 16 11 1 12
REMARK SMILES IDX 4 13 14 14 31 15 17 16 18 17 30 18 32 19 19 20 29 21 28 22
REMARK SMILES IDX 21 23 20 24 25 25 22 26 23 27 26 28 27 29 8 30 9 31 10 32
REMARK SMILES IDX 24 33
REMARK H PARENT 24 34
REMARK Flexibility Score: inf
ROOT
ATOM      1  C   UNL     1      14.743  23.575  46.736  1.00  0.00     0.017 C 
ATOM      2  C   UNL     1      13.592  22.645  46.283  1.00  0.00     0.014 C 
ATOM      3  C   UNL     1      14.493  25.000  46.133  1.00  0.00     0.014 C 
ATOM      4  C   UNL     1      14.797  23.540  48.321  1.00  0.00     0.030 C 
ATOM      5  C   UNL     1      13.868  21.163  46.549  1.00  0.00     0.004 C 
ATOM      6  C   UNL     1      14.736  26.122  47.135  1.00  0.00     0.013 C 
ATOM      7  C   UNL     1      13.908  24.630  48.999  1.00  0.00    -0.063 C 
ATOM      8  C   UNL     1      14.566  22.087  48.912  1.00  0.00    -0.003 C 
ATOM      9  C   UNL     1      14.552  20.870  47.914  1.00  0.00    -0.011 C 
ATOM     10  C   UNL     1      13.796  26.036  48.378  1.00  0.00    -0.006 C 
ATOM     11  C   UNL     1      13.322  24.446  50.218  1.00  0.00    -0.027 C 
ATOM     12  C   UNL     1      15.505  21.862  50.120  1.00  0.00     0.008 C 
ATOM     13  C   UNL     1      15.888  20.111  47.726  1.00  0.00     0.008 C 
ATOM     14  C   UNL     1      12.319  26.117  47.832  1.00  0.00     0.017 C 
ATOM     15  C   UNL     1      14.124  27.220  49.473  1.00  0.00    -0.020 C 
ATOM     16  C   UNL     1      12.870  25.624  51.040  1.00  0.00     0.032 C 
ATOM     17  C   UNL     1      13.984  26.682  50.956  1.00  0.00     0.006 C 
ATOM     18  C   UNL     1      15.597  27.716  49.404  1.00  0.00     0.008 C 
ATOM     19  C   UNL     1      13.220  28.453  49.144  1.00  0.00     0.012 C 
ATOM     20  C   UNL     1      14.076  27.742  52.134  1.00  0.00    -0.025 C 
ATOM     21  C   UNL     1      16.095  28.555  50.610  1.00  0.00     0.005 C 
ATOM     22  C   UNL     1      15.104  28.915  51.774  1.00  0.00     0.003 C 
ATOM     23  C   UNL     1      14.530  27.001  53.450  1.00  0.00     0.010 C 
ATOM     24  C   UNL     1      12.659  28.326  52.409  1.00  0.00     0.012 C 
ATOM     25  C   UNL     1      15.897  29.511  53.025  1.00  0.00    -0.006 C 
ATOM     26  C   UNL     1      16.048  26.974  53.625  1.00  0.00     0.033 C 
ATOM     27  C   UNL     1      16.648  28.381  53.825  1.00  0.00     0.120 C 
ATOM     28  C   UNL     1      14.920  30.255  53.985  1.00  0.00     0.014 C 
ATOM     29  C   UNL     1      16.901  30.609  52.559  1.00  0.00     0.014 C 
ENDROOT
BRANCH   1  30
ATOM     30  C   UNL     1      16.058  23.100  46.121  1.00  0.00     0.048 C 
ATOM     31  O   UNL     1      17.122  23.075  46.788  1.00  0.00    -0.550 OA
ATOM     32  O   UNL     1      16.123  22.799  44.760  1.00  0.00    -0.550 OA
ENDBRANCH   1  30
BRANCH  27  33
ATOM     33  O   UNL     1      18.013  28.330  53.486  1.00  0.00    -0.393 OA
ATOM     34  H   UNL     1      18.201  27.407  53.163  1.00  0.00     0.210 HD
ENDBRANCH  27  33
TORSDOF 2
ENDMDL
MODEL 7
REMARK VINA RESULT:    -6.747      5.522      9.108
REMARK INTER + INTRA:          -7.433
REMARK INTER:                  -7.212
REMARK INTRA:                  -0.221
REMARK UNBOUND:                -0.095
REMARK SMILES C[C@@H]1[C@H](C)CC[C@@]2(C(=O)[O-])CC[C@@]3(C)C(=CC[C@@H]4[C@@]5(C)CC[C@@H](O)C(C)(C)[C@H]5CC[C@]43C)[C@@H]12
REMARK SMILES IDX 7 1 6 2 11 3 33 4 5 5 12 6 15 7 2 8 3 9 13 10 16 11 1 12
REMARK SMILES IDX 4 13 14 14 31 15 17 16 18 17 30 18 32 19 19 20 29 21 28 22
REMARK SMILES IDX 21 23 20 24 25 25 22 26 23 27 26 28 27 29 8 30 9 31 10 32
REMARK SMILES IDX 24 33
REMARK H PARENT 24 34
REMARK Flexibility Score: inf
ROOT
ATOM      1  C   UNL     1      14.723  22.458  45.270  1.00  0.00     0.017 C 
ATOM      2  C   UNL     1      13.657  21.461  44.757  1.00  0.00     0.014 C 
ATOM      3  C   UNL     1      14.406  23.872  44.672  1.00  0.00     0.014 C 
ATOM      4  C   UNL     1      14.710  22.405  46.855  1.00  0.00     0.030 C 
ATOM      5  C   UNL     1      14.018  19.996  45.019  1.00  0.00     0.004 C 
ATOM      6  C   UNL     1      14.532  24.993  45.696  1.00  0.00     0.013 C 
ATOM      7  C   UNL     1      13.723  23.424  47.506  1.00  0.00    -0.063 C 
ATOM      8  C   UNL     1      14.550  20.931  47.420  1.00  0.00    -0.003 C 
ATOM      9  C   UNL     1      14.660  19.730  46.409  1.00  0.00    -0.011 C 
ATOM     10  C   UNL     1      13.547  24.829  46.895  1.00  0.00    -0.006 C 
ATOM     11  C   UNL     1      13.099  23.186  48.695  1.00  0.00    -0.027 C 
ATOM     12  C   UNL     1      15.448  20.751  48.666  1.00  0.00     0.008 C 
ATOM     13  C   UNL     1      16.050  19.062  46.272  1.00  0.00     0.008 C 
ATOM     14  C   UNL     1      12.092  24.821  46.286  1.00  0.00     0.017 C 
ATOM     15  C   UNL     1      13.748  26.017  48.016  1.00  0.00    -0.020 C 
ATOM     16  C   UNL     1      12.534  24.321  49.509  1.00  0.00     0.032 C 
ATOM     17  C   UNL     1      13.579  25.451  49.485  1.00  0.00     0.006 C 
ATOM     18  C   UNL     1      15.186  26.609  48.018  1.00  0.00     0.008 C 
ATOM     19  C   UNL     1      12.780  27.193  47.661  1.00  0.00     0.012 C 
ATOM     20  C   UNL     1      13.550  26.497  50.678  1.00  0.00    -0.025 C 
ATOM     21  C   UNL     1      15.576  27.461  49.254  1.00  0.00     0.005 C 
ATOM     22  C   UNL     1      14.513  27.740  50.377  1.00  0.00     0.003 C 
ATOM     23  C   UNL     1      13.995  25.770  52.005  1.00  0.00     0.010 C 
ATOM     24  C   UNL     1      12.087  26.984  50.896  1.00  0.00     0.012 C 
ATOM     25  C   UNL     1      15.210  28.370  51.668  1.00  0.00    -0.006 C 
ATOM     26  C   UNL     1      15.502  25.840  52.247  1.00  0.00     0.033 C 
ATOM     27  C   UNL     1      15.999  27.280  52.488  1.00  0.00     0.120 C 
ATOM     28  C   UNL     1      14.146  29.035  52.592  1.00  0.00     0.014 C 
ATOM     29  C   UNL     1      16.160  29.537  51.259  1.00  0.00     0.014 C 
ENDROOT
BRANCH   1  30
ATOM     30  C   UNL     1      16.092  22.078  44.709  1.00  0.00     0.048 C 
ATOM     31  O   UNL     1      17.132  22.157  45.409  1.00  0.00    -0.550 OA
ATOM     32  O   UNL     1      16.227  21.750  43.359  1.00  0.00    -0.550 OA
ENDBRANCH   1  30
BRANCH  27  33
ATOM     33  O   UNL     1      17.377  27.322  52.209  1.00  0.00    -0.393 OA
ATOM     34  H   UNL     1      17.803  27.883  52.913  1.00  0.00     0.210 HD
ENDBRANCH  27  33
TORSDOF 2
ENDMDL
MODEL 8
REMARK VINA RESULT:    -6.525      3.121      9.446
REMARK INTER + INTRA:          -7.192
REMARK INTER:                  -7.264
REMARK INTRA:                   0.072
REMARK UNBOUND:                -0.095
REMARK SMILES C[C@@H]1[C@H](C)CC[C@@]2(C(=O)[O-])CC[C@@]3(C)C(=CC[C@@H]4[C@@]5(C)CC[C@@H](O)C(C)(C)[C@H]5CC[C@]43C)[C@@H]12
REMARK SMILES IDX 7 1 6 2 11 3 33 4 5 5 12 6 15 7 2 8 3 9 13 10 16 11 1 12
REMARK SMILES IDX 4 13 14 14 31 15 17 16 18 17 30 18 32 19 19 20 29 21 28 22
REMARK SMILES IDX 21 23 20 24 25 25 22 26 23 27 26 28 27 29 8 30 9 31 10 32
REMARK SMILES IDX 24 33
REMARK H PARENT 24 34
REMARK Flexibility Score: inf
ROOT
ATOM      1  C   UNL     1      15.552  20.361  49.129  1.00  0.00     0.017 C 
ATOM      2  C   UNL     1      14.278  19.954  49.906  1.00  0.00     0.014 C 
ATOM      3  C   UNL     1      15.858  19.252  48.065  1.00  0.00     0.014 C 
ATOM      4  C   UNL     1      15.303  21.802  48.513  1.00  0.00     0.030 C 
ATOM      5  C   UNL     1      14.041  20.791  51.166  1.00  0.00     0.004 C 
ATOM      6  C   UNL     1      16.241  19.822  46.704  1.00  0.00     0.013 C 
ATOM      7  C   UNL     1      14.675  21.769  47.084  1.00  0.00    -0.063 C 
ATOM      8  C   UNL     1      14.541  22.773  49.509  1.00  0.00    -0.003 C 
ATOM      9  C   UNL     1      14.344  22.307  50.999  1.00  0.00    -0.011 C 
ATOM     10  C   UNL     1      15.108  20.689  46.073  1.00  0.00    -0.006 C 
ATOM     11  C   UNL     1      13.850  22.752  46.621  1.00  0.00    -0.027 C 
ATOM     12  C   UNL     1      15.131  24.198  49.399  1.00  0.00     0.008 C 
ATOM     13  C   UNL     1      15.400  22.789  52.024  1.00  0.00     0.008 C 
ATOM     14  C   UNL     1      13.850  19.751  45.925  1.00  0.00     0.017 C 
ATOM     15  C   UNL     1      15.572  21.344  44.635  1.00  0.00    -0.020 C 
ATOM     16  C   UNL     1      13.631  22.941  45.143  1.00  0.00     0.032 C 
ATOM     17  C   UNL     1      15.008  22.814  44.468  1.00  0.00     0.006 C 
ATOM     18  C   UNL     1      17.112  21.531  44.525  1.00  0.00     0.008 C 
ATOM     19  C   UNL     1      15.158  20.358  43.494  1.00  0.00     0.012 C 
ATOM     20  C   UNL     1      15.198  23.519  43.059  1.00  0.00    -0.025 C 
ATOM     21  C   UNL     1      17.611  22.454  43.383  1.00  0.00     0.005 C 
ATOM     22  C   UNL     1      16.579  23.081  42.378  1.00  0.00     0.003 C 
ATOM     23  C   UNL     1      15.160  25.082  43.262  1.00  0.00     0.010 C 
ATOM     24  C   UNL     1      13.998  23.152  42.137  1.00  0.00     0.012 C 
ATOM     25  C   UNL     1      17.272  24.214  41.492  1.00  0.00    -0.006 C 
ATOM     26  C   UNL     1      16.540  25.683  43.523  1.00  0.00     0.033 C 
ATOM     27  C   UNL     1      17.489  25.540  42.316  1.00  0.00     0.120 C 
ATOM     28  C   UNL     1      16.407  24.529  40.235  1.00  0.00     0.014 C 
ATOM     29  C   UNL     1      18.628  23.702  40.918  1.00  0.00     0.014 C 
ENDROOT
BRANCH   1  30
ATOM     30  C   UNL     1      16.752  20.358  50.074  1.00  0.00     0.048 C 
ATOM     31  O   UNL     1      17.833  20.917  49.764  1.00  0.00    -0.550 OA
ATOM     32  O   UNL     1      16.706  19.620  51.259  1.00  0.00    -0.550 OA
ENDBRANCH   1  30
BRANCH  27  33
ATOM     33  O   UNL     1      18.812  25.647  42.781  1.00  0.00    -0.393 OA
ATOM     34  H   UNL     1      19.259  26.351  42.237  1.00  0.00     0.210 HD
ENDBRANCH  27  33
TORSDOF 2
ENDMDL
MODEL 9
REMARK VINA RESULT:    -6.186      7.287     11.040
REMARK INTER + INTRA:          -6.823
REMARK INTER:                  -6.643
REMARK INTRA:                  -0.180
REMARK UNBOUND:                -0.095
REMARK SMILES C[C@@H]1[C@H](C)CC[C@@]2(C(=O)[O-])CC[C@@]3(C)C(=CC[C@@H]4[C@@]5(C)CC[C@@H](O)C(C)(C)[C@H]5CC[C@]43C)[C@@H]12
REMARK SMILES IDX 7 1 6 2 11 3 33 4 5 5 12 6 15 7 2 8 3 9 13 10 16 11 1 12
REMARK SMILES IDX 4 13 14 14 31 15 17 16 18 17 30 18 32 19 19 20 29 21 28 22
REMARK SMILES IDX 21 23 20 24 25 25 22 26 23 27 26 28 27 29 8 30 9 31 10 32
REMARK SMILES IDX 24 33
REMARK H PARENT 24 34
REMARK Flexibility Score: inf
ROOT
ATOM      1  C   UNL     1      14.960  21.447  47.732  1.00  0.00     0.017 C 
ATOM      2  C   UNL     1      14.114  20.151  47.680  1.00  0.00     0.014 C 
ATOM      3  C   UNL     1      14.022  22.662  47.416  1.00  0.00     0.014 C 
ATOM      4  C   UNL     1      15.653  21.513  49.157  1.00  0.00     0.030 C 
ATOM      5  C   UNL     1      14.959  18.874  47.671  1.00  0.00     0.004 C 
ATOM      6  C   UNL     1      14.251  23.848  48.346  1.00  0.00     0.013 C 
ATOM      7  C   UNL     1      14.799  22.257  50.232  1.00  0.00    -0.063 C 
ATOM      8  C   UNL     1      16.187  20.102  49.649  1.00  0.00    -0.003 C 
ATOM      9  C   UNL     1      16.187  18.908  48.624  1.00  0.00    -0.011 C 
ATOM     10  C   UNL     1      13.979  23.502  49.843  1.00  0.00    -0.006 C 
ATOM     11  C   UNL     1      14.852  21.942  51.559  1.00  0.00    -0.027 C 
ATOM     12  C   UNL     1      17.546  20.280  50.363  1.00  0.00     0.008 C 
ATOM     13  C   UNL     1      17.506  18.654  47.854  1.00  0.00     0.008 C 
ATOM     14  C   UNL     1      12.475  23.035  49.932  1.00  0.00     0.017 C 
ATOM     15  C   UNL     1      14.295  24.780  50.830  1.00  0.00    -0.020 C 
ATOM     16  C   UNL     1      14.397  22.929  52.602  1.00  0.00     0.032 C 
ATOM     17  C   UNL     1      14.952  24.303  52.190  1.00  0.00     0.006 C 
ATOM     18  C   UNL     1      15.353  25.755  50.238  1.00  0.00     0.008 C 
ATOM     19  C   UNL     1      12.976  25.602  51.003  1.00  0.00     0.012 C 
ATOM     20  C   UNL     1      15.144  25.387  53.334  1.00  0.00    -0.025 C 
ATOM     21  C   UNL     1      15.976  26.775  51.227  1.00  0.00     0.005 C 
ATOM     22  C   UNL     1      15.477  26.825  52.715  1.00  0.00     0.003 C 
ATOM     23  C   UNL     1      16.309  24.919  54.288  1.00  0.00     0.010 C 
ATOM     24  C   UNL     1      13.850  25.453  54.198  1.00  0.00     0.012 C 
ATOM     25  C   UNL     1      16.451  27.723  53.606  1.00  0.00    -0.006 C 
ATOM     26  C   UNL     1      17.680  25.432  53.851  1.00  0.00     0.033 C 
ATOM     27  C   UNL     1      17.795  26.968  53.934  1.00  0.00     0.120 C 
ATOM     28  C   UNL     1      15.753  28.127  54.940  1.00  0.00     0.014 C 
ATOM     29  C   UNL     1      16.747  29.077  52.892  1.00  0.00     0.014 C 
ENDROOT
BRANCH   1  30
ATOM     30  C   UNL     1      15.994  21.429  46.608  1.00  0.00     0.048 C 
ATOM     31  O   UNL     1      17.107  21.998  46.732  1.00  0.00    -0.550 OA
ATOM     32  O   UNL     1      15.667  20.880  45.367  1.00  0.00    -0.550 OA
ENDBRANCH   1  30
BRANCH  27  33
ATOM     33  O   UNL     1      18.837  27.379  53.084  1.00  0.00    -0.393 OA
ATOM     34  H   UNL     1      19.224  28.210  53.473  1.00  0.00     0.210 HD
ENDBRANCH  27  33
TORSDOF 2
ENDMDL
