MODEL 1
REMARK VINA RESULT:    -3.954      0.000      0.000
REMARK INTER + INTRA:         -10.067
REMARK INTER:                  -7.652
REMARK INTRA:                  -2.415
REMARK UNBOUND:                -2.415
REMARK SMILES CCCCCCCCCCCCCCCCCC(=O)[O-]
REMARK SMILES IDX 10 1 11 2 12 3 13 4 14 5 15 6 16 7 17 8 18 9 19 10 20 11
REMARK SMILES IDX 9 12 8 13 7 14 6 15 5 16 4 17 3 18 2 19 1 20
REMARK H PARENT
REMARK Flexibility Score: inf
ROOT
ATOM      1  C   UNL     1       5.472   1.078 400.502  1.00  0.00     0.000 C 
ENDROOT
BRANCH   1   2
ATOM      2  C   UNL     1       4.076   1.722 400.556  1.00  0.00     0.000 C 
BRANCH   2   3
ATOM      3  C   UNL     1       3.835   2.573 401.821  1.00  0.00     0.000 C 
BRANCH   3   4
ATOM      4  C   UNL     1       5.013   2.488 402.808  1.00  0.00     0.000 C 
BRANCH   4   5
ATOM      5  C   UNL     1       4.724   1.555 403.995  1.00  0.00     0.000 C 
BRANCH   5   6
ATOM      6  C   UNL     1       5.871   0.564 404.262  1.00  0.00     0.000 C 
BRANCH   6   7
ATOM      7  C   UNL     1       5.579  -0.839 403.708  1.00  0.00     0.006 C 
BRANCH   7   8
ATOM      8  C   UNL     1       4.083  -1.179 403.720  1.00  0.00     0.053 C 
BRANCH   8   9
ATOM      9  C   UNL     1       3.831  -2.398 404.549  1.00  0.00     0.041 C 
ATOM     10  O   UNL     1       4.743  -3.251 404.713  1.00  0.00    -0.550 OA
ATOM     11  O   UNL     1       2.607  -2.569 405.181  1.00  0.00    -0.550 OA
ENDBRANCH   8   9
ENDBRANCH   7   8
ENDBRANCH   6   7
ENDBRANCH   5   6
ENDBRANCH   4   5
ENDBRANCH   3   4
ENDBRANCH   2   3
ENDBRANCH   1   2
BRANCH   1  12
ATOM     12  C   UNL     1       5.458  -0.325 399.875  1.00  0.00     0.000 C 
BRANCH  12  13
ATOM     13  C   UNL     1       4.065  -0.980 399.897  1.00  0.00    -0.000 C 
BRANCH  13  14
ATOM     14  C   UNL     1       4.034  -2.434 400.399  1.00  0.00    -0.000 C 
BRANCH  14  15
ATOM     15  C   UNL     1       5.435  -2.987 400.720  1.00  0.00    -0.000 C 
BRANCH  15  16
ATOM     16  C   UNL     1       5.392  -4.398 401.328  1.00  0.00    -0.000 C 
BRANCH  16  17
ATOM     17  C   UNL     1       3.966  -4.831 401.712  1.00  0.00    -0.000 C 
BRANCH  17  18
ATOM     18  C   UNL     1       3.935  -6.192 402.423  1.00  0.00    -0.000 C 
BRANCH  18  19
ATOM     19  C   UNL     1       4.115  -7.371 401.456  1.00  0.00    -0.003 C 
ATOM     20  C   UNL     1       5.368  -8.174 401.795  1.00  0.00     0.004 C 
ENDBRANCH  18  19
ENDBRANCH  17  18
ENDBRANCH  16  17
ENDBRANCH  15  16
ENDBRANCH  14  15
ENDBRANCH  13  14
ENDBRANCH  12  13
ENDBRANCH   1  12
TORSDOF 16
ENDMDL
MODEL 2
REMARK VINA RESULT:    -3.935      2.151      5.364
REMARK INTER + INTRA:         -10.030
REMARK INTER:                  -7.354
REMARK INTRA:                  -2.676
REMARK UNBOUND:                -2.415
REMARK SMILES CCCCCCCCCCCCCCCCCC(=O)[O-]
REMARK SMILES IDX 10 1 11 2 12 3 13 4 14 5 15 6 16 7 17 8 18 9 19 10 20 11
REMARK SMILES IDX 9 12 8 13 7 14 6 15 5 16 4 17 3 18 2 19 1 20
REMARK H PARENT
REMARK Flexibility Score: inf
ROOT
ATOM      1  C   UNL     1       3.731   0.728 400.528  1.00  0.00     0.000 C 
ENDROOT
BRANCH   1   2
ATOM      2  C   UNL     1       5.056   0.076 400.098  1.00  0.00     0.000 C 
BRANCH   2   3
ATOM      3  C   UNL     1       5.078  -1.457 400.274  1.00  0.00     0.000 C 
BRANCH   3   4
ATOM      4  C   UNL     1       3.667  -2.069 400.190  1.00  0.00     0.000 C 
BRANCH   4   5
ATOM      5  C   UNL     1       3.530  -3.354 401.020  1.00  0.00     0.000 C 
BRANCH   5   6
ATOM      6  C   UNL     1       4.880  -3.851 401.570  1.00  0.00     0.000 C 
BRANCH   6   7
ATOM      7  C   UNL     1       4.726  -5.060 402.505  1.00  0.00     0.006 C 
BRANCH   7   8
ATOM      8  C   UNL     1       3.752  -6.111 401.957  1.00  0.00     0.053 C 
BRANCH   8   9
ATOM      9  C   UNL     1       4.473  -7.386 401.659  1.00  0.00     0.041 C 
ATOM     10  O   UNL     1       5.685  -7.364 401.315  1.00  0.00    -0.550 OA
ATOM     11  O   UNL     1       3.823  -8.605 401.809  1.00  0.00    -0.550 OA
ENDBRANCH   8   9
ENDBRANCH   7   8
ENDBRANCH   6   7
ENDBRANCH   5   6
ENDBRANCH   4   5
ENDBRANCH   3   4
ENDBRANCH   2   3
ENDBRANCH   1   2
BRANCH   1  12
ATOM     12  C   UNL     1       3.908   2.179 401.005  1.00  0.00     0.000 C 
BRANCH  12  13
ATOM     13  C   UNL     1       4.051   2.298 402.533  1.00  0.00    -0.000 C 
BRANCH  13  14
ATOM     14  C   UNL     1       5.395   2.866 403.022  1.00  0.00    -0.000 C 
BRANCH  14  15
ATOM     15  C   UNL     1       6.144   1.907 403.965  1.00  0.00    -0.000 C 
BRANCH  15  16
ATOM     16  C   UNL     1       6.981   0.863 403.209  1.00  0.00    -0.000 C 
BRANCH  16  17
ATOM     17  C   UNL     1       6.502  -0.576 403.468  1.00  0.00    -0.000 C 
BRANCH  17  18
ATOM     18  C   UNL     1       5.363  -0.642 404.497  1.00  0.00    -0.000 C 
BRANCH  18  19
ATOM     19  C   UNL     1       4.041  -1.129 403.885  1.00  0.00    -0.003 C 
ATOM     20  C   UNL     1       3.199  -1.873 404.918  1.00  0.00     0.004 C 
ENDBRANCH  18  19
ENDBRANCH  17  18
ENDBRANCH  16  17
ENDBRANCH  15  16
ENDBRANCH  14  15
ENDBRANCH  13  14
ENDBRANCH  12  13
ENDBRANCH   1  12
TORSDOF 16
ENDMDL
MODEL 3
REMARK VINA RESULT:    -3.903      2.932      4.738
REMARK INTER + INTRA:          -9.969
REMARK INTER:                  -7.272
REMARK INTRA:                  -2.697
REMARK UNBOUND:                -2.415
REMARK SMILES CCCCCCCCCCCCCCCCCC(=O)[O-]
REMARK SMILES IDX 10 1 11 2 12 3 13 4 14 5 15 6 16 7 17 8 18 9 19 10 20 11
REMARK SMILES IDX 9 12 8 13 7 14 6 15 5 16 4 17 3 18 2 19 1 20
REMARK H PARENT
REMARK Flexibility Score: inf
ROOT
ATOM      1  C   UNL     1       5.402   1.018 404.010  1.00  0.00     0.000 C 
ENDROOT
BRANCH   1   2
ATOM      2  C   UNL     1       4.132   1.564 403.335  1.00  0.00     0.000 C 
BRANCH   2   3
ATOM      3  C   UNL     1       4.417   2.573 402.202  1.00  0.00     0.000 C 
BRANCH   3   4
ATOM      4  C   UNL     1       3.677   2.207 400.903  1.00  0.00     0.000 C 
BRANCH   4   5
ATOM      5  C   UNL     1       3.532   0.689 400.712  1.00  0.00     0.000 C 
BRANCH   5   6
ATOM      6  C   UNL     1       4.577   0.112 399.740  1.00  0.00     0.000 C 
BRANCH   6   7
ATOM      7  C   UNL     1       5.898  -0.244 400.438  1.00  0.00     0.006 C 
BRANCH   7   8
ATOM      8  C   UNL     1       7.039   0.713 400.067  1.00  0.00     0.053 C 
BRANCH   8   9
ATOM      9  C   UNL     1       7.700   0.271 398.801  1.00  0.00     0.041 C 
ATOM     10  O   UNL     1       7.554   0.938 397.743  1.00  0.00    -0.550 OA
ATOM     11  O   UNL     1       8.519  -0.851 398.798  1.00  0.00    -0.550 OA
ENDBRANCH   8   9
ENDBRANCH   7   8
ENDBRANCH   6   7
ENDBRANCH   5   6
ENDBRANCH   4   5
ENDBRANCH   3   4
ENDBRANCH   2   3
ENDBRANCH   1   2
BRANCH   1  12
ATOM     12  C   UNL     1       5.339  -0.496 404.262  1.00  0.00     0.000 C 
BRANCH  12  13
ATOM     13  C   UNL     1       3.990  -1.119 403.857  1.00  0.00    -0.000 C 
BRANCH  13  14
ATOM     14  C   UNL     1       3.252  -1.868 404.981  1.00  0.00    -0.000 C 
BRANCH  14  15
ATOM     15  C   UNL     1       2.793  -3.276 404.562  1.00  0.00    -0.000 C 
BRANCH  15  16
ATOM     16  C   UNL     1       3.967  -4.237 404.318  1.00  0.00    -0.000 C 
BRANCH  16  17
ATOM     17  C   UNL     1       4.000  -4.773 402.876  1.00  0.00    -0.000 C 
BRANCH  17  18
ATOM     18  C   UNL     1       5.144  -4.167 402.048  1.00  0.00    -0.000 C 
BRANCH  18  19
ATOM     19  C   UNL     1       4.650  -3.496 400.758  1.00  0.00    -0.003 C 
ATOM     20  C   UNL     1       3.152  -3.211 400.825  1.00  0.00     0.004 C 
ENDBRANCH  18  19
ENDBRANCH  17  18
ENDBRANCH  16  17
ENDBRANCH  15  16
ENDBRANCH  14  15
ENDBRANCH  13  14
ENDBRANCH  12  13
ENDBRANCH   1  12
TORSDOF 16
ENDMDL
MODEL 4
REMARK VINA RESULT:    -3.879      1.675      4.992
REMARK INTER + INTRA:          -9.923
REMARK INTER:                  -7.111
REMARK INTRA:                  -2.812
REMARK UNBOUND:                -2.415
REMARK SMILES CCCCCCCCCCCCCCCCCC(=O)[O-]
REMARK SMILES IDX 10 1 11 2 12 3 13 4 14 5 15 6 16 7 17 8 18 9 19 10 20 11
REMARK SMILES IDX 9 12 8 13 7 14 6 15 5 16 4 17 3 18 2 19 1 20
REMARK H PARENT
REMARK Flexibility Score: inf
ROOT
ATOM      1  C   UNL     1       3.358   0.612 400.458  1.00  0.00     0.000 C 
ENDROOT
BRANCH   1   2
ATOM      2  C   UNL     1       4.474  -0.169 399.744  1.00  0.00     0.000 C 
BRANCH   2   3
ATOM      3  C   UNL     1       4.751  -1.556 400.359  1.00  0.00     0.000 C 
BRANCH   3   4
ATOM      4  C   UNL     1       3.677  -1.957 401.388  1.00  0.00     0.000 C 
BRANCH   4   5
ATOM      5  C   UNL     1       3.264  -3.432 401.266  1.00  0.00     0.000 C 
BRANCH   5   6
ATOM      6  C   UNL     1       4.114  -4.361 402.151  1.00  0.00     0.000 C 
BRANCH   6   7
ATOM      7  C   UNL     1       4.671  -3.645 403.391  1.00  0.00     0.006 C 
BRANCH   7   8
ATOM      8  C   UNL     1       3.975  -4.081 404.687  1.00  0.00     0.053 C 
BRANCH   8   9
ATOM      9  C   UNL     1       2.931  -3.085 405.080  1.00  0.00     0.041 C 
ATOM     10  O   UNL     1       1.788  -3.124 404.553  1.00  0.00    -0.550 OA
ATOM     11  O   UNL     1       3.203  -2.143 406.063  1.00  0.00    -0.550 OA
ENDBRANCH   8   9
ENDBRANCH   7   8
ENDBRANCH   6   7
ENDBRANCH   5   6
ENDBRANCH   4   5
ENDBRANCH   3   4
ENDBRANCH   2   3
ENDBRANCH   1   2
BRANCH   1  12
ATOM     12  C   UNL     1       3.652   2.118 400.555  1.00  0.00     0.000 C 
BRANCH  12  13
ATOM     13  C   UNL     1       4.016   2.570 401.981  1.00  0.00    -0.000 C 
BRANCH  13  14
ATOM     14  C   UNL     1       3.869   1.489 403.067  1.00  0.00    -0.000 C 
BRANCH  14  15
ATOM     15  C   UNL     1       5.142   1.315 403.916  1.00  0.00    -0.000 C 
BRANCH  15  16
ATOM     16  C   UNL     1       5.540  -0.158 404.096  1.00  0.00    -0.000 C 
BRANCH  16  17
ATOM     17  C   UNL     1       6.746  -0.553 403.227  1.00  0.00    -0.000 C 
BRANCH  17  18
ATOM     18  C   UNL     1       7.175   0.569 402.268  1.00  0.00    -0.000 C 
BRANCH  18  19
ATOM     19  C   UNL     1       8.341   0.157 401.358  1.00  0.00    -0.003 C 
ATOM     20  C   UNL     1       8.070   0.548 399.907  1.00  0.00     0.004 C 
ENDBRANCH  18  19
ENDBRANCH  17  18
ENDBRANCH  16  17
ENDBRANCH  15  16
ENDBRANCH  14  15
ENDBRANCH  13  14
ENDBRANCH  12  13
ENDBRANCH   1  12
TORSDOF 16
ENDMDL
MODEL 5
REMARK VINA RESULT:    -3.852      2.064      5.344
REMARK INTER + INTRA:          -9.869
REMARK INTER:                  -7.470
REMARK INTRA:                  -2.399
REMARK UNBOUND:                -2.415
REMARK SMILES CCCCCCCCCCCCCCCCCC(=O)[O-]
REMARK SMILES IDX 10 1 11 2 12 3 13 4 14 5 15 6 16 7 17 8 18 9 19 10 20 11
REMARK SMILES IDX 9 12 8 13 7 14 6 15 5 16 4 17 3 18 2 19 1 20
REMARK H PARENT
REMARK Flexibility Score: inf
ROOT
ATOM      1  C   UNL     1       4.080   2.220 401.966  1.00  0.00     0.000 C 
ENDROOT
BRANCH   1   2
ATOM      2  C   UNL     1       3.598   1.937 400.533  1.00  0.00     0.000 C 
BRANCH   2   3
ATOM      3  C   UNL     1       3.345   0.441 400.249  1.00  0.00     0.000 C 
BRANCH   3   4
ATOM      4  C   UNL     1       4.625  -0.287 399.800  1.00  0.00     0.000 C 
BRANCH   4   5
ATOM      5  C   UNL     1       4.746  -1.695 400.403  1.00  0.00     0.000 C 
BRANCH   5   6
ATOM      6  C   UNL     1       3.514  -2.571 400.114  1.00  0.00     0.000 C 
BRANCH   6   7
ATOM      7  C   UNL     1       3.147  -3.480 401.297  1.00  0.00     0.006 C 
BRANCH   7   8
ATOM      8  C   UNL     1       3.832  -3.056 402.602  1.00  0.00     0.053 C 
BRANCH   8   9
ATOM      9  C   UNL     1       4.016  -4.236 403.502  1.00  0.00     0.041 C 
ATOM     10  O   UNL     1       4.311  -4.067 404.715  1.00  0.00    -0.550 OA
ATOM     11  O   UNL     1       3.816  -5.521 403.016  1.00  0.00    -0.550 OA
ENDBRANCH   8   9
ENDBRANCH   7   8
ENDBRANCH   6   7
ENDBRANCH   5   6
ENDBRANCH   4   5
ENDBRANCH   3   4
ENDBRANCH   2   3
ENDBRANCH   1   2
BRANCH   1  12
ATOM     12  C   UNL     1       3.648   1.136 402.965  1.00  0.00     0.000 C 
BRANCH  12  13
ATOM     13  C   UNL     1       4.839   0.434 403.644  1.00  0.00    -0.000 C 
BRANCH  13  14
ATOM     14  C   UNL     1       6.212   1.079 403.385  1.00  0.00    -0.000 C 
BRANCH  14  15
ATOM     15  C   UNL     1       7.160   0.169 402.584  1.00  0.00    -0.000 C 
BRANCH  15  16
ATOM     16  C   UNL     1       7.538   0.761 401.217  1.00  0.00    -0.000 C 
BRANCH  16  17
ATOM     17  C   UNL     1       8.600  -0.078 400.485  1.00  0.00    -0.000 C 
BRANCH  17  18
ATOM     18  C   UNL     1       8.378  -0.115 398.965  1.00  0.00    -0.000 C 
BRANCH  18  19
ATOM     19  C   UNL     1       7.544   1.071 398.459  1.00  0.00    -0.003 C 
ATOM     20  C   UNL     1       8.371   1.977 397.551  1.00  0.00     0.004 C 
ENDBRANCH  18  19
ENDBRANCH  17  18
ENDBRANCH  16  17
ENDBRANCH  15  16
ENDBRANCH  14  15
ENDBRANCH  13  14
ENDBRANCH  12  13
ENDBRANCH   1  12
TORSDOF 16
ENDMDL
MODEL 6
REMARK VINA RESULT:    -3.831      1.964      3.713
REMARK INTER + INTRA:          -9.829
REMARK INTER:                  -6.587
REMARK INTRA:                  -3.242
REMARK UNBOUND:                -2.415
REMARK SMILES CCCCCCCCCCCCCCCCCC(=O)[O-]
REMARK SMILES IDX 10 1 11 2 12 3 13 4 14 5 15 6 16 7 17 8 18 9 19 10 20 11
REMARK SMILES IDX 9 12 8 13 7 14 6 15 5 16 4 17 3 18 2 19 1 20
REMARK H PARENT
REMARK Flexibility Score: inf
ROOT
ATOM      1  C   UNL     1       3.625   0.248 401.097  1.00  0.00     0.000 C 
ENDROOT
BRANCH   1   2
ATOM      2  C   UNL     1       4.224   1.663 401.150  1.00  0.00     0.000 C 
BRANCH   2   3
ATOM      3  C   UNL     1       4.867   2.013 402.508  1.00  0.00     0.000 C 
BRANCH   3   4
ATOM      4  C   UNL     1       4.384   1.081 403.635  1.00  0.00     0.000 C 
BRANCH   4   5
ATOM      5  C   UNL     1       5.539   0.335 404.320  1.00  0.00     0.000 C 
BRANCH   5   6
ATOM      6  C   UNL     1       5.111  -1.036 404.876  1.00  0.00     0.000 C 
BRANCH   6   7
ATOM      7  C   UNL     1       3.659  -1.389 404.520  1.00  0.00     0.006 C 
BRANCH   7   8
ATOM      8  C   UNL     1       3.029  -2.370 405.517  1.00  0.00     0.053 C 
BRANCH   8   9
ATOM      9  C   UNL     1       3.611  -3.737 405.343  1.00  0.00     0.041 C 
ATOM     10  O   UNL     1       3.619  -4.283 404.208  1.00  0.00    -0.550 OA
ATOM     11  O   UNL     1       4.190  -4.390 406.424  1.00  0.00    -0.550 OA
ENDBRANCH   8   9
ENDBRANCH   7   8
ENDBRANCH   6   7
ENDBRANCH   5   6
ENDBRANCH   4   5
ENDBRANCH   3   4
ENDBRANCH   2   3
ENDBRANCH   1   2
BRANCH   1  12
ATOM     12  C   UNL     1       3.828  -0.435 399.735  1.00  0.00     0.000 C 
BRANCH  12  13
ATOM     13  C   UNL     1       3.830  -1.972 399.825  1.00  0.00    -0.000 C 
BRANCH  13  14
ATOM     14  C   UNL     1       4.037  -2.543 401.240  1.00  0.00    -0.000 C 
BRANCH  14  15
ATOM     15  C   UNL     1       5.326  -3.376 401.367  1.00  0.00    -0.000 C 
BRANCH  15  16
ATOM     16  C   UNL     1       6.558  -2.654 400.800  1.00  0.00    -0.000 C 
BRANCH  16  17
ATOM     17  C   UNL     1       7.120  -1.598 401.768  1.00  0.00    -0.000 C 
BRANCH  17  18
ATOM     18  C   UNL     1       7.469  -0.278 401.063  1.00  0.00    -0.000 C 
BRANCH  18  19
ATOM     19  C   UNL     1       7.501  -0.414 399.534  1.00  0.00    -0.003 C 
ATOM     20  C   UNL     1       7.165   0.912 398.857  1.00  0.00     0.004 C 
ENDBRANCH  18  19
ENDBRANCH  17  18
ENDBRANCH  16  17
ENDBRANCH  15  16
ENDBRANCH  14  15
ENDBRANCH  13  14
ENDBRANCH  12  13
ENDBRANCH   1  12
TORSDOF 16
ENDMDL
MODEL 7
REMARK VINA RESULT:    -3.819      2.073      5.484
REMARK INTER + INTRA:          -9.806
REMARK INTER:                  -7.379
REMARK INTRA:                  -2.427
REMARK UNBOUND:                -2.415
REMARK SMILES CCCCCCCCCCCCCCCCCC(=O)[O-]
REMARK SMILES IDX 10 1 11 2 12 3 13 4 14 5 15 6 16 7 17 8 18 9 19 10 20 11
REMARK SMILES IDX 9 12 8 13 7 14 6 15 5 16 4 17 3 18 2 19 1 20
REMARK H PARENT
REMARK Flexibility Score: inf
ROOT
ATOM      1  C   UNL     1       6.231   0.852 404.383  1.00  0.00     0.000 C 
ENDROOT
BRANCH   1   2
ATOM      2  C   UNL     1       5.901  -0.635 404.601  1.00  0.00     0.000 C 
BRANCH   2   3
ATOM      3  C   UNL     1       4.502  -1.041 404.093  1.00  0.00     0.000 C 
BRANCH   3   4
ATOM      4  C   UNL     1       3.994  -2.329 404.766  1.00  0.00     0.000 C 
BRANCH   4   5
ATOM      5  C   UNL     1       3.102  -3.168 403.838  1.00  0.00     0.000 C 
BRANCH   5   6
ATOM      6  C   UNL     1       3.458  -2.986 402.351  1.00  0.00     0.000 C 
BRANCH   6   7
ATOM      7  C   UNL     1       4.233  -4.183 401.779  1.00  0.00     0.006 C 
BRANCH   7   8
ATOM      8  C   UNL     1       4.031  -5.463 402.600  1.00  0.00     0.053 C 
BRANCH   8   9
ATOM      9  C   UNL     1       4.442  -6.662 401.807  1.00  0.00     0.041 C 
ATOM     10  O   UNL     1       5.598  -6.727 401.310  1.00  0.00    -0.550 OA
ATOM     11  O   UNL     1       3.568  -7.731 401.656  1.00  0.00    -0.550 OA
ENDBRANCH   8   9
ENDBRANCH   7   8
ENDBRANCH   6   7
ENDBRANCH   5   6
ENDBRANCH   4   5
ENDBRANCH   3   4
ENDBRANCH   2   3
ENDBRANCH   1   2
BRANCH   1  12
ATOM     12  C   UNL     1       5.011   1.672 403.935  1.00  0.00     0.000 C 
BRANCH  12  13
ATOM     13  C   UNL     1       5.209   2.345 402.564  1.00  0.00    -0.000 C 
BRANCH  13  14
ATOM     14  C   UNL     1       3.912   2.772 401.853  1.00  0.00    -0.000 C 
BRANCH  14  15
ATOM     15  C   UNL     1       3.676   2.018 400.532  1.00  0.00    -0.000 C 
BRANCH  15  16
ATOM     16  C   UNL     1       3.554   0.499 400.728  1.00  0.00    -0.000 C 
BRANCH  16  17
ATOM     17  C   UNL     1       4.603  -0.285 399.919  1.00  0.00    -0.000 C 
BRANCH  17  18
ATOM     18  C   UNL     1       5.807  -0.713 400.773  1.00  0.00    -0.000 C 
BRANCH  18  19
ATOM     19  C   UNL     1       7.121  -0.069 400.308  1.00  0.00    -0.003 C 
ATOM     20  C   UNL     1       6.897   0.812 399.081  1.00  0.00     0.004 C 
ENDBRANCH  18  19
ENDBRANCH  17  18
ENDBRANCH  16  17
ENDBRANCH  15  16
ENDBRANCH  14  15
ENDBRANCH  13  14
ENDBRANCH  12  13
ENDBRANCH   1  12
TORSDOF 16
ENDMDL
MODEL 8
REMARK VINA RESULT:    -3.812      2.136      5.306
REMARK INTER + INTRA:          -9.792
REMARK INTER:                  -7.156
REMARK INTRA:                  -2.637
REMARK UNBOUND:                -2.415
REMARK SMILES CCCCCCCCCCCCCCCCCC(=O)[O-]
REMARK SMILES IDX 10 1 11 2 12 3 13 4 14 5 15 6 16 7 17 8 18 9 19 10 20 11
REMARK SMILES IDX 9 12 8 13 7 14 6 15 5 16 4 17 3 18 2 19 1 20
REMARK H PARENT
REMARK Flexibility Score: inf
ROOT
ATOM      1  C   UNL     1       4.993  -0.314 400.003  1.00  0.00     0.000 C 
ENDROOT
BRANCH   1   2
ATOM      2  C   UNL     1       4.945  -1.787 400.444  1.00  0.00     0.000 C 
BRANCH   2   3
ATOM      3  C   UNL     1       3.613  -2.491 400.112  1.00  0.00     0.000 C 
BRANCH   3   4
ATOM      4  C   UNL     1       3.154  -3.426 401.246  1.00  0.00     0.000 C 
BRANCH   4   5
ATOM      5  C   UNL     1       4.229  -4.449 401.640  1.00  0.00     0.000 C 
BRANCH   5   6
ATOM      6  C   UNL     1       4.007  -5.029 403.048  1.00  0.00     0.000 C 
BRANCH   6   7
ATOM      7  C   UNL     1       5.262  -4.933 403.930  1.00  0.00     0.006 C 
BRANCH   7   8
ATOM      8  C   UNL     1       5.224  -5.903 405.118  1.00  0.00     0.053 C 
BRANCH   8   9
ATOM      9  C   UNL     1       5.564  -7.289 404.672  1.00  0.00     0.041 C 
ATOM     10  O   UNL     1       6.568  -7.490 403.938  1.00  0.00    -0.550 OA
ATOM     11  O   UNL     1       4.803  -8.367 405.105  1.00  0.00    -0.550 OA
ENDBRANCH   8   9
ENDBRANCH   7   8
ENDBRANCH   6   7
ENDBRANCH   5   6
ENDBRANCH   4   5
ENDBRANCH   3   4
ENDBRANCH   2   3
ENDBRANCH   1   2
BRANCH   1  12
ATOM     12  C   UNL     1       3.640   0.398 400.157  1.00  0.00     0.000 C 
BRANCH  12  13
ATOM     13  C   UNL     1       3.752   1.758 400.871  1.00  0.00    -0.000 C 
BRANCH  13  14
ATOM     14  C   UNL     1       5.060   1.979 401.652  1.00  0.00    -0.000 C 
BRANCH  14  15
ATOM     15  C   UNL     1       4.822   2.470 403.092  1.00  0.00    -0.000 C 
BRANCH  15  16
ATOM     16  C   UNL     1       4.948   1.347 404.132  1.00  0.00    -0.000 C 
BRANCH  16  17
ATOM     17  C   UNL     1       5.740   0.139 403.601  1.00  0.00    -0.000 C 
BRANCH  17  18
ATOM     18  C   UNL     1       5.213  -1.198 404.145  1.00  0.00    -0.000 C 
BRANCH  18  19
ATOM     19  C   UNL     1       3.679  -1.276 404.140  1.00  0.00    -0.003 C 
ATOM     20  C   UNL     1       3.169  -2.148 405.284  1.00  0.00     0.004 C 
ENDBRANCH  18  19
ENDBRANCH  17  18
ENDBRANCH  16  17
ENDBRANCH  15  16
ENDBRANCH  14  15
ENDBRANCH  13  14
ENDBRANCH  12  13
ENDBRANCH   1  12
TORSDOF 16
ENDMDL
MODEL 9
REMARK VINA RESULT:    -3.766      1.379      2.955
REMARK INTER + INTRA:          -9.703
REMARK INTER:                  -7.004
REMARK INTRA:                  -2.699
REMARK UNBOUND:                -2.415
REMARK SMILES CCCCCCCCCCCCCCCCCC(=O)[O-]
REMARK SMILES IDX 10 1 11 2 12 3 13 4 14 5 15 6 16 7 17 8 18 9 19 10 20 11
REMARK SMILES IDX 9 12 8 13 7 14 6 15 5 16 4 17 3 18 2 19 1 20
REMARK H PARENT
REMARK Flexibility Score: inf
ROOT
ATOM      1  C   UNL     1       4.688   1.928 402.850  1.00  0.00     0.000 C 
ENDROOT
BRANCH   1   2
ATOM      2  C   UNL     1       6.059   2.523 403.213  1.00  0.00     0.000 C 
BRANCH   2   3
ATOM      3  C   UNL     1       7.147   1.461 403.472  1.00  0.00     0.000 C 
BRANCH   3   4
ATOM      4  C   UNL     1       7.127   0.342 402.415  1.00  0.00     0.000 C 
BRANCH   4   5
ATOM      5  C   UNL     1       7.248  -1.059 403.034  1.00  0.00     0.000 C 
BRANCH   5   6
ATOM      6  C   UNL     1       6.575  -1.156 404.415  1.00  0.00     0.000 C 
BRANCH   6   7
ATOM      7  C   UNL     1       5.342  -2.073 404.408  1.00  0.00     0.006 C 
BRANCH   7   8
ATOM      8  C   UNL     1       4.047  -1.322 404.741  1.00  0.00     0.053 C 
BRANCH   8   9
ATOM      9  C   UNL     1       3.116  -2.203 405.510  1.00  0.00     0.041 C 
ATOM     10  O   UNL     1       2.291  -2.937 404.903  1.00  0.00    -0.550 OA
ATOM     11  O   UNL     1       3.190  -2.253 406.896  1.00  0.00    -0.550 OA
ENDBRANCH   8   9
ENDBRANCH   7   8
ENDBRANCH   6   7
ENDBRANCH   5   6
ENDBRANCH   4   5
ENDBRANCH   3   4
ENDBRANCH   2   3
ENDBRANCH   1   2
BRANCH   1  12
ATOM     12  C   UNL     1       3.926   2.772 401.817  1.00  0.00     0.000 C 
BRANCH  12  13
ATOM     13  C   UNL     1       3.569   1.987 400.542  1.00  0.00    -0.000 C 
BRANCH  13  14
ATOM     14  C   UNL     1       4.593   0.916 400.126  1.00  0.00    -0.000 C 
BRANCH  14  15
ATOM     15  C   UNL     1       3.950  -0.459 399.865  1.00  0.00    -0.000 C 
BRANCH  15  16
ATOM     16  C   UNL     1       3.919  -1.348 401.118  1.00  0.00    -0.000 C 
BRANCH  16  17
ATOM     17  C   UNL     1       4.115  -2.838 400.788  1.00  0.00    -0.000 C 
BRANCH  17  18
ATOM     18  C   UNL     1       5.580  -3.187 400.482  1.00  0.00    -0.000 C 
BRANCH  18  19
ATOM     19  C   UNL     1       6.154  -4.230 401.451  1.00  0.00    -0.003 C 
ATOM     20  C   UNL     1       5.126  -5.313 401.767  1.00  0.00     0.004 C 
ENDBRANCH  18  19
ENDBRANCH  17  18
ENDBRANCH  16  17
ENDBRANCH  15  16
ENDBRANCH  14  15
ENDBRANCH  13  14
ENDBRANCH  12  13
ENDBRANCH   1  12
TORSDOF 16
ENDMDL
