MODEL 1
REMARK VINA RESULT:    -4.605      0.000      0.000
REMARK INTER + INTRA:         -10.143
REMARK INTER:                  -8.374
REMARK INTRA:                  -1.769
REMARK UNBOUND:                -1.769
REMARK SMILES CCCCCCCCCCCCCCCC(=O)[O-]
REMARK SMILES IDX 9 1 10 2 11 3 12 4 13 5 14 6 15 7 16 8 17 9 18 10 8 11 7 12
REMARK SMILES IDX 6 13 5 14 4 15 3 16 2 17 1 18
REMARK H PARENT
REMARK Flexibility Score: inf
ROOT
ATOM      1  C   UNL     1      15.224   2.660   0.481  1.00  0.00     0.000 C 
ENDROOT
BRANCH   1   2
ATOM      2  C   UNL     1      14.815   3.090   1.900  1.00  0.00     0.000 C 
BRANCH   2   3
ATOM      3  C   UNL     1      13.308   3.352   2.095  1.00  0.00     0.000 C 
BRANCH   3   4
ATOM      4  C   UNL     1      12.871   4.817   1.914  1.00  0.00     0.000 C 
BRANCH   4   5
ATOM      5  C   UNL     1      11.351   4.971   1.755  1.00  0.00     0.000 C 
BRANCH   5   6
ATOM      6  C   UNL     1      10.836   4.142   0.573  1.00  0.00     0.006 C 
BRANCH   6   7
ATOM      7  C   UNL     1       9.383   4.497   0.245  1.00  0.00     0.053 C 
BRANCH   7   8
ATOM      8  C   UNL     1       9.326   5.684  -0.665  1.00  0.00     0.041 C 
ATOM      9  O   UNL     1       8.950   6.802  -0.225  1.00  0.00    -0.550 OA
ATOM     10  O   UNL     1       9.640   5.543  -2.010  1.00  0.00    -0.550 OA
ENDBRANCH   7   8
ENDBRANCH   6   7
ENDBRANCH   5   6
ENDBRANCH   4   5
ENDBRANCH   3   4
ENDBRANCH   2   3
ENDBRANCH   1   2
BRANCH   1  11
ATOM     11  C   UNL     1      15.643   3.843  -0.403  1.00  0.00     0.000 C 
BRANCH  11  12
ATOM     12  C   UNL     1      14.903   3.815  -1.749  1.00  0.00    -0.000 C 
BRANCH  12  13
ATOM     13  C   UNL     1      13.465   3.273  -1.623  1.00  0.00    -0.000 C 
BRANCH  13  14
ATOM     14  C   UNL     1      13.172   2.048  -2.511  1.00  0.00    -0.000 C 
BRANCH  14  15
ATOM     15  C   UNL     1      12.768   0.783  -1.727  1.00  0.00    -0.000 C 
BRANCH  15  16
ATOM     16  C   UNL     1      13.960  -0.162  -1.488  1.00  0.00    -0.000 C 
BRANCH  16  17
ATOM     17  C   UNL     1      15.176   0.192  -2.356  1.00  0.00    -0.003 C 
ATOM     18  C   UNL     1      15.373  -0.777  -3.521  1.00  0.00     0.004 C 
ENDBRANCH  16  17
ENDBRANCH  15  16
ENDBRANCH  14  15
ENDBRANCH  13  14
ENDBRANCH  12  13
ENDBRANCH  11  12
ENDBRANCH   1  11
TORSDOF 14
ENDMDL
MODEL 2
REMARK VINA RESULT:    -4.472      2.440      5.418
REMARK INTER + INTRA:          -9.901
REMARK INTER:                  -7.811
REMARK INTRA:                  -2.090
REMARK UNBOUND:                -1.769
REMARK SMILES CCCCCCCCCCCCCCCC(=O)[O-]
REMARK SMILES IDX 9 1 10 2 11 3 12 4 13 5 14 6 15 7 16 8 17 9 18 10 8 11 7 12
REMARK SMILES IDX 6 13 5 14 4 15 3 16 2 17 1 18
REMARK H PARENT
REMARK Flexibility Score: inf
ROOT
ATOM      1  C   UNL     1      15.341   3.429  -1.327  1.00  0.00     0.000 C 
ENDROOT
BRANCH   1   2
ATOM      2  C   UNL     1      16.305   2.232  -1.265  1.00  0.00     0.000 C 
BRANCH   2   3
ATOM      3  C   UNL     1      15.911   1.030  -2.147  1.00  0.00     0.000 C 
BRANCH   3   4
ATOM      4  C   UNL     1      14.417   0.661  -2.118  1.00  0.00     0.000 C 
BRANCH   4   5
ATOM      5  C   UNL     1      13.979   0.049  -0.779  1.00  0.00     0.000 C 
BRANCH   5   6
ATOM      6  C   UNL     1      12.566   0.507  -0.402  1.00  0.00     0.006 C 
BRANCH   6   7
ATOM      7  C   UNL     1      12.102   1.655  -1.302  1.00  0.00     0.053 C 
BRANCH   7   8
ATOM      8  C   UNL     1      11.402   2.704  -0.496  1.00  0.00     0.041 C 
ATOM      9  O   UNL     1      10.973   3.749  -1.052  1.00  0.00    -0.550 OA
ATOM     10  O   UNL     1      11.270   2.551   0.878  1.00  0.00    -0.550 OA
ENDBRANCH   7   8
ENDBRANCH   6   7
ENDBRANCH   5   6
ENDBRANCH   4   5
ENDBRANCH   3   4
ENDBRANCH   2   3
ENDBRANCH   1   2
BRANCH   1  11
ATOM     11  C   UNL     1      14.893   3.906   0.062  1.00  0.00     0.000 C 
BRANCH  11  12
ATOM     12  C   UNL     1      15.378   2.945   1.158  1.00  0.00    -0.000 C 
BRANCH  12  13
ATOM     13  C   UNL     1      14.458   2.947   2.395  1.00  0.00    -0.000 C 
BRANCH  13  14
ATOM     14  C   UNL     1      14.050   1.542   2.881  1.00  0.00    -0.000 C 
BRANCH  14  15
ATOM     15  C   UNL     1      15.060   0.891   3.848  1.00  0.00    -0.000 C 
BRANCH  15  16
ATOM     16  C   UNL     1      15.747   1.925   4.759  1.00  0.00    -0.000 C 
BRANCH  16  17
ATOM     17  C   UNL     1      15.370   1.751   6.237  1.00  0.00    -0.003 C 
ATOM     18  C   UNL     1      13.861   1.798   6.471  1.00  0.00     0.004 C 
ENDBRANCH  16  17
ENDBRANCH  15  16
ENDBRANCH  14  15
ENDBRANCH  13  14
ENDBRANCH  12  13
ENDBRANCH  11  12
ENDBRANCH   1  11
TORSDOF 14
ENDMDL
MODEL 3
REMARK VINA RESULT:    -4.423     12.217     14.450
REMARK INTER + INTRA:          -9.811
REMARK INTER:                  -8.230
REMARK INTRA:                  -1.581
REMARK UNBOUND:                -1.769
REMARK SMILES CCCCCCCCCCCCCCCC(=O)[O-]
REMARK SMILES IDX 9 1 10 2 11 3 12 4 13 5 14 6 15 7 16 8 17 9 18 10 8 11 7 12
REMARK SMILES IDX 6 13 5 14 4 15 3 16 2 17 1 18
REMARK H PARENT
REMARK Flexibility Score: inf
ROOT
ATOM      1  C   UNL     1      15.050  17.508  -2.309  1.00  0.00     0.000 C 
ENDROOT
BRANCH   1   2
ATOM      2  C   UNL     1      14.571  18.754  -3.073  1.00  0.00     0.000 C 
BRANCH   2   3
ATOM      3  C   UNL     1      13.560  18.479  -4.205  1.00  0.00     0.000 C 
BRANCH   3   4
ATOM      4  C   UNL     1      13.640  17.072  -4.823  1.00  0.00     0.000 C 
BRANCH   4   5
ATOM      5  C   UNL     1      12.270  16.384  -4.919  1.00  0.00     0.000 C 
BRANCH   5   6
ATOM      6  C   UNL     1      12.112  15.320  -3.827  1.00  0.00     0.006 C 
BRANCH   6   7
ATOM      7  C   UNL     1      10.636  14.983  -3.598  1.00  0.00     0.053 C 
BRANCH   7   8
ATOM      8  C   UNL     1      10.399  13.517  -3.784  1.00  0.00     0.041 C 
ATOM      9  O   UNL     1       9.315  12.998  -3.407  1.00  0.00    -0.550 OA
ATOM     10  O   UNL     1      11.394  12.715  -4.327  1.00  0.00    -0.550 OA
ENDBRANCH   7   8
ENDBRANCH   6   7
ENDBRANCH   5   6
ENDBRANCH   4   5
ENDBRANCH   3   4
ENDBRANCH   2   3
ENDBRANCH   1   2
BRANCH   1  11
ATOM     11  C   UNL     1      14.140  17.146  -1.127  1.00  0.00     0.000 C 
BRANCH  11  12
ATOM     12  C   UNL     1      13.839  18.382  -0.265  1.00  0.00    -0.000 C 
BRANCH  12  13
ATOM     13  C   UNL     1      15.052  18.825   0.577  1.00  0.00    -0.000 C 
BRANCH  13  14
ATOM     14  C   UNL     1      15.367  17.898   1.768  1.00  0.00    -0.000 C 
BRANCH  14  15
ATOM     15  C   UNL     1      16.873  17.717   2.046  1.00  0.00    -0.000 C 
BRANCH  15  16
ATOM     16  C   UNL     1      17.733  17.972   0.794  1.00  0.00    -0.000 C 
BRANCH  16  17
ATOM     17  C   UNL     1      18.507  16.724   0.347  1.00  0.00    -0.003 C 
ATOM     18  C   UNL     1      17.704  15.840  -0.607  1.00  0.00     0.004 C 
ENDBRANCH  16  17
ENDBRANCH  15  16
ENDBRANCH  14  15
ENDBRANCH  13  14
ENDBRANCH  12  13
ENDBRANCH  11  12
ENDBRANCH   1  11
TORSDOF 14
ENDMDL
MODEL 4
REMARK VINA RESULT:    -4.414      1.167      2.077
REMARK INTER + INTRA:          -9.795
REMARK INTER:                  -7.859
REMARK INTRA:                  -1.936
REMARK UNBOUND:                -1.769
REMARK SMILES CCCCCCCCCCCCCCCC(=O)[O-]
REMARK SMILES IDX 9 1 10 2 11 3 12 4 13 5 14 6 15 7 16 8 17 9 18 10 8 11 7 12
REMARK SMILES IDX 6 13 5 14 4 15 3 16 2 17 1 18
REMARK H PARENT
REMARK Flexibility Score: inf
ROOT
ATOM      1  C   UNL     1      15.379   2.703   0.830  1.00  0.00     0.000 C 
ENDROOT
BRANCH   1   2
ATOM      2  C   UNL     1      14.574   3.328   1.982  1.00  0.00     0.000 C 
BRANCH   2   3
ATOM      3  C   UNL     1      13.641   4.486   1.574  1.00  0.00     0.000 C 
BRANCH   3   4
ATOM      4  C   UNL     1      12.183   4.348   2.048  1.00  0.00     0.000 C 
BRANCH   4   5
ATOM      5  C   UNL     1      11.213   5.239   1.258  1.00  0.00     0.000 C 
BRANCH   5   6
ATOM      6  C   UNL     1       9.811   4.619   1.214  1.00  0.00     0.006 C 
BRANCH   6   7
ATOM      7  C   UNL     1       8.892   5.407   0.277  1.00  0.00     0.053 C 
BRANCH   7   8
ATOM      8  C   UNL     1       8.841   4.763  -1.073  1.00  0.00     0.041 C 
ATOM      9  O   UNL     1       8.735   3.513  -1.174  1.00  0.00    -0.550 OA
ATOM     10  O   UNL     1       8.964   5.539  -2.218  1.00  0.00    -0.550 OA
ENDBRANCH   7   8
ENDBRANCH   6   7
ENDBRANCH   5   6
ENDBRANCH   4   5
ENDBRANCH   3   4
ENDBRANCH   2   3
ENDBRANCH   1   2
BRANCH   1  11
ATOM     11  C   UNL     1      15.625   3.683  -0.326  1.00  0.00     0.000 C 
BRANCH  11  12
ATOM     12  C   UNL     1      15.408   2.999  -1.685  1.00  0.00    -0.000 C 
BRANCH  12  13
ATOM     13  C   UNL     1      16.010   1.580  -1.735  1.00  0.00    -0.000 C 
BRANCH  13  14
ATOM     14  C   UNL     1      15.084   0.524  -2.371  1.00  0.00    -0.000 C 
BRANCH  14  15
ATOM     15  C   UNL     1      14.496  -0.487  -1.364  1.00  0.00    -0.000 C 
BRANCH  15  16
ATOM     16  C   UNL     1      13.236   0.052  -0.662  1.00  0.00    -0.000 C 
BRANCH  16  17
ATOM     17  C   UNL     1      12.333   0.857  -1.609  1.00  0.00    -0.003 C 
ATOM     18  C   UNL     1      11.926   2.211  -1.028  1.00  0.00     0.004 C 
ENDBRANCH  16  17
ENDBRANCH  15  16
ENDBRANCH  14  15
ENDBRANCH  13  14
ENDBRANCH  12  13
ENDBRANCH  11  12
ENDBRANCH   1  11
TORSDOF 14
ENDMDL
MODEL 5
REMARK VINA RESULT:    -4.363      2.234      4.726
REMARK INTER + INTRA:          -9.702
REMARK INTER:                  -8.144
REMARK INTRA:                  -1.558
REMARK UNBOUND:                -1.769
REMARK SMILES CCCCCCCCCCCCCCCC(=O)[O-]
REMARK SMILES IDX 9 1 10 2 11 3 12 4 13 5 14 6 15 7 16 8 17 9 18 10 8 11 7 12
REMARK SMILES IDX 6 13 5 14 4 15 3 16 2 17 1 18
REMARK H PARENT
REMARK Flexibility Score: inf
ROOT
ATOM      1  C   UNL     1      14.591   3.753  -1.375  1.00  0.00     0.000 C 
ENDROOT
BRANCH   1   2
ATOM      2  C   UNL     1      14.112   2.324  -1.687  1.00  0.00     0.000 C 
BRANCH   2   3
ATOM      3  C   UNL     1      12.619   2.060  -1.406  1.00  0.00     0.000 C 
BRANCH   3   4
ATOM      4  C   UNL     1      11.823   3.277  -0.903  1.00  0.00     0.000 C 
BRANCH   4   5
ATOM      5  C   UNL     1      11.407   3.150   0.570  1.00  0.00     0.000 C 
BRANCH   5   6
ATOM      6  C   UNL     1      11.721   4.436   1.342  1.00  0.00     0.006 C 
BRANCH   6   7
ATOM      7  C   UNL     1      10.469   4.982   2.033  1.00  0.00     0.053 C 
BRANCH   7   8
ATOM      8  C   UNL     1       9.388   5.240   1.032  1.00  0.00     0.041 C 
ATOM      9  O   UNL     1       8.333   4.553   1.048  1.00  0.00    -0.550 OA
ATOM     10  O   UNL     1       9.567   6.204   0.048  1.00  0.00    -0.550 OA
ENDBRANCH   7   8
ENDBRANCH   6   7
ENDBRANCH   5   6
ENDBRANCH   4   5
ENDBRANCH   3   4
ENDBRANCH   2   3
ENDBRANCH   1   2
BRANCH   1  11
ATOM     11  C   UNL     1      15.672   3.795  -0.287  1.00  0.00     0.000 C 
BRANCH  11  12
ATOM     12  C   UNL     1      15.470   2.665   0.735  1.00  0.00    -0.000 C 
BRANCH  12  13
ATOM     13  C   UNL     1      15.027   3.190   2.116  1.00  0.00    -0.000 C 
BRANCH  13  14
ATOM     14  C   UNL     1      14.346   2.130   3.004  1.00  0.00    -0.000 C 
BRANCH  14  15
ATOM     15  C   UNL     1      15.303   1.417   3.981  1.00  0.00    -0.000 C 
BRANCH  15  16
ATOM     16  C   UNL     1      14.729   1.336   5.408  1.00  0.00    -0.000 C 
BRANCH  16  17
ATOM     17  C   UNL     1      15.555   2.141   6.422  1.00  0.00    -0.003 C 
ATOM     18  C   UNL     1      17.059   2.029   6.180  1.00  0.00     0.004 C 
ENDBRANCH  16  17
ENDBRANCH  15  16
ENDBRANCH  14  15
ENDBRANCH  13  14
ENDBRANCH  12  13
ENDBRANCH  11  12
ENDBRANCH   1  11
TORSDOF 14
ENDMDL
MODEL 6
REMARK VINA RESULT:    -4.355      4.802      6.365
REMARK INTER + INTRA:          -9.687
REMARK INTER:                  -7.759
REMARK INTRA:                  -1.929
REMARK UNBOUND:                -1.769
REMARK SMILES CCCCCCCCCCCCCCCC(=O)[O-]
REMARK SMILES IDX 9 1 10 2 11 3 12 4 13 5 14 6 15 7 16 8 17 9 18 10 8 11 7 12
REMARK SMILES IDX 6 13 5 14 4 15 3 16 2 17 1 18
REMARK H PARENT
REMARK Flexibility Score: inf
ROOT
ATOM      1  C   UNL     1      15.287   3.847  -0.270  1.00  0.00     0.000 C 
ENDROOT
BRANCH   1   2
ATOM      2  C   UNL     1      15.391   2.922   0.955  1.00  0.00     0.000 C 
BRANCH   2   3
ATOM      3  C   UNL     1      14.575   3.372   2.184  1.00  0.00     0.000 C 
BRANCH   3   4
ATOM      4  C   UNL     1      14.010   2.230   3.046  1.00  0.00     0.000 C 
BRANCH   4   5
ATOM      5  C   UNL     1      15.107   1.359   3.677  1.00  0.00     0.000 C 
BRANCH   5   6
ATOM      6  C   UNL     1      15.108   1.498   5.203  1.00  0.00     0.006 C 
BRANCH   6   7
ATOM      7  C   UNL     1      16.445   2.052   5.703  1.00  0.00     0.053 C 
BRANCH   7   8
ATOM      8  C   UNL     1      17.153   1.035   6.542  1.00  0.00     0.041 C 
ATOM      9  O   UNL     1      16.897  -0.189   6.404  1.00  0.00    -0.550 OA
ATOM     10  O   UNL     1      18.060   1.444   7.511  1.00  0.00    -0.550 OA
ENDBRANCH   7   8
ENDBRANCH   6   7
ENDBRANCH   5   6
ENDBRANCH   4   5
ENDBRANCH   3   4
ENDBRANCH   2   3
ENDBRANCH   1   2
BRANCH   1  11
ATOM     11  C   UNL     1      15.423   3.093  -1.600  1.00  0.00     0.000 C 
BRANCH  11  12
ATOM     12  C   UNL     1      16.235   1.801  -1.420  1.00  0.00    -0.000 C 
BRANCH  12  13
ATOM     13  C   UNL     1      15.798   0.687  -2.393  1.00  0.00    -0.000 C 
BRANCH  13  14
ATOM     14  C   UNL     1      14.277   0.439  -2.426  1.00  0.00    -0.000 C 
BRANCH  14  15
ATOM     15  C   UNL     1      13.753  -0.421  -1.257  1.00  0.00    -0.000 C 
BRANCH  15  16
ATOM     16  C   UNL     1      13.044   0.422  -0.182  1.00  0.00    -0.000 C 
BRANCH  16  17
ATOM     17  C   UNL     1      12.224   1.574  -0.783  1.00  0.00    -0.003 C 
ATOM     18  C   UNL     1      11.463   2.372   0.276  1.00  0.00     0.004 C 
ENDBRANCH  16  17
ENDBRANCH  15  16
ENDBRANCH  14  15
ENDBRANCH  13  14
ENDBRANCH  12  13
ENDBRANCH  11  12
ENDBRANCH   1  11
TORSDOF 14
ENDMDL
MODEL 7
REMARK VINA RESULT:    -4.331      2.001      4.648
REMARK INTER + INTRA:          -9.644
REMARK INTER:                  -7.388
REMARK INTRA:                  -2.257
REMARK UNBOUND:                -1.769
REMARK SMILES CCCCCCCCCCCCCCCC(=O)[O-]
REMARK SMILES IDX 9 1 10 2 11 3 12 4 13 5 14 6 15 7 16 8 17 9 18 10 8 11 7 12
REMARK SMILES IDX 6 13 5 14 4 15 3 16 2 17 1 18
REMARK H PARENT
REMARK Flexibility Score: inf
ROOT
ATOM      1  C   UNL     1      16.121   1.877  -1.384  1.00  0.00     0.000 C 
ENDROOT
BRANCH   1   2
ATOM      2  C   UNL     1      15.474   0.708  -2.147  1.00  0.00     0.000 C 
BRANCH   2   3
ATOM      3  C   UNL     1      13.948   0.573  -1.964  1.00  0.00     0.000 C 
BRANCH   3   4
ATOM      4  C   UNL     1      13.487   0.267  -0.528  1.00  0.00     0.000 C 
BRANCH   4   5
ATOM      5  C   UNL     1      12.140   0.918  -0.183  1.00  0.00     0.000 C 
BRANCH   5   6
ATOM      6  C   UNL     1      11.912   2.183  -1.017  1.00  0.00     0.006 C 
BRANCH   6   7
ATOM      7  C   UNL     1      11.485   3.356  -0.131  1.00  0.00     0.053 C 
BRANCH   7   8
ATOM      8  C   UNL     1       9.993   3.464  -0.086  1.00  0.00     0.041 C 
ATOM      9  O   UNL     1       9.304   3.131  -1.085  1.00  0.00    -0.550 OA
ATOM     10  O   UNL     1       9.367   3.981   1.041  1.00  0.00    -0.550 OA
ENDBRANCH   7   8
ENDBRANCH   6   7
ENDBRANCH   5   6
ENDBRANCH   4   5
ENDBRANCH   3   4
ENDBRANCH   2   3
ENDBRANCH   1   2
BRANCH   1  11
ATOM     11  C   UNL     1      15.376   3.204  -1.585  1.00  0.00     0.000 C 
BRANCH  11  12
ATOM     12  C   UNL     1      15.197   3.944  -0.251  1.00  0.00    -0.000 C 
BRANCH  12  13
ATOM     13  C   UNL     1      15.362   3.013   0.968  1.00  0.00    -0.000 C 
BRANCH  13  14
ATOM     14  C   UNL     1      14.463   3.377   2.166  1.00  0.00    -0.000 C 
BRANCH  14  15
ATOM     15  C   UNL     1      13.901   2.157   2.926  1.00  0.00    -0.000 C 
BRANCH  15  16
ATOM     16  C   UNL     1      15.014   1.260   3.496  1.00  0.00    -0.000 C 
BRANCH  16  17
ATOM     17  C   UNL     1      15.409   1.649   4.929  1.00  0.00    -0.003 C 
ATOM     18  C   UNL     1      14.211   1.715   5.875  1.00  0.00     0.004 C 
ENDBRANCH  16  17
ENDBRANCH  15  16
ENDBRANCH  14  15
ENDBRANCH  13  14
ENDBRANCH  12  13
ENDBRANCH  11  12
ENDBRANCH   1  11
TORSDOF 14
ENDMDL
MODEL 8
REMARK VINA RESULT:    -4.281      2.210      5.691
REMARK INTER + INTRA:          -9.554
REMARK INTER:                  -8.004
REMARK INTRA:                  -1.550
REMARK UNBOUND:                -1.769
REMARK SMILES CCCCCCCCCCCCCCCC(=O)[O-]
REMARK SMILES IDX 9 1 10 2 11 3 12 4 13 5 14 6 15 7 16 8 17 9 18 10 8 11 7 12
REMARK SMILES IDX 6 13 5 14 4 15 3 16 2 17 1 18
REMARK H PARENT
REMARK Flexibility Score: inf
ROOT
ATOM      1  C   UNL     1      14.614   3.389   2.005  1.00  0.00     0.000 C 
ENDROOT
BRANCH   1   2
ATOM      2  C   UNL     1      15.375   2.687   0.868  1.00  0.00     0.000 C 
BRANCH   2   3
ATOM      3  C   UNL     1      15.661   3.566  -0.367  1.00  0.00     0.000 C 
BRANCH   3   4
ATOM      4  C   UNL     1      15.396   2.891  -1.724  1.00  0.00     0.000 C 
BRANCH   4   5
ATOM      5  C   UNL     1      15.664   1.379  -1.701  1.00  0.00     0.000 C 
BRANCH   5   6
ATOM      6  C   UNL     1      14.527   0.609  -2.382  1.00  0.00     0.006 C 
BRANCH   6   7
ATOM      7  C   UNL     1      13.248   1.450  -2.433  1.00  0.00     0.053 C 
BRANCH   7   8
ATOM      8  C   UNL     1      12.156   0.791  -1.650  1.00  0.00     0.041 C 
ATOM      9  O   UNL     1      10.990   0.726  -2.121  1.00  0.00    -0.550 OA
ATOM     10  O   UNL     1      12.414   0.294  -0.380  1.00  0.00    -0.550 OA
ENDBRANCH   7   8
ENDBRANCH   6   7
ENDBRANCH   5   6
ENDBRANCH   4   5
ENDBRANCH   3   4
ENDBRANCH   2   3
ENDBRANCH   1   2
BRANCH   1  11
ATOM     11  C   UNL     1      13.908   4.673   1.547  1.00  0.00     0.000 C 
BRANCH  11  12
ATOM     12  C   UNL     1      12.385   4.555   1.714  1.00  0.00    -0.000 C 
BRANCH  12  13
ATOM     13  C   UNL     1      11.745   3.631   0.659  1.00  0.00    -0.000 C 
BRANCH  13  14
ATOM     14  C   UNL     1      10.211   3.519   0.765  1.00  0.00    -0.000 C 
BRANCH  14  15
ATOM     15  C   UNL     1       9.519   4.799   1.277  1.00  0.00    -0.000 C 
BRANCH  15  16
ATOM     16  C   UNL     1       8.441   5.310   0.303  1.00  0.00    -0.000 C 
BRANCH  16  17
ATOM     17  C   UNL     1       8.982   6.364  -0.675  1.00  0.00    -0.003 C 
ATOM     18  C   UNL     1       9.226   5.801  -2.075  1.00  0.00     0.004 C 
ENDBRANCH  16  17
ENDBRANCH  15  16
ENDBRANCH  14  15
ENDBRANCH  13  14
ENDBRANCH  12  13
ENDBRANCH  11  12
ENDBRANCH   1  11
TORSDOF 14
ENDMDL
MODEL 9
REMARK VINA RESULT:    -4.261     13.478     15.211
REMARK INTER + INTRA:          -9.516
REMARK INTER:                  -7.413
REMARK INTRA:                  -2.103
REMARK UNBOUND:                -1.769
REMARK SMILES CCCCCCCCCCCCCCCC(=O)[O-]
REMARK SMILES IDX 9 1 10 2 11 3 12 4 13 5 14 6 15 7 16 8 17 9 18 10 8 11 7 12
REMARK SMILES IDX 6 13 5 14 4 15 3 16 2 17 1 18
REMARK H PARENT
REMARK Flexibility Score: inf
ROOT
ATOM      1  C   UNL     1      15.917  16.450  -0.832  1.00  0.00     0.000 C 
ENDROOT
BRANCH   1   2
ATOM      2  C   UNL     1      16.054  17.242  -2.144  1.00  0.00     0.000 C 
BRANCH   2   3
ATOM      3  C   UNL     1      15.540  18.694  -2.087  1.00  0.00     0.000 C 
BRANCH   3   4
ATOM      4  C   UNL     1      14.236  18.956  -2.862  1.00  0.00     0.000 C 
BRANCH   4   5
ATOM      5  C   UNL     1      13.874  17.814  -3.824  1.00  0.00     0.000 C 
BRANCH   5   6
ATOM      6  C   UNL     1      12.509  17.213  -3.473  1.00  0.00     0.006 C 
BRANCH   6   7
ATOM      7  C   UNL     1      11.862  17.962  -2.305  1.00  0.00     0.053 C 
BRANCH   7   8
ATOM      8  C   UNL     1      10.374  17.996  -2.464  1.00  0.00     0.041 C 
ATOM      9  O   UNL     1       9.850  17.745  -3.581  1.00  0.00    -0.550 OA
ATOM     10  O   UNL     1       9.569  18.356  -1.391  1.00  0.00    -0.550 OA
ENDBRANCH   7   8
ENDBRANCH   6   7
ENDBRANCH   5   6
ENDBRANCH   4   5
ENDBRANCH   3   4
ENDBRANCH   2   3
ENDBRANCH   1   2
BRANCH   1  11
ATOM     11  C   UNL     1      14.461  16.102  -0.495  1.00  0.00     0.000 C 
BRANCH  11  12
ATOM     12  C   UNL     1      13.919  17.013   0.617  1.00  0.00    -0.000 C 
BRANCH  12  13
ATOM     13  C   UNL     1      15.002  17.400   1.644  1.00  0.00    -0.000 C 
BRANCH  13  14
ATOM     14  C   UNL     1      15.408  18.887   1.605  1.00  0.00    -0.000 C 
BRANCH  14  15
ATOM     15  C   UNL     1      16.932  19.125   1.609  1.00  0.00    -0.000 C 
BRANCH  15  16
ATOM     16  C   UNL     1      17.716  17.884   2.073  1.00  0.00    -0.000 C 
BRANCH  16  17
ATOM     17  C   UNL     1      19.070  17.743   1.363  1.00  0.00    -0.003 C 
ATOM     18  C   UNL     1      19.161  16.481   0.507  1.00  0.00     0.004 C 
ENDBRANCH  16  17
ENDBRANCH  15  16
ENDBRANCH  14  15
ENDBRANCH  13  14
ENDBRANCH  12  13
ENDBRANCH  11  12
ENDBRANCH   1  11
TORSDOF 14
ENDMDL
