MODEL 1
REMARK VINA RESULT:    -0.593      0.000      0.000
REMARK INTER + INTRA:          -2.868
REMARK INTER:                  -1.286
REMARK INTRA:                  -1.582
REMARK UNBOUND:                -1.582
REMARK SMILES CCCCCCCCCCCCCCCCCCCCCC(=O)[O-]
REMARK SMILES IDX 12 1 11 2 10 3 9 4 8 5 7 6 6 7 5 8 4 9 3 10 2 11 1 12 13 13
REMARK SMILES IDX 14 14 15 15 16 16 17 17 18 18 19 19 20 20 21 21 22 22 23 23
REMARK SMILES IDX 24 24
REMARK H PARENT
REMARK Flexibility Score: inf
ROOT
ATOM      1  C   UNL     1       6.038 -36.715  24.012  1.00  0.00     0.000 C 
ENDROOT
BRANCH   1   2
ATOM      2  C   UNL     1       6.091 -35.180  23.965  1.00  0.00     0.000 C 
BRANCH   2   3
ATOM      3  C   UNL     1       6.118 -34.634  22.527  1.00  0.00     0.000 C 
BRANCH   3   4
ATOM      4  C   UNL     1       5.862 -35.728  21.478  1.00  0.00    -0.000 C 
BRANCH   4   5
ATOM      5  C   UNL     1       5.945 -35.194  20.037  1.00  0.00    -0.000 C 
BRANCH   5   6
ATOM      6  C   UNL     1       4.560 -34.945  19.418  1.00  0.00    -0.000 C 
BRANCH   6   7
ATOM      7  C   UNL     1       4.600 -34.890  17.883  1.00  0.00    -0.000 C 
BRANCH   7   8
ATOM      8  C   UNL     1       3.859 -36.087  17.269  1.00  0.00    -0.000 C 
BRANCH   8   9
ATOM      9  C   UNL     1       2.719 -35.663  16.329  1.00  0.00    -0.000 C 
BRANCH   9  10
ATOM     10  C   UNL     1       2.322 -36.772  15.341  1.00  0.00    -0.000 C 
BRANCH  10  11
ATOM     11  C   UNL     1       3.454 -37.116  14.360  1.00  0.00    -0.003 C 
ATOM     12  C   UNL     1       4.017 -38.522  14.574  1.00  0.00     0.004 C 
ENDBRANCH  10  11
ENDBRANCH   9  10
ENDBRANCH   8   9
ENDBRANCH   7   8
ENDBRANCH   6   7
ENDBRANCH   5   6
ENDBRANCH   4   5
ENDBRANCH   3   4
ENDBRANCH   2   3
ENDBRANCH   1   2
BRANCH   1  13
ATOM     13  C   UNL     1       5.301 -37.241  25.257  1.00  0.00     0.000 C 
BRANCH  13  14
ATOM     14  C   UNL     1       4.693 -38.635  25.036  1.00  0.00     0.000 C 
BRANCH  14  15
ATOM     15  C   UNL     1       5.643 -39.579  24.279  1.00  0.00     0.000 C 
BRANCH  15  16
ATOM     16  C   UNL     1       4.908 -40.488  23.281  1.00  0.00     0.000 C 
BRANCH  16  17
ATOM     17  C   UNL     1       5.439 -40.376  21.836  1.00  0.00     0.000 C 
BRANCH  17  18
ATOM     18  C   UNL     1       5.624 -38.912  21.398  1.00  0.00     0.000 C 
BRANCH  18  19
ATOM     19  C   UNL     1       4.864 -38.579  20.105  1.00  0.00     0.000 C 
BRANCH  19  20
ATOM     20  C   UNL     1       3.446 -38.042  20.373  1.00  0.00     0.006 C 
BRANCH  20  21
ATOM     21  C   UNL     1       2.545 -38.143  19.135  1.00  0.00     0.053 C 
BRANCH  21  22
ATOM     22  C   UNL     1       1.148 -37.685  19.423  1.00  0.00     0.041 C 
ATOM     23  O   UNL     1       0.227 -37.894  18.591  1.00  0.00    -0.550 OA
ATOM     24  O   UNL     1       0.859 -37.059  20.629  1.00  0.00    -0.550 OA
ENDBRANCH  21  22
ENDBRANCH  20  21
ENDBRANCH  19  20
ENDBRANCH  18  19
ENDBRANCH  17  18
ENDBRANCH  16  17
ENDBRANCH  15  16
ENDBRANCH  14  15
ENDBRANCH  13  14
ENDBRANCH   1  13
TORSDOF 20
ENDMDL
MODEL 2
REMARK VINA RESULT:     0.077      2.057      5.364
REMARK INTER + INTRA:          -1.415
REMARK INTER:                  -0.617
REMARK INTRA:                  -0.798
REMARK UNBOUND:                -1.582
REMARK SMILES CCCCCCCCCCCCCCCCCCCCCC(=O)[O-]
REMARK SMILES IDX 12 1 11 2 10 3 9 4 8 5 7 6 6 7 5 8 4 9 3 10 2 11 1 12 13 13
REMARK SMILES IDX 14 14 15 15 16 16 17 17 18 18 19 19 20 20 21 21 22 22 23 23
REMARK SMILES IDX 24 24
REMARK H PARENT
REMARK Flexibility Score: inf
ROOT
ATOM      1  C   UNL     1       5.982 -36.002  24.394  1.00  0.00     0.000 C 
ENDROOT
BRANCH   1   2
ATOM      2  C   UNL     1       5.056 -37.229  24.348  1.00  0.00     0.000 C 
BRANCH   2   3
ATOM      3  C   UNL     1       5.209 -38.130  25.586  1.00  0.00     0.000 C 
BRANCH   3   4
ATOM      4  C   UNL     1       4.637 -39.539  25.361  1.00  0.00    -0.000 C 
BRANCH   4   5
ATOM      5  C   UNL     1       5.436 -40.340  24.317  1.00  0.00    -0.000 C 
BRANCH   5   6
ATOM      6  C   UNL     1       5.612 -39.578  22.994  1.00  0.00    -0.000 C 
BRANCH   6   7
ATOM      7  C   UNL     1       5.870 -40.513  21.803  1.00  0.00    -0.000 C 
BRANCH   7   8
ATOM      8  C   UNL     1       5.730 -39.761  20.472  1.00  0.00    -0.000 C 
BRANCH   8   9
ATOM      9  C   UNL     1       5.122 -38.359  20.641  1.00  0.00    -0.000 C 
BRANCH   9  10
ATOM     10  C   UNL     1       4.096 -38.022  19.546  1.00  0.00    -0.000 C 
BRANCH  10  11
ATOM     11  C   UNL     1       2.757 -37.536  20.127  1.00  0.00    -0.003 C 
ATOM     12  C   UNL     1       1.550 -38.054  19.344  1.00  0.00     0.004 C 
ENDBRANCH  10  11
ENDBRANCH   9  10
ENDBRANCH   8   9
ENDBRANCH   7   8
ENDBRANCH   6   7
ENDBRANCH   5   6
ENDBRANCH   4   5
ENDBRANCH   3   4
ENDBRANCH   2   3
ENDBRANCH   1   2
BRANCH   1  13
ATOM     13  C   UNL     1       5.720 -35.024  23.235  1.00  0.00     0.000 C 
BRANCH  13  14
ATOM     14  C   UNL     1       6.025 -35.644  21.862  1.00  0.00     0.000 C 
BRANCH  14  15
ATOM     15  C   UNL     1       6.112 -34.589  20.746  1.00  0.00     0.000 C 
BRANCH  15  16
ATOM     16  C   UNL     1       6.086 -35.208  19.338  1.00  0.00     0.000 C 
BRANCH  16  17
ATOM     17  C   UNL     1       4.933 -34.687  18.455  1.00  0.00     0.000 C 
BRANCH  17  18
ATOM     18  C   UNL     1       4.395 -35.770  17.504  1.00  0.00     0.000 C 
BRANCH  18  19
ATOM     19  C   UNL     1       3.213 -35.279  16.654  1.00  0.00     0.000 C 
BRANCH  19  20
ATOM     20  C   UNL     1       2.235 -36.410  16.288  1.00  0.00     0.006 C 
BRANCH  20  21
ATOM     21  C   UNL     1       2.958 -37.736  16.018  1.00  0.00     0.053 C 
BRANCH  21  22
ATOM     22  C   UNL     1       3.557 -37.774  14.645  1.00  0.00     0.041 C 
ATOM     23  O   UNL     1       3.443 -36.784  13.875  1.00  0.00    -0.550 OA
ATOM     24  O   UNL     1       4.275 -38.889  14.232  1.00  0.00    -0.550 OA
ENDBRANCH  21  22
ENDBRANCH  20  21
ENDBRANCH  19  20
ENDBRANCH  18  19
ENDBRANCH  17  18
ENDBRANCH  16  17
ENDBRANCH  15  16
ENDBRANCH  14  15
ENDBRANCH  13  14
ENDBRANCH   1  13
TORSDOF 20
ENDMDL
MODEL 3
REMARK VINA RESULT:     0.169      2.354      6.392
REMARK INTER + INTRA:          -1.215
REMARK INTER:                  -0.028
REMARK INTRA:                  -1.187
REMARK UNBOUND:                -1.582
REMARK SMILES CCCCCCCCCCCCCCCCCCCCCC(=O)[O-]
REMARK SMILES IDX 12 1 11 2 10 3 9 4 8 5 7 6 6 7 5 8 4 9 3 10 2 11 1 12 13 13
REMARK SMILES IDX 14 14 15 15 16 16 17 17 18 18 19 19 20 20 21 21 22 22 23 23
REMARK SMILES IDX 24 24
REMARK H PARENT
REMARK Flexibility Score: inf
ROOT
ATOM      1  C   UNL     1       4.033 -35.215  21.223  1.00  0.00     0.000 C 
ENDROOT
BRANCH   1   2
ATOM      2  C   UNL     1       4.520 -34.345  22.393  1.00  0.00     0.000 C 
BRANCH   2   3
ATOM      3  C   UNL     1       5.848 -34.846  22.988  1.00  0.00     0.000 C 
BRANCH   3   4
ATOM      4  C   UNL     1       6.069 -34.357  24.428  1.00  0.00    -0.000 C 
BRANCH   4   5
ATOM      5  C   UNL     1       6.118 -35.513  25.443  1.00  0.00    -0.000 C 
BRANCH   5   6
ATOM      6  C   UNL     1       5.671 -36.852  24.836  1.00  0.00    -0.000 C 
BRANCH   6   7
ATOM      7  C   UNL     1       5.614 -37.982  25.875  1.00  0.00    -0.000 C 
BRANCH   7   8
ATOM      8  C   UNL     1       5.052 -39.271  25.257  1.00  0.00    -0.000 C 
BRANCH   8   9
ATOM      9  C   UNL     1       5.135 -39.281  23.723  1.00  0.00    -0.000 C 
BRANCH   9  10
ATOM     10  C   UNL     1       5.634 -40.624  23.164  1.00  0.00    -0.000 C 
BRANCH  10  11
ATOM     11  C   UNL     1       5.592 -41.747  24.213  1.00  0.00    -0.003 C 
ATOM     12  C   UNL     1       5.918 -43.119  23.624  1.00  0.00     0.004 C 
ENDBRANCH  10  11
ENDBRANCH   9  10
ENDBRANCH   8   9
ENDBRANCH   7   8
ENDBRANCH   6   7
ENDBRANCH   5   6
ENDBRANCH   4   5
ENDBRANCH   3   4
ENDBRANCH   2   3
ENDBRANCH   1   2
BRANCH   1  13
ATOM     13  C   UNL     1       5.107 -35.392  20.135  1.00  0.00     0.000 C 
BRANCH  13  14
ATOM     14  C   UNL     1       5.896 -36.702  20.295  1.00  0.00     0.000 C 
BRANCH  14  15
ATOM     15  C   UNL     1       5.240 -37.879  19.555  1.00  0.00     0.000 C 
BRANCH  15  16
ATOM     16  C   UNL     1       3.871 -38.262  20.141  1.00  0.00     0.000 C 
BRANCH  16  17
ATOM     17  C   UNL     1       2.680 -37.606  19.411  1.00  0.00     0.000 C 
BRANCH  17  18
ATOM     18  C   UNL     1       2.755 -37.802  17.887  1.00  0.00     0.000 C 
BRANCH  18  19
ATOM     19  C   UNL     1       2.312 -36.554  17.106  1.00  0.00     0.000 C 
BRANCH  19  20
ATOM     20  C   UNL     1       2.604 -36.664  15.598  1.00  0.00     0.006 C 
BRANCH  20  21
ATOM     21  C   UNL     1       2.963 -38.096  15.181  1.00  0.00     0.053 C 
BRANCH  21  22
ATOM     22  C   UNL     1       4.166 -38.131  14.288  1.00  0.00     0.041 C 
ATOM     23  O   UNL     1       4.727 -37.060  13.937  1.00  0.00    -0.550 OA
ATOM     24  O   UNL     1       4.688 -39.351  13.875  1.00  0.00    -0.550 OA
ENDBRANCH  21  22
ENDBRANCH  20  21
ENDBRANCH  19  20
ENDBRANCH  18  19
ENDBRANCH  17  18
ENDBRANCH  16  17
ENDBRANCH  15  16
ENDBRANCH  14  15
ENDBRANCH  13  14
ENDBRANCH   1  13
TORSDOF 20
ENDMDL
MODEL 4
REMARK VINA RESULT:     0.710      2.515      4.170
REMARK INTER + INTRA:          -0.041
REMARK INTER:                   1.136
REMARK INTRA:                  -1.177
REMARK UNBOUND:                -1.582
REMARK SMILES CCCCCCCCCCCCCCCCCCCCCC(=O)[O-]
REMARK SMILES IDX 12 1 11 2 10 3 9 4 8 5 7 6 6 7 5 8 4 9 3 10 2 11 1 12 13 13
REMARK SMILES IDX 14 14 15 15 16 16 17 17 18 18 19 19 20 20 21 21 22 22 23 23
REMARK SMILES IDX 24 24
REMARK H PARENT
REMARK Flexibility Score: inf
ROOT
ATOM      1  C   UNL     1       5.829 -35.465  22.266  1.00  0.00     0.000 C 
ENDROOT
BRANCH   1   2
ATOM      2  C   UNL     1       4.725 -34.783  21.442  1.00  0.00     0.000 C 
BRANCH   2   3
ATOM      3  C   UNL     1       3.313 -35.201  21.888  1.00  0.00     0.000 C 
BRANCH   3   4
ATOM      4  C   UNL     1       2.426 -35.627  20.707  1.00  0.00    -0.000 C 
BRANCH   4   5
ATOM      5  C   UNL     1       2.706 -37.069  20.248  1.00  0.00    -0.000 C 
BRANCH   5   6
ATOM      6  C   UNL     1       1.498 -37.713  19.551  1.00  0.00    -0.000 C 
BRANCH   6   7
ATOM      7  C   UNL     1       1.568 -37.601  18.021  1.00  0.00    -0.000 C 
BRANCH   7   8
ATOM      8  C   UNL     1       3.024 -37.512  17.542  1.00  0.00    -0.000 C 
BRANCH   8   9
ATOM      9  C   UNL     1       3.256 -36.358  16.552  1.00  0.00    -0.000 C 
BRANCH   9  10
ATOM     10  C   UNL     1       2.137 -36.244  15.504  1.00  0.00    -0.000 C 
BRANCH  10  11
ATOM     11  C   UNL     1       2.437 -37.056  14.234  1.00  0.00    -0.003 C 
ATOM     12  C   UNL     1       3.909 -37.454  14.120  1.00  0.00     0.004 C 
ENDBRANCH  10  11
ENDBRANCH   9  10
ENDBRANCH   8   9
ENDBRANCH   7   8
ENDBRANCH   6   7
ENDBRANCH   5   6
ENDBRANCH   4   5
ENDBRANCH   3   4
ENDBRANCH   2   3
ENDBRANCH   1   2
BRANCH   1  13
ATOM     13  C   UNL     1       5.964 -36.964  21.942  1.00  0.00     0.000 C 
BRANCH  13  14
ATOM     14  C   UNL     1       5.628 -37.282  20.476  1.00  0.00     0.000 C 
BRANCH  14  15
ATOM     15  C   UNL     1       5.541 -38.793  20.206  1.00  0.00     0.000 C 
BRANCH  15  16
ATOM     16  C   UNL     1       5.123 -39.597  21.449  1.00  0.00     0.000 C 
BRANCH  16  17
ATOM     17  C   UNL     1       6.123 -40.708  21.832  1.00  0.00     0.000 C 
BRANCH  17  18
ATOM     18  C   UNL     1       5.534 -41.691  22.859  1.00  0.00     0.000 C 
BRANCH  18  19
ATOM     19  C   UNL     1       5.754 -41.235  24.310  1.00  0.00     0.000 C 
BRANCH  19  20
ATOM     20  C   UNL     1       4.813 -40.088  24.720  1.00  0.00     0.006 C 
BRANCH  20  21
ATOM     21  C   UNL     1       5.537 -38.736  24.773  1.00  0.00     0.053 C 
BRANCH  21  22
ATOM     22  C   UNL     1       4.812 -37.749  25.634  1.00  0.00     0.041 C 
ATOM     23  O   UNL     1       3.973 -38.146  26.487  1.00  0.00    -0.550 OA
ATOM     24  O   UNL     1       5.090 -36.393  25.521  1.00  0.00    -0.550 OA
ENDBRANCH  21  22
ENDBRANCH  20  21
ENDBRANCH  19  20
ENDBRANCH  18  19
ENDBRANCH  17  18
ENDBRANCH  16  17
ENDBRANCH  15  16
ENDBRANCH  14  15
ENDBRANCH  13  14
ENDBRANCH   1  13
TORSDOF 20
ENDMDL
MODEL 5
REMARK VINA RESULT:     0.732      1.755      5.839
REMARK INTER + INTRA:           0.006
REMARK INTER:                   0.295
REMARK INTRA:                  -0.289
REMARK UNBOUND:                -1.582
REMARK SMILES CCCCCCCCCCCCCCCCCCCCCC(=O)[O-]
REMARK SMILES IDX 12 1 11 2 10 3 9 4 8 5 7 6 6 7 5 8 4 9 3 10 2 11 1 12 13 13
REMARK SMILES IDX 14 14 15 15 16 16 17 17 18 18 19 19 20 20 21 21 22 22 23 23
REMARK SMILES IDX 24 24
REMARK H PARENT
REMARK Flexibility Score: inf
ROOT
ATOM      1  C   UNL     1       4.832 -35.886  21.573  1.00  0.00     0.000 C 
ENDROOT
BRANCH   1   2
ATOM      2  C   UNL     1       4.725 -35.039  22.852  1.00  0.00     0.000 C 
BRANCH   2   3
ATOM      3  C   UNL     1       6.025 -35.046  23.674  1.00  0.00     0.000 C 
BRANCH   3   4
ATOM      4  C   UNL     1       6.098 -36.231  24.651  1.00  0.00    -0.000 C 
BRANCH   4   5
ATOM      5  C   UNL     1       4.712 -36.827  24.958  1.00  0.00    -0.000 C 
BRANCH   5   6
ATOM      6  C   UNL     1       4.737 -37.795  26.152  1.00  0.00    -0.000 C 
BRANCH   6   7
ATOM      7  C   UNL     1       5.025 -39.244  25.731  1.00  0.00    -0.000 C 
BRANCH   7   8
ATOM      8  C   UNL     1       5.265 -39.341  24.218  1.00  0.00    -0.000 C 
BRANCH   8   9
ATOM      9  C   UNL     1       5.372 -40.793  23.724  1.00  0.00    -0.000 C 
BRANCH   9  10
ATOM     10  C   UNL     1       5.662 -40.887  22.217  1.00  0.00    -0.000 C 
BRANCH  10  11
ATOM     11  C   UNL     1       5.906 -39.509  21.579  1.00  0.00    -0.003 C 
ATOM     12  C   UNL     1       5.642 -39.499  20.073  1.00  0.00     0.004 C 
ENDBRANCH  10  11
ENDBRANCH   9  10
ENDBRANCH   8   9
ENDBRANCH   7   8
ENDBRANCH   6   7
ENDBRANCH   5   6
ENDBRANCH   4   5
ENDBRANCH   3   4
ENDBRANCH   2   3
ENDBRANCH   1   2
BRANCH   1  13
ATOM     13  C   UNL     1       6.124 -35.602  20.787  1.00  0.00     0.000 C 
BRANCH  13  14
ATOM     14  C   UNL     1       5.854 -35.282  19.308  1.00  0.00     0.000 C 
BRANCH  14  15
ATOM     15  C   UNL     1       4.377 -35.471  18.924  1.00  0.00     0.000 C 
BRANCH  15  16
ATOM     16  C   UNL     1       3.807 -36.820  19.394  1.00  0.00     0.000 C 
BRANCH  16  17
ATOM     17  C   UNL     1       2.352 -36.732  19.902  1.00  0.00     0.000 C 
BRANCH  17  18
ATOM     18  C   UNL     1       1.656 -38.105  19.907  1.00  0.00     0.000 C 
BRANCH  18  19
ATOM     19  C   UNL     1       1.129 -38.508  18.521  1.00  0.00     0.000 C 
BRANCH  19  20
ATOM     20  C   UNL     1       1.202 -37.356  17.502  1.00  0.00     0.006 C 
BRANCH  20  21
ATOM     21  C   UNL     1       2.209 -37.641  16.379  1.00  0.00     0.053 C 
BRANCH  21  22
ATOM     22  C   UNL     1       2.512 -36.412  15.579  1.00  0.00     0.041 C 
ATOM     23  O   UNL     1       2.514 -35.279  16.130  1.00  0.00    -0.550 OA
ATOM     24  O   UNL     1       2.831 -36.522  14.231  1.00  0.00    -0.550 OA
ENDBRANCH  21  22
ENDBRANCH  20  21
ENDBRANCH  19  20
ENDBRANCH  18  19
ENDBRANCH  17  18
ENDBRANCH  16  17
ENDBRANCH  15  16
ENDBRANCH  14  15
ENDBRANCH  13  14
ENDBRANCH   1  13
TORSDOF 20
ENDMDL
MODEL 6
REMARK VINA RESULT:     0.886      2.740      7.435
REMARK INTER + INTRA:           0.340
REMARK INTER:                   2.128
REMARK INTRA:                  -1.788
REMARK UNBOUND:                -1.582
REMARK SMILES CCCCCCCCCCCCCCCCCCCCCC(=O)[O-]
REMARK SMILES IDX 12 1 11 2 10 3 9 4 8 5 7 6 6 7 5 8 4 9 3 10 2 11 1 12 13 13
REMARK SMILES IDX 14 14 15 15 16 16 17 17 18 18 19 19 20 20 21 21 22 22 23 23
REMARK SMILES IDX 24 24
REMARK H PARENT
REMARK Flexibility Score: inf
ROOT
ATOM      1  C   UNL     1       2.343 -37.440  20.472  1.00  0.00     0.000 C 
ENDROOT
BRANCH   1   2
ATOM      2  C   UNL     1       3.797 -37.643  20.014  1.00  0.00     0.000 C 
BRANCH   2   3
ATOM      3  C   UNL     1       4.398 -38.964  20.527  1.00  0.00     0.000 C 
BRANCH   3   4
ATOM      4  C   UNL     1       5.342 -38.754  21.721  1.00  0.00    -0.000 C 
BRANCH   4   5
ATOM      5  C   UNL     1       5.369 -39.965  22.671  1.00  0.00    -0.000 C 
BRANCH   5   6
ATOM      6  C   UNL     1       5.383 -39.555  24.152  1.00  0.00    -0.000 C 
BRANCH   6   7
ATOM      7  C   UNL     1       4.764 -38.169  24.388  1.00  0.00    -0.000 C 
BRANCH   7   8
ATOM      8  C   UNL     1       5.485 -37.429  25.523  1.00  0.00    -0.000 C 
BRANCH   8   9
ATOM      9  C   UNL     1       6.125 -36.109  25.061  1.00  0.00    -0.000 C 
BRANCH   9  10
ATOM     10  C   UNL     1       5.971 -35.873  23.550  1.00  0.00    -0.000 C 
BRANCH  10  11
ATOM     11  C   UNL     1       5.259 -34.548  23.233  1.00  0.00    -0.003 C 
ATOM     12  C   UNL     1       4.044 -34.732  22.323  1.00  0.00     0.004 C 
ENDBRANCH  10  11
ENDBRANCH   9  10
ENDBRANCH   8   9
ENDBRANCH   7   8
ENDBRANCH   6   7
ENDBRANCH   5   6
ENDBRANCH   4   5
ENDBRANCH   3   4
ENDBRANCH   2   3
ENDBRANCH   1   2
BRANCH   1  13
ATOM     13  C   UNL     1       1.328 -37.726  19.352  1.00  0.00     0.000 C 
BRANCH  13  14
ATOM     14  C   UNL     1       1.982 -37.771  17.962  1.00  0.00     0.000 C 
BRANCH  14  15
ATOM     15  C   UNL     1       1.706 -36.501  17.138  1.00  0.00     0.000 C 
BRANCH  15  16
ATOM     16  C   UNL     1       2.678 -36.333  15.959  1.00  0.00     0.000 C 
BRANCH  16  17
ATOM     17  C   UNL     1       2.670 -37.524  14.977  1.00  0.00     0.000 C 
BRANCH  17  18
ATOM     18  C   UNL     1       3.761 -37.394  13.899  1.00  0.00     0.000 C 
BRANCH  18  19
ATOM     19  C   UNL     1       4.937 -38.357  14.127  1.00  0.00     0.000 C 
BRANCH  19  20
ATOM     20  C   UNL     1       4.556 -39.827  13.875  1.00  0.00     0.006 C 
BRANCH  20  21
ATOM     21  C   UNL     1       5.744 -40.777  14.082  1.00  0.00     0.053 C 
BRANCH  21  22
ATOM     22  C   UNL     1       5.335 -42.037  14.781  1.00  0.00     0.041 C 
ATOM     23  O   UNL     1       4.483 -42.804  14.259  1.00  0.00    -0.550 OA
ATOM     24  O   UNL     1       5.924 -42.381  15.991  1.00  0.00    -0.550 OA
ENDBRANCH  21  22
ENDBRANCH  20  21
ENDBRANCH  19  20
ENDBRANCH  18  19
ENDBRANCH  17  18
ENDBRANCH  16  17
ENDBRANCH  15  16
ENDBRANCH  14  15
ENDBRANCH  13  14
ENDBRANCH   1  13
TORSDOF 20
ENDMDL
MODEL 7
REMARK VINA RESULT:     0.940      1.220      5.863
REMARK INTER + INTRA:           0.456
REMARK INTER:                   1.662
REMARK INTRA:                  -1.205
REMARK UNBOUND:                -1.582
REMARK SMILES CCCCCCCCCCCCCCCCCCCCCC(=O)[O-]
REMARK SMILES IDX 12 1 11 2 10 3 9 4 8 5 7 6 6 7 5 8 4 9 3 10 2 11 1 12 13 13
REMARK SMILES IDX 14 14 15 15 16 16 17 17 18 18 19 19 20 20 21 21 22 22 23 23
REMARK SMILES IDX 24 24
REMARK H PARENT
REMARK Flexibility Score: inf
ROOT
ATOM      1  C   UNL     1       3.666 -35.796  21.100  1.00  0.00     0.000 C 
ENDROOT
BRANCH   1   2
ATOM      2  C   UNL     1       4.118 -35.095  22.391  1.00  0.00     0.000 C 
BRANCH   2   3
ATOM      3  C   UNL     1       5.647 -34.938  22.472  1.00  0.00     0.000 C 
BRANCH   3   4
ATOM      4  C   UNL     1       6.125 -34.568  23.886  1.00  0.00    -0.000 C 
BRANCH   4   5
ATOM      5  C   UNL     1       6.010 -35.743  24.873  1.00  0.00    -0.000 C 
BRANCH   5   6
ATOM      6  C   UNL     1       6.042 -37.110  24.171  1.00  0.00    -0.000 C 
BRANCH   6   7
ATOM      7  C   UNL     1       5.460 -38.235  25.041  1.00  0.00    -0.000 C 
BRANCH   7   8
ATOM      8  C   UNL     1       4.637 -39.217  24.195  1.00  0.00    -0.000 C 
BRANCH   8   9
ATOM      9  C   UNL     1       5.357 -40.556  23.969  1.00  0.00    -0.000 C 
BRANCH   9  10
ATOM     10  C   UNL     1       5.580 -40.865  22.479  1.00  0.00    -0.000 C 
BRANCH  10  11
ATOM     11  C   UNL     1       6.091 -39.644  21.697  1.00  0.00    -0.003 C 
ATOM     12  C   UNL     1       5.553 -39.590  20.267  1.00  0.00     0.004 C 
ENDBRANCH  10  11
ENDBRANCH   9  10
ENDBRANCH   8   9
ENDBRANCH   7   8
ENDBRANCH   6   7
ENDBRANCH   5   6
ENDBRANCH   4   5
ENDBRANCH   3   4
ENDBRANCH   2   3
ENDBRANCH   1   2
BRANCH   1  13
ATOM     13  C   UNL     1       4.852 -36.262  20.237  1.00  0.00     0.000 C 
BRANCH  13  14
ATOM     14  C   UNL     1       5.466 -35.120  19.413  1.00  0.00     0.000 C 
BRANCH  14  15
ATOM     15  C   UNL     1       4.799 -34.961  18.037  1.00  0.00     0.000 C 
BRANCH  15  16
ATOM     16  C   UNL     1       4.066 -36.234  17.580  1.00  0.00     0.000 C 
BRANCH  16  17
ATOM     17  C   UNL     1       3.875 -36.321  16.051  1.00  0.00     0.000 C 
BRANCH  17  18
ATOM     18  C   UNL     1       2.856 -37.404  15.654  1.00  0.00     0.000 C 
BRANCH  18  19
ATOM     19  C   UNL     1       1.419 -36.865  15.577  1.00  0.00     0.000 C 
BRANCH  19  20
ATOM     20  C   UNL     1       0.883 -36.407  16.946  1.00  0.00     0.006 C 
BRANCH  20  21
ATOM     21  C   UNL     1       0.293 -37.569  17.756  1.00  0.00     0.053 C 
BRANCH  21  22
ATOM     22  C   UNL     1       1.002 -37.754  19.063  1.00  0.00     0.041 C 
ATOM     23  O   UNL     1       0.436 -37.435  20.142  1.00  0.00    -0.550 OA
ATOM     24  O   UNL     1       2.273 -38.314  19.090  1.00  0.00    -0.550 OA
ENDBRANCH  21  22
ENDBRANCH  20  21
ENDBRANCH  19  20
ENDBRANCH  18  19
ENDBRANCH  17  18
ENDBRANCH  16  17
ENDBRANCH  15  16
ENDBRANCH  14  15
ENDBRANCH  13  14
ENDBRANCH   1  13
TORSDOF 20
ENDMDL
MODEL 8
REMARK VINA RESULT:     1.695      2.464      4.385
REMARK INTER + INTRA:           2.095
REMARK INTER:                   3.437
REMARK INTRA:                  -1.342
REMARK UNBOUND:                -1.582
REMARK SMILES CCCCCCCCCCCCCCCCCCCCCC(=O)[O-]
REMARK SMILES IDX 12 1 11 2 10 3 9 4 8 5 7 6 6 7 5 8 4 9 3 10 2 11 1 12 13 13
REMARK SMILES IDX 14 14 15 15 16 16 17 17 18 18 19 19 20 20 21 21 22 22 23 23
REMARK SMILES IDX 24 24
REMARK H PARENT
REMARK Flexibility Score: inf
ROOT
ATOM      1  C   UNL     1       3.691 -34.904  22.599  1.00  0.00     0.000 C 
ENDROOT
BRANCH   1   2
ATOM      2  C   UNL     1       3.031 -34.845  21.212  1.00  0.00     0.000 C 
BRANCH   2   3
ATOM      3  C   UNL     1       2.455 -36.203  20.775  1.00  0.00     0.000 C 
BRANCH   3   4
ATOM      4  C   UNL     1       3.491 -37.336  20.860  1.00  0.00    -0.000 C 
BRANCH   4   5
ATOM      5  C   UNL     1       4.081 -37.699  19.486  1.00  0.00    -0.000 C 
BRANCH   5   6
ATOM      6  C   UNL     1       4.769 -36.506  18.803  1.00  0.00    -0.000 C 
BRANCH   6   7
ATOM      7  C   UNL     1       3.877 -35.834  17.748  1.00  0.00    -0.000 C 
BRANCH   7   8
ATOM      8  C   UNL     1       3.167 -36.883  16.878  1.00  0.00    -0.000 C 
BRANCH   8   9
ATOM      9  C   UNL     1       2.153 -36.261  15.905  1.00  0.00    -0.000 C 
BRANCH   9  10
ATOM     10  C   UNL     1       2.145 -36.955  14.533  1.00  0.00    -0.000 C 
BRANCH  10  11
ATOM     11  C   UNL     1       3.543 -37.012  13.896  1.00  0.00    -0.003 C 
ATOM     12  C   UNL     1       4.297 -38.297  14.238  1.00  0.00     0.004 C 
ENDBRANCH  10  11
ENDBRANCH   9  10
ENDBRANCH   8   9
ENDBRANCH   7   8
ENDBRANCH   6   7
ENDBRANCH   5   6
ENDBRANCH   4   5
ENDBRANCH   3   4
ENDBRANCH   2   3
ENDBRANCH   1   2
BRANCH   1  13
ATOM     13  C   UNL     1       5.164 -34.458  22.568  1.00  0.00     0.000 C 
BRANCH  13  14
ATOM     14  C   UNL     1       6.125 -35.620  22.272  1.00  0.00     0.000 C 
BRANCH  14  15
ATOM     15  C   UNL     1       6.121 -36.685  23.382  1.00  0.00     0.000 C 
BRANCH  15  16
ATOM     16  C   UNL     1       5.961 -36.080  24.787  1.00  0.00     0.000 C 
BRANCH  16  17
ATOM     17  C   UNL     1       5.725 -37.134  25.889  1.00  0.00     0.000 C 
BRANCH  17  18
ATOM     18  C   UNL     1       4.454 -37.964  25.636  1.00  0.00     0.000 C 
BRANCH  18  19
ATOM     19  C   UNL     1       4.730 -39.475  25.599  1.00  0.00     0.000 C 
BRANCH  19  20
ATOM     20  C   UNL     1       5.576 -39.893  24.382  1.00  0.00     0.006 C 
BRANCH  20  21
ATOM     21  C   UNL     1       5.790 -41.412  24.320  1.00  0.00     0.053 C 
BRANCH  21  22
ATOM     22  C   UNL     1       5.908 -41.900  22.909  1.00  0.00     0.041 C 
ATOM     23  O   UNL     1       5.777 -43.125  22.648  1.00  0.00    -0.550 OA
ATOM     24  O   UNL     1       6.125 -40.995  21.878  1.00  0.00    -0.550 OA
ENDBRANCH  21  22
ENDBRANCH  20  21
ENDBRANCH  19  20
ENDBRANCH  18  19
ENDBRANCH  17  18
ENDBRANCH  16  17
ENDBRANCH  15  16
ENDBRANCH  14  15
ENDBRANCH  13  14
ENDBRANCH   1  13
TORSDOF 20
ENDMDL
