MODEL 1
REMARK VINA RESULT:    -3.960      0.000      0.000
REMARK INTER + INTRA:         -12.992
REMARK INTER:                  -9.980
REMARK INTRA:                  -3.012
REMARK UNBOUND:                -3.012
REMARK SMILES CCCCCCCCCCCCCCCCCCCCCCCCCCCC(=O)[O-]
REMARK SMILES IDX 15 1 16 2 17 3 18 4 19 5 20 6 21 7 22 8 23 9 24 10 25 11
REMARK SMILES IDX 26 12 27 13 28 14 29 15 30 16 14 17 13 18 12 19 11 20 10 21
REMARK SMILES IDX 9 22 8 23 7 24 6 25 5 26 4 27 3 28 2 29 1 30
REMARK H PARENT
REMARK Flexibility Score: inf
ROOT
ATOM      1  C   UNL     1      -7.802  -6.184   5.109  1.00  0.00     0.000 C 
ENDROOT
BRANCH   1   2
ATOM      2  C   UNL     1      -7.247  -7.058   6.249  1.00  0.00     0.000 C 
BRANCH   2   3
ATOM      3  C   UNL     1      -6.861  -6.243   7.492  1.00  0.00     0.000 C 
BRANCH   3   4
ATOM      4  C   UNL     1      -5.338  -6.102   7.603  1.00  0.00     0.000 C 
BRANCH   4   5
ATOM      5  C   UNL     1      -4.593  -6.612   6.356  1.00  0.00     0.000 C 
BRANCH   5   6
ATOM      6  C   UNL     1      -3.844  -5.507   5.583  1.00  0.00     0.000 C 
BRANCH   6   7
ATOM      7  C   UNL     1      -2.849  -4.735   6.470  1.00  0.00     0.000 C 
BRANCH   7   8
ATOM      8  C   UNL     1      -2.711  -3.260   6.062  1.00  0.00     0.000 C 
BRANCH   8   9
ATOM      9  C   UNL     1      -3.966  -2.429   6.387  1.00  0.00     0.000 C 
BRANCH   9  10
ATOM     10  C   UNL     1      -5.080  -2.633   5.344  1.00  0.00     0.000 C 
BRANCH  10  11
ATOM     11  C   UNL     1      -6.450  -2.961   5.966  1.00  0.00     0.000 C 
BRANCH  11  12
ATOM     12  C   UNL     1      -6.960  -1.828   6.873  1.00  0.00     0.006 C 
BRANCH  12  13
ATOM     13  C   UNL     1      -6.941  -0.464   6.169  1.00  0.00     0.053 C 
BRANCH  13  14
ATOM     14  C   UNL     1      -6.339   0.603   7.031  1.00  0.00     0.041 C 
ATOM     15  O   UNL     1      -7.079   1.344   7.734  1.00  0.00    -0.550 OA
ATOM     16  O   UNL     1      -4.968   0.822   7.008  1.00  0.00    -0.550 OA
ENDBRANCH  13  14
ENDBRANCH  12  13
ENDBRANCH  11  12
ENDBRANCH  10  11
ENDBRANCH   9  10
ENDBRANCH   8   9
ENDBRANCH   7   8
ENDBRANCH   6   7
ENDBRANCH   5   6
ENDBRANCH   4   5
ENDBRANCH   3   4
ENDBRANCH   2   3
ENDBRANCH   1   2
BRANCH   1  17
ATOM     17  C   UNL     1      -9.226  -6.541   4.644  1.00  0.00     0.000 C 
BRANCH  17  18
ATOM     18  C   UNL     1      -9.338  -7.160   3.238  1.00  0.00     0.000 C 
BRANCH  18  19
ATOM     19  C   UNL     1      -9.850  -8.616   3.218  1.00  0.00     0.000 C 
BRANCH  19  20
ATOM     20  C   UNL     1      -8.754  -9.643   3.553  1.00  0.00     0.000 C 
BRANCH  20  21
ATOM     21  C   UNL     1      -8.925 -10.236   4.964  1.00  0.00     0.000 C 
BRANCH  21  22
ATOM     22  C   UNL     1      -7.721 -11.080   5.426  1.00  0.00    -0.000 C 
BRANCH  22  23
ATOM     23  C   UNL     1      -6.442 -10.750   4.635  1.00  0.00    -0.000 C 
BRANCH  23  24
ATOM     24  C   UNL     1      -5.357 -10.095   5.506  1.00  0.00    -0.000 C 
BRANCH  24  25
ATOM     25  C   UNL     1      -3.936 -10.363   4.981  1.00  0.00    -0.000 C 
BRANCH  25  26
ATOM     26  C   UNL     1      -3.338  -9.156   4.239  1.00  0.00    -0.000 C 
BRANCH  26  27
ATOM     27  C   UNL     1      -2.184  -9.545   3.299  1.00  0.00    -0.000 C 
BRANCH  27  28
ATOM     28  C   UNL     1      -2.641 -10.590   2.269  1.00  0.00    -0.000 C 
BRANCH  28  29
ATOM     29  C   UNL     1      -2.354 -10.155   0.822  1.00  0.00    -0.003 C 
ATOM     30  C   UNL     1      -0.972 -10.594   0.335  1.00  0.00     0.004 C 
ENDBRANCH  28  29
ENDBRANCH  27  28
ENDBRANCH  26  27
ENDBRANCH  25  26
ENDBRANCH  24  25
ENDBRANCH  23  24
ENDBRANCH  22  23
ENDBRANCH  21  22
ENDBRANCH  20  21
ENDBRANCH  19  20
ENDBRANCH  18  19
ENDBRANCH  17  18
ENDBRANCH   1  17
TORSDOF 26
ENDMDL
MODEL 2
REMARK VINA RESULT:    -3.934      4.943      7.992
REMARK INTER + INTRA:         -12.926
REMARK INTER:                 -11.290
REMARK INTRA:                  -1.636
REMARK UNBOUND:                -3.012
REMARK SMILES CCCCCCCCCCCCCCCCCCCCCCCCCCCC(=O)[O-]
REMARK SMILES IDX 15 1 16 2 17 3 18 4 19 5 20 6 21 7 22 8 23 9 24 10 25 11
REMARK SMILES IDX 26 12 27 13 28 14 29 15 30 16 14 17 13 18 12 19 11 20 10 21
REMARK SMILES IDX 9 22 8 23 7 24 6 25 5 26 4 27 3 28 2 29 1 30
REMARK H PARENT
REMARK Flexibility Score: inf
ROOT
ATOM      1  C   UNL     1      -1.841  -9.356   3.074  1.00  0.00     0.000 C 
ENDROOT
BRANCH   1   2
ATOM      2  C   UNL     1      -2.918  -8.855   4.054  1.00  0.00     0.000 C 
BRANCH   2   3
ATOM      3  C   UNL     1      -3.691  -9.998   4.727  1.00  0.00     0.000 C 
BRANCH   3   4
ATOM      4  C   UNL     1      -4.854  -9.453   5.567  1.00  0.00     0.000 C 
BRANCH   4   5
ATOM      5  C   UNL     1      -6.218  -9.588   4.866  1.00  0.00     0.000 C 
BRANCH   5   6
ATOM      6  C   UNL     1      -7.365  -8.853   5.589  1.00  0.00     0.000 C 
BRANCH   6   7
ATOM      7  C   UNL     1      -6.966  -7.437   6.045  1.00  0.00     0.000 C 
BRANCH   7   8
ATOM      8  C   UNL     1      -8.137  -6.444   5.990  1.00  0.00     0.000 C 
BRANCH   8   9
ATOM      9  C   UNL     1      -7.676  -4.978   5.885  1.00  0.00     0.000 C 
BRANCH   9  10
ATOM     10  C   UNL     1      -6.142  -4.852   5.922  1.00  0.00     0.000 C 
BRANCH  10  11
ATOM     11  C   UNL     1      -5.586  -3.835   4.908  1.00  0.00     0.000 C 
BRANCH  11  12
ATOM     12  C   UNL     1      -4.570  -2.874   5.549  1.00  0.00     0.006 C 
BRANCH  12  13
ATOM     13  C   UNL     1      -3.663  -3.579   6.566  1.00  0.00     0.053 C 
BRANCH  13  14
ATOM     14  C   UNL     1      -2.423  -4.124   5.925  1.00  0.00     0.041 C 
ATOM     15  O   UNL     1      -1.443  -3.365   5.689  1.00  0.00    -0.550 OA
ATOM     16  O   UNL     1      -2.374  -5.455   5.529  1.00  0.00    -0.550 OA
ENDBRANCH  13  14
ENDBRANCH  12  13
ENDBRANCH  11  12
ENDBRANCH  10  11
ENDBRANCH   9  10
ENDBRANCH   8   9
ENDBRANCH   7   8
ENDBRANCH   6   7
ENDBRANCH   5   6
ENDBRANCH   4   5
ENDBRANCH   3   4
ENDBRANCH   2   3
ENDBRANCH   1   2
BRANCH   1  17
ATOM     17  C   UNL     1      -2.310 -10.440   2.085  1.00  0.00     0.000 C 
BRANCH  17  18
ATOM     18  C   UNL     1      -1.358 -10.731   0.908  1.00  0.00     0.000 C 
BRANCH  18  19
ATOM     19  C   UNL     1      -1.734 -10.021  -0.409  1.00  0.00     0.000 C 
BRANCH  19  20
ATOM     20  C   UNL     1      -1.095  -8.628  -0.546  1.00  0.00     0.000 C 
BRANCH  20  21
ATOM     21  C   UNL     1      -0.794  -8.268  -2.013  1.00  0.00     0.000 C 
BRANCH  21  22
ATOM     22  C   UNL     1      -0.710  -6.751  -2.270  1.00  0.00    -0.000 C 
BRANCH  22  23
ATOM     23  C   UNL     1       0.525  -6.117  -1.605  1.00  0.00    -0.000 C 
BRANCH  23  24
ATOM     24  C   UNL     1       0.808  -4.693  -2.113  1.00  0.00    -0.000 C 
BRANCH  24  25
ATOM     25  C   UNL     1       0.448  -3.613  -1.078  1.00  0.00    -0.000 C 
BRANCH  25  26
ATOM     26  C   UNL     1       0.539  -2.188  -1.648  1.00  0.00    -0.000 C 
BRANCH  26  27
ATOM     27  C   UNL     1       1.163  -2.147  -3.053  1.00  0.00    -0.000 C 
BRANCH  27  28
ATOM     28  C   UNL     1       2.620  -1.660  -2.995  1.00  0.00    -0.000 C 
BRANCH  28  29
ATOM     29  C   UNL     1       2.811  -0.488  -2.019  1.00  0.00    -0.003 C 
ATOM     30  C   UNL     1       4.122  -0.577  -1.236  1.00  0.00     0.004 C 
ENDBRANCH  28  29
ENDBRANCH  27  28
ENDBRANCH  26  27
ENDBRANCH  25  26
ENDBRANCH  24  25
ENDBRANCH  23  24
ENDBRANCH  22  23
ENDBRANCH  21  22
ENDBRANCH  20  21
ENDBRANCH  19  20
ENDBRANCH  18  19
ENDBRANCH  17  18
ENDBRANCH   1  17
TORSDOF 26
ENDMDL
MODEL 3
REMARK VINA RESULT:    -3.833      4.784      7.704
REMARK INTER + INTRA:         -12.671
REMARK INTER:                 -11.029
REMARK INTRA:                  -1.642
REMARK UNBOUND:                -3.012
REMARK SMILES CCCCCCCCCCCCCCCCCCCCCCCCCCCC(=O)[O-]
REMARK SMILES IDX 15 1 16 2 17 3 18 4 19 5 20 6 21 7 22 8 23 9 24 10 25 11
REMARK SMILES IDX 26 12 27 13 28 14 29 15 30 16 14 17 13 18 12 19 11 20 10 21
REMARK SMILES IDX 9 22 8 23 7 24 6 25 5 26 4 27 3 28 2 29 1 30
REMARK H PARENT
REMARK Flexibility Score: inf
ROOT
ATOM      1  C   UNL     1      -1.748  -9.610   3.021  1.00  0.00     0.000 C 
ENDROOT
BRANCH   1   2
ATOM      2  C   UNL     1      -2.784  -9.011   3.991  1.00  0.00     0.000 C 
BRANCH   2   3
ATOM      3  C   UNL     1      -3.807 -10.044   4.485  1.00  0.00     0.000 C 
BRANCH   3   4
ATOM      4  C   UNL     1      -4.698  -9.450   5.584  1.00  0.00     0.000 C 
BRANCH   4   5
ATOM      5  C   UNL     1      -6.161  -9.271   5.141  1.00  0.00     0.000 C 
BRANCH   5   6
ATOM      6  C   UNL     1      -7.150  -9.099   6.312  1.00  0.00     0.000 C 
BRANCH   6   7
ATOM      7  C   UNL     1      -6.617  -8.151   7.402  1.00  0.00     0.000 C 
BRANCH   7   8
ATOM      8  C   UNL     1      -7.119  -6.708   7.230  1.00  0.00     0.000 C 
BRANCH   8   9
ATOM      9  C   UNL     1      -6.005  -5.661   7.410  1.00  0.00     0.000 C 
BRANCH   9  10
ATOM     10  C   UNL     1      -4.837  -5.887   6.432  1.00  0.00     0.000 C 
BRANCH  10  11
ATOM     11  C   UNL     1      -4.374  -4.601   5.723  1.00  0.00     0.000 C 
BRANCH  11  12
ATOM     12  C   UNL     1      -5.558  -3.760   5.217  1.00  0.00     0.006 C 
BRANCH  12  13
ATOM     13  C   UNL     1      -5.321  -2.254   5.393  1.00  0.00     0.053 C 
BRANCH  13  14
ATOM     14  C   UNL     1      -6.180  -1.674   6.475  1.00  0.00     0.041 C 
ATOM     15  O   UNL     1      -6.050  -2.066   7.667  1.00  0.00    -0.550 OA
ATOM     16  O   UNL     1      -7.168  -0.751   6.157  1.00  0.00    -0.550 OA
ENDBRANCH  13  14
ENDBRANCH  12  13
ENDBRANCH  11  12
ENDBRANCH  10  11
ENDBRANCH   9  10
ENDBRANCH   8   9
ENDBRANCH   7   8
ENDBRANCH   6   7
ENDBRANCH   5   6
ENDBRANCH   4   5
ENDBRANCH   3   4
ENDBRANCH   2   3
ENDBRANCH   1   2
BRANCH   1  17
ATOM     17  C   UNL     1      -2.285 -10.714   2.090  1.00  0.00     0.000 C 
BRANCH  17  18
ATOM     18  C   UNL     1      -1.489 -10.941   0.791  1.00  0.00     0.000 C 
BRANCH  18  19
ATOM     19  C   UNL     1      -1.946 -10.073  -0.400  1.00  0.00     0.000 C 
BRANCH  19  20
ATOM     20  C   UNL     1      -1.136  -8.772  -0.542  1.00  0.00     0.000 C 
BRANCH  20  21
ATOM     21  C   UNL     1      -0.805  -8.450  -2.011  1.00  0.00     0.000 C 
BRANCH  21  22
ATOM     22  C   UNL     1      -0.775  -6.941  -2.319  1.00  0.00    -0.000 C 
BRANCH  22  23
ATOM     23  C   UNL     1       0.388  -6.227  -1.605  1.00  0.00    -0.000 C 
BRANCH  23  24
ATOM     24  C   UNL     1       0.594  -4.785  -2.101  1.00  0.00    -0.000 C 
BRANCH  24  25
ATOM     25  C   UNL     1       0.539  -3.754  -0.961  1.00  0.00    -0.000 C 
BRANCH  25  26
ATOM     26  C   UNL     1       0.232  -2.331  -1.459  1.00  0.00    -0.000 C 
BRANCH  26  27
ATOM     27  C   UNL     1       1.267  -1.818  -2.475  1.00  0.00    -0.000 C 
BRANCH  27  28
ATOM     28  C   UNL     1       2.403  -1.061  -1.769  1.00  0.00    -0.000 C 
BRANCH  28  29
ATOM     29  C   UNL     1       3.616  -0.831  -2.685  1.00  0.00    -0.003 C 
ATOM     30  C   UNL     1       4.916  -0.630  -1.905  1.00  0.00     0.004 C 
ENDBRANCH  28  29
ENDBRANCH  27  28
ENDBRANCH  26  27
ENDBRANCH  25  26
ENDBRANCH  24  25
ENDBRANCH  23  24
ENDBRANCH  22  23
ENDBRANCH  21  22
ENDBRANCH  20  21
ENDBRANCH  19  20
ENDBRANCH  18  19
ENDBRANCH  17  18
ENDBRANCH   1  17
TORSDOF 26
ENDMDL
MODEL 4
REMARK VINA RESULT:    -3.620      5.932      9.253
REMARK INTER + INTRA:         -12.134
REMARK INTER:                 -10.782
REMARK INTRA:                  -1.352
REMARK UNBOUND:                -3.012
REMARK SMILES CCCCCCCCCCCCCCCCCCCCCCCCCCCC(=O)[O-]
REMARK SMILES IDX 15 1 16 2 17 3 18 4 19 5 20 6 21 7 22 8 23 9 24 10 25 11
REMARK SMILES IDX 26 12 27 13 28 14 29 15 30 16 14 17 13 18 12 19 11 20 10 21
REMARK SMILES IDX 9 22 8 23 7 24 6 25 5 26 4 27 3 28 2 29 1 30
REMARK H PARENT
REMARK Flexibility Score: inf
ROOT
ATOM      1  C   UNL     1      -1.683  -9.961   1.769  1.00  0.00     0.000 C 
ENDROOT
BRANCH   1   2
ATOM      2  C   UNL     1      -2.451 -10.600   0.597  1.00  0.00     0.000 C 
BRANCH   2   3
ATOM      3  C   UNL     1      -2.053 -10.017  -0.766  1.00  0.00     0.000 C 
BRANCH   3   4
ATOM      4  C   UNL     1      -0.893  -9.023  -0.619  1.00  0.00     0.000 C 
BRANCH   4   5
ATOM      5  C   UNL     1      -0.803  -8.025  -1.788  1.00  0.00     0.000 C 
BRANCH   5   6
ATOM      6  C   UNL     1       0.342  -7.001  -1.647  1.00  0.00     0.000 C 
BRANCH   6   7
ATOM      7  C   UNL     1      -0.056  -5.597  -2.138  1.00  0.00     0.000 C 
BRANCH   7   8
ATOM      8  C   UNL     1       0.978  -4.523  -1.765  1.00  0.00     0.000 C 
BRANCH   8   9
ATOM      9  C   UNL     1       0.372  -3.367  -0.948  1.00  0.00     0.000 C 
BRANCH   9  10
ATOM     10  C   UNL     1       0.226  -2.082  -1.785  1.00  0.00     0.000 C 
BRANCH  10  11
ATOM     11  C   UNL     1       1.488  -1.730  -2.594  1.00  0.00     0.000 C 
BRANCH  11  12
ATOM     12  C   UNL     1       2.557  -1.042  -1.727  1.00  0.00     0.006 C 
BRANCH  12  13
ATOM     13  C   UNL     1       3.821  -0.698  -2.526  1.00  0.00     0.053 C 
BRANCH  13  14
ATOM     14  C   UNL     1       5.017  -0.537  -1.639  1.00  0.00     0.041 C 
ATOM     15  O   UNL     1       6.154  -0.919  -2.029  1.00  0.00    -0.550 OA
ATOM     16  O   UNL     1       4.866  -0.026  -0.356  1.00  0.00    -0.550 OA
ENDBRANCH  13  14
ENDBRANCH  12  13
ENDBRANCH  11  12
ENDBRANCH  10  11
ENDBRANCH   9  10
ENDBRANCH   8   9
ENDBRANCH   7   8
ENDBRANCH   6   7
ENDBRANCH   5   6
ENDBRANCH   4   5
ENDBRANCH   3   4
ENDBRANCH   2   3
ENDBRANCH   1   2
BRANCH   1  17
ATOM     17  C   UNL     1      -2.471  -9.859   3.089  1.00  0.00     0.000 C 
BRANCH  17  18
ATOM     18  C   UNL     1      -3.270 -11.113   3.493  1.00  0.00     0.000 C 
BRANCH  18  19
ATOM     19  C   UNL     1      -3.903 -11.042   4.898  1.00  0.00     0.000 C 
BRANCH  19  20
ATOM     20  C   UNL     1      -5.162 -10.158   4.947  1.00  0.00     0.000 C 
BRANCH  20  21
ATOM     21  C   UNL     1      -5.066  -9.070   6.033  1.00  0.00     0.000 C 
BRANCH  21  22
ATOM     22  C   UNL     1      -6.382  -8.298   6.249  1.00  0.00    -0.000 C 
BRANCH  22  23
ATOM     23  C   UNL     1      -6.194  -7.076   7.167  1.00  0.00    -0.000 C 
BRANCH  23  24
ATOM     24  C   UNL     1      -4.957  -6.240   6.797  1.00  0.00    -0.000 C 
BRANCH  24  25
ATOM     25  C   UNL     1      -4.521  -5.294   7.929  1.00  0.00    -0.000 C 
BRANCH  25  26
ATOM     26  C   UNL     1      -4.276  -3.856   7.443  1.00  0.00    -0.000 C 
BRANCH  26  27
ATOM     27  C   UNL     1      -3.411  -3.796   6.172  1.00  0.00    -0.000 C 
BRANCH  27  28
ATOM     28  C   UNL     1      -4.188  -3.165   5.006  1.00  0.00    -0.000 C 
BRANCH  28  29
ATOM     29  C   UNL     1      -5.578  -2.662   5.428  1.00  0.00    -0.003 C 
ATOM     30  C   UNL     1      -5.634  -1.142   5.586  1.00  0.00     0.004 C 
ENDBRANCH  28  29
ENDBRANCH  27  28
ENDBRANCH  26  27
ENDBRANCH  25  26
ENDBRANCH  24  25
ENDBRANCH  23  24
ENDBRANCH  22  23
ENDBRANCH  21  22
ENDBRANCH  20  21
ENDBRANCH  19  20
ENDBRANCH  18  19
ENDBRANCH  17  18
ENDBRANCH   1  17
TORSDOF 26
ENDMDL
MODEL 5
REMARK VINA RESULT:    -3.565      3.740      8.494
REMARK INTER + INTRA:         -11.996
REMARK INTER:                  -8.661
REMARK INTRA:                  -3.335
REMARK UNBOUND:                -3.012
REMARK SMILES CCCCCCCCCCCCCCCCCCCCCCCCCCCC(=O)[O-]
REMARK SMILES IDX 15 1 16 2 17 3 18 4 19 5 20 6 21 7 22 8 23 9 24 10 25 11
REMARK SMILES IDX 26 12 27 13 28 14 29 15 30 16 14 17 13 18 12 19 11 20 10 21
REMARK SMILES IDX 9 22 8 23 7 24 6 25 5 26 4 27 3 28 2 29 1 30
REMARK H PARENT
REMARK Flexibility Score: inf
ROOT
ATOM      1  C   UNL     1      -4.753  -5.941   6.180  1.00  0.00     0.000 C 
ENDROOT
BRANCH   1   2
ATOM      2  C   UNL     1      -5.769  -7.053   6.499  1.00  0.00     0.000 C 
BRANCH   2   3
ATOM      3  C   UNL     1      -6.469  -6.853   7.851  1.00  0.00     0.000 C 
BRANCH   3   4
ATOM      4  C   UNL     1      -7.465  -7.987   8.125  1.00  0.00     0.000 C 
BRANCH   4   5
ATOM      5  C   UNL     1      -7.165  -9.261   7.314  1.00  0.00     0.000 C 
BRANCH   5   6
ATOM      6  C   UNL     1      -6.282 -10.282   8.060  1.00  0.00     0.000 C 
BRANCH   6   7
ATOM      7  C   UNL     1      -4.804 -10.208   7.635  1.00  0.00     0.000 C 
BRANCH   7   8
ATOM      8  C   UNL     1      -4.482 -11.124   6.444  1.00  0.00     0.000 C 
BRANCH   8   9
ATOM      9  C   UNL     1      -4.804 -10.475   5.085  1.00  0.00     0.000 C 
BRANCH   9  10
ATOM     10  C   UNL     1      -3.661 -10.662   4.070  1.00  0.00     0.000 C 
BRANCH  10  11
ATOM     11  C   UNL     1      -3.049  -9.335   3.585  1.00  0.00     0.000 C 
BRANCH  11  12
ATOM     12  C   UNL     1      -1.578  -9.496   3.164  1.00  0.00     0.006 C 
BRANCH  12  13
ATOM     13  C   UNL     1      -1.384 -10.626   2.144  1.00  0.00     0.053 C 
BRANCH  13  14
ATOM     14  C   UNL     1      -1.949 -10.272   0.803  1.00  0.00     0.041 C 
ATOM     15  O   UNL     1      -1.508  -9.273   0.171  1.00  0.00    -0.550 OA
ATOM     16  O   UNL     1      -3.006 -11.006   0.280  1.00  0.00    -0.550 OA
ENDBRANCH  13  14
ENDBRANCH  12  13
ENDBRANCH  11  12
ENDBRANCH  10  11
ENDBRANCH   9  10
ENDBRANCH   8   9
ENDBRANCH   7   8
ENDBRANCH   6   7
ENDBRANCH   5   6
ENDBRANCH   4   5
ENDBRANCH   3   4
ENDBRANCH   2   3
ENDBRANCH   1   2
BRANCH   1  17
ATOM     17  C   UNL     1      -5.370  -4.569   5.844  1.00  0.00     0.000 C 
BRANCH  17  18
ATOM     18  C   UNL     1      -4.565  -3.694   4.863  1.00  0.00     0.000 C 
BRANCH  18  19
ATOM     19  C   UNL     1      -3.711  -2.599   5.536  1.00  0.00     0.000 C 
BRANCH  19  20
ATOM     20  C   UNL     1      -4.507  -1.748   6.540  1.00  0.00     0.000 C 
BRANCH  20  21
ATOM     21  C   UNL     1      -5.789  -1.162   5.919  1.00  0.00     0.000 C 
BRANCH  21  22
ATOM     22  C   UNL     1      -6.999  -1.178   6.873  1.00  0.00    -0.000 C 
BRANCH  22  23
ATOM     23  C   UNL     1      -8.223  -1.870   6.246  1.00  0.00    -0.000 C 
BRANCH  23  24
ATOM     24  C   UNL     1      -8.678  -3.107   7.039  1.00  0.00    -0.000 C 
BRANCH  24  25
ATOM     25  C   UNL     1     -10.093  -3.571   6.652  1.00  0.00    -0.000 C 
BRANCH  25  26
ATOM     26  C   UNL     1     -10.094  -4.559   5.473  1.00  0.00    -0.000 C 
BRANCH  26  27
ATOM     27  C   UNL     1      -9.259  -5.820   5.753  1.00  0.00    -0.000 C 
BRANCH  27  28
ATOM     28  C   UNL     1      -8.718  -6.422   4.446  1.00  0.00    -0.000 C 
BRANCH  28  29
ATOM     29  C   UNL     1      -9.249  -7.842   4.188  1.00  0.00    -0.003 C 
ATOM     30  C   UNL     1      -8.138  -8.838   3.855  1.00  0.00     0.004 C 
ENDBRANCH  28  29
ENDBRANCH  27  28
ENDBRANCH  26  27
ENDBRANCH  25  26
ENDBRANCH  24  25
ENDBRANCH  23  24
ENDBRANCH  22  23
ENDBRANCH  21  22
ENDBRANCH  20  21
ENDBRANCH  19  20
ENDBRANCH  18  19
ENDBRANCH  17  18
ENDBRANCH   1  17
TORSDOF 26
ENDMDL
MODEL 6
REMARK VINA RESULT:    -3.323      5.588      8.615
REMARK INTER + INTRA:         -11.386
REMARK INTER:                 -10.361
REMARK INTRA:                  -1.024
REMARK UNBOUND:                -3.012
REMARK SMILES CCCCCCCCCCCCCCCCCCCCCCCCCCCC(=O)[O-]
REMARK SMILES IDX 15 1 16 2 17 3 18 4 19 5 20 6 21 7 22 8 23 9 24 10 25 11
REMARK SMILES IDX 26 12 27 13 28 14 29 15 30 16 14 17 13 18 12 19 11 20 10 21
REMARK SMILES IDX 9 22 8 23 7 24 6 25 5 26 4 27 3 28 2 29 1 30
REMARK H PARENT
REMARK Flexibility Score: inf
ROOT
ATOM      1  C   UNL     1      -1.671 -10.927   0.840  1.00  0.00     0.000 C 
ENDROOT
BRANCH   1   2
ATOM      2  C   UNL     1      -2.933 -10.803   1.714  1.00  0.00     0.000 C 
BRANCH   2   3
ATOM      3  C   UNL     1      -2.612 -10.657   3.208  1.00  0.00     0.000 C 
BRANCH   3   4
ATOM      4  C   UNL     1      -2.073  -9.255   3.519  1.00  0.00     0.000 C 
BRANCH   4   5
ATOM      5  C   UNL     1      -3.021  -8.429   4.408  1.00  0.00     0.000 C 
BRANCH   5   6
ATOM      6  C   UNL     1      -4.048  -9.280   5.183  1.00  0.00     0.000 C 
BRANCH   6   7
ATOM      7  C   UNL     1      -5.402  -8.566   5.350  1.00  0.00     0.000 C 
BRANCH   7   8
ATOM      8  C   UNL     1      -5.447  -7.662   6.592  1.00  0.00     0.000 C 
BRANCH   8   9
ATOM      9  C   UNL     1      -5.052  -6.205   6.288  1.00  0.00     0.000 C 
BRANCH   9  10
ATOM     10  C   UNL     1      -6.256  -5.250   6.376  1.00  0.00     0.000 C 
BRANCH  10  11
ATOM     11  C   UNL     1      -6.166  -4.059   5.404  1.00  0.00     0.000 C 
BRANCH  11  12
ATOM     12  C   UNL     1      -5.794  -2.751   6.123  1.00  0.00     0.006 C 
BRANCH  12  13
ATOM     13  C   UNL     1      -6.868  -1.667   5.954  1.00  0.00     0.053 C 
BRANCH  13  14
ATOM     14  C   UNL     1      -6.402  -0.336   6.458  1.00  0.00     0.041 C 
ATOM     15  O   UNL     1      -5.208   0.028   6.282  1.00  0.00    -0.550 OA
ATOM     16  O   UNL     1      -7.269   0.474   7.181  1.00  0.00    -0.550 OA
ENDBRANCH  13  14
ENDBRANCH  12  13
ENDBRANCH  11  12
ENDBRANCH  10  11
ENDBRANCH   9  10
ENDBRANCH   8   9
ENDBRANCH   7   8
ENDBRANCH   6   7
ENDBRANCH   5   6
ENDBRANCH   4   5
ENDBRANCH   3   4
ENDBRANCH   2   3
ENDBRANCH   1   2
BRANCH   1  17
ATOM     17  C   UNL     1      -1.788 -10.316  -0.569  1.00  0.00     0.000 C 
BRANCH  17  18
ATOM     18  C   UNL     1      -0.823  -9.156  -0.880  1.00  0.00     0.000 C 
BRANCH  18  19
ATOM     19  C   UNL     1      -1.482  -7.941  -1.565  1.00  0.00     0.000 C 
BRANCH  19  20
ATOM     20  C   UNL     1      -0.491  -7.106  -2.394  1.00  0.00     0.000 C 
BRANCH  20  21
ATOM     21  C   UNL     1       0.384  -6.196  -1.511  1.00  0.00     0.000 C 
BRANCH  21  22
ATOM     22  C   UNL     1       0.501  -4.753  -2.040  1.00  0.00    -0.000 C 
BRANCH  22  23
ATOM     23  C   UNL     1       0.644  -3.727  -0.901  1.00  0.00    -0.000 C 
BRANCH  23  24
ATOM     24  C   UNL     1       0.058  -2.352  -1.262  1.00  0.00    -0.000 C 
BRANCH  24  25
ATOM     25  C   UNL     1       0.664  -1.770  -2.551  1.00  0.00    -0.000 C 
BRANCH  25  26
ATOM     26  C   UNL     1       2.201  -1.841  -2.570  1.00  0.00    -0.000 C 
BRANCH  26  27
ATOM     27  C   UNL     1       2.861  -0.666  -1.827  1.00  0.00    -0.000 C 
BRANCH  27  28
ATOM     28  C   UNL     1       4.236  -0.337  -2.429  1.00  0.00    -0.000 C 
BRANCH  28  29
ATOM     29  C   UNL     1       5.395  -0.718  -1.492  1.00  0.00    -0.003 C 
ATOM     30  C   UNL     1       6.728  -0.103  -1.921  1.00  0.00     0.004 C 
ENDBRANCH  28  29
ENDBRANCH  27  28
ENDBRANCH  26  27
ENDBRANCH  25  26
ENDBRANCH  24  25
ENDBRANCH  23  24
ENDBRANCH  22  23
ENDBRANCH  21  22
ENDBRANCH  20  21
ENDBRANCH  19  20
ENDBRANCH  18  19
ENDBRANCH  17  18
ENDBRANCH   1  17
TORSDOF 26
ENDMDL
MODEL 7
REMARK VINA RESULT:    -3.284      4.002      8.229
REMARK INTER + INTRA:         -11.287
REMARK INTER:                  -9.072
REMARK INTRA:                  -2.216
REMARK UNBOUND:                -3.012
REMARK SMILES CCCCCCCCCCCCCCCCCCCCCCCCCCCC(=O)[O-]
REMARK SMILES IDX 15 1 16 2 17 3 18 4 19 5 20 6 21 7 22 8 23 9 24 10 25 11
REMARK SMILES IDX 26 12 27 13 28 14 29 15 30 16 14 17 13 18 12 19 11 20 10 21
REMARK SMILES IDX 9 22 8 23 7 24 6 25 5 26 4 27 3 28 2 29 1 30
REMARK H PARENT
REMARK Flexibility Score: inf
ROOT
ATOM      1  C   UNL     1      -3.956  -3.925   7.972  1.00  0.00     0.000 C 
ENDROOT
BRANCH   1   2
ATOM      2  C   UNL     1      -4.394  -5.194   7.217  1.00  0.00     0.000 C 
BRANCH   2   3
ATOM      3  C   UNL     1      -5.790  -5.681   7.629  1.00  0.00     0.000 C 
BRANCH   3   4
ATOM      4  C   UNL     1      -5.786  -7.192   7.898  1.00  0.00     0.000 C 
BRANCH   4   5
ATOM      5  C   UNL     1      -6.859  -7.949   7.096  1.00  0.00     0.000 C 
BRANCH   5   6
ATOM      6  C   UNL     1      -6.283  -8.929   6.053  1.00  0.00     0.000 C 
BRANCH   6   7
ATOM      7  C   UNL     1      -6.048 -10.338   6.632  1.00  0.00     0.000 C 
BRANCH   7   8
ATOM      8  C   UNL     1      -4.783 -11.006   6.072  1.00  0.00     0.000 C 
BRANCH   8   9
ATOM      9  C   UNL     1      -4.330 -10.400   4.730  1.00  0.00     0.000 C 
BRANCH   9  10
ATOM     10  C   UNL     1      -3.762  -8.979   4.901  1.00  0.00     0.000 C 
BRANCH  10  11
ATOM     11  C   UNL     1      -2.593  -8.668   3.948  1.00  0.00     0.000 C 
BRANCH  11  12
ATOM     12  C   UNL     1      -2.322  -9.823   2.968  1.00  0.00     0.006 C 
BRANCH  12  13
ATOM     13  C   UNL     1      -1.985  -9.323   1.557  1.00  0.00     0.053 C 
BRANCH  13  14
ATOM     14  C   UNL     1      -1.636 -10.450   0.633  1.00  0.00     0.041 C 
ATOM     15  O   UNL     1      -0.587 -11.125   0.822  1.00  0.00    -0.550 OA
ATOM     16  O   UNL     1      -2.431 -10.711  -0.475  1.00  0.00    -0.550 OA
ENDBRANCH  13  14
ENDBRANCH  12  13
ENDBRANCH  11  12
ENDBRANCH  10  11
ENDBRANCH   9  10
ENDBRANCH   8   9
ENDBRANCH   7   8
ENDBRANCH   6   7
ENDBRANCH   5   6
ENDBRANCH   4   5
ENDBRANCH   3   4
ENDBRANCH   2   3
ENDBRANCH   1   2
BRANCH   1  17
ATOM     17  C   UNL     1      -4.759  -2.654   7.637  1.00  0.00     0.000 C 
BRANCH  17  18
ATOM     18  C   UNL     1      -4.400  -1.964   6.308  1.00  0.00     0.000 C 
BRANCH  18  19
ATOM     19  C   UNL     1      -5.611  -1.637   5.409  1.00  0.00     0.000 C 
BRANCH  19  20
ATOM     20  C   UNL     1      -6.878  -2.416   5.800  1.00  0.00     0.000 C 
BRANCH  20  21
ATOM     21  C   UNL     1      -7.951  -1.505   6.428  1.00  0.00     0.000 C 
BRANCH  21  22
ATOM     22  C   UNL     1      -9.329  -2.182   6.566  1.00  0.00    -0.000 C 
BRANCH  22  23
ATOM     23  C   UNL     1      -9.235  -3.551   7.265  1.00  0.00    -0.000 C 
BRANCH  23  24
ATOM     24  C   UNL     1      -9.970  -4.662   6.495  1.00  0.00    -0.000 C 
BRANCH  24  25
ATOM     25  C   UNL     1      -9.043  -5.430   5.536  1.00  0.00    -0.000 C 
BRANCH  25  26
ATOM     26  C   UNL     1      -9.816  -6.218   4.465  1.00  0.00    -0.000 C 
BRANCH  26  27
ATOM     27  C   UNL     1      -8.918  -7.185   3.673  1.00  0.00    -0.000 C 
BRANCH  27  28
ATOM     28  C   UNL     1      -9.621  -8.534   3.454  1.00  0.00    -0.000 C 
BRANCH  28  29
ATOM     29  C   UNL     1      -8.628  -9.702   3.330  1.00  0.00    -0.003 C 
ATOM     30  C   UNL     1      -9.271 -10.967   2.760  1.00  0.00     0.004 C 
ENDBRANCH  28  29
ENDBRANCH  27  28
ENDBRANCH  26  27
ENDBRANCH  25  26
ENDBRANCH  24  25
ENDBRANCH  23  24
ENDBRANCH  22  23
ENDBRANCH  21  22
ENDBRANCH  20  21
ENDBRANCH  19  20
ENDBRANCH  18  19
ENDBRANCH  17  18
ENDBRANCH   1  17
TORSDOF 26
ENDMDL
MODEL 8
REMARK VINA RESULT:    -3.146      2.014      2.508
REMARK INTER + INTRA:         -10.939
REMARK INTER:                  -7.875
REMARK INTRA:                  -3.065
REMARK UNBOUND:                -3.012
REMARK SMILES CCCCCCCCCCCCCCCCCCCCCCCCCCCC(=O)[O-]
REMARK SMILES IDX 15 1 16 2 17 3 18 4 19 5 20 6 21 7 22 8 23 9 24 10 25 11
REMARK SMILES IDX 26 12 27 13 28 14 29 15 30 16 14 17 13 18 12 19 11 20 10 21
REMARK SMILES IDX 9 22 8 23 7 24 6 25 5 26 4 27 3 28 2 29 1 30
REMARK H PARENT
REMARK Flexibility Score: inf
ROOT
ATOM      1  C   UNL     1      -7.809  -6.174   5.701  1.00  0.00     0.000 C 
ENDROOT
BRANCH   1   2
ATOM      2  C   UNL     1      -6.810  -6.383   6.854  1.00  0.00     0.000 C 
BRANCH   2   3
ATOM      3  C   UNL     1      -6.737  -5.181   7.806  1.00  0.00     0.000 C 
BRANCH   3   4
ATOM      4  C   UNL     1      -5.283  -4.739   8.018  1.00  0.00     0.000 C 
BRANCH   4   5
ATOM      5  C   UNL     1      -4.260  -5.750   7.471  1.00  0.00     0.000 C 
BRANCH   5   6
ATOM      6  C   UNL     1      -3.552  -5.284   6.182  1.00  0.00     0.000 C 
BRANCH   6   7
ATOM      7  C   UNL     1      -3.524  -3.750   6.044  1.00  0.00     0.000 C 
BRANCH   7   8
ATOM      8  C   UNL     1      -4.277  -3.254   4.799  1.00  0.00     0.000 C 
BRANCH   8   9
ATOM      9  C   UNL     1      -5.635  -2.611   5.138  1.00  0.00     0.000 C 
BRANCH   9  10
ATOM     10  C   UNL     1      -5.482  -1.393   6.067  1.00  0.00     0.000 C 
BRANCH  10  11
ATOM     11  C   UNL     1      -6.820  -0.717   6.416  1.00  0.00     0.000 C 
BRANCH  11  12
ATOM     12  C   UNL     1      -8.027  -1.527   5.912  1.00  0.00     0.006 C 
BRANCH  12  13
ATOM     13  C   UNL     1      -9.067  -1.770   7.014  1.00  0.00     0.053 C 
BRANCH  13  14
ATOM     14  C   UNL     1      -9.746  -3.097   6.860  1.00  0.00     0.041 C 
ATOM     15  O   UNL     1      -9.923  -3.839   7.864  1.00  0.00    -0.550 OA
ATOM     16  O   UNL     1     -10.121  -3.543   5.600  1.00  0.00    -0.550 OA
ENDBRANCH  13  14
ENDBRANCH  12  13
ENDBRANCH  11  12
ENDBRANCH  10  11
ENDBRANCH   9  10
ENDBRANCH   8   9
ENDBRANCH   7   8
ENDBRANCH   6   7
ENDBRANCH   5   6
ENDBRANCH   4   5
ENDBRANCH   3   4
ENDBRANCH   2   3
ENDBRANCH   1   2
BRANCH   1  17
ATOM     17  C   UNL     1      -9.187  -6.833   5.901  1.00  0.00     0.000 C 
BRANCH  17  18
ATOM     18  C   UNL     1      -9.504  -8.020   4.972  1.00  0.00     0.000 C 
BRANCH  18  19
ATOM     19  C   UNL     1      -9.272  -9.408   5.606  1.00  0.00     0.000 C 
BRANCH  19  20
ATOM     20  C   UNL     1      -7.897 -10.005   5.258  1.00  0.00     0.000 C 
BRANCH  20  21
ATOM     21  C   UNL     1      -6.980 -10.111   6.492  1.00  0.00     0.000 C 
BRANCH  21  22
ATOM     22  C   UNL     1      -5.753  -9.181   6.427  1.00  0.00    -0.000 C 
BRANCH  22  23
ATOM     23  C   UNL     1      -4.443  -9.963   6.217  1.00  0.00    -0.000 C 
BRANCH  23  24
ATOM     24  C   UNL     1      -4.598 -11.125   5.221  1.00  0.00    -0.000 C 
BRANCH  24  25
ATOM     25  C   UNL     1      -3.547 -11.086   4.099  1.00  0.00    -0.000 C 
BRANCH  25  26
ATOM     26  C   UNL     1      -3.285  -9.664   3.576  1.00  0.00    -0.000 C 
BRANCH  26  27
ATOM     27  C   UNL     1      -1.957  -9.545   2.809  1.00  0.00    -0.000 C 
BRANCH  27  28
ATOM     28  C   UNL     1      -1.688 -10.808   1.975  1.00  0.00    -0.000 C 
BRANCH  28  29
ATOM     29  C   UNL     1      -1.164 -10.483   0.567  1.00  0.00    -0.003 C 
ATOM     30  C   UNL     1      -2.277 -10.424  -0.480  1.00  0.00     0.004 C 
ENDBRANCH  28  29
ENDBRANCH  27  28
ENDBRANCH  26  27
ENDBRANCH  25  26
ENDBRANCH  24  25
ENDBRANCH  23  24
ENDBRANCH  22  23
ENDBRANCH  21  22
ENDBRANCH  20  21
ENDBRANCH  19  20
ENDBRANCH  18  19
ENDBRANCH  17  18
ENDBRANCH   1  17
TORSDOF 26
ENDMDL
MODEL 9
REMARK VINA RESULT:    -2.915      2.373      3.402
REMARK INTER + INTRA:         -10.357
REMARK INTER:                  -7.434
REMARK INTRA:                  -2.923
REMARK UNBOUND:                -3.012
REMARK SMILES CCCCCCCCCCCCCCCCCCCCCCCCCCCC(=O)[O-]
REMARK SMILES IDX 15 1 16 2 17 3 18 4 19 5 20 6 21 7 22 8 23 9 24 10 25 11
REMARK SMILES IDX 26 12 27 13 28 14 29 15 30 16 14 17 13 18 12 19 11 20 10 21
REMARK SMILES IDX 9 22 8 23 7 24 6 25 5 26 4 27 3 28 2 29 1 30
REMARK H PARENT
REMARK Flexibility Score: inf
ROOT
ATOM      1  C   UNL     1      -7.935  -7.528   5.920  1.00  0.00     0.000 C 
ENDROOT
BRANCH   1   2
ATOM      2  C   UNL     1      -6.545  -7.238   6.516  1.00  0.00     0.000 C 
BRANCH   2   3
ATOM      3  C   UNL     1      -6.570  -6.127   7.576  1.00  0.00     0.000 C 
BRANCH   3   4
ATOM      4  C   UNL     1      -5.206  -5.430   7.671  1.00  0.00     0.000 C 
BRANCH   4   5
ATOM      5  C   UNL     1      -4.209  -5.911   6.601  1.00  0.00     0.000 C 
BRANCH   5   6
ATOM      6  C   UNL     1      -3.602  -4.771   5.757  1.00  0.00     0.000 C 
BRANCH   6   7
ATOM      7  C   UNL     1      -3.366  -3.489   6.578  1.00  0.00     0.000 C 
BRANCH   7   8
ATOM      8  C   UNL     1      -3.762  -2.215   5.814  1.00  0.00     0.000 C 
BRANCH   8   9
ATOM      9  C   UNL     1      -5.242  -1.839   6.005  1.00  0.00     0.000 C 
BRANCH   9  10
ATOM     10  C   UNL     1      -5.640  -1.794   7.492  1.00  0.00     0.000 C 
BRANCH  10  11
ATOM     11  C   UNL     1      -7.109  -2.179   7.745  1.00  0.00     0.000 C 
BRANCH  11  12
ATOM     12  C   UNL     1      -7.788  -2.736   6.482  1.00  0.00     0.006 C 
BRANCH  12  13
ATOM     13  C   UNL     1      -9.310  -2.847   6.639  1.00  0.00     0.053 C 
BRANCH  13  14
ATOM     14  C   UNL     1      -9.786  -4.260   6.497  1.00  0.00     0.041 C 
ATOM     15  O   UNL     1      -9.958  -4.979   7.519  1.00  0.00    -0.550 OA
ATOM     16  O   UNL     1      -9.977  -4.805   5.233  1.00  0.00    -0.550 OA
ENDBRANCH  13  14
ENDBRANCH  12  13
ENDBRANCH  11  12
ENDBRANCH  10  11
ENDBRANCH   9  10
ENDBRANCH   8   9
ENDBRANCH   7   8
ENDBRANCH   6   7
ENDBRANCH   5   6
ENDBRANCH   4   5
ENDBRANCH   3   4
ENDBRANCH   2   3
ENDBRANCH   1   2
BRANCH   1  17
ATOM     17  C   UNL     1      -8.633  -8.786   6.469  1.00  0.00     0.000 C 
BRANCH  17  18
ATOM     18  C   UNL     1      -8.968  -9.875   5.431  1.00  0.00     0.000 C 
BRANCH  18  19
ATOM     19  C   UNL     1      -8.042 -11.108   5.476  1.00  0.00     0.000 C 
BRANCH  19  20
ATOM     20  C   UNL     1      -6.877 -11.023   4.475  1.00  0.00     0.000 C 
BRANCH  20  21
ATOM     21  C   UNL     1      -5.515 -10.872   5.179  1.00  0.00     0.000 C 
BRANCH  21  22
ATOM     22  C   UNL     1      -4.765  -9.580   4.800  1.00  0.00    -0.000 C 
BRANCH  22  23
ATOM     23  C   UNL     1      -3.320  -9.860   4.348  1.00  0.00    -0.000 C 
BRANCH  23  24
ATOM     24  C   UNL     1      -3.233 -10.974   3.290  1.00  0.00    -0.000 C 
BRANCH  24  25
ATOM     25  C   UNL     1      -2.015 -10.816   2.364  1.00  0.00    -0.000 C 
BRANCH  25  26
ATOM     26  C   UNL     1      -2.409 -10.495   0.912  1.00  0.00    -0.000 C 
BRANCH  26  27
ATOM     27  C   UNL     1      -1.192 -10.230   0.009  1.00  0.00    -0.000 C 
BRANCH  27  28
ATOM     28  C   UNL     1      -1.531  -9.205  -1.085  1.00  0.00    -0.000 C 
BRANCH  28  29
ATOM     29  C   UNL     1      -0.380  -8.219  -1.345  1.00  0.00    -0.003 C 
ATOM     30  C   UNL     1      -0.771  -7.093  -2.304  1.00  0.00     0.004 C 
ENDBRANCH  28  29
ENDBRANCH  27  28
ENDBRANCH  26  27
ENDBRANCH  25  26
ENDBRANCH  24  25
ENDBRANCH  23  24
ENDBRANCH  22  23
ENDBRANCH  21  22
ENDBRANCH  20  21
ENDBRANCH  19  20
ENDBRANCH  18  19
ENDBRANCH  17  18
ENDBRANCH   1  17
TORSDOF 26
ENDMDL
