MODEL 1
REMARK VINA RESULT:    -6.717      0.000      0.000
REMARK INTER + INTRA:          -8.304
REMARK INTER:                  -8.091
REMARK INTRA:                  -0.214
REMARK UNBOUND:                -0.214
REMARK SMILES O=c1c(O)c(-c2ccc(O)c(O)c2)oc2cc(O)cc(O)c12
REMARK SMILES IDX 5 1 3 2 2 3 1 4 22 5 20 6 19 7 17 8 16 9 15 10 14 11 6 12
REMARK SMILES IDX 7 13 8 14 9 15 13 16 11 17 10 18 12 20 4 22 21 24 18 26
REMARK H PARENT 10 19 12 21 4 23 21 25 18 27
REMARK Flexibility Score: inf
ROOT
ATOM      1  C   UNL     1      18.740  -1.596 -17.035  1.00  0.00     0.180 A 
ATOM      2  C   UNL     1      18.156  -0.844 -16.000  1.00  0.00     0.208 A 
ATOM      3  C   UNL     1      17.501  -1.515 -14.957  1.00  0.00     0.238 A 
ATOM      4  O   UNL     1      17.046  -0.840 -13.997  1.00  0.00    -0.285 OA
ATOM      5  C   UNL     1      17.387  -2.927 -14.986  1.00  0.00     0.111 A 
ATOM      6  C   UNL     1      16.705  -3.708 -14.005  1.00  0.00     0.134 A 
ATOM      7  C   UNL     1      16.749  -5.106 -14.083  1.00  0.00     0.093 A 
ATOM      8  C   UNL     1      17.396  -5.749 -15.141  1.00  0.00     0.123 A 
ATOM      9  C   UNL     1      18.017  -4.994 -16.133  1.00  0.00     0.094 A 
ATOM     10  C   UNL     1      18.023  -3.599 -16.063  1.00  0.00     0.146 A 
ATOM     11  O   UNL     1      18.645  -2.920 -17.019  1.00  0.00    -0.452 OA
ENDROOT
BRANCH   1  12
ATOM     12  C   UNL     1      19.460  -0.961 -18.161  1.00  0.00     0.025 A 
ATOM     13  C   UNL     1      20.696  -0.336 -17.925  1.00  0.00     0.016 A 
ATOM     14  C   UNL     1      21.383   0.289 -18.970  1.00  0.00     0.051 A 
ATOM     15  C   UNL     1      20.841   0.312 -20.259  1.00  0.00     0.157 A 
ATOM     16  C   UNL     1      18.907  -0.917 -19.453  1.00  0.00     0.062 A 
ATOM     17  C   UNL     1      19.596  -0.289 -20.502  1.00  0.00     0.158 A 
BRANCH  15  18
ATOM     18  O   UNL     1      21.551   0.941 -21.281  1.00  0.00    -0.504 OA
ATOM     19  H   UNL     1      22.545   0.796 -21.413  1.00  0.00     0.293 HD
ENDBRANCH  15  18
BRANCH  17  20
ATOM     20  O   UNL     1      19.043  -0.257 -21.782  1.00  0.00    -0.504 OA
ATOM     21  H   UNL     1      19.618  -0.356 -22.611  1.00  0.00     0.293 HD
ENDBRANCH  17  20
ENDBRANCH   1  12
BRANCH   2  22
ATOM     22  O   UNL     1      18.212   0.552 -16.028  1.00  0.00    -0.502 OA
ATOM     23  H   UNL     1      18.656   1.065 -16.781  1.00  0.00     0.293 HD
ENDBRANCH   2  22
BRANCH   6  24
ATOM     24  O   UNL     1      15.955  -3.168 -12.957  1.00  0.00    -0.507 OA
ATOM     25  H   UNL     1      16.288  -2.471 -12.308  1.00  0.00     0.293 HD
ENDBRANCH   6  24
BRANCH   8  26
ATOM     26  O   UNL     1      17.420  -7.140 -15.220  1.00  0.00    -0.508 OA
ATOM     27  H   UNL     1      17.122  -7.720 -14.444  1.00  0.00     0.293 HD
ENDBRANCH   8  26
TORSDOF 6
ENDMDL
MODEL 2
REMARK VINA RESULT:    -6.208      1.177      2.837
REMARK INTER + INTRA:          -7.692
REMARK INTER:                  -7.534
REMARK INTRA:                  -0.158
REMARK UNBOUND:                -0.214
REMARK SMILES O=c1c(O)c(-c2ccc(O)c(O)c2)oc2cc(O)cc(O)c12
REMARK SMILES IDX 5 1 3 2 2 3 1 4 22 5 20 6 19 7 17 8 16 9 15 10 14 11 6 12
REMARK SMILES IDX 7 13 8 14 9 15 13 16 11 17 10 18 12 20 4 22 21 24 18 26
REMARK H PARENT 10 19 12 21 4 23 21 25 18 27
REMARK Flexibility Score: inf
ROOT
ATOM      1  C   UNL     1      18.733  -2.193 -17.329  1.00  0.00     0.180 A 
ATOM      2  C   UNL     1      18.562  -3.574 -17.524  1.00  0.00     0.208 A 
ATOM      3  C   UNL     1      17.899  -4.324 -16.540  1.00  0.00     0.238 A 
ATOM      4  O   UNL     1      17.683  -5.545 -16.755  1.00  0.00    -0.285 OA
ATOM      5  C   UNL     1      17.464  -3.696 -15.347  1.00  0.00     0.111 A 
ATOM      6  C   UNL     1      16.823  -4.367 -14.263  1.00  0.00     0.134 A 
ATOM      7  C   UNL     1      16.342  -3.623 -13.178  1.00  0.00     0.093 A 
ATOM      8  C   UNL     1      16.537  -2.243 -13.108  1.00  0.00     0.123 A 
ATOM      9  C   UNL     1      17.211  -1.586 -14.136  1.00  0.00     0.094 A 
ATOM     10  C   UNL     1      17.668  -2.295 -15.248  1.00  0.00     0.146 A 
ATOM     11  O   UNL     1      18.287  -1.626 -16.214  1.00  0.00    -0.452 OA
ENDROOT
BRANCH   1  12
ATOM     12  C   UNL     1      19.408  -1.333 -18.327  1.00  0.00     0.025 A 
ATOM     13  C   UNL     1      20.559  -0.619 -17.956  1.00  0.00     0.016 A 
ATOM     14  C   UNL     1      21.201   0.216 -18.875  1.00  0.00     0.051 A 
ATOM     15  C   UNL     1      20.696   0.360 -20.172  1.00  0.00     0.157 A 
ATOM     16  C   UNL     1      18.890  -1.169 -19.623  1.00  0.00     0.062 A 
ATOM     17  C   UNL     1      19.533  -0.331 -20.547  1.00  0.00     0.158 A 
BRANCH  15  18
ATOM     18  O   UNL     1      21.359   1.198 -21.067  1.00  0.00    -0.504 OA
ATOM     19  H   UNL     1      20.899   1.986 -21.507  1.00  0.00     0.293 HD
ENDBRANCH  15  18
BRANCH  17  20
ATOM     20  O   UNL     1      19.016  -0.179 -21.833  1.00  0.00    -0.504 OA
ATOM     21  H   UNL     1      18.493  -0.921 -22.286  1.00  0.00     0.293 HD
ENDBRANCH  17  20
ENDBRANCH   1  12
BRANCH   2  22
ATOM     22  O   UNL     1      19.065  -4.190 -18.674  1.00  0.00    -0.502 OA
ATOM     23  H   UNL     1      18.700  -3.996 -19.599  1.00  0.00     0.293 HD
ENDBRANCH   2  22
BRANCH   6  24
ATOM     24  O   UNL     1      16.654  -5.753 -14.189  1.00  0.00    -0.507 OA
ATOM     25  H   UNL     1      17.402  -6.420 -14.071  1.00  0.00     0.293 HD
ENDBRANCH   6  24
BRANCH   8  26
ATOM     26  O   UNL     1      16.071  -1.513 -12.017  1.00  0.00    -0.508 OA
ATOM     27  H   UNL     1      16.396  -0.571 -11.831  1.00  0.00     0.293 HD
ENDBRANCH   8  26
TORSDOF 6
ENDMDL
MODEL 3
REMARK VINA RESULT:    -6.067      7.527     10.997
REMARK INTER + INTRA:          -7.521
REMARK INTER:                  -7.214
REMARK INTRA:                  -0.308
REMARK UNBOUND:                -0.214
REMARK SMILES O=c1c(O)c(-c2ccc(O)c(O)c2)oc2cc(O)cc(O)c12
REMARK SMILES IDX 5 1 3 2 2 3 1 4 22 5 20 6 19 7 17 8 16 9 15 10 14 11 6 12
REMARK SMILES IDX 7 13 8 14 9 15 13 16 11 17 10 18 12 20 4 22 21 24 18 26
REMARK H PARENT 10 19 12 21 4 23 21 25 18 27
REMARK Flexibility Score: inf
ROOT
ATOM      1  C   UNL     1      11.336  -6.283 -10.862  1.00  0.00     0.180 A 
ATOM      2  C   UNL     1      11.113  -6.561  -9.502  1.00  0.00     0.208 A 
ATOM      3  C   UNL     1       9.949  -7.252  -9.130  1.00  0.00     0.238 A 
ATOM      4  O   UNL     1       9.793  -7.563  -7.921  1.00  0.00    -0.285 OA
ATOM      5  C   UNL     1       8.994  -7.607 -10.114  1.00  0.00     0.111 A 
ATOM      6  C   UNL     1       7.758  -8.267  -9.845  1.00  0.00     0.134 A 
ATOM      7  C   UNL     1       6.940  -8.663 -10.911  1.00  0.00     0.093 A 
ATOM      8  C   UNL     1       7.283  -8.365 -12.231  1.00  0.00     0.123 A 
ATOM      9  C   UNL     1       8.461  -7.671 -12.500  1.00  0.00     0.094 A 
ATOM     10  C   UNL     1       9.315  -7.297 -11.462  1.00  0.00     0.146 A 
ATOM     11  O   UNL     1      10.438  -6.656 -11.766  1.00  0.00    -0.452 OA
ENDROOT
BRANCH   1  12
ATOM     12  C   UNL     1      12.546  -5.572 -11.333  1.00  0.00     0.025 A 
ATOM     13  C   UNL     1      13.738  -6.290 -11.521  1.00  0.00     0.016 A 
ATOM     14  C   UNL     1      14.898  -5.635 -11.945  1.00  0.00     0.051 A 
ATOM     15  C   UNL     1      14.889  -4.256 -12.172  1.00  0.00     0.157 A 
ATOM     16  C   UNL     1      12.545  -4.182 -11.541  1.00  0.00     0.062 A 
ATOM     17  C   UNL     1      13.710  -3.523 -11.965  1.00  0.00     0.158 A 
BRANCH  15  18
ATOM     18  O   UNL     1      16.062  -3.631 -12.597  1.00  0.00    -0.504 OA
ATOM     19  H   UNL     1      16.977  -4.031 -12.423  1.00  0.00     0.293 HD
ENDBRANCH  15  18
BRANCH  17  20
ATOM     20  O   UNL     1      13.698  -2.145 -12.174  1.00  0.00    -0.504 OA
ATOM     21  H   UNL     1      13.983  -1.740 -13.059  1.00  0.00     0.293 HD
ENDBRANCH  17  20
ENDBRANCH   1  12
BRANCH   2  22
ATOM     22  O   UNL     1      12.031  -6.135  -8.538  1.00  0.00    -0.502 OA
ATOM     23  H   UNL     1      12.300  -6.713  -7.751  1.00  0.00     0.293 HD
ENDBRANCH   2  22
BRANCH   6  24
ATOM     24  O   UNL     1       7.277  -8.536  -8.560  1.00  0.00    -0.507 OA
ATOM     25  H   UNL     1       6.368  -8.266  -8.216  1.00  0.00     0.293 HD
ENDBRANCH   6  24
BRANCH   8  26
ATOM     26  O   UNL     1       6.455  -8.747 -13.285  1.00  0.00    -0.508 OA
ATOM     27  H   UNL     1       5.519  -8.372 -13.386  1.00  0.00     0.293 HD
ENDBRANCH   8  26
TORSDOF 6
ENDMDL
MODEL 4
REMARK VINA RESULT:    -5.964      7.595      9.926
REMARK INTER + INTRA:          -7.398
REMARK INTER:                  -7.171
REMARK INTRA:                  -0.226
REMARK UNBOUND:                -0.214
REMARK SMILES O=c1c(O)c(-c2ccc(O)c(O)c2)oc2cc(O)cc(O)c12
REMARK SMILES IDX 5 1 3 2 2 3 1 4 22 5 20 6 19 7 17 8 16 9 15 10 14 11 6 12
REMARK SMILES IDX 7 13 8 14 9 15 13 16 11 17 10 18 12 20 4 22 21 24 18 26
REMARK H PARENT 10 19 12 21 4 23 21 25 18 27
REMARK Flexibility Score: inf
ROOT
ATOM      1  C   UNL     1      19.093  -2.402  -8.421  1.00  0.00     0.180 A 
ATOM      2  C   UNL     1      19.012  -2.753  -7.062  1.00  0.00     0.208 A 
ATOM      3  C   UNL     1      20.195  -3.012  -6.353  1.00  0.00     0.238 A 
ATOM      4  O   UNL     1      20.119  -3.251  -5.120  1.00  0.00    -0.285 OA
ATOM      5  C   UNL     1      21.442  -2.973  -7.023  1.00  0.00     0.111 A 
ATOM      6  C   UNL     1      22.700  -3.263  -6.414  1.00  0.00     0.134 A 
ATOM      7  C   UNL     1      23.880  -3.089  -7.150  1.00  0.00     0.093 A 
ATOM      8  C   UNL     1      23.842  -2.698  -8.490  1.00  0.00     0.123 A 
ATOM      9  C   UNL     1      22.615  -2.466  -9.109  1.00  0.00     0.094 A 
ATOM     10  C   UNL     1      21.425  -2.594  -8.391  1.00  0.00     0.146 A 
ATOM     11  O   UNL     1      20.280  -2.343  -9.015  1.00  0.00    -0.452 OA
ENDROOT
BRANCH   1  12
ATOM     12  C   UNL     1      17.892  -2.101  -9.231  1.00  0.00     0.025 A 
ATOM     13  C   UNL     1      17.620  -0.771  -9.592  1.00  0.00     0.016 A 
ATOM     14  C   UNL     1      16.479  -0.461 -10.339  1.00  0.00     0.051 A 
ATOM     15  C   UNL     1      15.588  -1.469 -10.722  1.00  0.00     0.157 A 
ATOM     16  C   UNL     1      16.983  -3.109  -9.598  1.00  0.00     0.062 A 
ATOM     17  C   UNL     1      15.838  -2.798 -10.346  1.00  0.00     0.158 A 
BRANCH  15  18
ATOM     18  O   UNL     1      14.461  -1.128 -11.468  1.00  0.00    -0.504 OA
ATOM     19  H   UNL     1      14.449  -0.328 -12.090  1.00  0.00     0.293 HD
ENDBRANCH  15  18
BRANCH  17  20
ATOM     20  O   UNL     1      14.945  -3.805 -10.712  1.00  0.00    -0.504 OA
ATOM     21  H   UNL     1      14.563  -4.450 -10.028  1.00  0.00     0.293 HD
ENDBRANCH  17  20
ENDBRANCH   1  12
BRANCH   2  22
ATOM     22  O   UNL     1      17.766  -2.860  -6.437  1.00  0.00    -0.502 OA
ATOM     23  H   UNL     1      17.667  -3.104  -5.459  1.00  0.00     0.293 HD
ENDBRANCH   2  22
BRANCH   6  24
ATOM     24  O   UNL     1      22.848  -3.744  -5.110  1.00  0.00    -0.507 OA
ATOM     25  H   UNL     1      22.456  -3.312  -4.288  1.00  0.00     0.293 HD
ENDBRANCH   6  24
BRANCH   8  26
ATOM     26  O   UNL     1      25.019  -2.544  -9.220  1.00  0.00    -0.508 OA
ATOM     27  H   UNL     1      25.135  -1.790  -9.886  1.00  0.00     0.293 HD
ENDBRANCH   8  26
TORSDOF 6
ENDMDL
MODEL 5
REMARK VINA RESULT:    -5.939      7.611     12.721
REMARK INTER + INTRA:          -7.368
REMARK INTER:                  -7.089
REMARK INTRA:                  -0.279
REMARK UNBOUND:                -0.214
REMARK SMILES O=c1c(O)c(-c2ccc(O)c(O)c2)oc2cc(O)cc(O)c12
REMARK SMILES IDX 5 1 3 2 2 3 1 4 22 5 20 6 19 7 17 8 16 9 15 10 14 11 6 12
REMARK SMILES IDX 7 13 8 14 9 15 13 16 11 17 10 18 12 20 4 22 21 24 18 26
REMARK H PARENT 10 19 12 21 4 23 21 25 18 27
REMARK Flexibility Score: inf
ROOT
ATOM      1  C   UNL     1      10.992  -6.489  -9.695  1.00  0.00     0.180 A 
ATOM      2  C   UNL     1      10.866  -7.682 -10.427  1.00  0.00     0.208 A 
ATOM      3  C   UNL     1      11.863  -8.020 -11.355  1.00  0.00     0.238 A 
ATOM      4  O   UNL     1      11.782  -9.125 -11.952  1.00  0.00    -0.285 OA
ATOM      5  C   UNL     1      12.945  -7.135 -11.583  1.00  0.00     0.111 A 
ATOM      6  C   UNL     1      13.988  -7.353 -12.533  1.00  0.00     0.134 A 
ATOM      7  C   UNL     1      15.064  -6.458 -12.595  1.00  0.00     0.093 A 
ATOM      8  C   UNL     1      15.101  -5.320 -11.788  1.00  0.00     0.123 A 
ATOM      9  C   UNL     1      14.061  -5.069 -10.897  1.00  0.00     0.094 A 
ATOM     10  C   UNL     1      12.994  -5.962 -10.784  1.00  0.00     0.146 A 
ATOM     11  O   UNL     1      12.034  -5.694  -9.907  1.00  0.00    -0.452 OA
ENDROOT
BRANCH   1  12
ATOM     12  C   UNL     1       9.989  -6.072  -8.688  1.00  0.00     0.025 A 
ATOM     13  C   UNL     1      10.250  -6.289  -7.326  1.00  0.00     0.016 A 
ATOM     14  C   UNL     1       9.308  -5.923  -6.359  1.00  0.00     0.051 A 
ATOM     15  C   UNL     1       8.090  -5.350  -6.739  1.00  0.00     0.157 A 
ATOM     16  C   UNL     1       8.755  -5.517  -9.069  1.00  0.00     0.062 A 
ATOM     17  C   UNL     1       7.809  -5.151  -8.100  1.00  0.00     0.158 A 
BRANCH  15  18
ATOM     18  O   UNL     1       7.172  -4.994  -5.752  1.00  0.00    -0.504 OA
ATOM     19  H   UNL     1       6.879  -4.034  -5.611  1.00  0.00     0.293 HD
ENDBRANCH  15  18
BRANCH  17  20
ATOM     20  O   UNL     1       6.590  -4.595  -8.486  1.00  0.00    -0.504 OA
ATOM     21  H   UNL     1       6.106  -3.920  -7.904  1.00  0.00     0.293 HD
ENDBRANCH  17  20
ENDBRANCH   1  12
BRANCH   2  22
ATOM     22  O   UNL     1       9.752  -8.506 -10.244  1.00  0.00    -0.502 OA
ATOM     23  H   UNL     1       9.833  -9.497 -10.053  1.00  0.00     0.293 HD
ENDBRANCH   2  22
BRANCH   6  24
ATOM     24  O   UNL     1      14.005  -8.410 -13.448  1.00  0.00    -0.507 OA
ATOM     25  H   UNL     1      14.700  -9.141 -13.473  1.00  0.00     0.293 HD
ENDBRANCH   6  24
BRANCH   8  26
ATOM     26  O   UNL     1      16.167  -4.425 -11.869  1.00  0.00    -0.508 OA
ATOM     27  H   UNL     1      17.032  -4.672 -12.336  1.00  0.00     0.293 HD
ENDBRANCH   8  26
TORSDOF 6
ENDMDL
MODEL 6
REMARK VINA RESULT:    -5.824      7.211     10.499
REMARK INTER + INTRA:          -7.229
REMARK INTER:                  -6.900
REMARK INTRA:                  -0.329
REMARK UNBOUND:                -0.214
REMARK SMILES O=c1c(O)c(-c2ccc(O)c(O)c2)oc2cc(O)cc(O)c12
REMARK SMILES IDX 5 1 3 2 2 3 1 4 22 5 20 6 19 7 17 8 16 9 15 10 14 11 6 12
REMARK SMILES IDX 7 13 8 14 9 15 13 16 11 17 10 18 12 20 4 22 21 24 18 26
REMARK H PARENT 10 19 12 21 4 23 21 25 18 27
REMARK Flexibility Score: inf
ROOT
ATOM      1  C   UNL     1      21.617  -1.957  -9.989  1.00  0.00     0.180 A 
ATOM      2  C   UNL     1      22.210  -2.967 -10.767  1.00  0.00     0.208 A 
ATOM      3  C   UNL     1      23.178  -2.613 -11.719  1.00  0.00     0.238 A 
ATOM      4  O   UNL     1      23.758  -3.529 -12.359  1.00  0.00    -0.285 OA
ATOM      5  C   UNL     1      23.502  -1.250 -11.924  1.00  0.00     0.111 A 
ATOM      6  C   UNL     1      24.435  -0.773 -12.894  1.00  0.00     0.134 A 
ATOM      7  C   UNL     1      24.754   0.590 -12.933  1.00  0.00     0.093 A 
ATOM      8  C   UNL     1      24.126   1.502 -12.082  1.00  0.00     0.123 A 
ATOM      9  C   UNL     1      23.174   1.054 -11.169  1.00  0.00     0.094 A 
ATOM     10  C   UNL     1      22.862  -0.305 -11.080  1.00  0.00     0.146 A 
ATOM     11  O   UNL     1      21.964  -0.690 -10.181  1.00  0.00    -0.452 OA
ENDROOT
BRANCH   1  12
ATOM     12  C   UNL     1      20.600  -2.253  -8.955  1.00  0.00     0.025 A 
ATOM     13  C   UNL     1      19.240  -2.259  -9.307  1.00  0.00     0.016 A 
ATOM     14  C   UNL     1      18.261  -2.515  -8.343  1.00  0.00     0.051 A 
ATOM     15  C   UNL     1      18.623  -2.752  -7.013  1.00  0.00     0.157 A 
ATOM     16  C   UNL     1      20.960  -2.470  -7.614  1.00  0.00     0.062 A 
ATOM     17  C   UNL     1      19.978  -2.724  -6.644  1.00  0.00     0.158 A 
BRANCH  15  18
ATOM     18  O   UNL     1      17.624  -3.006  -6.074  1.00  0.00    -0.504 OA
ATOM     19  H   UNL     1      16.682  -3.261  -6.347  1.00  0.00     0.293 HD
ENDBRANCH  15  18
BRANCH  17  20
ATOM     20  O   UNL     1      20.344  -2.945  -5.317  1.00  0.00    -0.504 OA
ATOM     21  H   UNL     1      20.299  -2.206  -4.624  1.00  0.00     0.293 HD
ENDBRANCH  17  20
ENDBRANCH   1  12
BRANCH   2  22
ATOM     22  O   UNL     1      21.821  -4.300 -10.603  1.00  0.00    -0.502 OA
ATOM     23  H   UNL     1      20.991  -4.682 -11.040  1.00  0.00     0.293 HD
ENDBRANCH   2  22
BRANCH   6  24
ATOM     24  O   UNL     1      25.053  -1.583 -13.850  1.00  0.00    -0.507 OA
ATOM     25  H   UNL     1      24.753  -2.513 -14.101  1.00  0.00     0.293 HD
ENDBRANCH   6  24
BRANCH   8  26
ATOM     26  O   UNL     1      24.437   2.859 -12.140  1.00  0.00    -0.508 OA
ATOM     27  H   UNL     1      24.725   3.300 -13.005  1.00  0.00     0.293 HD
ENDBRANCH   8  26
TORSDOF 6
ENDMDL
MODEL 7
REMARK VINA RESULT:    -5.624      6.425      9.193
REMARK INTER + INTRA:          -6.989
REMARK INTER:                  -6.684
REMARK INTRA:                  -0.305
REMARK UNBOUND:                -0.214
REMARK SMILES O=c1c(O)c(-c2ccc(O)c(O)c2)oc2cc(O)cc(O)c12
REMARK SMILES IDX 5 1 3 2 2 3 1 4 22 5 20 6 19 7 17 8 16 9 15 10 14 11 6 12
REMARK SMILES IDX 7 13 8 14 9 15 13 16 11 17 10 18 12 20 4 22 21 24 18 26
REMARK H PARENT 10 19 12 21 4 23 21 25 18 27
REMARK Flexibility Score: inf
ROOT
ATOM      1  C   UNL     1      17.931  -2.002  -9.159  1.00  0.00     0.180 A 
ATOM      2  C   UNL     1      17.149  -0.836  -9.083  1.00  0.00     0.208 A 
ATOM      3  C   UNL     1      16.094  -0.664  -9.993  1.00  0.00     0.238 A 
ATOM      4  O   UNL     1      15.351   0.345  -9.872  1.00  0.00    -0.285 OA
ATOM      5  C   UNL     1      15.867  -1.631 -11.003  1.00  0.00     0.111 A 
ATOM      6  C   UNL     1      14.856  -1.536 -12.005  1.00  0.00     0.134 A 
ATOM      7  C   UNL     1      14.657  -2.606 -12.889  1.00  0.00     0.093 A 
ATOM      8  C   UNL     1      15.475  -3.736 -12.846  1.00  0.00     0.123 A 
ATOM      9  C   UNL     1      16.501  -3.814 -11.907  1.00  0.00     0.094 A 
ATOM     10  C   UNL     1      16.699  -2.781 -10.988  1.00  0.00     0.146 A 
ATOM     11  O   UNL     1      17.675  -2.906 -10.097  1.00  0.00    -0.452 OA
ENDROOT
BRANCH   1  12
ATOM     12  C   UNL     1      19.051  -2.261  -8.226  1.00  0.00     0.025 A 
ATOM     13  C   UNL     1      20.372  -2.079  -8.667  1.00  0.00     0.016 A 
ATOM     14  C   UNL     1      21.446  -2.339  -7.811  1.00  0.00     0.051 A 
ATOM     15  C   UNL     1      21.217  -2.798  -6.510  1.00  0.00     0.157 A 
ATOM     16  C   UNL     1      18.825  -2.743  -6.925  1.00  0.00     0.062 A 
ATOM     17  C   UNL     1      19.902  -3.006  -6.065  1.00  0.00     0.158 A 
BRANCH  15  18
ATOM     18  O   UNL     1      22.309  -3.046  -5.678  1.00  0.00    -0.504 OA
ATOM     19  H   UNL     1      22.337  -2.724  -4.718  1.00  0.00     0.293 HD
ENDBRANCH  15  18
BRANCH  17  20
ATOM     20  O   UNL     1      19.668  -3.478  -4.774  1.00  0.00    -0.504 OA
ATOM     21  H   UNL     1      18.829  -3.998  -4.543  1.00  0.00     0.293 HD
ENDBRANCH  17  20
ENDBRANCH   1  12
BRANCH   2  22
ATOM     22  O   UNL     1      17.436   0.142  -8.128  1.00  0.00    -0.502 OA
ATOM     23  H   UNL     1      17.942  -0.062  -7.274  1.00  0.00     0.293 HD
ENDBRANCH   2  22
BRANCH   6  24
ATOM     24  O   UNL     1      14.041  -0.416 -12.193  1.00  0.00    -0.507 OA
ATOM     25  H   UNL     1      13.178  -0.411 -12.715  1.00  0.00     0.293 HD
ENDBRANCH   6  24
BRANCH   8  26
ATOM     26  O   UNL     1      15.282  -4.788 -13.741  1.00  0.00    -0.508 OA
ATOM     27  H   UNL     1      14.398  -5.279 -13.797  1.00  0.00     0.293 HD
ENDBRANCH   8  26
TORSDOF 6
ENDMDL
MODEL 8
REMARK VINA RESULT:    -5.623      7.129     12.352
REMARK INTER + INTRA:          -6.988
REMARK INTER:                  -6.710
REMARK INTRA:                  -0.278
REMARK UNBOUND:                -0.214
REMARK SMILES O=c1c(O)c(-c2ccc(O)c(O)c2)oc2cc(O)cc(O)c12
REMARK SMILES IDX 5 1 3 2 2 3 1 4 22 5 20 6 19 7 17 8 16 9 15 10 14 11 6 12
REMARK SMILES IDX 7 13 8 14 9 15 13 16 11 17 10 18 12 20 4 22 21 24 18 26
REMARK H PARENT 10 19 12 21 4 23 21 25 18 27
REMARK Flexibility Score: inf
ROOT
ATOM      1  C   UNL     1      11.752  -6.765 -10.321  1.00  0.00     0.180 A 
ATOM      2  C   UNL     1      12.005  -7.662 -11.373  1.00  0.00     0.208 A 
ATOM      3  C   UNL     1      13.187  -7.525 -12.117  1.00  0.00     0.238 A 
ATOM      4  O   UNL     1      13.442  -8.377 -13.007  1.00  0.00    -0.285 OA
ATOM      5  C   UNL     1      14.075  -6.457 -11.839  1.00  0.00     0.111 A 
ATOM      6  C   UNL     1      15.279  -6.194 -12.559  1.00  0.00     0.134 A 
ATOM      7  C   UNL     1      16.134  -5.172 -12.126  1.00  0.00     0.093 A 
ATOM      8  C   UNL     1      15.796  -4.363 -11.039  1.00  0.00     0.123 A 
ATOM      9  C   UNL     1      14.596  -4.576 -10.364  1.00  0.00     0.094 A 
ATOM     10  C   UNL     1      13.742  -5.612 -10.748  1.00  0.00     0.146 A 
ATOM     11  O   UNL     1      12.619  -5.793 -10.063  1.00  0.00    -0.452 OA
ENDROOT
BRANCH   1  12
ATOM     12  C   UNL     1      10.535  -6.855  -9.483  1.00  0.00     0.025 A 
ATOM     13  C   UNL     1       9.521  -5.895  -9.633  1.00  0.00     0.016 A 
ATOM     14  C   UNL     1       8.373  -5.948  -8.838  1.00  0.00     0.051 A 
ATOM     15  C   UNL     1       8.228  -6.948  -7.871  1.00  0.00     0.157 A 
ATOM     16  C   UNL     1      10.397  -7.846  -8.496  1.00  0.00     0.062 A 
ATOM     17  C   UNL     1       9.245  -7.900  -7.695  1.00  0.00     0.158 A 
BRANCH  15  18
ATOM     18  O   UNL     1       7.071  -6.976  -7.094  1.00  0.00    -0.504 OA
ATOM     19  H   UNL     1       6.510  -6.148  -6.935  1.00  0.00     0.293 HD
ENDBRANCH  15  18
BRANCH  17  20
ATOM     20  O   UNL     1       9.114  -8.891  -6.724  1.00  0.00    -0.504 OA
ATOM     21  H   UNL     1       8.882  -9.847  -6.969  1.00  0.00     0.293 HD
ENDBRANCH  17  20
ENDBRANCH   1  12
BRANCH   2  22
ATOM     22  O   UNL     1      11.079  -8.663 -11.681  1.00  0.00    -0.502 OA
ATOM     23  H   UNL     1      10.124  -8.644 -11.344  1.00  0.00     0.293 HD
ENDBRANCH   2  22
BRANCH   6  24
ATOM     24  O   UNL     1      15.670  -6.884 -13.710  1.00  0.00    -0.507 OA
ATOM     25  H   UNL     1      15.278  -7.760 -14.020  1.00  0.00     0.293 HD
ENDBRANCH   6  24
BRANCH   8  26
ATOM     26  O   UNL     1      16.643  -3.337 -10.626  1.00  0.00    -0.508 OA
ATOM     27  H   UNL     1      17.651  -3.442 -10.644  1.00  0.00     0.293 HD
ENDBRANCH   8  26
TORSDOF 6
ENDMDL
MODEL 9
REMARK VINA RESULT:    -5.594      4.666      8.198
REMARK INTER + INTRA:          -6.952
REMARK INTER:                  -6.644
REMARK INTRA:                  -0.308
REMARK UNBOUND:                -0.214
REMARK SMILES O=c1c(O)c(-c2ccc(O)c(O)c2)oc2cc(O)cc(O)c12
REMARK SMILES IDX 5 1 3 2 2 3 1 4 22 5 20 6 19 7 17 8 16 9 15 10 14 11 6 12
REMARK SMILES IDX 7 13 8 14 9 15 13 16 11 17 10 18 12 20 4 22 21 24 18 26
REMARK H PARENT 10 19 12 21 4 23 21 25 18 27
REMARK Flexibility Score: inf
ROOT
ATOM      1  C   UNL     1      18.920  -2.288 -10.943  1.00  0.00     0.180 A 
ATOM      2  C   UNL     1      18.747  -1.053 -11.591  1.00  0.00     0.208 A 
ATOM      3  C   UNL     1      18.421  -1.040 -12.956  1.00  0.00     0.238 A 
ATOM      4  O   UNL     1      18.193   0.066 -13.512  1.00  0.00    -0.285 OA
ATOM      5  C   UNL     1      18.327  -2.259 -13.671  1.00  0.00     0.111 A 
ATOM      6  C   UNL     1      18.048  -2.362 -15.067  1.00  0.00     0.134 A 
ATOM      7  C   UNL     1      17.875  -3.627 -15.645  1.00  0.00     0.093 A 
ATOM      8  C   UNL     1      18.035  -4.791 -14.891  1.00  0.00     0.123 A 
ATOM      9  C   UNL     1      18.362  -4.701 -13.540  1.00  0.00     0.094 A 
ATOM     10  C   UNL     1      18.504  -3.455 -12.927  1.00  0.00     0.146 A 
ATOM     11  O   UNL     1      18.795  -3.416 -11.632  1.00  0.00    -0.452 OA
ENDROOT
BRANCH   1  12
ATOM     12  C   UNL     1      19.251  -2.383  -9.503  1.00  0.00     0.025 A 
ATOM     13  C   UNL     1      20.588  -2.257  -9.093  1.00  0.00     0.016 A 
ATOM     14  C   UNL     1      20.925  -2.365  -7.740  1.00  0.00     0.051 A 
ATOM     15  C   UNL     1      19.938  -2.615  -6.782  1.00  0.00     0.157 A 
ATOM     16  C   UNL     1      18.263  -2.656  -8.541  1.00  0.00     0.062 A 
ATOM     17  C   UNL     1      18.601  -2.766  -7.184  1.00  0.00     0.158 A 
BRANCH  15  18
ATOM     18  O   UNL     1      20.305  -2.715  -5.441  1.00  0.00    -0.504 OA
ATOM     19  H   UNL     1      19.657  -3.028  -4.728  1.00  0.00     0.293 HD
ENDBRANCH  15  18
BRANCH  17  20
ATOM     20  O   UNL     1      17.614  -3.031  -6.235  1.00  0.00    -0.504 OA
ATOM     21  H   UNL     1      17.846  -3.229  -5.268  1.00  0.00     0.293 HD
ENDBRANCH  17  20
ENDBRANCH   1  12
BRANCH   2  22
ATOM     22  O   UNL     1      18.918   0.142 -10.886  1.00  0.00    -0.502 OA
ATOM     23  H   UNL     1      18.168   0.577 -10.363  1.00  0.00     0.293 HD
ENDBRANCH   2  22
BRANCH   6  24
ATOM     24  O   UNL     1      17.955  -1.267 -15.931  1.00  0.00    -0.507 OA
ATOM     25  H   UNL     1      17.472  -0.407 -15.723  1.00  0.00     0.293 HD
ENDBRANCH   6  24
BRANCH   8  26
ATOM     26  O   UNL     1      17.878  -6.045 -15.478  1.00  0.00    -0.508 OA
ATOM     27  H   UNL     1      16.996  -6.542 -15.439  1.00  0.00     0.293 HD
ENDBRANCH   8  26
TORSDOF 6
ENDMDL
