MODEL 1
REMARK VINA RESULT:    -3.947      0.000      0.000
REMARK INTER + INTRA:          -6.891
REMARK INTER:                  -6.255
REMARK INTRA:                  -0.636
REMARK UNBOUND:                -0.636
REMARK SMILES CCCCCCCCCCCC(=O)[O-]
REMARK SMILES IDX 7 1 8 2 9 3 10 4 11 5 12 6 13 7 14 8 6 9 5 10 4 11 3 12 2 13
REMARK SMILES IDX 1 14
REMARK H PARENT
REMARK Flexibility Score: inf
ROOT
ATOM      1  C   UNL     1      20.612  -0.377  42.152  1.00  0.00     0.000 C 
ENDROOT
BRANCH   1   2
ATOM      2  C   UNL     1      21.918   0.199  41.579  1.00  0.00     0.000 C 
BRANCH   2   3
ATOM      3  C   UNL     1      22.159  -0.230  40.121  1.00  0.00     0.000 C 
BRANCH   3   4
ATOM      4  C   UNL     1      22.075  -1.754  39.919  1.00  0.00     0.006 C 
BRANCH   4   5
ATOM      5  C   UNL     1      23.407  -2.489  40.149  1.00  0.00     0.053 C 
BRANCH   5   6
ATOM      6  C   UNL     1      24.077  -2.883  38.867  1.00  0.00     0.041 C 
ATOM      7  O   UNL     1      24.375  -2.005  38.015  1.00  0.00    -0.550 OA
ATOM      8  O   UNL     1      24.406  -4.211  38.628  1.00  0.00    -0.550 OA
ENDBRANCH   5   6
ENDBRANCH   4   5
ENDBRANCH   3   4
ENDBRANCH   2   3
ENDBRANCH   1   2
BRANCH   1   9
ATOM      9  C   UNL     1      19.971   0.551  43.201  1.00  0.00     0.000 C 
BRANCH   9  10
ATOM     10  C   UNL     1      19.979  -0.060  44.611  1.00  0.00    -0.000 C 
BRANCH  10  11
ATOM     11  C   UNL     1      20.657  -1.437  44.659  1.00  0.00    -0.000 C 
BRANCH  11  12
ATOM     12  C   UNL     1      20.820  -1.918  46.106  1.00  0.00    -0.000 C 
BRANCH  12  13
ATOM     13  C   UNL     1      22.181  -2.593  46.312  1.00  0.00    -0.003 C 
ATOM     14  C   UNL     1      22.930  -2.739  44.990  1.00  0.00     0.004 C 
ENDBRANCH  12  13
ENDBRANCH  11  12
ENDBRANCH  10  11
ENDBRANCH   9  10
ENDBRANCH   1   9
TORSDOF 10
ENDMDL
MODEL 2
REMARK VINA RESULT:    -3.828     15.915     17.481
REMARK INTER + INTRA:          -6.702
REMARK INTER:                  -5.516
REMARK INTRA:                  -1.186
REMARK UNBOUND:                -0.636
REMARK SMILES CCCCCCCCCCCC(=O)[O-]
REMARK SMILES IDX 7 1 8 2 9 3 10 4 11 5 12 6 13 7 14 8 6 9 5 10 4 11 3 12 2 13
REMARK SMILES IDX 1 14
REMARK H PARENT
REMARK Flexibility Score: inf
ROOT
ATOM      1  C   UNL     1      38.005   4.793  39.142  1.00  0.00     0.000 C 
ENDROOT
BRANCH   1   2
ATOM      2  C   UNL     1      36.529   5.014  39.511  1.00  0.00     0.000 C 
BRANCH   2   3
ATOM      3  C   UNL     1      36.306   6.320  40.292  1.00  0.00     0.000 C 
BRANCH   3   4
ATOM      4  C   UNL     1      34.968   6.348  41.052  1.00  0.00     0.006 C 
BRANCH   4   5
ATOM      5  C   UNL     1      35.116   6.297  42.583  1.00  0.00     0.053 C 
BRANCH   5   6
ATOM      6  C   UNL     1      33.796   6.218  43.287  1.00  0.00     0.041 C 
ATOM      7  O   UNL     1      33.071   5.197  43.158  1.00  0.00    -0.550 OA
ATOM      8  O   UNL     1      33.381   7.254  44.115  1.00  0.00    -0.550 OA
ENDBRANCH   5   6
ENDBRANCH   4   5
ENDBRANCH   3   4
ENDBRANCH   2   3
ENDBRANCH   1   2
BRANCH   1   9
ATOM      9  C   UNL     1      38.603   3.551  39.829  1.00  0.00     0.000 C 
BRANCH   9  10
ATOM     10  C   UNL     1      39.809   3.892  40.717  1.00  0.00    -0.000 C 
BRANCH  10  11
ATOM     11  C   UNL     1      39.859   5.376  41.110  1.00  0.00    -0.000 C 
BRANCH  11  12
ATOM     12  C   UNL     1      39.345   5.583  42.539  1.00  0.00    -0.000 C 
BRANCH  12  13
ATOM     13  C   UNL     1      38.872   7.026  42.751  1.00  0.00    -0.003 C 
ATOM     14  C   UNL     1      39.332   7.930  41.611  1.00  0.00     0.004 C 
ENDBRANCH  12  13
ENDBRANCH  11  12
ENDBRANCH  10  11
ENDBRANCH   9  10
ENDBRANCH   1   9
TORSDOF 10
ENDMDL
MODEL 3
REMARK VINA RESULT:    -3.728     13.707     15.339
REMARK INTER + INTRA:          -6.544
REMARK INTER:                  -6.002
REMARK INTRA:                  -0.541
REMARK UNBOUND:                -0.636
REMARK SMILES CCCCCCCCCCCC(=O)[O-]
REMARK SMILES IDX 7 1 8 2 9 3 10 4 11 5 12 6 13 7 14 8 6 9 5 10 4 11 3 12 2 13
REMARK SMILES IDX 1 14
REMARK H PARENT
REMARK Flexibility Score: inf
ROOT
ATOM      1  C   UNL     1      29.175  -9.934  30.942  1.00  0.00     0.000 C 
ENDROOT
BRANCH   1   2
ATOM      2  C   UNL     1      28.547 -10.505  29.659  1.00  0.00     0.000 C 
BRANCH   2   3
ATOM      3  C   UNL     1      27.428  -9.609  29.103  1.00  0.00     0.000 C 
BRANCH   3   4
ATOM      4  C   UNL     1      26.236  -9.465  30.066  1.00  0.00     0.006 C 
BRANCH   4   5
ATOM      5  C   UNL     1      25.071  -8.634  29.500  1.00  0.00     0.053 C 
BRANCH   5   6
ATOM      6  C   UNL     1      24.133  -8.156  30.567  1.00  0.00     0.041 C 
ATOM      7  O   UNL     1      23.143  -7.439  30.263  1.00  0.00    -0.550 OA
ATOM      8  O   UNL     1      24.328  -8.530  31.890  1.00  0.00    -0.550 OA
ENDBRANCH   5   6
ENDBRANCH   4   5
ENDBRANCH   3   4
ENDBRANCH   2   3
ENDBRANCH   1   2
BRANCH   1   9
ATOM      9  C   UNL     1      30.600 -10.463  31.185  1.00  0.00     0.000 C 
BRANCH   9  10
ATOM     10  C   UNL     1      31.527  -9.401  31.797  1.00  0.00    -0.000 C 
BRANCH  10  11
ATOM     11  C   UNL     1      30.935  -7.985  31.730  1.00  0.00    -0.000 C 
BRANCH  11  12
ATOM     12  C   UNL     1      31.326  -7.168  32.966  1.00  0.00    -0.000 C 
BRANCH  12  13
ATOM     13  C   UNL     1      31.871  -8.074  34.076  1.00  0.00    -0.003 C 
ATOM     14  C   UNL     1      32.930  -7.354  34.907  1.00  0.00     0.004 C 
ENDBRANCH  12  13
ENDBRANCH  11  12
ENDBRANCH  10  11
ENDBRANCH   9  10
ENDBRANCH   1   9
TORSDOF 10
ENDMDL
MODEL 4
REMARK VINA RESULT:    -3.659      4.392      5.934
REMARK INTER + INTRA:          -6.435
REMARK INTER:                  -5.475
REMARK INTRA:                  -0.960
REMARK UNBOUND:                -0.636
REMARK SMILES CCCCCCCCCCCC(=O)[O-]
REMARK SMILES IDX 7 1 8 2 9 3 10 4 11 5 12 6 13 7 14 8 6 9 5 10 4 11 3 12 2 13
REMARK SMILES IDX 1 14
REMARK H PARENT
REMARK Flexibility Score: inf
ROOT
ATOM      1  C   UNL     1      22.129   0.486  40.476  1.00  0.00     0.000 C 
ENDROOT
BRANCH   1   2
ATOM      2  C   UNL     1      22.103   1.244  41.814  1.00  0.00     0.000 C 
BRANCH   2   3
ATOM      3  C   UNL     1      22.906   2.556  41.764  1.00  0.00     0.000 C 
BRANCH   3   4
ATOM      4  C   UNL     1      22.444   3.586  42.810  1.00  0.00     0.006 C 
BRANCH   4   5
ATOM      5  C   UNL     1      21.257   3.115  43.669  1.00  0.00     0.053 C 
BRANCH   5   6
ATOM      6  C   UNL     1      21.224   3.772  45.016  1.00  0.00     0.041 C 
ATOM      7  O   UNL     1      21.644   4.951  45.154  1.00  0.00    -0.550 OA
ATOM      8  O   UNL     1      20.696   3.099  46.110  1.00  0.00    -0.550 OA
ENDBRANCH   5   6
ENDBRANCH   4   5
ENDBRANCH   3   4
ENDBRANCH   2   3
ENDBRANCH   1   2
BRANCH   1   9
ATOM      9  C   UNL     1      22.172  -1.041  40.666  1.00  0.00     0.000 C 
BRANCH   9  10
ATOM     10  C   UNL     1      22.928  -1.456  41.938  1.00  0.00    -0.000 C 
BRANCH  10  11
ATOM     11  C   UNL     1      22.131  -2.440  42.809  1.00  0.00    -0.000 C 
BRANCH  11  12
ATOM     12  C   UNL     1      20.759  -1.862  43.172  1.00  0.00    -0.000 C 
BRANCH  12  13
ATOM     13  C   UNL     1      20.731  -1.384  44.628  1.00  0.00    -0.003 C 
ATOM     14  C   UNL     1      19.933  -0.090  44.769  1.00  0.00     0.004 C 
ENDBRANCH  12  13
ENDBRANCH  11  12
ENDBRANCH  10  11
ENDBRANCH   9  10
ENDBRANCH   1   9
TORSDOF 10
ENDMDL
MODEL 5
REMARK VINA RESULT:    -3.658     13.904     16.015
REMARK INTER + INTRA:          -6.433
REMARK INTER:                  -5.436
REMARK INTRA:                  -0.997
REMARK UNBOUND:                -0.636
REMARK SMILES CCCCCCCCCCCC(=O)[O-]
REMARK SMILES IDX 7 1 8 2 9 3 10 4 11 5 12 6 13 7 14 8 6 9 5 10 4 11 3 12 2 13
REMARK SMILES IDX 1 14
REMARK H PARENT
REMARK Flexibility Score: inf
ROOT
ATOM      1  C   UNL     1      28.762 -11.379  30.022  1.00  0.00     0.000 C 
ENDROOT
BRANCH   1   2
ATOM      2  C   UNL     1      29.209  -9.997  30.527  1.00  0.00     0.000 C 
BRANCH   2   3
ATOM      3  C   UNL     1      30.292 -10.090  31.615  1.00  0.00     0.000 C 
BRANCH   3   4
ATOM      4  C   UNL     1      31.631  -9.463  31.188  1.00  0.00     0.006 C 
BRANCH   4   5
ATOM      5  C   UNL     1      31.753  -7.965  31.518  1.00  0.00     0.053 C 
BRANCH   5   6
ATOM      6  C   UNL     1      31.146  -7.616  32.843  1.00  0.00     0.041 C 
ATOM      7  O   UNL     1      31.718  -7.961  33.911  1.00  0.00    -0.550 OA
ATOM      8  O   UNL     1      29.971  -6.877  32.902  1.00  0.00    -0.550 OA
ENDBRANCH   5   6
ENDBRANCH   4   5
ENDBRANCH   3   4
ENDBRANCH   2   3
ENDBRANCH   1   2
BRANCH   1   9
ATOM      9  C   UNL     1      27.891 -11.289  28.756  1.00  0.00     0.000 C 
BRANCH   9  10
ATOM     10  C   UNL     1      27.475  -9.847  28.427  1.00  0.00    -0.000 C 
BRANCH  10  11
ATOM     11  C   UNL     1      25.951  -9.654  28.420  1.00  0.00    -0.000 C 
BRANCH  11  12
ATOM     12  C   UNL     1      25.498  -8.823  29.626  1.00  0.00    -0.000 C 
BRANCH  12  13
ATOM     13  C   UNL     1      24.907  -9.718  30.721  1.00  0.00    -0.003 C 
ATOM     14  C   UNL     1      25.802  -9.742  31.957  1.00  0.00     0.004 C 
ENDBRANCH  12  13
ENDBRANCH  11  12
ENDBRANCH  10  11
ENDBRANCH   9  10
ENDBRANCH   1   9
TORSDOF 10
ENDMDL
MODEL 6
REMARK VINA RESULT:    -3.641      2.644      4.274
REMARK INTER + INTRA:          -6.406
REMARK INTER:                  -5.705
REMARK INTRA:                  -0.701
REMARK UNBOUND:                -0.636
REMARK SMILES CCCCCCCCCCCC(=O)[O-]
REMARK SMILES IDX 7 1 8 2 9 3 10 4 11 5 12 6 13 7 14 8 6 9 5 10 4 11 3 12 2 13
REMARK SMILES IDX 1 14
REMARK H PARENT
REMARK Flexibility Score: inf
ROOT
ATOM      1  C   UNL     1      20.156   0.169  44.742  1.00  0.00     0.000 C 
ENDROOT
BRANCH   1   2
ATOM      2  C   UNL     1      20.115  -0.701  43.474  1.00  0.00     0.000 C 
BRANCH   2   3
ATOM      3  C   UNL     1      21.325  -1.645  43.369  1.00  0.00     0.000 C 
BRANCH   3   4
ATOM      4  C   UNL     1      21.225  -2.623  42.184  1.00  0.00     0.006 C 
BRANCH   4   5
ATOM      5  C   UNL     1      20.893  -1.947  40.842  1.00  0.00     0.053 C 
BRANCH   5   6
ATOM      6  C   UNL     1      22.071  -1.235  40.249  1.00  0.00     0.041 C 
ATOM      7  O   UNL     1      23.036  -1.892  39.779  1.00  0.00    -0.550 OA
ATOM      8  O   UNL     1      22.089   0.153  40.180  1.00  0.00    -0.550 OA
ENDBRANCH   5   6
ENDBRANCH   4   5
ENDBRANCH   3   4
ENDBRANCH   2   3
ENDBRANCH   1   2
BRANCH   1   9
ATOM      9  C   UNL     1      19.902   1.657  44.441  1.00  0.00     0.000 C 
BRANCH   9  10
ATOM     10  C   UNL     1      20.306   2.572  45.608  1.00  0.00    -0.000 C 
BRANCH  10  11
ATOM     11  C   UNL     1      20.823   3.941  45.139  1.00  0.00    -0.000 C 
BRANCH  11  12
ATOM     12  C   UNL     1      21.090   3.938  43.630  1.00  0.00    -0.000 C 
BRANCH  12  13
ATOM     13  C   UNL     1      22.595   3.912  43.337  1.00  0.00    -0.003 C 
ATOM     14  C   UNL     1      22.905   3.046  42.119  1.00  0.00     0.004 C 
ENDBRANCH  12  13
ENDBRANCH  11  12
ENDBRANCH  10  11
ENDBRANCH   9  10
ENDBRANCH   1   9
TORSDOF 10
ENDMDL
MODEL 7
REMARK VINA RESULT:    -3.639     13.994     16.122
REMARK INTER + INTRA:          -6.402
REMARK INTER:                  -5.647
REMARK INTRA:                  -0.756
REMARK UNBOUND:                -0.636
REMARK SMILES CCCCCCCCCCCC(=O)[O-]
REMARK SMILES IDX 7 1 8 2 9 3 10 4 11 5 12 6 13 7 14 8 6 9 5 10 4 11 3 12 2 13
REMARK SMILES IDX 1 14
REMARK H PARENT
REMARK Flexibility Score: inf
ROOT
ATOM      1  C   UNL     1      28.692 -11.277  30.567  1.00  0.00     0.000 C 
ENDROOT
BRANCH   1   2
ATOM      2  C   UNL     1      28.193  -9.890  30.126  1.00  0.00     0.000 C 
BRANCH   2   3
ATOM      3  C   UNL     1      27.680  -9.883  28.676  1.00  0.00     0.000 C 
BRANCH   3   4
ATOM      4  C   UNL     1      26.157  -9.686  28.576  1.00  0.00     0.006 C 
BRANCH   4   5
ATOM      5  C   UNL     1      25.563  -8.825  29.705  1.00  0.00     0.053 C 
BRANCH   5   6
ATOM      6  C   UNL     1      24.335  -8.080  29.276  1.00  0.00     0.041 C 
ATOM      7  O   UNL     1      23.995  -7.026  29.874  1.00  0.00    -0.550 OA
ATOM      8  O   UNL     1      23.588  -8.527  28.193  1.00  0.00    -0.550 OA
ENDBRANCH   5   6
ENDBRANCH   4   5
ENDBRANCH   3   4
ENDBRANCH   2   3
ENDBRANCH   1   2
BRANCH   1   9
ATOM      9  C   UNL     1      29.871 -11.191  31.553  1.00  0.00     0.000 C 
BRANCH   9  10
ATOM     10  C   UNL     1      31.234 -11.188  30.843  1.00  0.00    -0.000 C 
BRANCH  10  11
ATOM     11  C   UNL     1      32.074  -9.945  31.174  1.00  0.00    -0.000 C 
BRANCH  11  12
ATOM     12  C   UNL     1      31.384  -9.085  32.239  1.00  0.00    -0.000 C 
BRANCH  12  13
ATOM     13  C   UNL     1      31.162  -7.655  31.733  1.00  0.00    -0.003 C 
ATOM     14  C   UNL     1      30.251  -6.871  32.674  1.00  0.00     0.004 C 
ENDBRANCH  12  13
ENDBRANCH  11  12
ENDBRANCH  10  11
ENDBRANCH   9  10
ENDBRANCH   1   9
TORSDOF 10
ENDMDL
MODEL 8
REMARK VINA RESULT:    -3.631     14.580     15.971
REMARK INTER + INTRA:          -6.389
REMARK INTER:                  -5.772
REMARK INTRA:                  -0.617
REMARK UNBOUND:                -0.636
REMARK SMILES CCCCCCCCCCCC(=O)[O-]
REMARK SMILES IDX 7 1 8 2 9 3 10 4 11 5 12 6 13 7 14 8 6 9 5 10 4 11 3 12 2 13
REMARK SMILES IDX 1 14
REMARK H PARENT
REMARK Flexibility Score: inf
ROOT
ATOM      1  C   UNL     1      28.581 -11.025  30.440  1.00  0.00     0.000 C 
ENDROOT
BRANCH   1   2
ATOM      2  C   UNL     1      30.077 -11.165  30.765  1.00  0.00     0.000 C 
BRANCH   2   3
ATOM      3  C   UNL     1      30.575 -10.074  31.729  1.00  0.00     0.000 C 
BRANCH   3   4
ATOM      4  C   UNL     1      31.803  -9.314  31.198  1.00  0.00     0.006 C 
BRANCH   4   5
ATOM      5  C   UNL     1      31.697  -7.785  31.331  1.00  0.00     0.053 C 
BRANCH   5   6
ATOM      6  C   UNL     1      31.201  -7.357  32.678  1.00  0.00     0.041 C 
ATOM      7  O   UNL     1      30.110  -6.737  32.782  1.00  0.00    -0.550 OA
ATOM      8  O   UNL     1      31.921  -7.675  33.823  1.00  0.00    -0.550 OA
ENDBRANCH   5   6
ENDBRANCH   4   5
ENDBRANCH   3   4
ENDBRANCH   2   3
ENDBRANCH   1   2
BRANCH   1   9
ATOM      9  C   UNL     1      28.000  -9.679  30.910  1.00  0.00     0.000 C 
BRANCH   9  10
ATOM     10  C   UNL     1      26.581  -9.431  30.377  1.00  0.00    -0.000 C 
BRANCH  10  11
ATOM     11  C   UNL     1      26.495  -9.528  28.846  1.00  0.00    -0.000 C 
BRANCH  11  12
ATOM     12  C   UNL     1      25.046  -9.380  28.368  1.00  0.00    -0.000 C 
BRANCH  12  13
ATOM     13  C   UNL     1      24.281  -8.371  29.232  1.00  0.00    -0.003 C 
ATOM     14  C   UNL     1      23.259  -7.597  28.403  1.00  0.00     0.004 C 
ENDBRANCH  12  13
ENDBRANCH  11  12
ENDBRANCH  10  11
ENDBRANCH   9  10
ENDBRANCH   1   9
TORSDOF 10
ENDMDL
MODEL 9
REMARK VINA RESULT:    -3.604      3.587      4.922
REMARK INTER + INTRA:          -6.347
REMARK INTER:                  -5.522
REMARK INTRA:                  -0.825
REMARK UNBOUND:                -0.636
REMARK SMILES CCCCCCCCCCCC(=O)[O-]
REMARK SMILES IDX 7 1 8 2 9 3 10 4 11 5 12 6 13 7 14 8 6 9 5 10 4 11 3 12 2 13
REMARK SMILES IDX 1 14
REMARK H PARENT
REMARK Flexibility Score: inf
ROOT
ATOM      1  C   UNL     1      22.210   1.322  41.786  1.00  0.00     0.000 C 
ENDROOT
BRANCH   1   2
ATOM      2  C   UNL     1      22.228   0.590  40.433  1.00  0.00     0.000 C 
BRANCH   2   3
ATOM      3  C   UNL     1      22.229  -0.940  40.591  1.00  0.00     0.000 C 
BRANCH   3   4
ATOM      4  C   UNL     1      20.887  -1.495  41.101  1.00  0.00     0.006 C 
BRANCH   4   5
ATOM      5  C   UNL     1      21.028  -2.544  42.217  1.00  0.00     0.053 C 
BRANCH   5   6
ATOM      6  C   UNL     1      21.335  -1.930  43.550  1.00  0.00     0.041 C 
ATOM      7  O   UNL     1      20.565  -1.062  44.038  1.00  0.00    -0.550 OA
ATOM      8  O   UNL     1      22.449  -2.342  44.270  1.00  0.00    -0.550 OA
ENDBRANCH   5   6
ENDBRANCH   4   5
ENDBRANCH   3   4
ENDBRANCH   2   3
ENDBRANCH   1   2
BRANCH   1   9
ATOM      9  C   UNL     1      23.091   2.583  41.784  1.00  0.00     0.000 C 
BRANCH   9  10
ATOM     10  C   UNL     1      22.387   3.796  42.413  1.00  0.00    -0.000 C 
BRANCH  10  11
ATOM     11  C   UNL     1      22.794   4.026  43.877  1.00  0.00    -0.000 C 
BRANCH  11  12
ATOM     12  C   UNL     1      21.572   4.361  44.739  1.00  0.00    -0.000 C 
BRANCH  12  13
ATOM     13  C   UNL     1      20.332   3.601  44.256  1.00  0.00    -0.003 C 
ATOM     14  C   UNL     1      20.154   2.292  45.021  1.00  0.00     0.004 C 
ENDBRANCH  12  13
ENDBRANCH  11  12
ENDBRANCH  10  11
ENDBRANCH   9  10
ENDBRANCH   1   9
TORSDOF 10
ENDMDL
