MODEL 1
REMARK VINA RESULT:    -6.897      0.000      0.000
REMARK INTER + INTRA:         -13.323
REMARK INTER:                 -11.333
REMARK INTRA:                  -1.990
REMARK UNBOUND:                -1.990
REMARK SMILES C[C@H]1O[C@H](OC[C@H]2O[C@H](Oc3c(-c4ccc(O)c(O)c4)oc4cc(O)cc(O)c4c3=O)[C@@H](O)[C@@H](O)[C@H]2O)[C@H](O)[C@H](O)[C@H]1O
REMARK SMILES IDX 7 1 36 2 34 3 32 4 9 5 8 6 6 7 5 8 4 9 1 10 2 11 42 12 3 13
REMARK SMILES IDX 40 14 38 15 43 16 41 18 39 20 37 22 35 24 10 26 11 27 12 28
REMARK SMILES IDX 30 29 21 30 29 31 31 32 22 33 27 34 23 35 26 36 24 37 13 38
REMARK SMILES IDX 20 39 14 40 18 41 15 42 16 43 19 44 17 46 28 48 25 50 33 52
REMARK H PARENT 43 17 41 19 39 21 37 23 35 25 19 45 17 47 28 49 25 51 33 53
REMARK Flexibility Score: inf
ROOT
ATOM      1  C   UNL     1     -24.484  -6.135 -33.052  1.00  0.00     0.180 C 
ATOM      2  C   UNL     1     -24.669  -4.735 -33.878  1.00  0.00     0.177 C 
ATOM      3  C   UNL     1     -25.664  -3.911 -33.041  1.00  0.00     0.180 C 
ATOM      4  C   UNL     1     -24.989  -3.690 -31.663  1.00  0.00     0.214 C 
ATOM      5  C   UNL     1     -24.979  -5.091 -30.996  1.00  0.00     0.339 C 
ATOM      6  O   UNL     1     -24.061  -5.902 -31.695  1.00  0.00    -0.332 OA
ENDROOT
BRANCH   1   7
ATOM      7  C   UNL     1     -23.501  -7.124 -33.713  1.00  0.00     0.198 C 
BRANCH   7   8
ATOM      8  O   UNL     1     -23.377  -8.378 -33.028  1.00  0.00    -0.347 OA
BRANCH   8   9
ATOM      9  C   UNL     1     -22.016  -8.703 -32.744  1.00  0.00     0.281 C 
ATOM     10  C   UNL     1     -22.374  -7.825 -29.114  1.00  0.00     0.041 C 
ATOM     11  C   UNL     1     -22.539  -8.770 -30.360  1.00  0.00     0.150 C 
ATOM     12  C   UNL     1     -22.584 -10.401 -30.284  1.00  0.00     0.174 C 
ATOM     13  O   UNL     1     -21.700  -8.246 -31.412  1.00  0.00    -0.344 OA
ATOM     14  C   UNL     1     -22.737 -10.970 -31.740  1.00  0.00     0.179 C 
ATOM     15  C   UNL     1     -21.829 -10.263 -32.784  1.00  0.00     0.202 C 
BRANCH  12  16
ATOM     16  O   UNL     1     -21.457 -11.021 -29.659  1.00  0.00    -0.388 OA
ATOM     17  H   UNL     1     -20.674 -10.760 -30.228  1.00  0.00     0.211 HD
ENDBRANCH  12  16
BRANCH  14  18
ATOM     18  O   UNL     1     -24.076 -10.819 -32.168  1.00  0.00    -0.387 OA
ATOM     19  H   UNL     1     -24.619 -11.550 -31.748  1.00  0.00     0.211 HD
ENDBRANCH  14  18
BRANCH  15  20
ATOM     20  O   UNL     1     -22.179 -10.757 -34.065  1.00  0.00    -0.385 OA
ATOM     21  H   UNL     1     -22.596 -11.635 -33.901  1.00  0.00     0.211 HD
ENDBRANCH  15  20
ENDBRANCH   8   9
ENDBRANCH   7   8
ENDBRANCH   1   7
BRANCH   2  22
ATOM     22  O   UNL     1     -23.480  -3.972 -34.044  1.00  0.00    -0.387 OA
ATOM     23  H   UNL     1     -23.651  -3.428 -34.876  1.00  0.00     0.211 HD
ENDBRANCH   2  22
BRANCH   3  24
ATOM     24  O   UNL     1     -26.017  -2.676 -33.629  1.00  0.00    -0.387 OA
ATOM     25  H   UNL     1     -25.687  -1.951 -33.038  1.00  0.00     0.211 HD
ENDBRANCH   3  24
BRANCH   5  26
ATOM     26  O   UNL     1     -26.267  -5.667 -30.930  1.00  0.00    -0.454 OA
BRANCH  26  27
ATOM     27  C   UNL     1     -26.470  -7.007 -30.546  1.00  0.00     0.214 A 
ATOM     28  C   UNL     1     -26.252  -7.405 -29.196  1.00  0.00     0.180 A 
ATOM     29  C   UNL     1     -26.834  -7.943 -31.493  1.00  0.00     0.239 A 
ATOM     30  O   UNL     1     -26.400  -8.709 -28.901  1.00  0.00    -0.452 OA
ATOM     31  C   UNL     1     -26.998  -9.293 -31.119  1.00  0.00     0.111 A 
ATOM     32  O   UNL     1     -27.052  -7.599 -32.693  1.00  0.00    -0.285 OA
ATOM     33  C   UNL     1     -26.743  -9.638 -29.763  1.00  0.00     0.146 A 
ATOM     34  C   UNL     1     -27.367 -10.316 -32.035  1.00  0.00     0.134 A 
ATOM     35  C   UNL     1     -26.836 -10.955 -29.347  1.00  0.00     0.094 A 
ATOM     36  C   UNL     1     -27.478 -11.620 -31.574  1.00  0.00     0.093 A 
ATOM     37  C   UNL     1     -27.197 -11.962 -30.251  1.00  0.00     0.123 A 
BRANCH  28  38
ATOM     38  C   UNL     1     -25.963  -6.457 -28.110  1.00  0.00     0.025 A 
ATOM     39  C   UNL     1     -26.817  -5.374 -27.834  1.00  0.00     0.062 A 
ATOM     40  C   UNL     1     -24.934  -6.767 -27.187  1.00  0.00     0.016 A 
ATOM     41  C   UNL     1     -26.653  -4.578 -26.653  1.00  0.00     0.158 A 
ATOM     42  C   UNL     1     -24.744  -5.968 -26.040  1.00  0.00     0.051 A 
ATOM     43  C   UNL     1     -25.640  -4.960 -25.751  1.00  0.00     0.157 A 
BRANCH  41  44
ATOM     44  O   UNL     1     -27.589  -3.614 -26.344  1.00  0.00    -0.504 OA
ATOM     45  H   UNL     1     -28.582  -3.809 -26.405  1.00  0.00     0.293 HD
ENDBRANCH  41  44
BRANCH  43  46
ATOM     46  O   UNL     1     -25.473  -4.218 -24.546  1.00  0.00    -0.504 OA
ATOM     47  H   UNL     1     -25.586  -4.660 -23.637  1.00  0.00     0.293 HD
ENDBRANCH  43  46
ENDBRANCH  28  38
BRANCH  34  48
ATOM     48  O   UNL     1     -27.584 -10.014 -33.372  1.00  0.00    -0.507 OA
ATOM     49  H   UNL     1     -28.476 -10.210 -33.822  1.00  0.00     0.293 HD
ENDBRANCH  34  48
BRANCH  37  50
ATOM     50  O   UNL     1     -27.258 -13.274 -29.839  1.00  0.00    -0.508 OA
ATOM     51  H   UNL     1     -26.974 -13.569 -28.911  1.00  0.00     0.293 HD
ENDBRANCH  37  50
ENDBRANCH  26  27
ENDBRANCH   5  26
BRANCH   4  52
ATOM     52  O   UNL     1     -23.654  -3.167 -31.586  1.00  0.00    -0.384 OA
ATOM     53  H   UNL     1     -23.089  -3.698 -32.241  1.00  0.00     0.211 HD
ENDBRANCH   4  52
TORSDOF 16
ENDMDL
MODEL 2
REMARK VINA RESULT:    -6.455      1.869      7.636
REMARK INTER + INTRA:         -12.595
REMARK INTER:                  -9.824
REMARK INTRA:                  -2.771
REMARK UNBOUND:                -1.990
REMARK SMILES C[C@H]1O[C@H](OC[C@H]2O[C@H](Oc3c(-c4ccc(O)c(O)c4)oc4cc(O)cc(O)c4c3=O)[C@@H](O)[C@@H](O)[C@H]2O)[C@H](O)[C@H](O)[C@H]1O
REMARK SMILES IDX 7 1 36 2 34 3 32 4 9 5 8 6 6 7 5 8 4 9 1 10 2 11 42 12 3 13
REMARK SMILES IDX 40 14 38 15 43 16 41 18 39 20 37 22 35 24 10 26 11 27 12 28
REMARK SMILES IDX 30 29 21 30 29 31 31 32 22 33 27 34 23 35 26 36 24 37 13 38
REMARK SMILES IDX 20 39 14 40 18 41 15 42 16 43 19 44 17 46 28 48 25 50 33 52
REMARK H PARENT 43 17 41 19 39 21 37 23 35 25 19 45 17 47 28 49 25 51 33 53
REMARK Flexibility Score: inf
ROOT
ATOM      1  C   UNL     1     -26.371  -9.068 -28.329  1.00  0.00     0.180 C 
ATOM      2  C   UNL     1     -27.119 -10.509 -28.128  1.00  0.00     0.177 C 
ATOM      3  C   UNL     1     -27.407 -11.006 -29.556  1.00  0.00     0.180 C 
ATOM      4  C   UNL     1     -26.029 -11.156 -30.248  1.00  0.00     0.214 C 
ATOM      5  C   UNL     1     -25.517  -9.702 -30.433  1.00  0.00     0.339 C 
ATOM      6  O   UNL     1     -25.201  -9.184 -29.160  1.00  0.00    -0.332 OA
ENDROOT
BRANCH   1   7
ATOM      7  C   UNL     1     -25.971  -8.384 -27.004  1.00  0.00     0.198 C 
BRANCH   7   8
ATOM      8  O   UNL     1     -26.050  -6.952 -27.033  1.00  0.00    -0.347 OA
BRANCH   8   9
ATOM      9  C   UNL     1     -24.877  -6.338 -26.500  1.00  0.00     0.281 C 
ATOM     10  C   UNL     1     -22.958  -6.816 -29.688  1.00  0.00     0.041 C 
ATOM     11  C   UNL     1     -23.994  -6.081 -28.762  1.00  0.00     0.150 C 
ATOM     12  C   UNL     1     -24.361  -4.493 -28.865  1.00  0.00     0.174 C 
ATOM     13  O   UNL     1     -23.783  -6.558 -27.416  1.00  0.00    -0.344 OA
ATOM     14  C   UNL     1     -25.418  -4.147 -27.756  1.00  0.00     0.179 C 
ATOM     15  C   UNL     1     -25.106  -4.787 -26.375  1.00  0.00     0.202 C 
BRANCH  12  16
ATOM     16  O   UNL     1     -23.255  -3.595 -28.747  1.00  0.00    -0.388 OA
ATOM     17  H   UNL     1     -22.447  -4.160 -28.929  1.00  0.00     0.211 HD
ENDBRANCH  12  16
BRANCH  14  18
ATOM     18  O   UNL     1     -26.694  -4.606 -28.159  1.00  0.00    -0.387 OA
ATOM     19  H   UNL     1     -27.045  -5.212 -27.441  1.00  0.00     0.211 HD
ENDBRANCH  14  18
BRANCH  15  20
ATOM     20  O   UNL     1     -26.208  -4.531 -25.521  1.00  0.00    -0.385 OA
ATOM     21  H   UNL     1     -26.655  -3.741 -25.903  1.00  0.00     0.211 HD
ENDBRANCH  15  20
ENDBRANCH   8   9
ENDBRANCH   7   8
ENDBRANCH   1   7
BRANCH   2  22
ATOM     22  O   UNL     1     -26.349 -11.498 -27.455  1.00  0.00    -0.387 OA
ATOM     23  H   UNL     1     -25.501 -11.018 -27.199  1.00  0.00     0.211 HD
ENDBRANCH   2  22
BRANCH   3  24
ATOM     24  O   UNL     1     -28.125 -12.223 -29.602  1.00  0.00    -0.387 OA
ATOM     25  H   UNL     1     -29.092 -12.004 -29.646  1.00  0.00     0.211 HD
ENDBRANCH   3  24
BRANCH   5  26
ATOM     26  O   UNL     1     -26.437  -8.890 -31.134  1.00  0.00    -0.454 OA
BRANCH  26  27
ATOM     27  C   UNL     1     -26.074  -7.641 -31.673  1.00  0.00     0.214 A 
ATOM     28  C   UNL     1     -24.964  -7.540 -32.559  1.00  0.00     0.180 A 
ATOM     29  C   UNL     1     -26.769  -6.507 -31.302  1.00  0.00     0.239 A 
ATOM     30  O   UNL     1     -24.625  -6.313 -32.993  1.00  0.00    -0.452 OA
ATOM     31  C   UNL     1     -26.382  -5.249 -31.810  1.00  0.00     0.111 A 
ATOM     32  O   UNL     1     -27.772  -6.585 -30.532  1.00  0.00    -0.285 OA
ATOM     33  C   UNL     1     -25.250  -5.205 -32.671  1.00  0.00     0.146 A 
ATOM     34  C   UNL     1     -27.042  -4.037 -31.474  1.00  0.00     0.134 A 
ATOM     35  C   UNL     1     -24.791  -3.994 -33.159  1.00  0.00     0.094 A 
ATOM     36  C   UNL     1     -26.569  -2.845 -32.006  1.00  0.00     0.093 A 
ATOM     37  C   UNL     1     -25.441  -2.800 -32.824  1.00  0.00     0.123 A 
BRANCH  28  38
ATOM     38  C   UNL     1     -24.237  -8.706 -33.082  1.00  0.00     0.025 A 
ATOM     39  C   UNL     1     -22.895  -8.950 -32.737  1.00  0.00     0.062 A 
ATOM     40  C   UNL     1     -24.961  -9.717 -33.761  1.00  0.00     0.016 A 
ATOM     41  C   UNL     1     -22.253 -10.188 -33.072  1.00  0.00     0.158 A 
ATOM     42  C   UNL     1     -24.327 -10.923 -34.125  1.00  0.00     0.051 A 
ATOM     43  C   UNL     1     -23.036 -11.171 -33.709  1.00  0.00     0.157 A 
BRANCH  41  44
ATOM     44  O   UNL     1     -20.984 -10.448 -32.599  1.00  0.00    -0.504 OA
ATOM     45  H   UNL     1     -20.413 -11.180 -33.004  1.00  0.00     0.293 HD
ENDBRANCH  41  44
BRANCH  43  46
ATOM     46  O   UNL     1     -22.444 -12.429 -34.021  1.00  0.00    -0.504 OA
ATOM     47  H   UNL     1     -21.964 -12.975 -33.309  1.00  0.00     0.293 HD
ENDBRANCH  43  46
ENDBRANCH  28  38
BRANCH  34  48
ATOM     48  O   UNL     1     -28.125  -4.046 -30.605  1.00  0.00    -0.507 OA
ATOM     49  H   UNL     1     -29.039  -4.384 -30.900  1.00  0.00     0.293 HD
ENDBRANCH  34  48
BRANCH  37  50
ATOM     50  O   UNL     1     -24.961  -1.595 -33.287  1.00  0.00    -0.508 OA
ATOM     51  H   UNL     1     -24.240  -1.071 -32.801  1.00  0.00     0.293 HD
ENDBRANCH  37  50
ENDBRANCH  26  27
ENDBRANCH   5  26
BRANCH   4  52
ATOM     52  O   UNL     1     -24.979 -11.905 -29.618  1.00  0.00    -0.384 OA
ATOM     53  H   UNL     1     -24.142 -11.331 -29.653  1.00  0.00     0.211 HD
ENDBRANCH   4  52
TORSDOF 16
ENDMDL
MODEL 3
REMARK VINA RESULT:    -4.922      1.077      2.344
REMARK INTER + INTRA:         -10.077
REMARK INTER:                 -10.920
REMARK INTRA:                   0.843
REMARK UNBOUND:                -1.990
REMARK SMILES C[C@H]1O[C@H](OC[C@H]2O[C@H](Oc3c(-c4ccc(O)c(O)c4)oc4cc(O)cc(O)c4c3=O)[C@@H](O)[C@@H](O)[C@H]2O)[C@H](O)[C@H](O)[C@H]1O
REMARK SMILES IDX 7 1 36 2 34 3 32 4 9 5 8 6 6 7 5 8 4 9 1 10 2 11 42 12 3 13
REMARK SMILES IDX 40 14 38 15 43 16 41 18 39 20 37 22 35 24 10 26 11 27 12 28
REMARK SMILES IDX 30 29 21 30 29 31 31 32 22 33 27 34 23 35 26 36 24 37 13 38
REMARK SMILES IDX 20 39 14 40 18 41 15 42 16 43 19 44 17 46 28 48 25 50 33 52
REMARK H PARENT 43 17 41 19 39 21 37 23 35 25 19 45 17 47 28 49 25 51 33 53
REMARK Flexibility Score: inf
ROOT
ATOM      1  C   UNL     1     -23.958  -6.765 -30.516  1.00  0.00     0.180 C 
ATOM      2  C   UNL     1     -23.390  -6.148 -31.920  1.00  0.00     0.177 C 
ATOM      3  C   UNL     1     -24.519  -5.236 -32.436  1.00  0.00     0.180 C 
ATOM      4  C   UNL     1     -24.718  -4.143 -31.356  1.00  0.00     0.214 C 
ATOM      5  C   UNL     1     -25.337  -4.889 -30.143  1.00  0.00     0.339 C 
ATOM      6  O   UNL     1     -24.346  -5.729 -29.594  1.00  0.00    -0.332 OA
ENDROOT
BRANCH   1   7
ATOM      7  C   UNL     1     -22.968  -7.713 -29.805  1.00  0.00     0.198 C 
BRANCH   7   8
ATOM      8  O   UNL     1     -22.326  -8.655 -30.676  1.00  0.00    -0.347 OA
BRANCH   8   9
ATOM      9  C   UNL     1     -23.046  -9.884 -30.762  1.00  0.00     0.281 C 
ATOM     10  C   UNL     1     -24.471  -9.025 -34.124  1.00  0.00     0.041 C 
ATOM     11  C   UNL     1     -23.338  -9.536 -33.161  1.00  0.00     0.150 C 
ATOM     12  C   UNL     1     -22.167 -10.590 -33.588  1.00  0.00     0.174 C 
ATOM     13  O   UNL     1     -23.952  -9.812 -31.883  1.00  0.00    -0.344 OA
ATOM     14  C   UNL     1     -21.251 -10.859 -32.341  1.00  0.00     0.179 C 
ATOM     15  C   UNL     1     -22.041 -11.066 -31.019  1.00  0.00     0.202 C 
BRANCH  12  16
ATOM     16  O   UNL     1     -22.623 -11.842 -34.107  1.00  0.00    -0.388 OA
ATOM     17  H   UNL     1     -22.477 -11.777 -35.096  1.00  0.00     0.211 HD
ENDBRANCH  12  16
BRANCH  14  18
ATOM     18  O   UNL     1     -20.380  -9.761 -32.150  1.00  0.00    -0.387 OA
ATOM     19  H   UNL     1     -20.794  -8.959 -32.587  1.00  0.00     0.211 HD
ENDBRANCH  14  18
BRANCH  15  20
ATOM     20  O   UNL     1     -21.101 -11.137 -29.961  1.00  0.00    -0.385 OA
ATOM     21  H   UNL     1     -21.614 -10.940 -29.143  1.00  0.00     0.211 HD
ENDBRANCH  15  20
ENDBRANCH   8   9
ENDBRANCH   7   8
ENDBRANCH   1   7
BRANCH   2  22
ATOM     22  O   UNL     1     -22.204  -5.372 -31.800  1.00  0.00    -0.387 OA
ATOM     23  H   UNL     1     -21.535  -5.853 -32.380  1.00  0.00     0.211 HD
ENDBRANCH   2  22
BRANCH   3  24
ATOM     24  O   UNL     1     -24.250  -4.654 -33.695  1.00  0.00    -0.387 OA
ATOM     25  H   UNL     1     -24.426  -3.680 -33.623  1.00  0.00     0.211 HD
ENDBRANCH   3  24
BRANCH   5  26
ATOM     26  O   UNL     1     -26.513  -5.593 -30.486  1.00  0.00    -0.454 OA
BRANCH  26  27
ATOM     27  C   UNL     1     -26.671  -6.965 -30.210  1.00  0.00     0.214 A 
ATOM     28  C   UNL     1     -26.526  -7.448 -28.878  1.00  0.00     0.180 A 
ATOM     29  C   UNL     1     -26.921  -7.846 -31.242  1.00  0.00     0.239 A 
ATOM     30  O   UNL     1     -26.626  -8.776 -28.685  1.00  0.00    -0.452 OA
ATOM     31  C   UNL     1     -27.040  -9.226 -30.974  1.00  0.00     0.111 A 
ATOM     32  O   UNL     1     -27.074  -7.428 -32.428  1.00  0.00    -0.285 OA
ATOM     33  C   UNL     1     -26.861  -9.655 -29.630  1.00  0.00     0.146 A 
ATOM     34  C   UNL     1     -27.292 -10.197 -31.982  1.00  0.00     0.134 A 
ATOM     35  C   UNL     1     -26.914 -11.001 -29.313  1.00  0.00     0.094 A 
ATOM     36  C   UNL     1     -27.367 -11.535 -31.620  1.00  0.00     0.093 A 
ATOM     37  C   UNL     1     -27.159 -11.957 -30.307  1.00  0.00     0.123 A 
BRANCH  28  38
ATOM     38  C   UNL     1     -26.361  -6.569 -27.712  1.00  0.00     0.025 A 
ATOM     39  C   UNL     1     -25.398  -6.835 -26.721  1.00  0.00     0.062 A 
ATOM     40  C   UNL     1     -27.026  -5.318 -27.697  1.00  0.00     0.016 A 
ATOM     41  C   UNL     1     -25.093  -5.875 -25.701  1.00  0.00     0.158 A 
ATOM     42  C   UNL     1     -26.757  -4.382 -26.676  1.00  0.00     0.051 A 
ATOM     43  C   UNL     1     -25.755  -4.633 -25.764  1.00  0.00     0.157 A 
BRANCH  41  44
ATOM     44  O   UNL     1     -24.048  -6.111 -24.832  1.00  0.00    -0.504 OA
ATOM     45  H   UNL     1     -24.112  -6.827 -24.118  1.00  0.00     0.293 HD
ENDBRANCH  41  44
BRANCH  43  46
ATOM     46  O   UNL     1     -25.448  -3.638 -24.791  1.00  0.00    -0.504 OA
ATOM     47  H   UNL     1     -24.596  -3.087 -24.853  1.00  0.00     0.293 HD
ENDBRANCH  43  46
ENDBRANCH  28  38
BRANCH  34  48
ATOM     48  O   UNL     1     -27.433  -9.810 -33.307  1.00  0.00    -0.507 OA
ATOM     49  H   UNL     1     -28.037 -10.321 -33.948  1.00  0.00     0.293 HD
ENDBRANCH  34  48
BRANCH  37  50
ATOM     50  O   UNL     1     -27.180 -13.297 -29.992  1.00  0.00    -0.508 OA
ATOM     51  H   UNL     1     -26.339 -13.818 -29.767  1.00  0.00     0.293 HD
ENDBRANCH  37  50
ENDBRANCH  26  27
ENDBRANCH   5  26
BRANCH   4  52
ATOM     52  O   UNL     1     -23.595  -3.391 -30.871  1.00  0.00    -0.384 OA
ATOM     53  H   UNL     1     -23.422  -2.649 -31.542  1.00  0.00     0.211 HD
ENDBRANCH   4  52
TORSDOF 16
ENDMDL
MODEL 4
REMARK VINA RESULT:    -4.525     10.480     13.538
REMARK INTER + INTRA:          -9.424
REMARK INTER:                  -8.265
REMARK INTRA:                  -1.159
REMARK UNBOUND:                -1.990
REMARK SMILES C[C@H]1O[C@H](OC[C@H]2O[C@H](Oc3c(-c4ccc(O)c(O)c4)oc4cc(O)cc(O)c4c3=O)[C@@H](O)[C@@H](O)[C@H]2O)[C@H](O)[C@H](O)[C@H]1O
REMARK SMILES IDX 7 1 36 2 34 3 32 4 9 5 8 6 6 7 5 8 4 9 1 10 2 11 42 12 3 13
REMARK SMILES IDX 40 14 38 15 43 16 41 18 39 20 37 22 35 24 10 26 11 27 12 28
REMARK SMILES IDX 30 29 21 30 29 31 31 32 22 33 27 34 23 35 26 36 24 37 13 38
REMARK SMILES IDX 20 39 14 40 18 41 15 42 16 43 19 44 17 46 28 48 25 50 33 52
REMARK H PARENT 43 17 41 19 39 21 37 23 35 25 19 45 17 47 28 49 25 51 33 53
REMARK Flexibility Score: inf
ROOT
ATOM      1  C   UNL     1     -15.401  -3.423 -24.664  1.00  0.00     0.180 C 
ATOM      2  C   UNL     1     -15.617  -2.992 -23.101  1.00  0.00     0.177 C 
ATOM      3  C   UNL     1     -15.594  -1.453 -23.108  1.00  0.00     0.180 C 
ATOM      4  C   UNL     1     -16.778  -1.008 -24.004  1.00  0.00     0.214 C 
ATOM      5  C   UNL     1     -16.361  -1.415 -25.443  1.00  0.00     0.339 C 
ATOM      6  O   UNL     1     -16.388  -2.822 -25.525  1.00  0.00    -0.332 OA
ENDROOT
BRANCH   1   7
ATOM      7  C   UNL     1     -15.404  -4.949 -24.897  1.00  0.00     0.198 C 
BRANCH   7   8
ATOM      8  O   UNL     1     -14.700  -5.366 -26.075  1.00  0.00    -0.347 OA
BRANCH   8   9
ATOM      9  C   UNL     1     -15.261  -4.808 -27.263  1.00  0.00     0.281 C 
ATOM     10  C   UNL     1     -11.892  -4.296 -28.832  1.00  0.00     0.041 C 
ATOM     11  C   UNL     1     -13.140  -5.160 -28.420  1.00  0.00     0.150 C 
ATOM     12  C   UNL     1     -13.647  -6.491 -29.218  1.00  0.00     0.174 C 
ATOM     13  O   UNL     1     -14.196  -4.244 -28.057  1.00  0.00    -0.344 OA
ATOM     14  C   UNL     1     -14.931  -7.048 -28.505  1.00  0.00     0.179 C 
ATOM     15  C   UNL     1     -15.949  -5.944 -28.104  1.00  0.00     0.202 C 
BRANCH  12  16
ATOM     16  O   UNL     1     -13.930  -6.307 -30.607  1.00  0.00    -0.388 OA
ATOM     17  H   UNL     1     -14.876  -5.979 -30.634  1.00  0.00     0.211 HD
ENDBRANCH  12  16
BRANCH  14  18
ATOM     18  O   UNL     1     -14.558  -7.733 -27.326  1.00  0.00    -0.387 OA
ATOM     19  H   UNL     1     -15.129  -7.390 -26.576  1.00  0.00     0.211 HD
ENDBRANCH  14  18
BRANCH  15  20
ATOM     20  O   UNL     1     -16.971  -6.559 -27.336  1.00  0.00    -0.385 OA
ATOM     21  H   UNL     1     -16.540  -7.330 -26.899  1.00  0.00     0.211 HD
ENDBRANCH  15  20
ENDBRANCH   8   9
ENDBRANCH   7   8
ENDBRANCH   1   7
BRANCH   2  22
ATOM     22  O   UNL     1     -16.843  -3.421 -22.522  1.00  0.00    -0.387 OA
ATOM     23  H   UNL     1     -16.958  -2.826 -21.717  1.00  0.00     0.211 HD
ENDBRANCH   2  22
BRANCH   3  24
ATOM     24  O   UNL     1     -15.695  -0.876 -21.822  1.00  0.00    -0.387 OA
ATOM     25  H   UNL     1     -16.585  -1.110 -21.452  1.00  0.00     0.211 HD
ENDBRANCH   3  24
BRANCH   5  26
ATOM     26  O   UNL     1     -15.111  -0.875 -25.817  1.00  0.00    -0.454 OA
BRANCH  26  27
ATOM     27  C   UNL     1     -14.631  -0.943 -27.139  1.00  0.00     0.214 A 
ATOM     28  C   UNL     1     -13.229  -0.945 -27.392  1.00  0.00     0.180 A 
ATOM     29  C   UNL     1     -15.524  -0.960 -28.191  1.00  0.00     0.239 A 
ATOM     30  O   UNL     1     -12.830  -0.948 -28.677  1.00  0.00    -0.452 OA
ATOM     31  C   UNL     1     -15.045  -0.987 -29.518  1.00  0.00     0.111 A 
ATOM     32  O   UNL     1     -16.773  -0.980 -27.981  1.00  0.00    -0.285 OA
ATOM     33  C   UNL     1     -13.636  -0.963 -29.712  1.00  0.00     0.146 A 
ATOM     34  C   UNL     1     -15.899  -1.002 -30.654  1.00  0.00     0.134 A 
ATOM     35  C   UNL     1     -13.107  -0.935 -30.991  1.00  0.00     0.094 A 
ATOM     36  C   UNL     1     -15.330  -1.003 -31.921  1.00  0.00     0.093 A 
ATOM     37  C   UNL     1     -13.950  -0.947 -32.109  1.00  0.00     0.123 A 
BRANCH  28  38
ATOM     38  C   UNL     1     -12.215  -1.031 -26.331  1.00  0.00     0.025 A 
ATOM     39  C   UNL     1     -12.557  -0.875 -24.975  1.00  0.00     0.062 A 
ATOM     40  C   UNL     1     -10.919  -1.498 -26.658  1.00  0.00     0.016 A 
ATOM     41  C   UNL     1     -11.616  -1.166 -23.932  1.00  0.00     0.158 A 
ATOM     42  C   UNL     1      -9.977  -1.753 -25.640  1.00  0.00     0.051 A 
ATOM     43  C   UNL     1     -10.358  -1.668 -24.317  1.00  0.00     0.157 A 
BRANCH  41  44
ATOM     44  O   UNL     1     -12.027  -1.136 -22.615  1.00  0.00    -0.504 OA
ATOM     45  H   UNL     1     -12.736  -1.773 -22.273  1.00  0.00     0.293 HD
ENDBRANCH  41  44
BRANCH  43  46
ATOM     46  O   UNL     1      -9.412  -2.007 -23.308  1.00  0.00    -0.504 OA
ATOM     47  H   UNL     1      -9.193  -1.360 -22.554  1.00  0.00     0.293 HD
ENDBRANCH  43  46
ENDBRANCH  28  38
BRANCH  34  48
ATOM     48  O   UNL     1     -17.278  -0.987 -30.495  1.00  0.00    -0.507 OA
ATOM     49  H   UNL     1     -17.713  -1.259 -29.616  1.00  0.00     0.293 HD
ENDBRANCH  34  48
BRANCH  37  50
ATOM     50  O   UNL     1     -13.418  -0.888 -33.379  1.00  0.00    -0.508 OA
ATOM     51  H   UNL     1     -12.482  -1.215 -33.594  1.00  0.00     0.293 HD
ENDBRANCH  37  50
ENDBRANCH  26  27
ENDBRANCH   5  26
BRANCH   4  52
ATOM     52  O   UNL     1     -18.096  -1.528 -23.774  1.00  0.00    -0.384 OA
ATOM     53  H   UNL     1     -18.702  -0.733 -23.597  1.00  0.00     0.211 HD
ENDBRANCH   4  52
TORSDOF 16
ENDMDL
MODEL 5
REMARK VINA RESULT:    -4.470      2.343      5.763
REMARK INTER + INTRA:          -9.334
REMARK INTER:                  -7.576
REMARK INTRA:                  -1.757
REMARK UNBOUND:                -1.990
REMARK SMILES C[C@H]1O[C@H](OC[C@H]2O[C@H](Oc3c(-c4ccc(O)c(O)c4)oc4cc(O)cc(O)c4c3=O)[C@@H](O)[C@@H](O)[C@H]2O)[C@H](O)[C@H](O)[C@H]1O
REMARK SMILES IDX 7 1 36 2 34 3 32 4 9 5 8 6 6 7 5 8 4 9 1 10 2 11 42 12 3 13
REMARK SMILES IDX 40 14 38 15 43 16 41 18 39 20 37 22 35 24 10 26 11 27 12 28
REMARK SMILES IDX 30 29 21 30 29 31 31 32 22 33 27 34 23 35 26 36 24 37 13 38
REMARK SMILES IDX 20 39 14 40 18 41 15 42 16 43 19 44 17 46 28 48 25 50 33 52
REMARK H PARENT 43 17 41 19 39 21 37 23 35 25 19 45 17 47 28 49 25 51 33 53
REMARK Flexibility Score: inf
ROOT
ATOM      1  C   UNL     1     -23.751  -9.427 -32.914  1.00  0.00     0.180 C 
ATOM      2  C   UNL     1     -22.373 -10.150 -33.419  1.00  0.00     0.177 C 
ATOM      3  C   UNL     1     -21.241  -9.233 -32.922  1.00  0.00     0.180 C 
ATOM      4  C   UNL     1     -21.353  -9.207 -31.377  1.00  0.00     0.214 C 
ATOM      5  C   UNL     1     -22.657  -8.417 -31.086  1.00  0.00     0.339 C 
ATOM      6  O   UNL     1     -23.750  -9.211 -31.490  1.00  0.00    -0.332 OA
ENDROOT
BRANCH   1   7
ATOM      7  C   UNL     1     -25.035 -10.195 -33.296  1.00  0.00     0.198 C 
BRANCH   7   8
ATOM      8  O   UNL     1     -25.889 -10.505 -32.186  1.00  0.00    -0.347 OA
BRANCH   8   9
ATOM      9  C   UNL     1     -25.703 -11.841 -31.722  1.00  0.00     0.281 C 
ATOM     10  C   UNL     1     -24.059 -10.702 -28.548  1.00  0.00     0.041 C 
ATOM     11  C   UNL     1     -25.300 -10.992 -29.468  1.00  0.00     0.150 C 
ATOM     12  C   UNL     1     -26.790 -11.374 -28.917  1.00  0.00     0.174 C 
ATOM     13  O   UNL     1     -24.842 -11.812 -30.564  1.00  0.00    -0.344 OA
ATOM     14  C   UNL     1     -27.737 -11.608 -30.148  1.00  0.00     0.179 C 
ATOM     15  C   UNL     1     -27.088 -12.444 -31.286  1.00  0.00     0.202 C 
BRANCH  12  16
ATOM     16  O   UNL     1     -26.856 -12.515 -28.058  1.00  0.00    -0.388 OA
ATOM     17  H   UNL     1     -25.907 -12.681 -27.781  1.00  0.00     0.211 HD
ENDBRANCH  12  16
BRANCH  14  18
ATOM     18  O   UNL     1     -28.113 -10.360 -30.698  1.00  0.00    -0.387 OA
ATOM     19  H   UNL     1     -28.769 -10.533 -31.437  1.00  0.00     0.211 HD
ENDBRANCH  14  18
BRANCH  15  20
ATOM     20  O   UNL     1     -27.981 -12.442 -32.386  1.00  0.00    -0.385 OA
ATOM     21  H   UNL     1     -28.876 -12.306 -31.996  1.00  0.00     0.211 HD
ENDBRANCH  15  20
ENDBRANCH   8   9
ENDBRANCH   7   8
ENDBRANCH   1   7
BRANCH   2  22
ATOM     22  O   UNL     1     -22.154 -11.456 -32.902  1.00  0.00    -0.387 OA
ATOM     23  H   UNL     1     -21.439 -11.842 -33.499  1.00  0.00     0.211 HD
ENDBRANCH   2  22
BRANCH   3  24
ATOM     24  O   UNL     1     -19.952  -9.650 -33.324  1.00  0.00    -0.387 OA
ATOM     25  H   UNL     1     -19.506 -10.060 -32.539  1.00  0.00     0.211 HD
ENDBRANCH   3  24
BRANCH   5  26
ATOM     26  O   UNL     1     -22.663  -7.141 -31.693  1.00  0.00    -0.454 OA
BRANCH  26  27
ATOM     27  C   UNL     1     -23.564  -6.131 -31.304  1.00  0.00     0.214 A 
ATOM     28  C   UNL     1     -23.677  -5.764 -29.933  1.00  0.00     0.180 A 
ATOM     29  C   UNL     1     -24.369  -5.531 -32.250  1.00  0.00     0.239 A 
ATOM     30  O   UNL     1     -24.598  -4.837 -29.612  1.00  0.00    -0.452 OA
ATOM     31  C   UNL     1     -25.301  -4.547 -31.857  1.00  0.00     0.111 A 
ATOM     32  O   UNL     1     -24.263  -5.831 -33.476  1.00  0.00    -0.285 OA
ATOM     33  C   UNL     1     -25.389  -4.237 -30.472  1.00  0.00     0.146 A 
ATOM     34  C   UNL     1     -26.168  -3.886 -32.769  1.00  0.00     0.134 A 
ATOM     35  C   UNL     1     -26.320  -3.319 -30.019  1.00  0.00     0.094 A 
ATOM     36  C   UNL     1     -27.068  -2.950 -32.280  1.00  0.00     0.093 A 
ATOM     37  C   UNL     1     -27.176  -2.671 -30.918  1.00  0.00     0.123 A 
BRANCH  28  38
ATOM     38  C   UNL     1     -22.789  -6.279 -28.880  1.00  0.00     0.025 A 
ATOM     39  C   UNL     1     -21.481  -5.786 -28.717  1.00  0.00     0.062 A 
ATOM     40  C   UNL     1     -23.331  -7.121 -27.878  1.00  0.00     0.016 A 
ATOM     41  C   UNL     1     -20.693  -6.131 -27.570  1.00  0.00     0.158 A 
ATOM     42  C   UNL     1     -22.550  -7.493 -26.765  1.00  0.00     0.051 A 
ATOM     43  C   UNL     1     -21.301  -6.936 -26.587  1.00  0.00     0.157 A 
BRANCH  41  44
ATOM     44  O   UNL     1     -19.472  -5.522 -27.374  1.00  0.00    -0.504 OA
ATOM     45  H   UNL     1     -18.804  -5.888 -26.705  1.00  0.00     0.293 HD
ENDBRANCH  41  44
BRANCH  43  46
ATOM     46  O   UNL     1     -20.563  -7.267 -25.414  1.00  0.00    -0.504 OA
ATOM     47  H   UNL     1     -20.580  -8.209 -25.031  1.00  0.00     0.293 HD
ENDBRANCH  43  46
ENDBRANCH  28  38
BRANCH  34  48
ATOM     48  O   UNL     1     -26.129  -4.196 -34.122  1.00  0.00    -0.507 OA
ATOM     49  H   UNL     1     -26.889  -4.703 -34.572  1.00  0.00     0.293 HD
ENDBRANCH  34  48
BRANCH  37  50
ATOM     50  O   UNL     1     -28.121  -1.781 -30.458  1.00  0.00    -0.508 OA
ATOM     51  H   UNL     1     -28.366  -1.704 -29.477  1.00  0.00     0.293 HD
ENDBRANCH  37  50
ENDBRANCH  26  27
ENDBRANCH   5  26
BRANCH   4  52
ATOM     52  O   UNL     1     -21.419 -10.434 -30.635  1.00  0.00    -0.384 OA
ATOM     53  H   UNL     1     -22.249 -10.385 -30.052  1.00  0.00     0.211 HD
ENDBRANCH   4  52
TORSDOF 16
ENDMDL
MODEL 6
REMARK VINA RESULT:    -4.428      2.140      5.318
REMARK INTER + INTRA:          -9.264
REMARK INTER:                  -8.012
REMARK INTRA:                  -1.253
REMARK UNBOUND:                -1.990
REMARK SMILES C[C@H]1O[C@H](OC[C@H]2O[C@H](Oc3c(-c4ccc(O)c(O)c4)oc4cc(O)cc(O)c4c3=O)[C@@H](O)[C@@H](O)[C@H]2O)[C@H](O)[C@H](O)[C@H]1O
REMARK SMILES IDX 7 1 36 2 34 3 32 4 9 5 8 6 6 7 5 8 4 9 1 10 2 11 42 12 3 13
REMARK SMILES IDX 40 14 38 15 43 16 41 18 39 20 37 22 35 24 10 26 11 27 12 28
REMARK SMILES IDX 30 29 21 30 29 31 31 32 22 33 27 34 23 35 26 36 24 37 13 38
REMARK SMILES IDX 20 39 14 40 18 41 15 42 16 43 19 44 17 46 28 48 25 50 33 52
REMARK H PARENT 43 17 41 19 39 21 37 23 35 25 19 45 17 47 28 49 25 51 33 53
REMARK Flexibility Score: inf
ROOT
ATOM      1  C   UNL     1     -27.367  -5.348 -29.523  1.00  0.00     0.180 C 
ATOM      2  C   UNL     1     -28.111  -4.437 -28.387  1.00  0.00     0.177 C 
ATOM      3  C   UNL     1     -27.486  -4.882 -27.052  1.00  0.00     0.180 C 
ATOM      4  C   UNL     1     -25.973  -4.565 -27.156  1.00  0.00     0.214 C 
ATOM      5  C   UNL     1     -25.426  -5.572 -28.203  1.00  0.00     0.339 C 
ATOM      6  O   UNL     1     -25.935  -5.209 -29.467  1.00  0.00    -0.332 OA
ENDROOT
BRANCH   1   7
ATOM      7  C   UNL     1     -27.837  -5.054 -30.964  1.00  0.00     0.198 C 
BRANCH   7   8
ATOM      8  O   UNL     1     -27.170  -5.828 -31.971  1.00  0.00    -0.347 OA
BRANCH   8   9
ATOM      9  C   UNL     1     -27.243  -5.214 -33.257  1.00  0.00     0.281 C 
ATOM     10  C   UNL     1     -27.304  -1.756 -31.803  1.00  0.00     0.041 C 
ATOM     11  C   UNL     1     -26.593  -3.079 -32.265  1.00  0.00     0.150 C 
ATOM     12  C   UNL     1     -25.043  -3.166 -32.776  1.00  0.00     0.174 C 
ATOM     13  O   UNL     1     -27.531  -3.810 -33.083  1.00  0.00    -0.344 OA
ATOM     14  C   UNL     1     -24.724  -4.654 -33.165  1.00  0.00     0.179 C 
ATOM     15  C   UNL     1     -25.853  -5.342 -33.981  1.00  0.00     0.202 C 
BRANCH  12  16
ATOM     16  O   UNL     1     -24.708  -2.316 -33.875  1.00  0.00    -0.388 OA
ATOM     17  H   UNL     1     -24.056  -2.848 -34.419  1.00  0.00     0.211 HD
ENDBRANCH  12  16
BRANCH  14  18
ATOM     18  O   UNL     1     -24.521  -5.416 -31.991  1.00  0.00    -0.387 OA
ATOM     19  H   UNL     1     -24.090  -4.822 -31.308  1.00  0.00     0.211 HD
ENDBRANCH  14  18
BRANCH  15  20
ATOM     20  O   UNL     1     -25.510  -6.710 -34.125  1.00  0.00    -0.385 OA
ATOM     21  H   UNL     1     -26.340  -7.207 -33.938  1.00  0.00     0.211 HD
ENDBRANCH  15  20
ENDBRANCH   8   9
ENDBRANCH   7   8
ENDBRANCH   1   7
BRANCH   2  22
ATOM     22  O   UNL     1     -27.924  -3.033 -28.524  1.00  0.00    -0.387 OA
ATOM     23  H   UNL     1     -28.859  -2.657 -28.500  1.00  0.00     0.211 HD
ENDBRANCH   2  22
BRANCH   3  24
ATOM     24  O   UNL     1     -28.053  -4.255 -25.920  1.00  0.00    -0.387 OA
ATOM     25  H   UNL     1     -28.999  -4.042 -26.131  1.00  0.00     0.211 HD
ENDBRANCH   3  24
BRANCH   5  26
ATOM     26  O   UNL     1     -25.720  -6.913 -27.867  1.00  0.00    -0.454 OA
BRANCH  26  27
ATOM     27  C   UNL     1     -25.319  -7.993 -28.678  1.00  0.00     0.214 A 
ATOM     28  C   UNL     1     -23.955  -8.128 -29.064  1.00  0.00     0.180 A 
ATOM     29  C   UNL     1     -26.260  -8.892 -29.135  1.00  0.00     0.239 A 
ATOM     30  O   UNL     1     -23.641  -9.143 -29.889  1.00  0.00    -0.452 OA
ATOM     31  C   UNL     1     -25.867  -9.952 -29.979  1.00  0.00     0.111 A 
ATOM     32  O   UNL     1     -27.473  -8.797 -28.782  1.00  0.00    -0.285 OA
ATOM     33  C   UNL     1     -24.496 -10.024 -30.353  1.00  0.00     0.146 A 
ATOM     34  C   UNL     1     -26.775 -10.916 -30.495  1.00  0.00     0.134 A 
ATOM     35  C   UNL     1     -24.059 -11.009 -31.221  1.00  0.00     0.094 A 
ATOM     36  C   UNL     1     -26.294 -11.906 -31.340  1.00  0.00     0.093 A 
ATOM     37  C   UNL     1     -24.956 -11.957 -31.730  1.00  0.00     0.123 A 
BRANCH  28  38
ATOM     38  C   UNL     1     -22.877  -7.276 -28.540  1.00  0.00     0.025 A 
ATOM     39  C   UNL     1     -22.439  -7.382 -27.207  1.00  0.00     0.062 A 
ATOM     40  C   UNL     1     -22.118  -6.496 -29.448  1.00  0.00     0.016 A 
ATOM     41  C   UNL     1     -21.256  -6.708 -26.757  1.00  0.00     0.158 A 
ATOM     42  C   UNL     1     -20.974  -5.802 -29.003  1.00  0.00     0.051 A 
ATOM     43  C   UNL     1     -20.520  -5.983 -27.714  1.00  0.00     0.157 A 
BRANCH  41  44
ATOM     44  O   UNL     1     -20.780  -6.945 -25.484  1.00  0.00    -0.504 OA
ATOM     45  H   UNL     1     -21.409  -7.159 -24.720  1.00  0.00     0.293 HD
ENDBRANCH  41  44
BRANCH  43  46
ATOM     46  O   UNL     1     -19.317  -5.333 -27.312  1.00  0.00    -0.504 OA
ATOM     47  H   UNL     1     -18.929  -4.565 -27.854  1.00  0.00     0.293 HD
ENDBRANCH  43  46
ENDBRANCH  28  38
BRANCH  34  48
ATOM     48  O   UNL     1     -28.125 -10.846 -30.178  1.00  0.00    -0.507 OA
ATOM     49  H   UNL     1     -28.823 -11.357 -30.714  1.00  0.00     0.293 HD
ENDBRANCH  34  48
BRANCH  37  50
ATOM     50  O   UNL     1     -24.522 -12.916 -32.618  1.00  0.00    -0.508 OA
ATOM     51  H   UNL     1     -23.956 -13.709 -32.331  1.00  0.00     0.293 HD
ENDBRANCH  37  50
ENDBRANCH  26  27
ENDBRANCH   5  26
BRANCH   4  52
ATOM     52  O   UNL     1     -25.533  -3.256 -27.548  1.00  0.00    -0.384 OA
ATOM     53  H   UNL     1     -25.181  -2.798 -26.713  1.00  0.00     0.211 HD
ENDBRANCH   4  52
TORSDOF 16
ENDMDL
MODEL 7
REMARK VINA RESULT:    -4.257      2.484      5.808
REMARK INTER + INTRA:          -8.984
REMARK INTER:                  -7.359
REMARK INTRA:                  -1.626
REMARK UNBOUND:                -1.990
REMARK SMILES C[C@H]1O[C@H](OC[C@H]2O[C@H](Oc3c(-c4ccc(O)c(O)c4)oc4cc(O)cc(O)c4c3=O)[C@@H](O)[C@@H](O)[C@H]2O)[C@H](O)[C@H](O)[C@H]1O
REMARK SMILES IDX 7 1 36 2 34 3 32 4 9 5 8 6 6 7 5 8 4 9 1 10 2 11 42 12 3 13
REMARK SMILES IDX 40 14 38 15 43 16 41 18 39 20 37 22 35 24 10 26 11 27 12 28
REMARK SMILES IDX 30 29 21 30 29 31 31 32 22 33 27 34 23 35 26 36 24 37 13 38
REMARK SMILES IDX 20 39 14 40 18 41 15 42 16 43 19 44 17 46 28 48 25 50 33 52
REMARK H PARENT 43 17 41 19 39 21 37 23 35 25 19 45 17 47 28 49 25 51 33 53
REMARK Flexibility Score: inf
ROOT
ATOM      1  C   UNL     1     -23.639  -9.306 -32.432  1.00  0.00     0.180 C 
ATOM      2  C   UNL     1     -22.294  -9.764 -33.243  1.00  0.00     0.177 C 
ATOM      3  C   UNL     1     -21.167  -8.890 -32.664  1.00  0.00     0.180 C 
ATOM      4  C   UNL     1     -21.084  -9.236 -31.155  1.00  0.00     0.214 C 
ATOM      5  C   UNL     1     -22.387  -8.655 -30.542  1.00  0.00     0.339 C 
ATOM      6  O   UNL     1     -23.471  -9.429 -31.006  1.00  0.00    -0.332 OA
ENDROOT
BRANCH   1   7
ATOM      7  C   UNL     1     -24.911 -10.076 -32.848  1.00  0.00     0.198 C 
BRANCH   7   8
ATOM      8  O   UNL     1     -25.845 -10.292 -31.781  1.00  0.00    -0.347 OA
BRANCH   8   9
ATOM      9  C   UNL     1     -25.808 -11.634 -31.298  1.00  0.00     0.281 C 
ATOM     10  C   UNL     1     -24.196 -10.620 -28.065  1.00  0.00     0.041 C 
ATOM     11  C   UNL     1     -25.420 -10.800 -29.036  1.00  0.00     0.150 C 
ATOM     12  C   UNL     1     -26.962 -11.031 -28.547  1.00  0.00     0.174 C 
ATOM     13  O   UNL     1     -24.997 -11.674 -30.104  1.00  0.00    -0.344 OA
ATOM     14  C   UNL     1     -27.875 -11.188 -29.815  1.00  0.00     0.179 C 
ATOM     15  C   UNL     1     -27.262 -12.096 -30.917  1.00  0.00     0.202 C 
BRANCH  12  16
ATOM     16  O   UNL     1     -27.173 -12.150 -27.682  1.00  0.00    -0.388 OA
ATOM     17  H   UNL     1     -28.154 -12.342 -27.748  1.00  0.00     0.211 HD
ENDBRANCH  12  16
BRANCH  14  18
ATOM     18  O   UNL     1     -28.105  -9.916 -30.390  1.00  0.00    -0.387 OA
ATOM     19  H   UNL     1     -27.264  -9.378 -30.299  1.00  0.00     0.211 HD
ENDBRANCH  14  18
BRANCH  15  20
ATOM     20  O   UNL     1     -28.104 -12.021 -32.055  1.00  0.00    -0.385 OA
ATOM     21  H   UNL     1     -28.069 -12.918 -32.463  1.00  0.00     0.211 HD
ENDBRANCH  15  20
ENDBRANCH   8   9
ENDBRANCH   7   8
ENDBRANCH   1   7
BRANCH   2  22
ATOM     22  O   UNL     1     -21.931 -11.130 -33.084  1.00  0.00    -0.387 OA
ATOM     23  H   UNL     1     -20.929 -11.107 -32.972  1.00  0.00     0.211 HD
ENDBRANCH   2  22
BRANCH   3  24
ATOM     24  O   UNL     1     -19.916  -9.083 -33.292  1.00  0.00    -0.387 OA
ATOM     25  H   UNL     1     -19.283  -9.427 -32.609  1.00  0.00     0.211 HD
ENDBRANCH   3  24
BRANCH   5  26
ATOM     26  O   UNL     1     -22.548  -7.279 -30.818  1.00  0.00    -0.454 OA
BRANCH  26  27
ATOM     27  C   UNL     1     -23.421  -6.463 -30.072  1.00  0.00     0.214 A 
ATOM     28  C   UNL     1     -23.012  -5.947 -28.809  1.00  0.00     0.180 A 
ATOM     29  C   UNL     1     -24.690  -6.205 -30.548  1.00  0.00     0.239 A 
ATOM     30  O   UNL     1     -23.910  -5.226 -28.114  1.00  0.00    -0.452 OA
ATOM     31  C   UNL     1     -25.580  -5.421 -29.784  1.00  0.00     0.111 A 
ATOM     32  O   UNL     1     -25.059  -6.639 -31.679  1.00  0.00    -0.285 OA
ATOM     33  C   UNL     1     -25.128  -4.952 -28.519  1.00  0.00     0.146 A 
ATOM     34  C   UNL     1     -26.903  -5.114 -30.202  1.00  0.00     0.134 A 
ATOM     35  C   UNL     1     -25.973  -4.223 -27.702  1.00  0.00     0.094 A 
ATOM     36  C   UNL     1     -27.712  -4.355 -29.366  1.00  0.00     0.093 A 
ATOM     37  C   UNL     1     -27.278  -3.924 -28.114  1.00  0.00     0.123 A 
BRANCH  28  38
ATOM     38  C   UNL     1     -21.649  -6.090 -28.279  1.00  0.00     0.025 A 
ATOM     39  C   UNL     1     -20.596  -5.272 -28.730  1.00  0.00     0.062 A 
ATOM     40  C   UNL     1     -21.438  -6.907 -27.141  1.00  0.00     0.016 A 
ATOM     41  C   UNL     1     -19.324  -5.264 -28.069  1.00  0.00     0.158 A 
ATOM     42  C   UNL     1     -20.178  -6.932 -26.508  1.00  0.00     0.051 A 
ATOM     43  C   UNL     1     -19.188  -6.065 -26.918  1.00  0.00     0.157 A 
BRANCH  41  44
ATOM     44  O   UNL     1     -18.363  -4.351 -28.450  1.00  0.00    -0.504 OA
ATOM     45  H   UNL     1     -17.383  -4.502 -28.240  1.00  0.00     0.293 HD
ENDBRANCH  41  44
BRANCH  43  46
ATOM     46  O   UNL     1     -17.951  -6.053 -26.211  1.00  0.00    -0.504 OA
ATOM     47  H   UNL     1     -17.797  -5.417 -25.433  1.00  0.00     0.293 HD
ENDBRANCH  43  46
ENDBRANCH  28  38
BRANCH  34  48
ATOM     48  O   UNL     1     -27.383  -5.591 -31.414  1.00  0.00    -0.507 OA
ATOM     49  H   UNL     1     -27.413  -6.588 -31.618  1.00  0.00     0.293 HD
ENDBRANCH  34  48
BRANCH  37  50
ATOM     50  O   UNL     1     -28.125  -3.224 -27.283  1.00  0.00    -0.508 OA
ATOM     51  H   UNL     1     -27.854  -2.931 -26.349  1.00  0.00     0.293 HD
ENDBRANCH  37  50
ENDBRANCH  26  27
ENDBRANCH   5  26
BRANCH   4  52
ATOM     52  O   UNL     1     -20.980 -10.603 -30.731  1.00  0.00    -0.384 OA
ATOM     53  H   UNL     1     -20.514 -11.111 -31.476  1.00  0.00     0.211 HD
ENDBRANCH   4  52
TORSDOF 16
ENDMDL
MODEL 8
REMARK VINA RESULT:    -4.121      1.783      5.439
REMARK INTER + INTRA:          -8.761
REMARK INTER:                  -9.553
REMARK INTRA:                   0.792
REMARK UNBOUND:                -1.990
REMARK SMILES C[C@H]1O[C@H](OC[C@H]2O[C@H](Oc3c(-c4ccc(O)c(O)c4)oc4cc(O)cc(O)c4c3=O)[C@@H](O)[C@@H](O)[C@H]2O)[C@H](O)[C@H](O)[C@H]1O
REMARK SMILES IDX 7 1 36 2 34 3 32 4 9 5 8 6 6 7 5 8 4 9 1 10 2 11 42 12 3 13
REMARK SMILES IDX 40 14 38 15 43 16 41 18 39 20 37 22 35 24 10 26 11 27 12 28
REMARK SMILES IDX 30 29 21 30 29 31 31 32 22 33 27 34 23 35 26 36 24 37 13 38
REMARK SMILES IDX 20 39 14 40 18 41 15 42 16 43 19 44 17 46 28 48 25 50 33 52
REMARK H PARENT 43 17 41 19 39 21 37 23 35 25 19 45 17 47 28 49 25 51 33 53
REMARK Flexibility Score: inf
ROOT
ATOM      1  C   UNL     1     -22.806  -8.156 -31.322  1.00  0.00     0.180 C 
ATOM      2  C   UNL     1     -21.888  -9.441 -31.747  1.00  0.00     0.177 C 
ATOM      3  C   UNL     1     -22.372  -9.823 -33.158  1.00  0.00     0.180 C 
ATOM      4  C   UNL     1     -22.101  -8.589 -34.056  1.00  0.00     0.214 C 
ATOM      5  C   UNL     1     -23.111  -7.515 -33.571  1.00  0.00     0.339 C 
ATOM      6  O   UNL     1     -22.714  -7.090 -32.286  1.00  0.00    -0.332 OA
ENDROOT
BRANCH   1   7
ATOM      7  C   UNL     1     -22.477  -7.589 -29.925  1.00  0.00     0.198 C 
BRANCH   7   8
ATOM      8  O   UNL     1     -23.561  -6.881 -29.306  1.00  0.00    -0.347 OA
BRANCH   8   9
ATOM      9  C   UNL     1     -23.122  -5.688 -28.657  1.00  0.00     0.281 C 
ATOM     10  C   UNL     1     -26.482  -4.052 -29.000  1.00  0.00     0.041 C 
ATOM     11  C   UNL     1     -25.449  -5.026 -28.323  1.00  0.00     0.150 C 
ATOM     12  C   UNL     1     -25.481  -5.459 -26.748  1.00  0.00     0.174 C 
ATOM     13  O   UNL     1     -24.139  -4.675 -28.818  1.00  0.00    -0.344 OA
ATOM     14  C   UNL     1     -24.273  -6.421 -26.465  1.00  0.00     0.179 C 
ATOM     15  C   UNL     1     -22.941  -5.960 -27.120  1.00  0.00     0.202 C 
BRANCH  12  16
ATOM     16  O   UNL     1     -25.444  -4.379 -25.811  1.00  0.00    -0.388 OA
ATOM     17  H   UNL     1     -24.519  -4.003 -25.892  1.00  0.00     0.211 HD
ENDBRANCH  12  16
BRANCH  14  18
ATOM     18  O   UNL     1     -24.569  -7.711 -26.965  1.00  0.00    -0.387 OA
ATOM     19  H   UNL     1     -24.553  -7.665 -27.967  1.00  0.00     0.211 HD
ENDBRANCH  14  18
BRANCH  15  20
ATOM     20  O   UNL     1     -21.985  -6.988 -26.923  1.00  0.00    -0.385 OA
ATOM     21  H   UNL     1     -21.516  -7.075 -27.785  1.00  0.00     0.211 HD
ENDBRANCH  15  20
ENDBRANCH   8   9
ENDBRANCH   7   8
ENDBRANCH   1   7
BRANCH   2  22
ATOM     22  O   UNL     1     -20.489  -9.188 -31.805  1.00  0.00    -0.387 OA
ATOM     23  H   UNL     1     -20.115  -9.984 -32.298  1.00  0.00     0.211 HD
ENDBRANCH   2  22
BRANCH   3  24
ATOM     24  O   UNL     1     -21.742 -10.973 -33.684  1.00  0.00    -0.387 OA
ATOM     25  H   UNL     1     -20.871 -11.083 -33.221  1.00  0.00     0.211 HD
ENDBRANCH   3  24
BRANCH   5  26
ATOM     26  O   UNL     1     -24.446  -7.976 -33.599  1.00  0.00    -0.454 OA
BRANCH  26  27
ATOM     27  C   UNL     1     -25.207  -8.137 -32.425  1.00  0.00     0.214 A 
ATOM     28  C   UNL     1     -25.789  -7.003 -31.790  1.00  0.00     0.180 A 
ATOM     29  C   UNL     1     -25.349  -9.391 -31.867  1.00  0.00     0.239 A 
ATOM     30  O   UNL     1     -26.453  -7.209 -30.637  1.00  0.00    -0.452 OA
ATOM     31  C   UNL     1     -26.077  -9.549 -30.669  1.00  0.00     0.111 A 
ATOM     32  O   UNL     1     -24.856 -10.411 -32.433  1.00  0.00    -0.285 OA
ATOM     33  C   UNL     1     -26.615  -8.378 -30.065  1.00  0.00     0.146 A 
ATOM     34  C   UNL     1     -26.264 -10.804 -30.030  1.00  0.00     0.134 A 
ATOM     35  C   UNL     1     -27.294  -8.462 -28.862  1.00  0.00     0.094 A 
ATOM     36  C   UNL     1     -26.976 -10.852 -28.840  1.00  0.00     0.093 A 
ATOM     37  C   UNL     1     -27.475  -9.700 -28.232  1.00  0.00     0.123 A 
BRANCH  28  38
ATOM     38  C   UNL     1     -25.772  -5.652 -32.370  1.00  0.00     0.025 A 
ATOM     39  C   UNL     1     -26.869  -5.151 -33.094  1.00  0.00     0.062 A 
ATOM     40  C   UNL     1     -24.730  -4.763 -32.007  1.00  0.00     0.016 A 
ATOM     41  C   UNL     1     -26.940  -3.771 -33.477  1.00  0.00     0.158 A 
ATOM     42  C   UNL     1     -24.776  -3.412 -32.410  1.00  0.00     0.051 A 
ATOM     43  C   UNL     1     -25.897  -2.926 -33.050  1.00  0.00     0.157 A 
BRANCH  41  44
ATOM     44  O   UNL     1     -28.091  -3.284 -34.062  1.00  0.00    -0.504 OA
ATOM     45  H   UNL     1     -28.565  -3.799 -34.795  1.00  0.00     0.293 HD
ENDBRANCH  41  44
BRANCH  43  46
ATOM     46  O   UNL     1     -25.953  -1.541 -33.377  1.00  0.00    -0.504 OA
ATOM     47  H   UNL     1     -25.710  -0.829 -32.692  1.00  0.00     0.293 HD
ENDBRANCH  43  46
ENDBRANCH  28  38
BRANCH  34  48
ATOM     48  O   UNL     1     -25.718 -11.957 -30.578  1.00  0.00    -0.507 OA
ATOM     49  H   UNL     1     -25.335 -11.966 -31.521  1.00  0.00     0.293 HD
ENDBRANCH  34  48
BRANCH  37  50
ATOM     50  O   UNL     1     -28.125  -9.774 -27.020  1.00  0.00    -0.508 OA
ATOM     51  H   UNL     1     -27.846 -10.420 -26.290  1.00  0.00     0.293 HD
ENDBRANCH  37  50
ENDBRANCH  26  27
ENDBRANCH   5  26
BRANCH   4  52
ATOM     52  O   UNL     1     -20.801  -7.980 -34.078  1.00  0.00    -0.384 OA
ATOM     53  H   UNL     1     -20.364  -8.244 -34.955  1.00  0.00     0.211 HD
ENDBRANCH   4  52
TORSDOF 16
ENDMDL
