MODEL 1
REMARK VINA RESULT:    -5.431      0.000      0.000
REMARK INTER + INTRA:         -12.234
REMARK INTER:                 -10.512
REMARK INTRA:                  -1.723
REMARK UNBOUND:                -1.723
REMARK SMILES CCCCCCCCCCCCCCCCCC(=O)[O-]
REMARK SMILES IDX 10 1 11 2 12 3 13 4 14 5 15 6 16 7 17 8 18 9 19 10 20 11
REMARK SMILES IDX 9 12 8 13 7 14 6 15 5 16 4 17 3 18 2 19 1 20
REMARK H PARENT
REMARK Flexibility Score: inf
ROOT
ATOM      1  C   UNL     1       0.740  44.339   7.846  1.00  0.00     0.000 C 
ENDROOT
BRANCH   1   2
ATOM      2  C   UNL     1       1.374  43.803   9.143  1.00  0.00     0.000 C 
BRANCH   2   3
ATOM      3  C   UNL     1       2.738  43.132   8.910  1.00  0.00     0.000 C 
BRANCH   3   4
ATOM      4  C   UNL     1       3.660  43.218  10.136  1.00  0.00     0.000 C 
BRANCH   4   5
ATOM      5  C   UNL     1       2.903  43.618  11.414  1.00  0.00     0.000 C 
BRANCH   5   6
ATOM      6  C   UNL     1       2.320  42.406  12.160  1.00  0.00     0.000 C 
BRANCH   6   7
ATOM      7  C   UNL     1       3.008  41.085  11.773  1.00  0.00     0.006 C 
BRANCH   7   8
ATOM      8  C   UNL     1       2.624  39.936  12.713  1.00  0.00     0.053 C 
BRANCH   8   9
ATOM      9  C   UNL     1       3.638  38.834  12.690  1.00  0.00     0.041 C 
ATOM     10  O   UNL     1       3.409  37.774  12.051  1.00  0.00    -0.550 OA
ATOM     11  O   UNL     1       4.850  38.992  13.352  1.00  0.00    -0.550 OA
ENDBRANCH   8   9
ENDBRANCH   7   8
ENDBRANCH   6   7
ENDBRANCH   5   6
ENDBRANCH   4   5
ENDBRANCH   3   4
ENDBRANCH   2   3
ENDBRANCH   1   2
BRANCH   1  12
ATOM     12  C   UNL     1       0.222  45.787   7.925  1.00  0.00     0.000 C 
BRANCH  12  13
ATOM     13  C   UNL     1       0.316  46.380   9.342  1.00  0.00    -0.000 C 
BRANCH  13  14
ATOM     14  C   UNL     1       1.394  47.469   9.455  1.00  0.00    -0.000 C 
BRANCH  14  15
ATOM     15  C   UNL     1       2.023  47.826   8.099  1.00  0.00    -0.000 C 
BRANCH  15  16
ATOM     16  C   UNL     1       3.536  47.561   8.111  1.00  0.00    -0.000 C 
BRANCH  16  17
ATOM     17  C   UNL     1       3.952  46.504   9.150  1.00  0.00    -0.000 C 
BRANCH  17  18
ATOM     18  C   UNL     1       5.244  46.826   9.923  1.00  0.00    -0.000 C 
BRANCH  18  19
ATOM     19  C   UNL     1       6.096  47.906   9.244  1.00  0.00    -0.003 C 
ATOM     20  C   UNL     1       7.585  47.611   9.397  1.00  0.00     0.004 C 
ENDBRANCH  18  19
ENDBRANCH  17  18
ENDBRANCH  16  17
ENDBRANCH  15  16
ENDBRANCH  14  15
ENDBRANCH  13  14
ENDBRANCH  12  13
ENDBRANCH   1  12
TORSDOF 16
ENDMDL
MODEL 2
REMARK VINA RESULT:    -5.419      1.142      1.800
REMARK INTER + INTRA:         -12.210
REMARK INTER:                 -10.221
REMARK INTRA:                  -1.989
REMARK UNBOUND:                -1.723
REMARK SMILES CCCCCCCCCCCCCCCCCC(=O)[O-]
REMARK SMILES IDX 10 1 11 2 12 3 13 4 14 5 15 6 16 7 17 8 18 9 19 10 20 11
REMARK SMILES IDX 9 12 8 13 7 14 6 15 5 16 4 17 3 18 2 19 1 20
REMARK H PARENT
REMARK Flexibility Score: inf
ROOT
ATOM      1  C   UNL     1      -0.402  45.816   9.629  1.00  0.00     0.000 C 
ENDROOT
BRANCH   1   2
ATOM      2  C   UNL     1      -0.026  45.216  10.996  1.00  0.00     0.000 C 
BRANCH   2   3
ATOM      3  C   UNL     1       1.287  44.417  10.959  1.00  0.00     0.000 C 
BRANCH   3   4
ATOM      4  C   UNL     1       1.538  43.749   9.598  1.00  0.00     0.000 C 
BRANCH   4   5
ATOM      5  C   UNL     1       2.647  42.684   9.661  1.00  0.00     0.000 C 
BRANCH   5   6
ATOM      6  C   UNL     1       3.856  43.137  10.496  1.00  0.00     0.000 C 
BRANCH   6   7
ATOM      7  C   UNL     1       4.104  42.234  11.717  1.00  0.00     0.006 C 
BRANCH   7   8
ATOM      8  C   UNL     1       3.148  41.034  11.753  1.00  0.00     0.053 C 
BRANCH   8   9
ATOM      9  C   UNL     1       3.757  39.858  12.453  1.00  0.00     0.041 C 
ATOM     10  O   UNL     1       3.220  38.723  12.370  1.00  0.00    -0.550 OA
ATOM     11  O   UNL     1       4.933  40.013  13.176  1.00  0.00    -0.550 OA
ENDBRANCH   8   9
ENDBRANCH   7   8
ENDBRANCH   6   7
ENDBRANCH   5   6
ENDBRANCH   4   5
ENDBRANCH   3   4
ENDBRANCH   2   3
ENDBRANCH   1   2
BRANCH   1  12
ATOM     12  C   UNL     1      -0.622  47.341   9.626  1.00  0.00     0.000 C 
BRANCH  12  13
ATOM     13  C   UNL     1       0.043  48.039   8.426  1.00  0.00    -0.000 C 
BRANCH  13  14
ATOM     14  C   UNL     1       1.098  47.156   7.742  1.00  0.00    -0.000 C 
BRANCH  14  15
ATOM     15  C   UNL     1       2.534  47.644   7.993  1.00  0.00    -0.000 C 
BRANCH  15  16
ATOM     16  C   UNL     1       3.108  47.018   9.274  1.00  0.00    -0.000 C 
BRANCH  16  17
ATOM     17  C   UNL     1       4.496  46.386   9.063  1.00  0.00    -0.000 C 
BRANCH  17  18
ATOM     18  C   UNL     1       5.620  46.984   9.927  1.00  0.00    -0.000 C 
BRANCH  18  19
ATOM     19  C   UNL     1       6.713  47.671   9.097  1.00  0.00    -0.003 C 
ATOM     20  C   UNL     1       6.423  49.160   8.929  1.00  0.00     0.004 C 
ENDBRANCH  18  19
ENDBRANCH  17  18
ENDBRANCH  16  17
ENDBRANCH  15  16
ENDBRANCH  14  15
ENDBRANCH  13  14
ENDBRANCH  12  13
ENDBRANCH   1  12
TORSDOF 16
ENDMDL
MODEL 3
REMARK VINA RESULT:    -5.385      3.410      7.100
REMARK INTER + INTRA:         -12.145
REMARK INTER:                 -10.053
REMARK INTRA:                  -2.092
REMARK UNBOUND:                -1.723
REMARK SMILES CCCCCCCCCCCCCCCCCC(=O)[O-]
REMARK SMILES IDX 10 1 11 2 12 3 13 4 14 5 15 6 16 7 17 8 18 9 19 10 20 11
REMARK SMILES IDX 9 12 8 13 7 14 6 15 5 16 4 17 3 18 2 19 1 20
REMARK H PARENT
REMARK Flexibility Score: inf
ROOT
ATOM      1  C   UNL     1       1.544  43.683   9.206  1.00  0.00     0.000 C 
ENDROOT
BRANCH   1   2
ATOM      2  C   UNL     1       0.789  44.234   7.981  1.00  0.00     0.000 C 
BRANCH   2   3
ATOM      3  C   UNL     1       0.429  45.723   8.119  1.00  0.00     0.000 C 
BRANCH   3   4
ATOM      4  C   UNL     1       0.794  46.298   9.497  1.00  0.00     0.000 C 
BRANCH   4   5
ATOM      5  C   UNL     1       1.893  47.371   9.415  1.00  0.00     0.000 C 
BRANCH   5   6
ATOM      6  C   UNL     1       2.244  47.748   7.966  1.00  0.00     0.000 C 
BRANCH   6   7
ATOM      7  C   UNL     1       3.760  47.874   7.737  1.00  0.00     0.006 C 
BRANCH   7   8
ATOM      8  C   UNL     1       4.569  47.432   8.963  1.00  0.00     0.053 C 
BRANCH   8   9
ATOM      9  C   UNL     1       5.927  48.063   8.992  1.00  0.00     0.041 C 
ATOM     10  O   UNL     1       6.941  47.374   9.282  1.00  0.00    -0.550 OA
ATOM     11  O   UNL     1       6.076  49.406   8.670  1.00  0.00    -0.550 OA
ENDBRANCH   8   9
ENDBRANCH   7   8
ENDBRANCH   6   7
ENDBRANCH   5   6
ENDBRANCH   4   5
ENDBRANCH   3   4
ENDBRANCH   2   3
ENDBRANCH   1   2
BRANCH   1  12
ATOM     12  C   UNL     1       2.979  43.200   8.922  1.00  0.00     0.000 C 
BRANCH  12  13
ATOM     13  C   UNL     1       4.042  43.990   9.705  1.00  0.00    -0.000 C 
BRANCH  13  14
ATOM     14  C   UNL     1       3.521  44.495  11.060  1.00  0.00    -0.000 C 
BRANCH  14  15
ATOM     15  C   UNL     1       3.757  43.491  12.199  1.00  0.00    -0.000 C 
BRANCH  15  16
ATOM     16  C   UNL     1       2.535  42.579  12.385  1.00  0.00    -0.000 C 
BRANCH  16  17
ATOM     17  C   UNL     1       2.825  41.107  12.035  1.00  0.00    -0.000 C 
BRANCH  17  18
ATOM     18  C   UNL     1       4.276  40.655  12.279  1.00  0.00    -0.000 C 
BRANCH  18  19
ATOM     19  C   UNL     1       4.374  39.226  12.829  1.00  0.00    -0.003 C 
ATOM     20  C   UNL     1       3.127  38.416  12.484  1.00  0.00     0.004 C 
ENDBRANCH  18  19
ENDBRANCH  17  18
ENDBRANCH  16  17
ENDBRANCH  15  16
ENDBRANCH  14  15
ENDBRANCH  13  14
ENDBRANCH  12  13
ENDBRANCH   1  12
TORSDOF 16
ENDMDL
MODEL 4
REMARK VINA RESULT:    -5.286      3.373      6.995
REMARK INTER + INTRA:         -11.953
REMARK INTER:                 -10.414
REMARK INTRA:                  -1.539
REMARK UNBOUND:                -1.723
REMARK SMILES CCCCCCCCCCCCCCCCCC(=O)[O-]
REMARK SMILES IDX 10 1 11 2 12 3 13 4 14 5 15 6 16 7 17 8 18 9 19 10 20 11
REMARK SMILES IDX 9 12 8 13 7 14 6 15 5 16 4 17 3 18 2 19 1 20
REMARK H PARENT
REMARK Flexibility Score: inf
ROOT
ATOM      1  C   UNL     1       0.528  44.354   7.628  1.00  0.00     0.000 C 
ENDROOT
BRANCH   1   2
ATOM      2  C   UNL     1       0.013  45.753   7.241  1.00  0.00     0.000 C 
BRANCH   2   3
ATOM      3  C   UNL     1      -0.216  46.665   8.459  1.00  0.00     0.000 C 
BRANCH   3   4
ATOM      4  C   UNL     1       0.540  47.998   8.353  1.00  0.00     0.000 C 
BRANCH   4   5
ATOM      5  C   UNL     1       2.021  47.807   7.983  1.00  0.00     0.000 C 
BRANCH   5   6
ATOM      6  C   UNL     1       2.859  47.271   9.156  1.00  0.00     0.000 C 
BRANCH   6   7
ATOM      7  C   UNL     1       4.228  46.729   8.707  1.00  0.00     0.006 C 
BRANCH   7   8
ATOM      8  C   UNL     1       5.295  46.875   9.800  1.00  0.00     0.053 C 
BRANCH   8   9
ATOM      9  C   UNL     1       6.433  47.742   9.356  1.00  0.00     0.041 C 
ATOM     10  O   UNL     1       7.620  47.340   9.476  1.00  0.00    -0.550 OA
ATOM     11  O   UNL     1       6.179  48.982   8.783  1.00  0.00    -0.550 OA
ENDBRANCH   8   9
ENDBRANCH   7   8
ENDBRANCH   6   7
ENDBRANCH   5   6
ENDBRANCH   4   5
ENDBRANCH   3   4
ENDBRANCH   2   3
ENDBRANCH   1   2
BRANCH   1  12
ATOM     12  C   UNL     1       1.237  44.276   8.993  1.00  0.00     0.000 C 
BRANCH  12  13
ATOM     13  C   UNL     1       2.069  42.993   9.163  1.00  0.00    -0.000 C 
BRANCH  13  14
ATOM     14  C   UNL     1       3.549  43.285   9.455  1.00  0.00    -0.000 C 
BRANCH  14  15
ATOM     15  C   UNL     1       3.876  43.254  10.956  1.00  0.00    -0.000 C 
BRANCH  15  16
ATOM     16  C   UNL     1       2.821  42.445  11.728  1.00  0.00    -0.000 C 
BRANCH  16  17
ATOM     17  C   UNL     1       3.130  40.937  11.766  1.00  0.00    -0.000 C 
BRANCH  17  18
ATOM     18  C   UNL     1       4.433  40.558  12.492  1.00  0.00    -0.000 C 
BRANCH  18  19
ATOM     19  C   UNL     1       4.539  39.057  12.789  1.00  0.00    -0.003 C 
ATOM     20  C   UNL     1       3.246  38.331  12.425  1.00  0.00     0.004 C 
ENDBRANCH  18  19
ENDBRANCH  17  18
ENDBRANCH  16  17
ENDBRANCH  15  16
ENDBRANCH  14  15
ENDBRANCH  13  14
ENDBRANCH  12  13
ENDBRANCH   1  12
TORSDOF 16
ENDMDL
MODEL 5
REMARK VINA RESULT:    -5.089      1.137      3.817
REMARK INTER + INTRA:         -11.572
REMARK INTER:                  -9.128
REMARK INTRA:                  -2.443
REMARK UNBOUND:                -1.723
REMARK SMILES CCCCCCCCCCCCCCCCCC(=O)[O-]
REMARK SMILES IDX 10 1 11 2 12 3 13 4 14 5 15 6 16 7 17 8 18 9 19 10 20 11
REMARK SMILES IDX 9 12 8 13 7 14 6 15 5 16 4 17 3 18 2 19 1 20
REMARK H PARENT
REMARK Flexibility Score: inf
ROOT
ATOM      1  C   UNL     1       5.004  46.199   9.475  1.00  0.00     0.000 C 
ENDROOT
BRANCH   1   2
ATOM      2  C   UNL     1       4.433  46.063  10.899  1.00  0.00     0.000 C 
BRANCH   2   3
ATOM      3  C   UNL     1       3.900  44.652  11.199  1.00  0.00     0.000 C 
BRANCH   3   4
ATOM      4  C   UNL     1       3.771  43.785   9.937  1.00  0.00     0.000 C 
BRANCH   4   5
ATOM      5  C   UNL     1       2.697  42.693  10.080  1.00  0.00     0.000 C 
BRANCH   5   6
ATOM      6  C   UNL     1       2.190  42.547  11.525  1.00  0.00     0.000 C 
BRANCH   6   7
ATOM      7  C   UNL     1       2.458  41.149  12.108  1.00  0.00     0.006 C 
BRANCH   7   8
ATOM      8  C   UNL     1       3.954  40.808  12.130  1.00  0.00     0.053 C 
BRANCH   8   9
ATOM      9  C   UNL     1       4.216  39.493  12.799  1.00  0.00     0.041 C 
ATOM     10  O   UNL     1       5.129  39.390  13.660  1.00  0.00    -0.550 OA
ATOM     11  O   UNL     1       3.431  38.389  12.492  1.00  0.00    -0.550 OA
ENDBRANCH   8   9
ENDBRANCH   7   8
ENDBRANCH   6   7
ENDBRANCH   5   6
ENDBRANCH   4   5
ENDBRANCH   3   4
ENDBRANCH   2   3
ENDBRANCH   1   2
BRANCH   1  12
ATOM     12  C   UNL     1       5.732  47.526   9.190  1.00  0.00     0.000 C 
BRANCH  12  13
ATOM     13  C   UNL     1       4.890  48.502   8.350  1.00  0.00    -0.000 C 
BRANCH  13  14
ATOM     14  C   UNL     1       3.722  47.807   7.633  1.00  0.00    -0.000 C 
BRANCH  14  15
ATOM     15  C   UNL     1       2.427  48.633   7.669  1.00  0.00    -0.000 C 
BRANCH  15  16
ATOM     16  C   UNL     1       1.300  47.854   8.364  1.00  0.00    -0.000 C 
BRANCH  16  17
ATOM     17  C   UNL     1       1.438  46.329   8.206  1.00  0.00    -0.000 C 
BRANCH  17  18
ATOM     18  C   UNL     1       0.473  45.496   9.069  1.00  0.00    -0.000 C 
BRANCH  18  19
ATOM     19  C   UNL     1       0.482  45.909  10.547  1.00  0.00    -0.003 C 
ATOM     20  C   UNL     1      -0.509  45.078  11.357  1.00  0.00     0.004 C 
ENDBRANCH  18  19
ENDBRANCH  17  18
ENDBRANCH  16  17
ENDBRANCH  15  16
ENDBRANCH  14  15
ENDBRANCH  13  14
ENDBRANCH  12  13
ENDBRANCH   1  12
TORSDOF 16
ENDMDL
MODEL 6
REMARK VINA RESULT:    -4.842      1.086      3.704
REMARK INTER + INTRA:         -11.094
REMARK INTER:                  -9.282
REMARK INTRA:                  -1.812
REMARK UNBOUND:                -1.723
REMARK SMILES CCCCCCCCCCCCCCCCCC(=O)[O-]
REMARK SMILES IDX 10 1 11 2 12 3 13 4 14 5 15 6 16 7 17 8 18 9 19 10 20 11
REMARK SMILES IDX 9 12 8 13 7 14 6 15 5 16 4 17 3 18 2 19 1 20
REMARK H PARENT
REMARK Flexibility Score: inf
ROOT
ATOM      1  C   UNL     1       5.471  46.965   9.294  1.00  0.00     0.000 C 
ENDROOT
BRANCH   1   2
ATOM      2  C   UNL     1       4.728  46.402  10.519  1.00  0.00     0.000 C 
BRANCH   2   3
ATOM      3  C   UNL     1       4.210  44.970  10.299  1.00  0.00     0.000 C 
BRANCH   3   4
ATOM      4  C   UNL     1       4.076  44.179  11.610  1.00  0.00     0.000 C 
BRANCH   4   5
ATOM      5  C   UNL     1       2.610  43.984  12.033  1.00  0.00     0.000 C 
BRANCH   5   6
ATOM      6  C   UNL     1       2.017  42.660  11.522  1.00  0.00     0.000 C 
BRANCH   6   7
ATOM      7  C   UNL     1       3.052  41.522  11.490  1.00  0.00     0.006 C 
BRANCH   7   8
ATOM      8  C   UNL     1       2.677  40.373  12.436  1.00  0.00     0.053 C 
BRANCH   8   9
ATOM      9  C   UNL     1       3.828  39.443  12.665  1.00  0.00     0.041 C 
ATOM     10  O   UNL     1       3.683  38.202  12.503  1.00  0.00    -0.550 OA
ATOM     11  O   UNL     1       5.068  39.949  13.032  1.00  0.00    -0.550 OA
ENDBRANCH   8   9
ENDBRANCH   7   8
ENDBRANCH   6   7
ENDBRANCH   5   6
ENDBRANCH   4   5
ENDBRANCH   3   4
ENDBRANCH   2   3
ENDBRANCH   1   2
BRANCH   1  12
ATOM     12  C   UNL     1       4.644  47.923   8.416  1.00  0.00     0.000 C 
BRANCH  12  13
ATOM     13  C   UNL     1       3.249  47.370   8.077  1.00  0.00    -0.000 C 
BRANCH  13  14
ATOM     14  C   UNL     1       2.237  48.481   7.754  1.00  0.00    -0.000 C 
BRANCH  14  15
ATOM     15  C   UNL     1       0.909  48.312   8.507  1.00  0.00    -0.000 C 
BRANCH  15  16
ATOM     16  C   UNL     1       1.076  47.362   9.703  1.00  0.00    -0.000 C 
BRANCH  16  17
ATOM     17  C   UNL     1       0.043  46.220   9.712  1.00  0.00    -0.000 C 
BRANCH  17  18
ATOM     18  C   UNL     1      -0.651  45.961   8.363  1.00  0.00    -0.000 C 
BRANCH  18  19
ATOM     19  C   UNL     1       0.156  45.038   7.440  1.00  0.00    -0.003 C 
ATOM     20  C   UNL     1       0.969  44.029   8.246  1.00  0.00     0.004 C 
ENDBRANCH  18  19
ENDBRANCH  17  18
ENDBRANCH  16  17
ENDBRANCH  15  16
ENDBRANCH  14  15
ENDBRANCH  13  14
ENDBRANCH  12  13
ENDBRANCH   1  12
TORSDOF 16
ENDMDL
MODEL 7
REMARK VINA RESULT:    -4.813      1.458      2.909
REMARK INTER + INTRA:         -11.037
REMARK INTER:                  -9.214
REMARK INTRA:                  -1.823
REMARK UNBOUND:                -1.723
REMARK SMILES CCCCCCCCCCCCCCCCCC(=O)[O-]
REMARK SMILES IDX 10 1 11 2 12 3 13 4 14 5 15 6 16 7 17 8 18 9 19 10 20 11
REMARK SMILES IDX 9 12 8 13 7 14 6 15 5 16 4 17 3 18 2 19 1 20
REMARK H PARENT
REMARK Flexibility Score: inf
ROOT
ATOM      1  C   UNL     1       3.803  43.526   9.173  1.00  0.00     0.000 C 
ENDROOT
BRANCH   1   2
ATOM      2  C   UNL     1       3.940  44.942   9.763  1.00  0.00     0.000 C 
BRANCH   2   3
ATOM      3  C   UNL     1       4.470  44.941  11.207  1.00  0.00     0.000 C 
BRANCH   3   4
ATOM      4  C   UNL     1       4.142  43.642  11.960  1.00  0.00     0.000 C 
BRANCH   4   5
ATOM      5  C   UNL     1       2.684  43.597  12.448  1.00  0.00     0.000 C 
BRANCH   5   6
ATOM      6  C   UNL     1       1.977  42.283  12.078  1.00  0.00     0.000 C 
BRANCH   6   7
ATOM      7  C   UNL     1       2.961  41.117  11.877  1.00  0.00     0.006 C 
BRANCH   7   8
ATOM      8  C   UNL     1       2.630  39.918  12.775  1.00  0.00     0.053 C 
BRANCH   8   9
ATOM      9  C   UNL     1       3.669  38.844  12.677  1.00  0.00     0.041 C 
ATOM     10  O   UNL     1       3.454  37.814  11.985  1.00  0.00    -0.550 OA
ATOM     11  O   UNL     1       4.888  38.996  13.326  1.00  0.00    -0.550 OA
ENDBRANCH   8   9
ENDBRANCH   7   8
ENDBRANCH   6   7
ENDBRANCH   5   6
ENDBRANCH   4   5
ENDBRANCH   3   4
ENDBRANCH   2   3
ENDBRANCH   1   2
BRANCH   1  12
ATOM     12  C   UNL     1       2.375  43.131   8.754  1.00  0.00     0.000 C 
BRANCH  12  13
ATOM     13  C   UNL     1       1.365  44.282   8.911  1.00  0.00    -0.000 C 
BRANCH  13  14
ATOM     14  C   UNL     1       0.487  44.468   7.664  1.00  0.00    -0.000 C 
BRANCH  14  15
ATOM     15  C   UNL     1      -0.580  45.560   7.847  1.00  0.00    -0.000 C 
BRANCH  15  16
ATOM     16  C   UNL     1      -0.096  46.637   8.831  1.00  0.00    -0.000 C 
BRANCH  16  17
ATOM     17  C   UNL     1      -0.090  48.050   8.219  1.00  0.00    -0.000 C 
BRANCH  17  18
ATOM     18  C   UNL     1       1.307  48.655   7.995  1.00  0.00    -0.000 C 
BRANCH  18  19
ATOM     19  C   UNL     1       2.443  47.673   8.310  1.00  0.00    -0.003 C 
ATOM     20  C   UNL     1       3.717  48.043   7.555  1.00  0.00     0.004 C 
ENDBRANCH  18  19
ENDBRANCH  17  18
ENDBRANCH  16  17
ENDBRANCH  15  16
ENDBRANCH  14  15
ENDBRANCH  13  14
ENDBRANCH  12  13
ENDBRANCH   1  12
TORSDOF 16
ENDMDL
MODEL 8
REMARK VINA RESULT:    -4.785      3.960      7.165
REMARK INTER + INTRA:         -10.984
REMARK INTER:                  -9.463
REMARK INTRA:                  -1.521
REMARK UNBOUND:                -1.723
REMARK SMILES CCCCCCCCCCCCCCCCCC(=O)[O-]
REMARK SMILES IDX 10 1 11 2 12 3 13 4 14 5 15 6 16 7 17 8 18 9 19 10 20 11
REMARK SMILES IDX 9 12 8 13 7 14 6 15 5 16 4 17 3 18 2 19 1 20
REMARK H PARENT
REMARK Flexibility Score: inf
ROOT
ATOM      1  C   UNL     1      -0.683  46.282   9.965  1.00  0.00     0.000 C 
ENDROOT
BRANCH   1   2
ATOM      2  C   UNL     1       0.386  47.340   9.633  1.00  0.00     0.000 C 
BRANCH   2   3
ATOM      3  C   UNL     1       0.842  47.290   8.164  1.00  0.00     0.000 C 
BRANCH   3   4
ATOM      4  C   UNL     1       2.362  47.450   8.009  1.00  0.00     0.000 C 
BRANCH   4   5
ATOM      5  C   UNL     1       3.134  46.989   9.258  1.00  0.00     0.000 C 
BRANCH   5   6
ATOM      6  C   UNL     1       4.507  46.388   8.916  1.00  0.00     0.000 C 
BRANCH   6   7
ATOM      7  C   UNL     1       5.623  46.893   9.847  1.00  0.00     0.006 C 
BRANCH   7   8
ATOM      8  C   UNL     1       6.666  47.733   9.098  1.00  0.00     0.053 C 
BRANCH   8   9
ATOM      9  C   UNL     1       6.370  49.198   9.188  1.00  0.00     0.041 C 
ATOM     10  O   UNL     1       6.814  49.878  10.150  1.00  0.00    -0.550 OA
ATOM     11  O   UNL     1       5.626  49.819   8.192  1.00  0.00    -0.550 OA
ENDBRANCH   8   9
ENDBRANCH   7   8
ENDBRANCH   6   7
ENDBRANCH   5   6
ENDBRANCH   4   5
ENDBRANCH   3   4
ENDBRANCH   2   3
ENDBRANCH   1   2
BRANCH   1  12
ATOM     12  C   UNL     1      -0.201  45.132  10.869  1.00  0.00     0.000 C 
BRANCH  12  13
ATOM     13  C   UNL     1       1.290  44.804  10.676  1.00  0.00    -0.000 C 
BRANCH  13  14
ATOM     14  C   UNL     1       1.520  43.698   9.633  1.00  0.00    -0.000 C 
BRANCH  14  15
ATOM     15  C   UNL     1       2.945  43.126   9.680  1.00  0.00    -0.000 C 
BRANCH  15  16
ATOM     16  C   UNL     1       3.463  43.065  11.125  1.00  0.00    -0.000 C 
BRANCH  16  17
ATOM     17  C   UNL     1       3.942  41.659  11.533  1.00  0.00    -0.000 C 
BRANCH  17  18
ATOM     18  C   UNL     1       2.858  40.757  12.150  1.00  0.00    -0.000 C 
BRANCH  18  19
ATOM     19  C   UNL     1       3.370  39.352  12.491  1.00  0.00    -0.003 C 
ATOM     20  C   UNL     1       4.667  39.418  13.295  1.00  0.00     0.004 C 
ENDBRANCH  18  19
ENDBRANCH  17  18
ENDBRANCH  16  17
ENDBRANCH  15  16
ENDBRANCH  14  15
ENDBRANCH  13  14
ENDBRANCH  12  13
ENDBRANCH   1  12
TORSDOF 16
ENDMDL
MODEL 9
REMARK VINA RESULT:    -4.779      3.104      7.083
REMARK INTER + INTRA:         -10.971
REMARK INTER:                  -9.616
REMARK INTRA:                  -1.355
REMARK UNBOUND:                -1.723
REMARK SMILES CCCCCCCCCCCCCCCCCC(=O)[O-]
REMARK SMILES IDX 10 1 11 2 12 3 13 4 14 5 15 6 16 7 17 8 18 9 19 10 20 11
REMARK SMILES IDX 9 12 8 13 7 14 6 15 5 16 4 17 3 18 2 19 1 20
REMARK H PARENT
REMARK Flexibility Score: inf
ROOT
ATOM      1  C   UNL     1       4.958  46.413   9.166  1.00  0.00     0.000 C 
ENDROOT
BRANCH   1   2
ATOM      2  C   UNL     1       4.857  47.880   8.710  1.00  0.00     0.000 C 
BRANCH   2   3
ATOM      3  C   UNL     1       3.706  48.122   7.718  1.00  0.00     0.000 C 
BRANCH   3   4
ATOM      4  C   UNL     1       2.487  47.228   7.993  1.00  0.00     0.000 C 
BRANCH   4   5
ATOM      5  C   UNL     1       1.568  47.806   9.083  1.00  0.00     0.000 C 
BRANCH   5   6
ATOM      6  C   UNL     1       0.195  48.230   8.535  1.00  0.00     0.000 C 
BRANCH   6   7
ATOM      7  C   UNL     1      -0.329  47.276   7.447  1.00  0.00     0.006 C 
BRANCH   7   8
ATOM      8  C   UNL     1      -0.694  45.898   8.014  1.00  0.00     0.053 C 
BRANCH   8   9
ATOM      9  C   UNL     1      -0.225  44.788   7.124  1.00  0.00     0.041 C 
ATOM     10  O   UNL     1       0.631  43.962   7.537  1.00  0.00    -0.550 OA
ATOM     11  O   UNL     1      -0.756  44.649   5.848  1.00  0.00    -0.550 OA
ENDBRANCH   8   9
ENDBRANCH   7   8
ENDBRANCH   6   7
ENDBRANCH   5   6
ENDBRANCH   4   5
ENDBRANCH   3   4
ENDBRANCH   2   3
ENDBRANCH   1   2
BRANCH   1  12
ATOM     12  C   UNL     1       4.555  46.157  10.630  1.00  0.00     0.000 C 
BRANCH  12  13
ATOM     13  C   UNL     1       3.518  45.030  10.777  1.00  0.00    -0.000 C 
BRANCH  13  14
ATOM     14  C   UNL     1       3.550  44.043   9.599  1.00  0.00    -0.000 C 
BRANCH  14  15
ATOM     15  C   UNL     1       2.898  42.693   9.937  1.00  0.00    -0.000 C 
BRANCH  15  16
ATOM     16  C   UNL     1       2.960  42.420  11.448  1.00  0.00    -0.000 C 
BRANCH  16  17
ATOM     17  C   UNL     1       3.078  40.922  11.783  1.00  0.00    -0.000 C 
BRANCH  17  18
ATOM     18  C   UNL     1       4.404  40.506  12.445  1.00  0.00    -0.000 C 
BRANCH  18  19
ATOM     19  C   UNL     1       4.440  39.023  12.837  1.00  0.00    -0.003 C 
ATOM     20  C   UNL     1       3.157  38.311  12.415  1.00  0.00     0.004 C 
ENDBRANCH  18  19
ENDBRANCH  17  18
ENDBRANCH  16  17
ENDBRANCH  15  16
ENDBRANCH  14  15
ENDBRANCH  13  14
ENDBRANCH  12  13
ENDBRANCH   1  12
TORSDOF 16
ENDMDL
