MODEL 1
REMARK VINA RESULT:    -6.444      0.000      0.000
REMARK INTER + INTRA:          -7.872
REMARK INTER:                  -7.575
REMARK INTRA:                  -0.298
REMARK UNBOUND:                -0.298
REMARK SMILES O=c1c(O)c(-c2ccc(O)cc2)oc2cc(O)cc(O)c12
REMARK SMILES IDX 5 1 3 2 2 3 1 4 21 5 19 6 18 7 16 8 15 9 14 10 13 11 6 12
REMARK SMILES IDX 7 13 8 14 9 15 12 16 11 17 10 18 4 20 20 22 17 24
REMARK H PARENT 10 19 4 21 20 23 17 25
REMARK Flexibility Score: inf
ROOT
ATOM      1  C   UNL     1      14.512  55.990  33.946  1.00  0.00     0.180 A 
ATOM      2  C   UNL     1      14.339  55.792  32.562  1.00  0.00     0.208 A 
ATOM      3  C   UNL     1      14.895  56.721  31.670  1.00  0.00     0.238 A 
ATOM      4  O   UNL     1      14.756  56.549  30.428  1.00  0.00    -0.285 OA
ATOM      5  C   UNL     1      15.594  57.838  32.172  1.00  0.00     0.111 A 
ATOM      6  C   UNL     1      16.180  58.823  31.341  1.00  0.00     0.134 A 
ATOM      7  C   UNL     1      16.851  59.910  31.918  1.00  0.00     0.093 A 
ATOM      8  C   UNL     1      16.947  60.034  33.306  1.00  0.00     0.123 A 
ATOM      9  C   UNL     1      16.371  59.065  34.132  1.00  0.00     0.094 A 
ATOM     10  C   UNL     1      15.698  57.971  33.576  1.00  0.00     0.146 A 
ATOM     11  O   UNL     1      15.164  57.062  34.384  1.00  0.00    -0.452 OA
ENDROOT
BRANCH   1  12
ATOM     12  C   UNL     1      13.973  55.043  34.950  1.00  0.00     0.021 A 
ATOM     13  C   UNL     1      14.722  53.938  35.394  1.00  0.00     0.016 A 
ATOM     14  C   UNL     1      14.200  53.073  36.360  1.00  0.00     0.047 A 
ATOM     15  C   UNL     1      12.931  53.308  36.904  1.00  0.00     0.115 A 
ATOM     16  C   UNL     1      12.709  55.283  35.516  1.00  0.00     0.016 A 
ATOM     17  C   UNL     1      12.190  54.415  36.481  1.00  0.00     0.047 A 
BRANCH  15  18
ATOM     18  O   UNL     1      12.401  52.451  37.866  1.00  0.00    -0.508 OA
ATOM     19  H   UNL     1      11.405  52.277  37.929  1.00  0.00     0.293 HD
ENDBRANCH  15  18
ENDBRANCH   1  12
BRANCH   2  20
ATOM     20  O   UNL     1      13.600  54.703  32.092  1.00  0.00    -0.502 OA
ATOM     21  H   UNL     1      12.601  54.622  32.239  1.00  0.00     0.293 HD
ENDBRANCH   2  20
BRANCH   6  22
ATOM     22  O   UNL     1      16.100  58.728  29.950  1.00  0.00    -0.507 OA
ATOM     23  H   UNL     1      16.497  59.438  29.345  1.00  0.00     0.293 HD
ENDBRANCH   6  22
BRANCH   8  24
ATOM     24  O   UNL     1      17.619  61.125  33.853  1.00  0.00    -0.508 OA
ATOM     25  H   UNL     1      17.917  61.905  33.280  1.00  0.00     0.293 HD
ENDBRANCH   8  24
TORSDOF 5
ENDMDL
MODEL 2
REMARK VINA RESULT:    -5.200      2.650      3.739
REMARK INTER + INTRA:          -6.410
REMARK INTER:                  -6.120
REMARK INTRA:                  -0.290
REMARK UNBOUND:                -0.298
REMARK SMILES O=c1c(O)c(-c2ccc(O)cc2)oc2cc(O)cc(O)c12
REMARK SMILES IDX 5 1 3 2 2 3 1 4 21 5 19 6 18 7 16 8 15 9 14 10 13 11 6 12
REMARK SMILES IDX 7 13 8 14 9 15 12 16 11 17 10 18 4 20 20 22 17 24
REMARK H PARENT 10 19 4 21 20 23 17 25
REMARK Flexibility Score: inf
ROOT
ATOM      1  C   UNL     1      15.322  56.207  33.034  1.00  0.00     0.180 A 
ATOM      2  C   UNL     1      16.528  56.878  32.754  1.00  0.00     0.208 A 
ATOM      3  C   UNL     1      16.600  58.262  32.972  1.00  0.00     0.238 A 
ATOM      4  O   UNL     1      17.679  58.872  32.735  1.00  0.00    -0.285 OA
ATOM      5  C   UNL     1      15.466  58.955  33.442  1.00  0.00     0.111 A 
ATOM      6  C   UNL     1      15.453  60.350  33.682  1.00  0.00     0.134 A 
ATOM      7  C   UNL     1      14.281  60.966  34.141  1.00  0.00     0.093 A 
ATOM      8  C   UNL     1      13.122  60.219  34.364  1.00  0.00     0.123 A 
ATOM      9  C   UNL     1      13.128  58.840  34.129  1.00  0.00     0.094 A 
ATOM     10  C   UNL     1      14.288  58.206  33.672  1.00  0.00     0.146 A 
ATOM     11  O   UNL     1      14.267  56.895  33.462  1.00  0.00    -0.452 OA
ENDROOT
BRANCH   1  12
ATOM     12  C   UNL     1      15.173  54.745  32.850  1.00  0.00     0.021 A 
ATOM     13  C   UNL     1      15.373  53.847  33.915  1.00  0.00     0.016 A 
ATOM     14  C   UNL     1      15.203  52.473  33.722  1.00  0.00     0.047 A 
ATOM     15  C   UNL     1      14.819  51.980  32.469  1.00  0.00     0.115 A 
ATOM     16  C   UNL     1      14.768  54.244  31.602  1.00  0.00     0.016 A 
ATOM     17  C   UNL     1      14.600  52.869  31.412  1.00  0.00     0.047 A 
BRANCH  15  18
ATOM     18  O   UNL     1      14.648  50.613  32.265  1.00  0.00    -0.508 OA
ATOM     19  H   UNL     1      14.693  50.206  31.338  1.00  0.00     0.293 HD
ENDBRANCH  15  18
ENDBRANCH   1  12
BRANCH   2  20
ATOM     20  O   UNL     1      17.623  56.176  32.243  1.00  0.00    -0.502 OA
ATOM     21  H   UNL     1      17.604  55.174  32.096  1.00  0.00     0.293 HD
ENDBRANCH   2  20
BRANCH   6  22
ATOM     22  O   UNL     1      16.594  61.125  33.468  1.00  0.00    -0.507 OA
ATOM     23  H   UNL     1      17.279  60.880  32.761  1.00  0.00     0.293 HD
ENDBRANCH   6  22
BRANCH   8  24
ATOM     24  O   UNL     1      11.970  60.856  34.819  1.00  0.00    -0.508 OA
ATOM     25  H   UNL     1      11.332  61.315  34.180  1.00  0.00     0.293 HD
ENDBRANCH   8  24
TORSDOF 5
ENDMDL
MODEL 3
REMARK VINA RESULT:    -5.109      1.818      3.804
REMARK INTER + INTRA:          -6.303
REMARK INTER:                  -6.019
REMARK INTRA:                  -0.284
REMARK UNBOUND:                -0.298
REMARK SMILES O=c1c(O)c(-c2ccc(O)cc2)oc2cc(O)cc(O)c12
REMARK SMILES IDX 5 1 3 2 2 3 1 4 21 5 19 6 18 7 16 8 15 9 14 10 13 11 6 12
REMARK SMILES IDX 7 13 8 14 9 15 12 16 11 17 10 18 4 20 20 22 17 24
REMARK H PARENT 10 19 4 21 20 23 17 25
REMARK Flexibility Score: inf
ROOT
ATOM      1  C   UNL     1      14.493  55.265  33.229  1.00  0.00     0.180 A 
ATOM      2  C   UNL     1      14.861  56.625  33.252  1.00  0.00     0.208 A 
ATOM      3  C   UNL     1      15.281  57.234  32.060  1.00  0.00     0.238 A 
ATOM      4  O   UNL     1      15.603  58.454  32.067  1.00  0.00    -0.285 OA
ATOM      5  C   UNL     1      15.347  56.474  30.874  1.00  0.00     0.111 A 
ATOM      6  C   UNL     1      15.765  57.011  29.632  1.00  0.00     0.134 A 
ATOM      7  C   UNL     1      15.812  56.186  28.499  1.00  0.00     0.093 A 
ATOM      8  C   UNL     1      15.453  54.840  28.582  1.00  0.00     0.123 A 
ATOM      9  C   UNL     1      15.040  54.303  29.805  1.00  0.00     0.094 A 
ATOM     10  C   UNL     1      14.983  55.109  30.947  1.00  0.00     0.146 A 
ATOM     11  O   UNL     1      14.582  54.576  32.095  1.00  0.00    -0.452 OA
ENDROOT
BRANCH   1  12
ATOM     12  C   UNL     1      14.020  54.557  34.440  1.00  0.00     0.021 A 
ATOM     13  C   UNL     1      12.687  54.660  34.878  1.00  0.00     0.016 A 
ATOM     14  C   UNL     1      12.259  53.963  36.011  1.00  0.00     0.047 A 
ATOM     15  C   UNL     1      13.152  53.143  36.713  1.00  0.00     0.115 A 
ATOM     16  C   UNL     1      14.904  53.717  35.138  1.00  0.00     0.016 A 
ATOM     17  C   UNL     1      14.473  53.021  36.272  1.00  0.00     0.047 A 
BRANCH  15  18
ATOM     18  O   UNL     1      12.736  52.445  37.844  1.00  0.00    -0.508 OA
ATOM     19  H   UNL     1      12.034  51.717  37.789  1.00  0.00     0.293 HD
ENDBRANCH  15  18
ENDBRANCH   1  12
BRANCH   2  20
ATOM     20  O   UNL     1      14.833  57.342  34.451  1.00  0.00    -0.502 OA
ATOM     21  H   UNL     1      14.239  57.077  35.228  1.00  0.00     0.293 HD
ENDBRANCH   2  20
BRANCH   6  22
ATOM     22  O   UNL     1      16.132  58.353  29.518  1.00  0.00    -0.507 OA
ATOM     23  H   UNL     1      16.678  58.690  28.734  1.00  0.00     0.293 HD
ENDBRANCH   6  22
BRANCH   8  24
ATOM     24  O   UNL     1      15.510  54.042  27.441  1.00  0.00    -0.508 OA
ATOM     25  H   UNL     1      15.894  53.105  27.469  1.00  0.00     0.293 HD
ENDBRANCH   8  24
TORSDOF 5
ENDMDL
MODEL 4
REMARK VINA RESULT:    -5.104      2.675      6.563
REMARK INTER + INTRA:          -6.297
REMARK INTER:                  -6.166
REMARK INTRA:                  -0.131
REMARK UNBOUND:                -0.298
REMARK SMILES O=c1c(O)c(-c2ccc(O)cc2)oc2cc(O)cc(O)c12
REMARK SMILES IDX 5 1 3 2 2 3 1 4 21 5 19 6 18 7 16 8 15 9 14 10 13 11 6 12
REMARK SMILES IDX 7 13 8 14 9 15 12 16 11 17 10 18 4 20 20 22 17 24
REMARK H PARENT 10 19 4 21 20 23 17 25
REMARK Flexibility Score: inf
ROOT
ATOM      1  C   UNL     1      15.565  55.836  32.885  1.00  0.00     0.180 A 
ATOM      2  C   UNL     1      15.135  54.949  33.891  1.00  0.00     0.208 A 
ATOM      3  C   UNL     1      14.773  53.642  33.533  1.00  0.00     0.238 A 
ATOM      4  O   UNL     1      14.397  52.835  34.427  1.00  0.00    -0.285 OA
ATOM      5  C   UNL     1      14.826  53.250  32.180  1.00  0.00     0.111 A 
ATOM      6  C   UNL     1      14.474  51.952  31.735  1.00  0.00     0.134 A 
ATOM      7  C   UNL     1      14.544  51.643  30.369  1.00  0.00     0.093 A 
ATOM      8  C   UNL     1      14.957  52.601  29.441  1.00  0.00     0.123 A 
ATOM      9  C   UNL     1      15.307  53.884  29.874  1.00  0.00     0.094 A 
ATOM     10  C   UNL     1      15.245  54.212  31.232  1.00  0.00     0.146 A 
ATOM     11  O   UNL     1      15.588  55.436  31.617  1.00  0.00    -0.452 OA
ENDROOT
BRANCH   1  12
ATOM     12  C   UNL     1      15.982  57.225  33.186  1.00  0.00     0.021 A 
ATOM     13  C   UNL     1      15.077  58.168  33.704  1.00  0.00     0.016 A 
ATOM     14  C   UNL     1      15.501  59.466  34.003  1.00  0.00     0.047 A 
ATOM     15  C   UNL     1      16.837  59.834  33.801  1.00  0.00     0.115 A 
ATOM     16  C   UNL     1      17.325  57.596  33.006  1.00  0.00     0.016 A 
ATOM     17  C   UNL     1      17.747  58.896  33.306  1.00  0.00     0.047 A 
BRANCH  15  18
ATOM     18  O   UNL     1      17.271  61.125  34.095  1.00  0.00    -0.508 OA
ATOM     19  H   UNL     1      17.406  61.434  35.050  1.00  0.00     0.293 HD
ENDBRANCH  15  18
ENDBRANCH   1  12
BRANCH   2  20
ATOM     20  O   UNL     1      15.045  55.378  35.218  1.00  0.00    -0.502 OA
ATOM     21  H   UNL     1      14.548  54.850  35.926  1.00  0.00     0.293 HD
ENDBRANCH   2  20
BRANCH   6  22
ATOM     22  O   UNL     1      14.055  50.973  32.637  1.00  0.00    -0.507 OA
ATOM     23  H   UNL     1      13.110  50.954  33.002  1.00  0.00     0.293 HD
ENDBRANCH   6  22
BRANCH   8  24
ATOM     24  O   UNL     1      15.017  52.268  28.089  1.00  0.00    -0.508 OA
ATOM     25  H   UNL     1      15.902  52.105  27.623  1.00  0.00     0.293 HD
ENDBRANCH   8  24
TORSDOF 5
ENDMDL
MODEL 5
REMARK VINA RESULT:    -4.963      2.353      3.421
REMARK INTER + INTRA:          -6.131
REMARK INTER:                  -5.842
REMARK INTRA:                  -0.289
REMARK UNBOUND:                -0.298
REMARK SMILES O=c1c(O)c(-c2ccc(O)cc2)oc2cc(O)cc(O)c12
REMARK SMILES IDX 5 1 3 2 2 3 1 4 21 5 19 6 18 7 16 8 15 9 14 10 13 11 6 12
REMARK SMILES IDX 7 13 8 14 9 15 12 16 11 17 10 18 4 20 20 22 17 24
REMARK H PARENT 10 19 4 21 20 23 17 25
REMARK Flexibility Score: inf
ROOT
ATOM      1  C   UNL     1      14.669  56.082  33.360  1.00  0.00     0.180 A 
ATOM      2  C   UNL     1      13.451  56.602  33.841  1.00  0.00     0.208 A 
ATOM      3  C   UNL     1      13.352  57.980  34.086  1.00  0.00     0.238 A 
ATOM      4  O   UNL     1      12.263  58.458  34.507  1.00  0.00    -0.285 OA
ATOM      5  C   UNL     1      14.471  58.809  33.869  1.00  0.00     0.111 A 
ATOM      6  C   UNL     1      14.456  60.206  34.097  1.00  0.00     0.134 A 
ATOM      7  C   UNL     1      15.615  60.961  33.866  1.00  0.00     0.093 A 
ATOM      8  C   UNL     1      16.786  60.349  33.413  1.00  0.00     0.123 A 
ATOM      9  C   UNL     1      16.808  58.970  33.187  1.00  0.00     0.094 A 
ATOM     10  C   UNL     1      15.662  58.199  33.409  1.00  0.00     0.146 A 
ATOM     11  O   UNL     1      15.708  56.891  33.181  1.00  0.00    -0.452 OA
ENDROOT
BRANCH   1  12
ATOM     12  C   UNL     1      14.845  54.643  33.058  1.00  0.00     0.021 A 
ATOM     13  C   UNL     1      15.316  53.741  34.030  1.00  0.00     0.016 A 
ATOM     14  C   UNL     1      15.451  52.383  33.727  1.00  0.00     0.047 A 
ATOM     15  C   UNL     1      15.105  51.906  32.456  1.00  0.00     0.115 A 
ATOM     16  C   UNL     1      14.481  54.153  31.793  1.00  0.00     0.016 A 
ATOM     17  C   UNL     1      14.618  52.794  31.493  1.00  0.00     0.047 A 
BRANCH  15  18
ATOM     18  O   UNL     1      15.237  50.556  32.144  1.00  0.00    -0.508 OA
ATOM     19  H   UNL     1      14.957  50.191  31.241  1.00  0.00     0.293 HD
ENDBRANCH  15  18
ENDBRANCH   1  12
BRANCH   2  20
ATOM     20  O   UNL     1      12.372  55.751  34.094  1.00  0.00    -0.502 OA
ATOM     21  H   UNL     1      12.491  54.830  34.500  1.00  0.00     0.293 HD
ENDBRANCH   2  20
BRANCH   6  22
ATOM     22  O   UNL     1      13.302  60.847  34.550  1.00  0.00    -0.507 OA
ATOM     23  H   UNL     1      12.510  60.327  34.909  1.00  0.00     0.293 HD
ENDBRANCH   6  22
BRANCH   8  24
ATOM     24  O   UNL     1      17.924  61.122  33.193  1.00  0.00    -0.508 OA
ATOM     25  H   UNL     1      17.858  62.096  32.921  1.00  0.00     0.293 HD
ENDBRANCH   8  24
TORSDOF 5
ENDMDL
MODEL 6
REMARK VINA RESULT:    -4.851      3.265      4.334
REMARK INTER + INTRA:          -6.000
REMARK INTER:                  -5.704
REMARK INTRA:                  -0.296
REMARK UNBOUND:                -0.298
REMARK SMILES O=c1c(O)c(-c2ccc(O)cc2)oc2cc(O)cc(O)c12
REMARK SMILES IDX 5 1 3 2 2 3 1 4 21 5 19 6 18 7 16 8 15 9 14 10 13 11 6 12
REMARK SMILES IDX 7 13 8 14 9 15 12 16 11 17 10 18 4 20 20 22 17 24
REMARK H PARENT 10 19 4 21 20 23 17 25
REMARK Flexibility Score: inf
ROOT
ATOM      1  C   UNL     1      14.260  53.923  32.328  1.00  0.00     0.180 A 
ATOM      2  C   UNL     1      13.197  54.622  32.934  1.00  0.00     0.208 A 
ATOM      3  C   UNL     1      13.408  55.944  33.353  1.00  0.00     0.238 A 
ATOM      4  O   UNL     1      12.461  56.584  33.887  1.00  0.00    -0.285 OA
ATOM      5  C   UNL     1      14.675  56.537  33.182  1.00  0.00     0.111 A 
ATOM      6  C   UNL     1      14.971  57.862  33.581  1.00  0.00     0.134 A 
ATOM      7  C   UNL     1      16.261  58.376  33.384  1.00  0.00     0.093 A 
ATOM      8  C   UNL     1      17.259  57.594  32.798  1.00  0.00     0.123 A 
ATOM      9  C   UNL     1      16.973  56.284  32.401  1.00  0.00     0.094 A 
ATOM     10  C   UNL     1      15.692  55.753  32.587  1.00  0.00     0.146 A 
ATOM     11  O   UNL     1      15.446  54.508  32.196  1.00  0.00    -0.452 OA
ENDROOT
BRANCH   1  12
ATOM     12  C   UNL     1      14.110  52.532  31.841  1.00  0.00     0.021 A 
ATOM     13  C   UNL     1      13.731  52.256  30.515  1.00  0.00     0.016 A 
ATOM     14  C   UNL     1      13.621  50.934  30.072  1.00  0.00     0.047 A 
ATOM     15  C   UNL     1      13.899  49.874  30.943  1.00  0.00     0.115 A 
ATOM     16  C   UNL     1      14.408  51.463  32.702  1.00  0.00     0.016 A 
ATOM     17  C   UNL     1      14.295  50.142  32.256  1.00  0.00     0.047 A 
BRANCH  15  18
ATOM     18  O   UNL     1      13.791  48.553  30.513  1.00  0.00    -0.508 OA
ATOM     19  H   UNL     1      13.034  47.955  30.824  1.00  0.00     0.293 HD
ENDBRANCH  15  18
ENDBRANCH   1  12
BRANCH   2  20
ATOM     20  O   UNL     1      11.965  53.995  33.137  1.00  0.00    -0.502 OA
ATOM     21  H   UNL     1      11.721  53.550  34.014  1.00  0.00     0.293 HD
ENDBRANCH   2  20
BRANCH   6  22
ATOM     22  O   UNL     1      13.997  58.669  34.171  1.00  0.00    -0.507 OA
ATOM     23  H   UNL     1      13.952  58.802  35.175  1.00  0.00     0.293 HD
ENDBRANCH   6  22
BRANCH   8  24
ATOM     24  O   UNL     1      18.532  58.129  32.615  1.00  0.00    -0.508 OA
ATOM     25  H   UNL     1      19.366  57.579  32.782  1.00  0.00     0.293 HD
ENDBRANCH   8  24
TORSDOF 5
ENDMDL
MODEL 7
REMARK VINA RESULT:    -4.838      2.645      4.555
REMARK INTER + INTRA:          -5.984
REMARK INTER:                  -5.711
REMARK INTRA:                  -0.273
REMARK UNBOUND:                -0.298
REMARK SMILES O=c1c(O)c(-c2ccc(O)cc2)oc2cc(O)cc(O)c12
REMARK SMILES IDX 5 1 3 2 2 3 1 4 21 5 19 6 18 7 16 8 15 9 14 10 13 11 6 12
REMARK SMILES IDX 7 13 8 14 9 15 12 16 11 17 10 18 4 20 20 22 17 24
REMARK H PARENT 10 19 4 21 20 23 17 25
REMARK Flexibility Score: inf
ROOT
ATOM      1  C   UNL     1      14.685  54.182  32.801  1.00  0.00     0.180 A 
ATOM      2  C   UNL     1      15.229  55.469  32.617  1.00  0.00     0.208 A 
ATOM      3  C   UNL     1      15.649  55.850  31.333  1.00  0.00     0.238 A 
ATOM      4  O   UNL     1      16.127  57.003  31.154  1.00  0.00    -0.285 OA
ATOM      5  C   UNL     1      15.540  54.938  30.264  1.00  0.00     0.111 A 
ATOM      6  C   UNL     1      15.944  55.241  28.942  1.00  0.00     0.134 A 
ATOM      7  C   UNL     1      15.812  54.275  27.935  1.00  0.00     0.093 A 
ATOM      8  C   UNL     1      15.285  53.014  28.221  1.00  0.00     0.123 A 
ATOM      9  C   UNL     1      14.883  52.707  29.525  1.00  0.00     0.094 A 
ATOM     10  C   UNL     1      15.005  53.658  30.544  1.00  0.00     0.146 A 
ATOM     11  O   UNL     1      14.611  53.343  31.773  1.00  0.00    -0.452 OA
ENDROOT
BRANCH   1  12
ATOM     12  C   UNL     1      14.201  53.714  34.120  1.00  0.00     0.021 A 
ATOM     13  C   UNL     1      15.017  52.948  34.972  1.00  0.00     0.016 A 
ATOM     14  C   UNL     1      14.546  52.539  36.222  1.00  0.00     0.047 A 
ATOM     15  C   UNL     1      13.259  52.900  36.643  1.00  0.00     0.115 A 
ATOM     16  C   UNL     1      12.920  54.090  34.558  1.00  0.00     0.016 A 
ATOM     17  C   UNL     1      12.451  53.678  35.810  1.00  0.00     0.047 A 
BRANCH  15  18
ATOM     18  O   UNL     1      12.779  52.496  37.887  1.00  0.00    -0.508 OA
ATOM     19  H   UNL     1      13.392  52.411  38.689  1.00  0.00     0.293 HD
ENDBRANCH  15  18
ENDBRANCH   1  12
BRANCH   2  20
ATOM     20  O   UNL     1      15.371  56.336  33.703  1.00  0.00    -0.502 OA
ATOM     21  H   UNL     1      14.809  57.173  33.805  1.00  0.00     0.293 HD
ENDBRANCH   2  20
BRANCH   6  22
ATOM     22  O   UNL     1      16.476  56.492  28.623  1.00  0.00    -0.507 OA
ATOM     23  H   UNL     1      17.467  56.685  28.704  1.00  0.00     0.293 HD
ENDBRANCH   6  22
BRANCH   8  24
ATOM     24  O   UNL     1      15.165  52.071  27.202  1.00  0.00    -0.508 OA
ATOM     25  H   UNL     1      14.665  51.201  27.342  1.00  0.00     0.293 HD
ENDBRANCH   8  24
TORSDOF 5
ENDMDL
MODEL 8
REMARK VINA RESULT:    -4.831      6.917      8.674
REMARK INTER + INTRA:          -5.977
REMARK INTER:                  -5.949
REMARK INTRA:                  -0.028
REMARK UNBOUND:                -0.298
REMARK SMILES O=c1c(O)c(-c2ccc(O)cc2)oc2cc(O)cc(O)c12
REMARK SMILES IDX 5 1 3 2 2 3 1 4 21 5 19 6 18 7 16 8 15 9 14 10 13 11 6 12
REMARK SMILES IDX 7 13 8 14 9 15 12 16 11 17 10 18 4 20 20 22 17 24
REMARK H PARENT 10 19 4 21 20 23 17 25
REMARK Flexibility Score: inf
ROOT
ATOM      1  C   UNL     1      14.353  47.728  32.336  1.00  0.00     0.180 A 
ATOM      2  C   UNL     1      15.458  47.129  31.700  1.00  0.00     0.208 A 
ATOM      3  C   UNL     1      16.188  47.877  30.764  1.00  0.00     0.238 A 
ATOM      4  O   UNL     1      17.186  47.355  30.196  1.00  0.00    -0.285 OA
ATOM      5  C   UNL     1      15.793  49.196  30.463  1.00  0.00     0.111 A 
ATOM      6  C   UNL     1      16.472  50.015  29.528  1.00  0.00     0.134 A 
ATOM      7  C   UNL     1      16.009  51.315  29.278  1.00  0.00     0.093 A 
ATOM      8  C   UNL     1      14.885  51.812  29.940  1.00  0.00     0.123 A 
ATOM      9  C   UNL     1      14.210  51.009  30.865  1.00  0.00     0.094 A 
ATOM     10  C   UNL     1      14.656  49.710  31.130  1.00  0.00     0.146 A 
ATOM     11  O   UNL     1      14.000  48.970  32.017  1.00  0.00    -0.452 OA
ENDROOT
BRANCH   1  12
ATOM     12  C   UNL     1      13.545  47.012  33.350  1.00  0.00     0.021 A 
ATOM     13  C   UNL     1      14.142  46.406  34.470  1.00  0.00     0.016 A 
ATOM     14  C   UNL     1      13.356  45.757  35.426  1.00  0.00     0.047 A 
ATOM     15  C   UNL     1      11.963  45.716  35.282  1.00  0.00     0.115 A 
ATOM     16  C   UNL     1      12.146  46.985  33.224  1.00  0.00     0.016 A 
ATOM     17  C   UNL     1      11.362  46.334  34.182  1.00  0.00     0.047 A 
BRANCH  15  18
ATOM     18  O   UNL     1      11.170  45.071  36.228  1.00  0.00    -0.508 OA
ATOM     19  H   UNL     1      10.211  45.353  36.397  1.00  0.00     0.293 HD
ENDBRANCH  15  18
ENDBRANCH   1  12
BRANCH   2  20
ATOM     20  O   UNL     1      15.799  45.803  31.980  1.00  0.00    -0.502 OA
ATOM     21  H   UNL     1      16.643  45.556  32.483  1.00  0.00     0.293 HD
ENDBRANCH   2  20
BRANCH   6  22
ATOM     22  O   UNL     1      17.598  49.546  28.849  1.00  0.00    -0.507 OA
ATOM     23  H   UNL     1      18.531  49.864  29.083  1.00  0.00     0.293 HD
ENDBRANCH   6  22
BRANCH   8  24
ATOM     24  O   UNL     1      14.446  53.106  29.672  1.00  0.00    -0.508 OA
ATOM     25  H   UNL     1      14.376  53.456  28.723  1.00  0.00     0.293 HD
ENDBRANCH   8  24
TORSDOF 5
ENDMDL
MODEL 9
REMARK VINA RESULT:    -4.820      4.797      6.238
REMARK INTER + INTRA:          -5.963
REMARK INTER:                  -5.709
REMARK INTRA:                  -0.254
REMARK UNBOUND:                -0.298
REMARK SMILES O=c1c(O)c(-c2ccc(O)cc2)oc2cc(O)cc(O)c12
REMARK SMILES IDX 5 1 3 2 2 3 1 4 21 5 19 6 18 7 16 8 15 9 14 10 13 11 6 12
REMARK SMILES IDX 7 13 8 14 9 15 12 16 11 17 10 18 4 20 20 22 17 24
REMARK H PARENT 10 19 4 21 20 23 17 25
REMARK Flexibility Score: inf
ROOT
ATOM      1  C   UNL     1      15.076  51.193  31.931  1.00  0.00     0.180 A 
ATOM      2  C   UNL     1      14.796  52.148  30.935  1.00  0.00     0.208 A 
ATOM      3  C   UNL     1      14.640  53.492  31.308  1.00  0.00     0.238 A 
ATOM      4  O   UNL     1      14.399  54.358  30.424  1.00  0.00    -0.285 OA
ATOM      5  C   UNL     1      14.744  53.854  32.667  1.00  0.00     0.111 A 
ATOM      6  C   UNL     1      14.595  55.185  33.128  1.00  0.00     0.134 A 
ATOM      7  C   UNL     1      14.703  55.462  34.498  1.00  0.00     0.093 A 
ATOM      8  C   UNL     1      14.957  54.440  35.415  1.00  0.00     0.123 A 
ATOM      9  C   UNL     1      15.105  53.124  34.966  1.00  0.00     0.094 A 
ATOM     10  C   UNL     1      15.002  52.826  33.604  1.00  0.00     0.146 A 
ATOM     11  O   UNL     1      15.152  51.569  33.204  1.00  0.00    -0.452 OA
ENDROOT
BRANCH   1  12
ATOM     12  C   UNL     1      15.274  49.760  31.613  1.00  0.00     0.021 A 
ATOM     13  C   UNL     1      16.473  49.293  31.044  1.00  0.00     0.016 A 
ATOM     14  C   UNL     1      16.645  47.932  30.776  1.00  0.00     0.047 A 
ATOM     15  C   UNL     1      15.629  47.019  31.085  1.00  0.00     0.115 A 
ATOM     16  C   UNL     1      14.268  48.835  31.939  1.00  0.00     0.016 A 
ATOM     17  C   UNL     1      14.444  47.474  31.669  1.00  0.00     0.047 A 
BRANCH  15  18
ATOM     18  O   UNL     1      15.790  45.661  30.820  1.00  0.00    -0.508 OA
ATOM     19  H   UNL     1      15.338  44.954  31.389  1.00  0.00     0.293 HD
ENDBRANCH  15  18
ENDBRANCH   1  12
BRANCH   2  20
ATOM     20  O   UNL     1      14.649  51.756  29.602  1.00  0.00    -0.502 OA
ATOM     21  H   UNL     1      15.040  52.288  28.834  1.00  0.00     0.293 HD
ENDBRANCH   2  20
BRANCH   6  22
ATOM     22  O   UNL     1      14.340  56.228  32.236  1.00  0.00    -0.507 OA
ATOM     23  H   UNL     1      14.516  56.135  31.243  1.00  0.00     0.293 HD
ENDBRANCH   6  22
BRANCH   8  24
ATOM     24  O   UNL     1      15.059  54.743  36.771  1.00  0.00    -0.508 OA
ATOM     25  H   UNL     1      14.360  55.307  37.242  1.00  0.00     0.293 HD
ENDBRANCH   8  24
TORSDOF 5
ENDMDL
