MODEL 1
REMARK VINA RESULT:    -3.402      0.000      0.000
REMARK INTER + INTRA:          -6.531
REMARK INTER:                  -5.788
REMARK INTRA:                  -0.743
REMARK UNBOUND:                -0.743
REMARK SMILES CCCCCCCCCCCCCC(=O)[O-]
REMARK SMILES IDX 8 1 9 2 10 3 11 4 12 5 13 6 14 7 15 8 16 9 7 10 6 11 5 12
REMARK SMILES IDX 4 13 3 14 2 15 1 16
REMARK H PARENT
REMARK Flexibility Score: inf
ROOT
ATOM      1  C   UNL     1       2.642 -37.498  20.096  1.00  0.00     0.000 C 
ENDROOT
BRANCH   1   2
ATOM      2  C   UNL     1       1.761 -37.646  18.844  1.00  0.00     0.000 C 
BRANCH   2   3
ATOM      3  C   UNL     1       2.528 -37.353  17.545  1.00  0.00     0.000 C 
BRANCH   3   4
ATOM      4  C   UNL     1       1.757 -36.410  16.604  1.00  0.00     0.000 C 
BRANCH   4   5
ATOM      5  C   UNL     1       2.619 -35.904  15.438  1.00  0.00     0.006 C 
BRANCH   5   6
ATOM      6  C   UNL     1       2.723 -36.920  14.292  1.00  0.00     0.053 C 
BRANCH   6   7
ATOM      7  C   UNL     1       4.142 -37.351  14.103  1.00  0.00     0.041 C 
ATOM      8  O   UNL     1       5.039 -36.497  13.876  1.00  0.00    -0.550 OA
ATOM      9  O   UNL     1       4.468 -38.701  14.125  1.00  0.00    -0.550 OA
ENDBRANCH   6   7
ENDBRANCH   5   6
ENDBRANCH   4   5
ENDBRANCH   3   4
ENDBRANCH   2   3
ENDBRANCH   1   2
BRANCH   1  10
ATOM     10  C   UNL     1       4.054 -36.976  19.772  1.00  0.00     0.000 C 
BRANCH  10  11
ATOM     11  C   UNL     1       4.364 -35.561  20.300  1.00  0.00    -0.000 C 
BRANCH  11  12
ATOM     12  C   UNL     1       4.485 -35.443  21.832  1.00  0.00    -0.000 C 
BRANCH  12  13
ATOM     13  C   UNL     1       5.123 -36.656  22.532  1.00  0.00    -0.000 C 
BRANCH  13  14
ATOM     14  C   UNL     1       5.063 -36.560  24.066  1.00  0.00    -0.000 C 
BRANCH  14  15
ATOM     15  C   UNL     1       4.922 -37.934  24.737  1.00  0.00    -0.003 C 
ATOM     16  C   UNL     1       4.442 -39.019  23.773  1.00  0.00     0.004 C 
ENDBRANCH  14  15
ENDBRANCH  13  14
ENDBRANCH  12  13
ENDBRANCH  11  12
ENDBRANCH  10  11
ENDBRANCH   1  10
TORSDOF 12
ENDMDL
MODEL 2
REMARK VINA RESULT:    -3.387      3.985      7.789
REMARK INTER + INTRA:          -6.506
REMARK INTER:                  -6.023
REMARK INTRA:                  -0.484
REMARK UNBOUND:                -0.743
REMARK SMILES CCCCCCCCCCCCCC(=O)[O-]
REMARK SMILES IDX 8 1 9 2 10 3 11 4 12 5 13 6 14 7 15 8 16 9 7 10 6 11 5 12
REMARK SMILES IDX 4 13 3 14 2 15 1 16
REMARK H PARENT
REMARK Flexibility Score: inf
ROOT
ATOM      1  C   UNL     1       4.280 -37.268  18.763  1.00  0.00     0.000 C 
ENDROOT
BRANCH   1   2
ATOM      2  C   UNL     1       4.956 -36.296  19.744  1.00  0.00     0.000 C 
BRANCH   2   3
ATOM      3  C   UNL     1       4.051 -35.930  20.931  1.00  0.00     0.000 C 
BRANCH   3   4
ATOM      4  C   UNL     1       4.795 -35.134  22.018  1.00  0.00     0.000 C 
BRANCH   4   5
ATOM      5  C   UNL     1       4.911 -35.907  23.341  1.00  0.00     0.006 C 
BRANCH   5   6
ATOM      6  C   UNL     1       5.125 -37.411  23.132  1.00  0.00     0.053 C 
BRANCH   6   7
ATOM      7  C   UNL     1       5.004 -38.142  24.432  1.00  0.00     0.041 C 
ATOM      8  O   UNL     1       5.046 -39.400  24.458  1.00  0.00    -0.550 OA
ATOM      9  O   UNL     1       4.793 -37.436  25.609  1.00  0.00    -0.550 OA
ENDBRANCH   6   7
ENDBRANCH   5   6
ENDBRANCH   4   5
ENDBRANCH   3   4
ENDBRANCH   2   3
ENDBRANCH   1   2
BRANCH   1  10
ATOM     10  C   UNL     1       2.747 -37.285  18.902  1.00  0.00     0.000 C 
BRANCH  10  11
ATOM     11  C   UNL     1       1.969 -37.037  17.594  1.00  0.00    -0.000 C 
BRANCH  11  12
ATOM     12  C   UNL     1       2.410 -35.796  16.793  1.00  0.00    -0.000 C 
BRANCH  12  13
ATOM     13  C   UNL     1       2.257 -35.915  15.267  1.00  0.00    -0.000 C 
BRANCH  13  14
ATOM     14  C   UNL     1       3.458 -36.604  14.598  1.00  0.00    -0.000 C 
BRANCH  14  15
ATOM     15  C   UNL     1       3.784 -37.964  15.233  1.00  0.00    -0.003 C 
ATOM     16  C   UNL     1       4.464 -38.927  14.260  1.00  0.00     0.004 C 
ENDBRANCH  14  15
ENDBRANCH  13  14
ENDBRANCH  12  13
ENDBRANCH  11  12
ENDBRANCH  10  11
ENDBRANCH   1  10
TORSDOF 12
ENDMDL
MODEL 3
REMARK VINA RESULT:    -2.209      1.136      2.121
REMARK INTER + INTRA:          -4.502
REMARK INTER:                  -4.068
REMARK INTRA:                  -0.434
REMARK UNBOUND:                -0.743
REMARK SMILES CCCCCCCCCCCCCC(=O)[O-]
REMARK SMILES IDX 8 1 9 2 10 3 11 4 12 5 13 6 14 7 15 8 16 9 7 10 6 11 5 12
REMARK SMILES IDX 4 13 3 14 2 15 1 16
REMARK H PARENT
REMARK Flexibility Score: inf
ROOT
ATOM      1  C   UNL     1       3.953 -36.579  20.174  1.00  0.00     0.000 C 
ENDROOT
BRANCH   1   2
ATOM      2  C   UNL     1       4.083 -36.231  18.682  1.00  0.00     0.000 C 
BRANCH   2   3
ATOM      3  C   UNL     1       3.567 -37.353  17.766  1.00  0.00     0.000 C 
BRANCH   3   4
ATOM      4  C   UNL     1       2.128 -37.104  17.280  1.00  0.00     0.000 C 
BRANCH   4   5
ATOM      5  C   UNL     1       2.056 -36.042  16.171  1.00  0.00     0.006 C 
BRANCH   5   6
ATOM      6  C   UNL     1       2.106 -36.650  14.764  1.00  0.00     0.053 C 
BRANCH   6   7
ATOM      7  C   UNL     1       3.506 -37.041  14.413  1.00  0.00     0.041 C 
ATOM      8  O   UNL     1       4.307 -36.184  13.952  1.00  0.00    -0.550 OA
ATOM      9  O   UNL     1       3.914 -38.361  14.546  1.00  0.00    -0.550 OA
ENDBRANCH   6   7
ENDBRANCH   5   6
ENDBRANCH   4   5
ENDBRANCH   3   4
ENDBRANCH   2   3
ENDBRANCH   1   2
BRANCH   1  10
ATOM     10  C   UNL     1       5.027 -37.574  20.650  1.00  0.00     0.000 C 
BRANCH  10  11
ATOM     11  C   UNL     1       5.070 -37.810  22.173  1.00  0.00    -0.000 C 
BRANCH  11  12
ATOM     12  C   UNL     1       5.079 -39.290  22.607  1.00  0.00    -0.000 C 
BRANCH  12  13
ATOM     13  C   UNL     1       4.460 -39.569  23.988  1.00  0.00    -0.000 C 
BRANCH  13  14
ATOM     14  C   UNL     1       5.125 -38.761  25.115  1.00  0.00    -0.000 C 
BRANCH  14  15
ATOM     15  C   UNL     1       4.175 -37.726  25.736  1.00  0.00    -0.003 C 
ATOM     16  C   UNL     1       4.695 -36.294  25.615  1.00  0.00     0.004 C 
ENDBRANCH  14  15
ENDBRANCH  13  14
ENDBRANCH  12  13
ENDBRANCH  11  12
ENDBRANCH  10  11
ENDBRANCH   1  10
TORSDOF 12
ENDMDL
MODEL 4
REMARK VINA RESULT:    -1.899      3.694      7.276
REMARK INTER + INTRA:          -3.974
REMARK INTER:                  -3.861
REMARK INTRA:                  -0.113
REMARK UNBOUND:                -0.743
REMARK SMILES CCCCCCCCCCCCCC(=O)[O-]
REMARK SMILES IDX 8 1 9 2 10 3 11 4 12 5 13 6 14 7 15 8 16 9 7 10 6 11 5 12
REMARK SMILES IDX 4 13 3 14 2 15 1 16
REMARK H PARENT
REMARK Flexibility Score: inf
ROOT
ATOM      1  C   UNL     1       1.860 -37.882  19.515  1.00  0.00     0.000 C 
ENDROOT
BRANCH   1   2
ATOM      2  C   UNL     1       3.383 -37.749  19.346  1.00  0.00     0.000 C 
BRANCH   2   3
ATOM      3  C   UNL     1       3.801 -36.358  18.841  1.00  0.00     0.000 C 
BRANCH   3   4
ATOM      4  C   UNL     1       5.104 -35.861  19.494  1.00  0.00     0.000 C 
BRANCH   4   5
ATOM      5  C   UNL     1       4.960 -35.643  21.008  1.00  0.00     0.006 C 
BRANCH   5   6
ATOM      6  C   UNL     1       5.065 -36.948  21.808  1.00  0.00     0.053 C 
BRANCH   6   7
ATOM      7  C   UNL     1       4.993 -36.668  23.275  1.00  0.00     0.041 C 
ATOM      8  O   UNL     1       4.877 -35.484  23.690  1.00  0.00    -0.550 OA
ATOM      9  O   UNL     1       5.106 -37.708  24.188  1.00  0.00    -0.550 OA
ENDBRANCH   6   7
ENDBRANCH   5   6
ENDBRANCH   4   5
ENDBRANCH   3   4
ENDBRANCH   2   3
ENDBRANCH   1   2
BRANCH   1  10
ATOM     10  C   UNL     1       1.071 -37.104  18.446  1.00  0.00     0.000 C 
BRANCH  10  11
ATOM     11  C   UNL     1       1.457 -37.423  16.988  1.00  0.00    -0.000 C 
BRANCH  11  12
ATOM     12  C   UNL     1       1.535 -36.204  16.048  1.00  0.00    -0.000 C 
BRANCH  12  13
ATOM     13  C   UNL     1       2.957 -35.791  15.629  1.00  0.00    -0.000 C 
BRANCH  13  14
ATOM     14  C   UNL     1       3.224 -36.009  14.130  1.00  0.00    -0.000 C 
BRANCH  14  15
ATOM     15  C   UNL     1       4.360 -37.011  13.875  1.00  0.00    -0.003 C 
ATOM     16  C   UNL     1       4.175 -38.323  14.636  1.00  0.00     0.004 C 
ENDBRANCH  14  15
ENDBRANCH  13  14
ENDBRANCH  12  13
ENDBRANCH  11  12
ENDBRANCH  10  11
ENDBRANCH   1  10
TORSDOF 12
ENDMDL
MODEL 5
REMARK VINA RESULT:    -1.703      1.678      2.964
REMARK INTER + INTRA:          -3.641
REMARK INTER:                  -3.892
REMARK INTRA:                   0.251
REMARK UNBOUND:                -0.743
REMARK SMILES CCCCCCCCCCCCCC(=O)[O-]
REMARK SMILES IDX 8 1 9 2 10 3 11 4 12 5 13 6 14 7 15 8 16 9 7 10 6 11 5 12
REMARK SMILES IDX 4 13 3 14 2 15 1 16
REMARK H PARENT
REMARK Flexibility Score: inf
ROOT
ATOM      1  C   UNL     1       3.336 -37.856  20.865  1.00  0.00     0.000 C 
ENDROOT
BRANCH   1   2
ATOM      2  C   UNL     1       3.664 -37.204  19.512  1.00  0.00     0.000 C 
BRANCH   2   3
ATOM      3  C   UNL     1       4.835 -36.212  19.602  1.00  0.00     0.000 C 
BRANCH   3   4
ATOM      4  C   UNL     1       4.962 -35.332  18.346  1.00  0.00     0.000 C 
BRANCH   4   5
ATOM      5  C   UNL     1       3.695 -35.357  17.477  1.00  0.00     0.006 C 
BRANCH   5   6
ATOM      6  C   UNL     1       3.490 -36.700  16.765  1.00  0.00     0.053 C 
BRANCH   6   7
ATOM      7  C   UNL     1       2.641 -36.522  15.546  1.00  0.00     0.041 C 
ATOM      8  O   UNL     1       1.497 -36.004  15.642  1.00  0.00    -0.550 OA
ATOM      9  O   UNL     1       3.091 -36.973  14.313  1.00  0.00    -0.550 OA
ENDBRANCH   6   7
ENDBRANCH   5   6
ENDBRANCH   4   5
ENDBRANCH   3   4
ENDBRANCH   2   3
ENDBRANCH   1   2
BRANCH   1  10
ATOM     10  C   UNL     1       4.548 -37.898  21.815  1.00  0.00     0.000 C 
BRANCH  10  11
ATOM     11  C   UNL     1       4.956 -39.307  22.290  1.00  0.00    -0.000 C 
BRANCH  11  12
ATOM     12  C   UNL     1       5.124 -39.462  23.815  1.00  0.00    -0.000 C 
BRANCH  12  13
ATOM     13  C   UNL     1       4.286 -38.493  24.667  1.00  0.00    -0.000 C 
BRANCH  13  14
ATOM     14  C   UNL     1       5.111 -37.790  25.758  1.00  0.00    -0.000 C 
BRANCH  14  15
ATOM     15  C   UNL     1       5.118 -36.263  25.598  1.00  0.00    -0.003 C 
ATOM     16  C   UNL     1       5.123 -35.819  24.136  1.00  0.00     0.004 C 
ENDBRANCH  14  15
ENDBRANCH  13  14
ENDBRANCH  12  13
ENDBRANCH  11  12
ENDBRANCH  10  11
ENDBRANCH   1  10
TORSDOF 12
ENDMDL
MODEL 6
REMARK VINA RESULT:    -1.427      1.928      3.251
REMARK INTER + INTRA:          -3.171
REMARK INTER:                  -3.029
REMARK INTRA:                  -0.142
REMARK UNBOUND:                -0.743
REMARK SMILES CCCCCCCCCCCCCC(=O)[O-]
REMARK SMILES IDX 8 1 9 2 10 3 11 4 12 5 13 6 14 7 15 8 16 9 7 10 6 11 5 12
REMARK SMILES IDX 4 13 3 14 2 15 1 16
REMARK H PARENT
REMARK Flexibility Score: inf
ROOT
ATOM      1  C   UNL     1       4.438 -35.366  21.413  1.00  0.00     0.000 C 
ENDROOT
BRANCH   1   2
ATOM      2  C   UNL     1       4.853 -35.557  19.945  1.00  0.00     0.000 C 
BRANCH   2   3
ATOM      3  C   UNL     1       5.102 -34.223  19.223  1.00  0.00     0.000 C 
BRANCH   3   4
ATOM      4  C   UNL     1       4.466 -34.182  17.822  1.00  0.00     0.000 C 
BRANCH   4   5
ATOM      5  C   UNL     1       4.363 -35.574  17.180  1.00  0.00     0.006 C 
BRANCH   5   6
ATOM      6  C   UNL     1       3.197 -35.686  16.189  1.00  0.00     0.053 C 
BRANCH   6   7
ATOM      7  C   UNL     1       2.402 -36.924  16.456  1.00  0.00     0.041 C 
ATOM      8  O   UNL     1       2.742 -38.020  15.935  1.00  0.00    -0.550 OA
ATOM      9  O   UNL     1       1.257 -36.861  17.238  1.00  0.00    -0.550 OA
ENDBRANCH   6   7
ENDBRANCH   5   6
ENDBRANCH   4   5
ENDBRANCH   3   4
ENDBRANCH   2   3
ENDBRANCH   1   2
BRANCH   1  10
ATOM     10  C   UNL     1       4.794 -36.576  22.296  1.00  0.00     0.000 C 
BRANCH  10  11
ATOM     11  C   UNL     1       4.350 -37.944  21.739  1.00  0.00    -0.000 C 
BRANCH  11  12
ATOM     12  C   UNL     1       4.308 -39.090  22.770  1.00  0.00    -0.000 C 
BRANCH  12  13
ATOM     13  C   UNL     1       5.108 -38.837  24.060  1.00  0.00    -0.000 C 
BRANCH  13  14
ATOM     14  C   UNL     1       4.280 -38.131  25.148  1.00  0.00    -0.000 C 
BRANCH  14  15
ATOM     15  C   UNL     1       5.094 -37.079  25.917  1.00  0.00    -0.003 C 
ATOM     16  C   UNL     1       5.125 -35.722  25.215  1.00  0.00     0.004 C 
ENDBRANCH  14  15
ENDBRANCH  13  14
ENDBRANCH  12  13
ENDBRANCH  11  12
ENDBRANCH  10  11
ENDBRANCH   1  10
TORSDOF 12
ENDMDL
MODEL 7
REMARK VINA RESULT:    -1.003      3.226      7.365
REMARK INTER + INTRA:          -2.449
REMARK INTER:                  -3.850
REMARK INTRA:                   1.400
REMARK UNBOUND:                -0.743
REMARK SMILES CCCCCCCCCCCCCC(=O)[O-]
REMARK SMILES IDX 8 1 9 2 10 3 11 4 12 5 13 6 14 7 15 8 16 9 7 10 6 11 5 12
REMARK SMILES IDX 4 13 3 14 2 15 1 16
REMARK H PARENT
REMARK Flexibility Score: inf
ROOT
ATOM      1  C   UNL     1       4.291 -35.120  22.055  1.00  0.00     0.000 C 
ENDROOT
BRANCH   1   2
ATOM      2  C   UNL     1       5.124 -35.785  23.163  1.00  0.00     0.000 C 
BRANCH   2   3
ATOM      3  C   UNL     1       4.479 -35.644  24.552  1.00  0.00     0.000 C 
BRANCH   3   4
ATOM      4  C   UNL     1       4.986 -36.703  25.548  1.00  0.00     0.000 C 
BRANCH   4   5
ATOM      5  C   UNL     1       5.124 -38.094  24.911  1.00  0.00     0.006 C 
BRANCH   5   6
ATOM      6  C   UNL     1       4.993 -38.062  23.383  1.00  0.00     0.053 C 
BRANCH   6   7
ATOM      7  C   UNL     1       4.385 -39.335  22.884  1.00  0.00     0.041 C 
ATOM      8  O   UNL     1       3.252 -39.322  22.333  1.00  0.00    -0.550 OA
ATOM      9  O   UNL     1       5.045 -40.542  23.072  1.00  0.00    -0.550 OA
ENDBRANCH   6   7
ENDBRANCH   5   6
ENDBRANCH   4   5
ENDBRANCH   3   4
ENDBRANCH   2   3
ENDBRANCH   1   2
BRANCH   1  10
ATOM     10  C   UNL     1       4.990 -35.152  20.683  1.00  0.00     0.000 C 
BRANCH  10  11
ATOM     11  C   UNL     1       4.948 -36.514  19.960  1.00  0.00    -0.000 C 
BRANCH  11  12
ATOM     12  C   UNL     1       3.616 -37.280  20.083  1.00  0.00    -0.000 C 
BRANCH  12  13
ATOM     13  C   UNL     1       2.957 -37.663  18.746  1.00  0.00    -0.000 C 
BRANCH  13  14
ATOM     14  C   UNL     1       3.441 -36.795  17.572  1.00  0.00    -0.000 C 
BRANCH  14  15
ATOM     15  C   UNL     1       2.309 -36.444  16.594  1.00  0.00    -0.003 C 
ATOM     16  C   UNL     1       2.813 -36.162  15.179  1.00  0.00     0.004 C 
ENDBRANCH  14  15
ENDBRANCH  13  14
ENDBRANCH  12  13
ENDBRANCH  11  12
ENDBRANCH  10  11
ENDBRANCH   1  10
TORSDOF 12
ENDMDL
