MODEL 1
REMARK VINA RESULT:    -4.062      0.000      0.000
REMARK INTER + INTRA:          -4.897
REMARK INTER:                  -4.774
REMARK INTRA:                  -0.123
REMARK UNBOUND:                -0.123
REMARK SMILES O=C([O-])C=Cc1ccc(O)c(O)c1
REMARK SMILES IDX 6 1 13 2 7 3 11 4 8 5 9 6 5 7 4 8 2 9 1 10 3 11 12 12 10 14
REMARK H PARENT 12 13 10 15
REMARK Flexibility Score: inf
ROOT
ATOM      1  C   UNL     1      49.405  13.882  -3.891  1.00  0.00    -0.022 A 
ATOM      2  C   UNL     1      48.675  15.083  -4.000  1.00  0.00     0.058 A 
ATOM      3  C   UNL     1      50.636  13.774  -4.560  1.00  0.00     0.012 A 
ATOM      4  C   UNL     1      49.182  16.160  -4.742  1.00  0.00     0.157 A 
ATOM      5  C   UNL     1      51.141  14.846  -5.299  1.00  0.00     0.051 A 
ATOM      6  C   UNL     1      50.418  16.043  -5.390  1.00  0.00     0.157 A 
ENDROOT
BRANCH   1   7
ATOM      7  C   UNL     1      48.908  12.712  -3.128  1.00  0.00     0.010 C 
ATOM      8  C   UNL     1      48.015  12.798  -2.130  1.00  0.00     0.025 C 
BRANCH   8   9
ATOM      9  C   UNL     1      47.558  11.610  -1.392  1.00  0.00     0.064 C 
ATOM     10  O   UNL     1      48.399  10.891  -0.791  1.00  0.00    -0.545 OA
ATOM     11  O   UNL     1      46.211  11.268  -1.345  1.00  0.00    -0.545 OA
ENDBRANCH   8   9
ENDBRANCH   1   7
BRANCH   4  12
ATOM     12  O   UNL     1      48.460  17.348  -4.846  1.00  0.00    -0.504 OA
ATOM     13  H   UNL     1      48.403  18.003  -4.075  1.00  0.00     0.293 HD
ENDBRANCH   4  12
BRANCH   6  14
ATOM     14  O   UNL     1      50.919  17.116  -6.125  1.00  0.00    -0.504 OA
ATOM     15  H   UNL     1      51.793  17.564  -5.879  1.00  0.00     0.293 HD
ENDBRANCH   6  14
TORSDOF 4
ENDMDL
MODEL 2
REMARK VINA RESULT:    -4.048      6.833      8.671
REMARK INTER + INTRA:          -4.881
REMARK INTER:                  -4.759
REMARK INTRA:                  -0.122
REMARK UNBOUND:                -0.123
REMARK SMILES O=C([O-])C=Cc1ccc(O)c(O)c1
REMARK SMILES IDX 6 1 13 2 7 3 11 4 8 5 9 6 5 7 4 8 2 9 1 10 3 11 12 12 10 14
REMARK H PARENT 12 13 10 15
REMARK Flexibility Score: inf
ROOT
ATOM      1  C   UNL     1      43.376  19.117  -3.435  1.00  0.00    -0.022 A 
ATOM      2  C   UNL     1      42.898  18.477  -2.274  1.00  0.00     0.058 A 
ATOM      3  C   UNL     1      43.140  20.492  -3.598  1.00  0.00     0.012 A 
ATOM      4  C   UNL     1      42.220  19.207  -1.286  1.00  0.00     0.157 A 
ATOM      5  C   UNL     1      42.465  21.219  -2.614  1.00  0.00     0.051 A 
ATOM      6  C   UNL     1      42.006  20.580  -1.455  1.00  0.00     0.157 A 
ENDROOT
BRANCH   1   7
ATOM      7  C   UNL     1      44.088  18.387  -4.513  1.00  0.00     0.010 C 
ATOM      8  C   UNL     1      44.972  17.403  -4.289  1.00  0.00     0.025 C 
BRANCH   8   9
ATOM      9  C   UNL     1      45.664  16.715  -5.389  1.00  0.00     0.064 C 
ATOM     10  O   UNL     1      45.171  15.660  -5.869  1.00  0.00    -0.545 OA
ATOM     11  O   UNL     1      46.854  17.210  -5.910  1.00  0.00    -0.545 OA
ENDBRANCH   8   9
ENDBRANCH   1   7
BRANCH   4  12
ATOM     12  O   UNL     1      41.751  18.573  -0.137  1.00  0.00    -0.504 OA
ATOM     13  H   UNL     1      42.065  18.848   0.787  1.00  0.00     0.293 HD
ENDBRANCH   4  12
BRANCH   6  14
ATOM     14  O   UNL     1      41.335  21.302  -0.470  1.00  0.00    -0.504 OA
ATOM     15  H   UNL     1      41.790  21.568   0.395  1.00  0.00     0.293 HD
ENDBRANCH   6  14
TORSDOF 4
ENDMDL
MODEL 3
REMARK VINA RESULT:    -4.031      1.269      2.227
REMARK INTER + INTRA:          -4.860
REMARK INTER:                  -4.733
REMARK INTRA:                  -0.127
REMARK UNBOUND:                -0.123
REMARK SMILES O=C([O-])C=Cc1ccc(O)c(O)c1
REMARK SMILES IDX 6 1 13 2 7 3 11 4 8 5 9 6 5 7 4 8 2 9 1 10 3 11 12 12 10 14
REMARK H PARENT 12 13 10 15
REMARK Flexibility Score: inf
ROOT
ATOM      1  C   UNL     1      48.621  14.162  -3.553  1.00  0.00    -0.022 A 
ATOM      2  C   UNL     1      49.865  13.616  -3.930  1.00  0.00     0.058 A 
ATOM      3  C   UNL     1      48.325  15.488  -3.911  1.00  0.00     0.012 A 
ATOM      4  C   UNL     1      50.781  14.377  -4.672  1.00  0.00     0.157 A 
ATOM      5  C   UNL     1      49.237  16.245  -4.651  1.00  0.00     0.051 A 
ATOM      6  C   UNL     1      50.466  15.692  -5.035  1.00  0.00     0.157 A 
ENDROOT
BRANCH   1   7
ATOM      7  C   UNL     1      47.623  13.402  -2.760  1.00  0.00     0.010 C 
ATOM      8  C   UNL     1      47.947  12.460  -1.862  1.00  0.00     0.025 C 
BRANCH   8   9
ATOM      9  C   UNL     1      46.922  11.723  -1.106  1.00  0.00     0.064 C 
ATOM     10  O   UNL     1      45.883  11.326  -1.694  1.00  0.00    -0.545 OA
ATOM     11  O   UNL     1      47.084  11.455   0.249  1.00  0.00    -0.545 OA
ENDBRANCH   8   9
ENDBRANCH   1   7
BRANCH   4  12
ATOM     12  O   UNL     1      52.009  13.835  -5.046  1.00  0.00    -0.504 OA
ATOM     13  H   UNL     1      52.219  12.853  -4.911  1.00  0.00     0.293 HD
ENDBRANCH   4  12
BRANCH   6  14
ATOM     14  O   UNL     1      51.378  16.443  -5.774  1.00  0.00    -0.504 OA
ATOM     15  H   UNL     1      52.315  16.623  -5.434  1.00  0.00     0.293 HD
ENDBRANCH   6  14
TORSDOF 4
ENDMDL
MODEL 4
REMARK VINA RESULT:    -3.964      3.165      4.372
REMARK INTER + INTRA:          -4.781
REMARK INTER:                  -4.657
REMARK INTRA:                  -0.124
REMARK UNBOUND:                -0.123
REMARK SMILES O=C([O-])C=Cc1ccc(O)c(O)c1
REMARK SMILES IDX 6 1 13 2 7 3 11 4 8 5 9 6 5 7 4 8 2 9 1 10 3 11 12 12 10 14
REMARK H PARENT 12 13 10 15
REMARK Flexibility Score: inf
ROOT
ATOM      1  C   UNL     1      47.488  15.425  -3.958  1.00  0.00    -0.022 A 
ATOM      2  C   UNL     1      47.862  14.163  -3.452  1.00  0.00     0.058 A 
ATOM      3  C   UNL     1      48.464  16.225  -4.574  1.00  0.00     0.012 A 
ATOM      4  C   UNL     1      49.181  13.705  -3.585  1.00  0.00     0.157 A 
ATOM      5  C   UNL     1      49.777  15.769  -4.708  1.00  0.00     0.051 A 
ATOM      6  C   UNL     1      50.140  14.508  -4.217  1.00  0.00     0.157 A 
ENDROOT
BRANCH   1   7
ATOM      7  C   UNL     1      46.110  15.959  -3.831  1.00  0.00     0.010 C 
ATOM      8  C   UNL     1      45.327  15.755  -2.762  1.00  0.00     0.025 C 
BRANCH   8   9
ATOM      9  C   UNL     1      43.960  16.294  -2.685  1.00  0.00     0.064 C 
ATOM     10  O   UNL     1      42.986  15.504  -2.581  1.00  0.00    -0.545 OA
ATOM     11  O   UNL     1      43.725  17.664  -2.724  1.00  0.00    -0.545 OA
ENDBRANCH   8   9
ENDBRANCH   1   7
BRANCH   4  12
ATOM     12  O   UNL     1      49.549  12.456  -3.088  1.00  0.00    -0.504 OA
ATOM     13  H   UNL     1      50.359  12.341  -2.490  1.00  0.00     0.293 HD
ENDBRANCH   4  12
BRANCH   6  14
ATOM     14  O   UNL     1      51.449  14.047  -4.350  1.00  0.00    -0.504 OA
ATOM     15  H   UNL     1      51.690  13.079  -4.175  1.00  0.00     0.293 HD
ENDBRANCH   6  14
TORSDOF 4
ENDMDL
MODEL 5
REMARK VINA RESULT:    -3.898      5.832      7.705
REMARK INTER + INTRA:          -4.704
REMARK INTER:                  -4.580
REMARK INTRA:                  -0.124
REMARK UNBOUND:                -0.123
REMARK SMILES O=C([O-])C=Cc1ccc(O)c(O)c1
REMARK SMILES IDX 6 1 13 2 7 3 11 4 8 5 9 6 5 7 4 8 2 9 1 10 3 11 12 12 10 14
REMARK H PARENT 12 13 10 15
REMARK Flexibility Score: inf
ROOT
ATOM      1  C   UNL     1      43.977  17.504  -3.164  1.00  0.00    -0.022 A 
ATOM      2  C   UNL     1      43.194  16.578  -2.445  1.00  0.00     0.058 A 
ATOM      3  C   UNL     1      43.619  18.862  -3.135  1.00  0.00     0.012 A 
ATOM      4  C   UNL     1      42.091  17.010  -1.693  1.00  0.00     0.157 A 
ATOM      5  C   UNL     1      42.521  19.292  -2.385  1.00  0.00     0.051 A 
ATOM      6  C   UNL     1      41.756  18.369  -1.661  1.00  0.00     0.157 A 
ENDROOT
BRANCH   1   7
ATOM      7  C   UNL     1      45.145  17.096  -3.981  1.00  0.00     0.010 C 
ATOM      8  C   UNL     1      46.004  16.129  -3.625  1.00  0.00     0.025 C 
BRANCH   8   9
ATOM      9  C   UNL     1      47.157  15.766  -4.463  1.00  0.00     0.064 C 
ATOM     10  O   UNL     1      46.989  15.554  -5.692  1.00  0.00    -0.545 OA
ATOM     11  O   UNL     1      48.432  15.653  -3.920  1.00  0.00    -0.545 OA
ENDBRANCH   8   9
ENDBRANCH   1   7
BRANCH   4  12
ATOM     12  O   UNL     1      41.320  16.093  -0.981  1.00  0.00    -0.504 OA
ATOM     13  H   UNL     1      41.701  15.572  -0.200  1.00  0.00     0.293 HD
ENDBRANCH   4  12
BRANCH   6  14
ATOM     14  O   UNL     1      40.661  18.794  -0.911  1.00  0.00    -0.504 OA
ATOM     15  H   UNL     1      40.385  19.768  -0.881  1.00  0.00     0.293 HD
ENDBRANCH   6  14
TORSDOF 4
ENDMDL
MODEL 6
REMARK VINA RESULT:    -3.883      2.792      5.167
REMARK INTER + INTRA:          -4.687
REMARK INTER:                  -4.546
REMARK INTRA:                  -0.141
REMARK UNBOUND:                -0.123
REMARK SMILES O=C([O-])C=Cc1ccc(O)c(O)c1
REMARK SMILES IDX 6 1 13 2 7 3 11 4 8 5 9 6 5 7 4 8 2 9 1 10 3 11 12 12 10 14
REMARK H PARENT 12 13 10 15
REMARK Flexibility Score: inf
ROOT
ATOM      1  C   UNL     1      48.110  15.972  -4.340  1.00  0.00    -0.022 A 
ATOM      2  C   UNL     1      48.260  14.713  -3.724  1.00  0.00     0.058 A 
ATOM      3  C   UNL     1      49.204  16.527  -5.025  1.00  0.00     0.012 A 
ATOM      4  C   UNL     1      49.474  14.016  -3.815  1.00  0.00     0.157 A 
ATOM      5  C   UNL     1      50.413  15.832  -5.116  1.00  0.00     0.051 A 
ATOM      6  C   UNL     1      50.551  14.575  -4.514  1.00  0.00     0.157 A 
ENDROOT
BRANCH   1   7
ATOM      7  C   UNL     1      46.852  16.753  -4.264  1.00  0.00     0.010 C 
ATOM      8  C   UNL     1      46.308  17.395  -5.308  1.00  0.00     0.025 C 
BRANCH   8   9
ATOM      9  C   UNL     1      45.063  18.169  -5.182  1.00  0.00     0.064 C 
ATOM     10  O   UNL     1      44.989  19.315  -5.698  1.00  0.00    -0.545 OA
ATOM     11  O   UNL     1      43.963  17.654  -4.505  1.00  0.00    -0.545 OA
ENDBRANCH   8   9
ENDBRANCH   1   7
BRANCH   4  12
ATOM     12  O   UNL     1      49.620  12.770  -3.207  1.00  0.00    -0.504 OA
ATOM     13  H   UNL     1      50.358  12.590  -2.536  1.00  0.00     0.293 HD
ENDBRANCH   4  12
BRANCH   6  14
ATOM     14  O   UNL     1      51.754  13.878  -4.604  1.00  0.00    -0.504 OA
ATOM     15  H   UNL     1      51.802  12.879  -4.440  1.00  0.00     0.293 HD
ENDBRANCH   6  14
TORSDOF 4
ENDMDL
MODEL 7
REMARK VINA RESULT:    -3.881      3.066      4.009
REMARK INTER + INTRA:          -4.685
REMARK INTER:                  -4.533
REMARK INTRA:                  -0.152
REMARK UNBOUND:                -0.123
REMARK SMILES O=C([O-])C=Cc1ccc(O)c(O)c1
REMARK SMILES IDX 6 1 13 2 7 3 11 4 8 5 9 6 5 7 4 8 2 9 1 10 3 11 12 12 10 14
REMARK H PARENT 12 13 10 15
REMARK Flexibility Score: inf
ROOT
ATOM      1  C   UNL     1      49.239  15.726  -4.643  1.00  0.00    -0.022 A 
ATOM      2  C   UNL     1      50.341  16.469  -5.113  1.00  0.00     0.058 A 
ATOM      3  C   UNL     1      49.378  14.339  -4.474  1.00  0.00     0.012 A 
ATOM      4  C   UNL     1      51.563  15.836  -5.383  1.00  0.00     0.157 A 
ATOM      5  C   UNL     1      50.596  13.708  -4.742  1.00  0.00     0.051 A 
ATOM      6  C   UNL     1      51.692  14.454  -5.194  1.00  0.00     0.157 A 
ENDROOT
BRANCH   1   7
ATOM      7  C   UNL     1      47.923  16.347  -4.354  1.00  0.00     0.010 C 
ATOM      8  C   UNL     1      46.841  15.655  -3.967  1.00  0.00     0.025 C 
BRANCH   8   9
ATOM      9  C   UNL     1      45.552  16.313  -3.703  1.00  0.00     0.064 C 
ATOM     10  O   UNL     1      45.031  17.038  -4.590  1.00  0.00    -0.545 OA
ATOM     11  O   UNL     1      44.897  16.145  -2.488  1.00  0.00    -0.545 OA
ENDBRANCH   8   9
ENDBRANCH   1   7
BRANCH   4  12
ATOM     12  O   UNL     1      52.653  16.572  -5.845  1.00  0.00    -0.504 OA
ATOM     13  H   UNL     1      53.099  16.361  -6.730  1.00  0.00     0.293 HD
ENDBRANCH   4  12
BRANCH   6  14
ATOM     14  O   UNL     1      52.909  13.829  -5.461  1.00  0.00    -0.504 OA
ATOM     15  H   UNL     1      53.000  13.139  -6.197  1.00  0.00     0.293 HD
ENDBRANCH   6  14
TORSDOF 4
ENDMDL
MODEL 8
REMARK VINA RESULT:    -3.852      2.624      3.401
REMARK INTER + INTRA:          -4.651
REMARK INTER:                  -4.499
REMARK INTRA:                  -0.152
REMARK UNBOUND:                -0.123
REMARK SMILES O=C([O-])C=Cc1ccc(O)c(O)c1
REMARK SMILES IDX 6 1 13 2 7 3 11 4 8 5 9 6 5 7 4 8 2 9 1 10 3 11 12 12 10 14
REMARK H PARENT 12 13 10 15
REMARK Flexibility Score: inf
ROOT
ATOM      1  C   UNL     1      48.531  15.464  -4.298  1.00  0.00    -0.022 A 
ATOM      2  C   UNL     1      49.340  16.360  -5.025  1.00  0.00     0.058 A 
ATOM      3  C   UNL     1      49.050  14.203  -3.958  1.00  0.00     0.012 A 
ATOM      4  C   UNL     1      50.650  16.007  -5.382  1.00  0.00     0.157 A 
ATOM      5  C   UNL     1      50.355  13.853  -4.312  1.00  0.00     0.051 A 
ATOM      6  C   UNL     1      51.160  14.753  -5.022  1.00  0.00     0.157 A 
ENDROOT
BRANCH   1   7
ATOM      7  C   UNL     1      47.136  15.785  -3.907  1.00  0.00     0.010 C 
ATOM      8  C   UNL     1      46.356  14.965  -3.188  1.00  0.00     0.025 C 
BRANCH   8   9
ATOM      9  C   UNL     1      44.973  15.321  -2.833  1.00  0.00     0.064 C 
ATOM     10  O   UNL     1      44.074  14.441  -2.883  1.00  0.00    -0.545 OA
ATOM     11  O   UNL     1      44.642  16.613  -2.442  1.00  0.00    -0.545 OA
ENDBRANCH   8   9
ENDBRANCH   1   7
BRANCH   4  12
ATOM     12  O   UNL     1      51.450  16.895  -6.098  1.00  0.00    -0.504 OA
ATOM     13  H   UNL     1      51.265  17.110  -7.071  1.00  0.00     0.293 HD
ENDBRANCH   4  12
BRANCH   6  14
ATOM     14  O   UNL     1      52.463  14.408  -5.375  1.00  0.00    -0.504 OA
ATOM     15  H   UNL     1      52.796  14.503  -6.327  1.00  0.00     0.293 HD
ENDBRANCH   6  14
TORSDOF 4
ENDMDL
MODEL 9
REMARK VINA RESULT:    -3.668      3.177      5.450
REMARK INTER + INTRA:          -4.434
REMARK INTER:                  -4.287
REMARK INTRA:                  -0.148
REMARK UNBOUND:                -0.123
REMARK SMILES O=C([O-])C=Cc1ccc(O)c(O)c1
REMARK SMILES IDX 6 1 13 2 7 3 11 4 8 5 9 6 5 7 4 8 2 9 1 10 3 11 12 12 10 14
REMARK H PARENT 12 13 10 15
REMARK Flexibility Score: inf
ROOT
ATOM      1  C   UNL     1      46.941  14.950  -3.439  1.00  0.00    -0.022 A 
ATOM      2  C   UNL     1      48.280  14.878  -3.875  1.00  0.00     0.058 A 
ATOM      3  C   UNL     1      46.430  13.911  -2.644  1.00  0.00     0.012 A 
ATOM      4  C   UNL     1      49.094  13.800  -3.498  1.00  0.00     0.157 A 
ATOM      5  C   UNL     1      47.241  12.838  -2.268  1.00  0.00     0.051 A 
ATOM      6  C   UNL     1      48.575  12.780  -2.691  1.00  0.00     0.157 A 
ENDROOT
BRANCH   1   7
ATOM      7  C   UNL     1      46.037  16.063  -3.819  1.00  0.00     0.010 C 
ATOM      8  C   UNL     1      45.081  16.554  -3.017  1.00  0.00     0.025 C 
BRANCH   8   9
ATOM      9  C   UNL     1      44.198  17.652  -3.441  1.00  0.00     0.064 C 
ATOM     10  O   UNL     1      44.443  18.267  -4.512  1.00  0.00    -0.545 OA
ATOM     11  O   UNL     1      43.096  18.023  -2.679  1.00  0.00    -0.545 OA
ENDBRANCH   8   9
ENDBRANCH   1   7
BRANCH   4  12
ATOM     12  O   UNL     1      50.418  13.732  -3.927  1.00  0.00    -0.504 OA
ATOM     13  H   UNL     1      50.731  13.015  -4.572  1.00  0.00     0.293 HD
ENDBRANCH   4  12
BRANCH   6  14
ATOM     14  O   UNL     1      49.388  11.711  -2.317  1.00  0.00    -0.504 OA
ATOM     15  H   UNL     1      49.157  10.757  -2.567  1.00  0.00     0.293 HD
ENDBRANCH   6  14
TORSDOF 4
ENDMDL
