MODEL 1
REMARK VINA RESULT:    -6.235      0.000      0.000
REMARK INTER + INTRA:         -18.076
REMARK INTER:                 -14.254
REMARK INTRA:                  -3.822
REMARK UNBOUND:                -3.822
REMARK SMILES CCCCCCCCCCCCCCCCCCCCCCCC(=O)[O-]
REMARK SMILES IDX 13 1 14 2 15 3 16 4 17 5 18 6 19 7 20 8 21 9 22 10 23 11
REMARK SMILES IDX 24 12 25 13 26 14 12 15 11 16 10 17 9 18 8 19 7 20 6 21 5 22
REMARK SMILES IDX 4 23 3 24 2 25 1 26
REMARK H PARENT
REMARK Flexibility Score: inf
ROOT
ATOM      1  C   UNL     1      13.588   2.275  16.638  1.00  0.00     0.000 C 
ENDROOT
BRANCH   1   2
ATOM      2  C   UNL     1      13.253   2.249  15.136  1.00  0.00     0.000 C 
BRANCH   2   3
ATOM      3  C   UNL     1      14.384   1.649  14.287  1.00  0.00     0.000 C 
BRANCH   3   4
ATOM      4  C   UNL     1      15.494   2.666  13.969  1.00  0.00     0.000 C 
BRANCH   4   5
ATOM      5  C   UNL     1      15.493   3.090  12.492  1.00  0.00     0.000 C 
BRANCH   5   6
ATOM      6  C   UNL     1      15.777   1.916  11.542  1.00  0.00     0.000 C 
BRANCH   6   7
ATOM      7  C   UNL     1      17.212   1.991  10.996  1.00  0.00     0.000 C 
BRANCH   7   8
ATOM      8  C   UNL     1      18.104   0.843  11.500  1.00  0.00     0.000 C 
BRANCH   8   9
ATOM      9  C   UNL     1      17.350  -0.309  12.197  1.00  0.00     0.000 C 
BRANCH   9  10
ATOM     10  C   UNL     1      17.583  -0.421  13.714  1.00  0.00     0.006 C 
BRANCH  10  11
ATOM     11  C   UNL     1      18.903   0.218  14.164  1.00  0.00     0.053 C 
BRANCH  11  12
ATOM     12  C   UNL     1      19.691  -0.738  15.002  1.00  0.00     0.041 C 
ATOM     13  O   UNL     1      20.525  -0.304  15.840  1.00  0.00    -0.550 OA
ATOM     14  O   UNL     1      19.536  -2.109  14.831  1.00  0.00    -0.550 OA
ENDBRANCH  11  12
ENDBRANCH  10  11
ENDBRANCH   9  10
ENDBRANCH   8   9
ENDBRANCH   7   8
ENDBRANCH   6   7
ENDBRANCH   5   6
ENDBRANCH   4   5
ENDBRANCH   3   4
ENDBRANCH   2   3
ENDBRANCH   1   2
BRANCH   1  15
ATOM     15  C   UNL     1      13.068   3.539  17.339  1.00  0.00     0.000 C 
BRANCH  15  16
ATOM     16  C   UNL     1      13.630   3.701  18.763  1.00  0.00     0.000 C 
BRANCH  16  17
ATOM     17  C   UNL     1      14.765   2.700  19.072  1.00  0.00     0.000 C 
BRANCH  17  18
ATOM     18  C   UNL     1      14.694   2.089  20.485  1.00  0.00    -0.000 C 
BRANCH  18  19
ATOM     19  C   UNL     1      15.218   0.645  20.603  1.00  0.00    -0.000 C 
BRANCH  19  20
ATOM     20  C   UNL     1      14.170  -0.455  20.355  1.00  0.00    -0.000 C 
BRANCH  20  21
ATOM     21  C   UNL     1      13.706  -0.523  18.889  1.00  0.00    -0.000 C 
BRANCH  21  22
ATOM     22  C   UNL     1      14.560  -1.489  18.051  1.00  0.00    -0.000 C 
BRANCH  22  23
ATOM     23  C   UNL     1      15.723  -0.778  17.336  1.00  0.00    -0.000 C 
BRANCH  23  24
ATOM     24  C   UNL     1      17.083  -1.069  17.986  1.00  0.00    -0.000 C 
BRANCH  24  25
ATOM     25  C   UNL     1      17.965   0.184  18.105  1.00  0.00    -0.003 C 
ATOM     26  C   UNL     1      17.379   1.343  17.303  1.00  0.00     0.004 C 
ENDBRANCH  24  25
ENDBRANCH  23  24
ENDBRANCH  22  23
ENDBRANCH  21  22
ENDBRANCH  20  21
ENDBRANCH  19  20
ENDBRANCH  18  19
ENDBRANCH  17  18
ENDBRANCH  16  17
ENDBRANCH  15  16
ENDBRANCH   1  15
TORSDOF 22
ENDMDL
MODEL 2
REMARK VINA RESULT:    -5.997      3.058      4.069
REMARK INTER + INTRA:         -17.533
REMARK INTER:                 -14.386
REMARK INTRA:                  -3.147
REMARK UNBOUND:                -3.822
REMARK SMILES CCCCCCCCCCCCCCCCCCCCCCCC(=O)[O-]
REMARK SMILES IDX 13 1 14 2 15 3 16 4 17 5 18 6 19 7 20 8 21 9 22 10 23 11
REMARK SMILES IDX 24 12 25 13 26 14 12 15 11 16 10 17 9 18 8 19 7 20 6 21 5 22
REMARK SMILES IDX 4 23 3 24 2 25 1 26
REMARK H PARENT
REMARK Flexibility Score: inf
ROOT
ATOM      1  C   UNL     1      15.739   2.981  17.121  1.00  0.00     0.000 C 
ENDROOT
BRANCH   1   2
ATOM      2  C   UNL     1      16.219   1.941  16.092  1.00  0.00     0.000 C 
BRANCH   2   3
ATOM      3  C   UNL     1      15.067   1.100  15.520  1.00  0.00     0.000 C 
BRANCH   3   4
ATOM      4  C   UNL     1      14.895   1.283  14.001  1.00  0.00     0.000 C 
BRANCH   4   5
ATOM      5  C   UNL     1      15.154   2.731  13.554  1.00  0.00     0.000 C 
BRANCH   5   6
ATOM      6  C   UNL     1      15.640   2.820  12.099  1.00  0.00     0.000 C 
BRANCH   6   7
ATOM      7  C   UNL     1      16.195   1.468  11.625  1.00  0.00     0.000 C 
BRANCH   7   8
ATOM      8  C   UNL     1      17.535   1.601  10.880  1.00  0.00     0.000 C 
BRANCH   8   9
ATOM      9  C   UNL     1      17.798   0.517   9.813  1.00  0.00     0.000 C 
BRANCH   9  10
ATOM     10  C   UNL     1      18.239   1.046   8.437  1.00  0.00     0.006 C 
BRANCH  10  11
ATOM     11  C   UNL     1      19.109   0.046   7.664  1.00  0.00     0.053 C 
BRANCH  11  12
ATOM     12  C   UNL     1      20.195   0.760   6.924  1.00  0.00     0.041 C 
ATOM     13  O   UNL     1      21.254   0.151   6.616  1.00  0.00    -0.550 OA
ATOM     14  O   UNL     1      20.059   2.107   6.609  1.00  0.00    -0.550 OA
ENDBRANCH  11  12
ENDBRANCH  10  11
ENDBRANCH   9  10
ENDBRANCH   8   9
ENDBRANCH   7   8
ENDBRANCH   6   7
ENDBRANCH   5   6
ENDBRANCH   4   5
ENDBRANCH   3   4
ENDBRANCH   2   3
ENDBRANCH   1   2
BRANCH   1  15
ATOM     15  C   UNL     1      14.232   3.262  17.020  1.00  0.00     0.000 C 
BRANCH  15  16
ATOM     16  C   UNL     1      13.443   2.704  18.217  1.00  0.00     0.000 C 
BRANCH  16  17
ATOM     17  C   UNL     1      14.334   1.911  19.199  1.00  0.00     0.000 C 
BRANCH  17  18
ATOM     18  C   UNL     1      14.044   0.398  19.226  1.00  0.00    -0.000 C 
BRANCH  18  19
ATOM     19  C   UNL     1      15.274  -0.503  19.442  1.00  0.00    -0.000 C 
BRANCH  19  20
ATOM     20  C   UNL     1      16.602   0.244  19.670  1.00  0.00    -0.000 C 
BRANCH  20  21
ATOM     21  C   UNL     1      17.674  -0.104  18.621  1.00  0.00    -0.000 C 
BRANCH  21  22
ATOM     22  C   UNL     1      17.433  -1.478  17.974  1.00  0.00    -0.000 C 
BRANCH  22  23
ATOM     23  C   UNL     1      18.248  -1.670  16.682  1.00  0.00    -0.000 C 
BRANCH  23  24
ATOM     24  C   UNL     1      18.952  -0.381  16.230  1.00  0.00    -0.000 C 
BRANCH  24  25
ATOM     25  C   UNL     1      19.296  -0.387  14.732  1.00  0.00    -0.003 C 
ATOM     26  C   UNL     1      18.056  -0.668  13.888  1.00  0.00     0.004 C 
ENDBRANCH  24  25
ENDBRANCH  23  24
ENDBRANCH  22  23
ENDBRANCH  21  22
ENDBRANCH  20  21
ENDBRANCH  19  20
ENDBRANCH  18  19
ENDBRANCH  17  18
ENDBRANCH  16  17
ENDBRANCH  15  16
ENDBRANCH   1  15
TORSDOF 22
ENDMDL
MODEL 3
REMARK VINA RESULT:    -5.983      2.042      6.033
REMARK INTER + INTRA:         -17.500
REMARK INTER:                 -14.020
REMARK INTRA:                  -3.480
REMARK UNBOUND:                -3.822
REMARK SMILES CCCCCCCCCCCCCCCCCCCCCCCC(=O)[O-]
REMARK SMILES IDX 13 1 14 2 15 3 16 4 17 5 18 6 19 7 20 8 21 9 22 10 23 11
REMARK SMILES IDX 24 12 25 13 26 14 12 15 11 16 10 17 9 18 8 19 7 20 6 21 5 22
REMARK SMILES IDX 4 23 3 24 2 25 1 26
REMARK H PARENT
REMARK Flexibility Score: inf
ROOT
ATOM      1  C   UNL     1      14.436  -1.833  18.136  1.00  0.00     0.000 C 
ENDROOT
BRANCH   1   2
ATOM      2  C   UNL     1      13.619  -0.590  18.529  1.00  0.00     0.000 C 
BRANCH   2   3
ATOM      3  C   UNL     1      13.570  -0.370  20.049  1.00  0.00     0.000 C 
BRANCH   3   4
ATOM      4  C   UNL     1      14.674   0.578  20.549  1.00  0.00     0.000 C 
BRANCH   4   5
ATOM      5  C   UNL     1      15.017   1.668  19.521  1.00  0.00     0.000 C 
BRANCH   5   6
ATOM      6  C   UNL     1      13.843   2.625  19.262  1.00  0.00     0.000 C 
BRANCH   6   7
ATOM      7  C   UNL     1      14.214   3.667  18.195  1.00  0.00     0.000 C 
BRANCH   7   8
ATOM      8  C   UNL     1      13.182   3.749  17.056  1.00  0.00     0.000 C 
BRANCH   8   9
ATOM      9  C   UNL     1      13.230   2.581  16.048  1.00  0.00     0.000 C 
BRANCH   9  10
ATOM     10  C   UNL     1      14.599   1.891  15.910  1.00  0.00     0.006 C 
BRANCH  10  11
ATOM     11  C   UNL     1      15.538   2.618  14.939  1.00  0.00     0.053 C 
BRANCH  11  12
ATOM     12  C   UNL     1      15.124   2.370  13.524  1.00  0.00     0.041 C 
ATOM     13  O   UNL     1      15.240   3.282  12.663  1.00  0.00    -0.550 OA
ATOM     14  O   UNL     1      14.571   1.147  13.161  1.00  0.00    -0.550 OA
ENDBRANCH  11  12
ENDBRANCH  10  11
ENDBRANCH   9  10
ENDBRANCH   8   9
ENDBRANCH   7   8
ENDBRANCH   6   7
ENDBRANCH   5   6
ENDBRANCH   4   5
ENDBRANCH   3   4
ENDBRANCH   2   3
ENDBRANCH   1   2
BRANCH   1  15
ATOM     15  C   UNL     1      15.492  -1.532  17.060  1.00  0.00     0.000 C 
BRANCH  15  16
ATOM     16  C   UNL     1      16.702  -2.479  17.137  1.00  0.00     0.000 C 
BRANCH  16  17
ATOM     17  C   UNL     1      17.794  -1.973  18.105  1.00  0.00     0.000 C 
BRANCH  17  18
ATOM     18  C   UNL     1      17.471  -0.615  18.759  1.00  0.00    -0.000 C 
BRANCH  18  19
ATOM     19  C   UNL     1      18.286   0.580  18.227  1.00  0.00    -0.000 C 
BRANCH  19  20
ATOM     20  C   UNL     1      18.284   0.744  16.696  1.00  0.00    -0.000 C 
BRANCH  20  21
ATOM     21  C   UNL     1      19.564   0.205  16.033  1.00  0.00    -0.000 C 
BRANCH  21  22
ATOM     22  C   UNL     1      19.288  -0.426  14.658  1.00  0.00    -0.000 C 
BRANCH  22  23
ATOM     23  C   UNL     1      17.800  -0.361  14.269  1.00  0.00    -0.000 C 
BRANCH  23  24
ATOM     24  C   UNL     1      17.580  -0.466  12.753  1.00  0.00    -0.000 C 
BRANCH  24  25
ATOM     25  C   UNL     1      18.144   0.739  11.985  1.00  0.00    -0.003 C 
ATOM     26  C   UNL     1      17.287   1.060  10.764  1.00  0.00     0.004 C 
ENDBRANCH  24  25
ENDBRANCH  23  24
ENDBRANCH  22  23
ENDBRANCH  21  22
ENDBRANCH  20  21
ENDBRANCH  19  20
ENDBRANCH  18  19
ENDBRANCH  17  18
ENDBRANCH  16  17
ENDBRANCH  15  16
ENDBRANCH   1  15
TORSDOF 22
ENDMDL
MODEL 4
REMARK VINA RESULT:    -5.982      1.367      6.230
REMARK INTER + INTRA:         -17.499
REMARK INTER:                 -14.135
REMARK INTRA:                  -3.364
REMARK UNBOUND:                -3.822
REMARK SMILES CCCCCCCCCCCCCCCCCCCCCCCC(=O)[O-]
REMARK SMILES IDX 13 1 14 2 15 3 16 4 17 5 18 6 19 7 20 8 21 9 22 10 23 11
REMARK SMILES IDX 24 12 25 13 26 14 12 15 11 16 10 17 9 18 8 19 7 20 6 21 5 22
REMARK SMILES IDX 4 23 3 24 2 25 1 26
REMARK H PARENT
REMARK Flexibility Score: inf
ROOT
ATOM      1  C   UNL     1      13.019   3.514  17.755  1.00  0.00     0.000 C 
ENDROOT
BRANCH   1   2
ATOM      2  C   UNL     1      14.009   3.600  18.931  1.00  0.00     0.000 C 
BRANCH   2   3
ATOM      3  C   UNL     1      14.752   2.278  19.177  1.00  0.00     0.000 C 
BRANCH   3   4
ATOM      4  C   UNL     1      14.767   1.872  20.661  1.00  0.00     0.000 C 
BRANCH   4   5
ATOM      5  C   UNL     1      14.967   0.359  20.851  1.00  0.00     0.000 C 
BRANCH   5   6
ATOM      6  C   UNL     1      13.637  -0.400  20.977  1.00  0.00     0.000 C 
BRANCH   6   7
ATOM      7  C   UNL     1      13.072  -0.745  19.590  1.00  0.00     0.000 C 
BRANCH   7   8
ATOM      8  C   UNL     1      14.052  -1.565  18.733  1.00  0.00     0.000 C 
BRANCH   8   9
ATOM      9  C   UNL     1      14.414  -0.932  17.373  1.00  0.00     0.000 C 
BRANCH   9  10
ATOM     10  C   UNL     1      15.875  -1.125  16.929  1.00  0.00     0.006 C 
BRANCH  10  11
ATOM     11  C   UNL     1      16.811  -0.032  17.462  1.00  0.00     0.053 C 
BRANCH  11  12
ATOM     12  C   UNL     1      17.583  -0.533  18.642  1.00  0.00     0.041 C 
ATOM     13  O   UNL     1      18.141   0.283  19.423  1.00  0.00    -0.550 OA
ATOM     14  O   UNL     1      17.723  -1.898  18.857  1.00  0.00    -0.550 OA
ENDBRANCH  11  12
ENDBRANCH  10  11
ENDBRANCH   9  10
ENDBRANCH   8   9
ENDBRANCH   7   8
ENDBRANCH   6   7
ENDBRANCH   5   6
ENDBRANCH   4   5
ENDBRANCH   3   4
ENDBRANCH   2   3
ENDBRANCH   1   2
BRANCH   1  15
ATOM     15  C   UNL     1      13.270   2.291  16.859  1.00  0.00     0.000 C 
BRANCH  15  16
ATOM     16  C   UNL     1      13.236   2.639  15.360  1.00  0.00     0.000 C 
BRANCH  16  17
ATOM     17  C   UNL     1      14.294   1.864  14.545  1.00  0.00     0.000 C 
BRANCH  17  18
ATOM     18  C   UNL     1      15.464   2.736  14.048  1.00  0.00    -0.000 C 
BRANCH  18  19
ATOM     19  C   UNL     1      15.493   2.991  12.528  1.00  0.00    -0.000 C 
BRANCH  19  20
ATOM     20  C   UNL     1      15.769   1.749  11.661  1.00  0.00    -0.000 C 
BRANCH  20  21
ATOM     21  C   UNL     1      17.151   1.784  10.984  1.00  0.00    -0.000 C 
BRANCH  21  22
ATOM     22  C   UNL     1      18.115   0.740  11.571  1.00  0.00    -0.000 C 
BRANCH  22  23
ATOM     23  C   UNL     1      17.457  -0.115  12.671  1.00  0.00    -0.000 C 
BRANCH  23  24
ATOM     24  C   UNL     1      18.200  -0.025  14.012  1.00  0.00    -0.000 C 
BRANCH  24  25
ATOM     25  C   UNL     1      19.119  -1.230  14.264  1.00  0.00    -0.003 C 
ATOM     26  C   UNL     1      19.949  -1.030  15.529  1.00  0.00     0.004 C 
ENDBRANCH  24  25
ENDBRANCH  23  24
ENDBRANCH  22  23
ENDBRANCH  21  22
ENDBRANCH  20  21
ENDBRANCH  19  20
ENDBRANCH  18  19
ENDBRANCH  17  18
ENDBRANCH  16  17
ENDBRANCH  15  16
ENDBRANCH   1  15
TORSDOF 22
ENDMDL
MODEL 5
REMARK VINA RESULT:    -5.951      3.205      5.345
REMARK INTER + INTRA:         -17.426
REMARK INTER:                 -14.579
REMARK INTRA:                  -2.847
REMARK UNBOUND:                -3.822
REMARK SMILES CCCCCCCCCCCCCCCCCCCCCCCC(=O)[O-]
REMARK SMILES IDX 13 1 14 2 15 3 16 4 17 5 18 6 19 7 20 8 21 9 22 10 23 11
REMARK SMILES IDX 24 12 25 13 26 14 12 15 11 16 10 17 9 18 8 19 7 20 6 21 5 22
REMARK SMILES IDX 4 23 3 24 2 25 1 26
REMARK H PARENT
REMARK Flexibility Score: inf
ROOT
ATOM      1  C   UNL     1      16.388  -0.390  14.276  1.00  0.00     0.000 C 
ENDROOT
BRANCH   1   2
ATOM      2  C   UNL     1      15.585   0.473  15.266  1.00  0.00     0.000 C 
BRANCH   2   3
ATOM      3  C   UNL     1      15.714   1.977  14.980  1.00  0.00     0.000 C 
BRANCH   3   4
ATOM      4  C   UNL     1      14.761   2.456  13.871  1.00  0.00     0.000 C 
BRANCH   4   5
ATOM      5  C   UNL     1      15.516   2.969  12.634  1.00  0.00     0.000 C 
BRANCH   5   6
ATOM      6  C   UNL     1      15.730   1.874  11.579  1.00  0.00     0.000 C 
BRANCH   6   7
ATOM      7  C   UNL     1      17.171   1.907  11.044  1.00  0.00     0.000 C 
BRANCH   7   8
ATOM      8  C   UNL     1      17.667   0.526  10.579  1.00  0.00     0.000 C 
BRANCH   8   9
ATOM      9  C   UNL     1      17.524   0.259   9.065  1.00  0.00     0.000 C 
BRANCH   9  10
ATOM     10  C   UNL     1      18.838   0.310   8.265  1.00  0.00     0.006 C 
BRANCH  10  11
ATOM     11  C   UNL     1      18.857   1.434   7.221  1.00  0.00     0.053 C 
BRANCH  11  12
ATOM     12  C   UNL     1      20.242   1.632   6.690  1.00  0.00     0.041 C 
ATOM     13  O   UNL     1      20.995   0.640   6.506  1.00  0.00    -0.550 OA
ATOM     14  O   UNL     1      20.716   2.914   6.438  1.00  0.00    -0.550 OA
ENDBRANCH  11  12
ENDBRANCH  10  11
ENDBRANCH   9  10
ENDBRANCH   8   9
ENDBRANCH   7   8
ENDBRANCH   6   7
ENDBRANCH   5   6
ENDBRANCH   4   5
ENDBRANCH   3   4
ENDBRANCH   2   3
ENDBRANCH   1   2
BRANCH   1  15
ATOM     15  C   UNL     1      17.869   0.013  14.206  1.00  0.00     0.000 C 
BRANCH  15  16
ATOM     16  C   UNL     1      18.773  -1.133  13.717  1.00  0.00     0.000 C 
BRANCH  16  17
ATOM     17  C   UNL     1      19.678  -1.694  14.835  1.00  0.00     0.000 C 
BRANCH  17  18
ATOM     18  C   UNL     1      19.192  -1.367  16.260  1.00  0.00    -0.000 C 
BRANCH  18  19
ATOM     19  C   UNL     1      18.136  -2.333  16.832  1.00  0.00    -0.000 C 
BRANCH  19  20
ATOM     20  C   UNL     1      17.311  -1.779  18.008  1.00  0.00    -0.000 C 
BRANCH  20  21
ATOM     21  C   UNL     1      17.559  -0.281  18.263  1.00  0.00    -0.000 C 
BRANCH  21  22
ATOM     22  C   UNL     1      16.941   0.195  19.588  1.00  0.00    -0.000 C 
BRANCH  22  23
ATOM     23  C   UNL     1      15.611  -0.513  19.905  1.00  0.00    -0.000 C 
BRANCH  23  24
ATOM     24  C   UNL     1      14.486   0.473  20.255  1.00  0.00    -0.000 C 
BRANCH  24  25
ATOM     25  C   UNL     1      14.690   1.857  19.618  1.00  0.00    -0.003 C 
ATOM     26  C   UNL     1      13.865   1.999  18.343  1.00  0.00     0.004 C 
ENDBRANCH  24  25
ENDBRANCH  23  24
ENDBRANCH  22  23
ENDBRANCH  21  22
ENDBRANCH  20  21
ENDBRANCH  19  20
ENDBRANCH  18  19
ENDBRANCH  17  18
ENDBRANCH  16  17
ENDBRANCH  15  16
ENDBRANCH   1  15
TORSDOF 22
ENDMDL
MODEL 6
REMARK VINA RESULT:    -5.932      2.072      4.871
REMARK INTER + INTRA:         -17.384
REMARK INTER:                 -13.787
REMARK INTRA:                  -3.597
REMARK UNBOUND:                -3.822
REMARK SMILES CCCCCCCCCCCCCCCCCCCCCCCC(=O)[O-]
REMARK SMILES IDX 13 1 14 2 15 3 16 4 17 5 18 6 19 7 20 8 21 9 22 10 23 11
REMARK SMILES IDX 24 12 25 13 26 14 12 15 11 16 10 17 9 18 8 19 7 20 6 21 5 22
REMARK SMILES IDX 4 23 3 24 2 25 1 26
REMARK H PARENT
REMARK Flexibility Score: inf
ROOT
ATOM      1  C   UNL     1      19.336  -2.031  15.450  1.00  0.00     0.000 C 
ENDROOT
BRANCH   1   2
ATOM      2  C   UNL     1      19.471  -0.537  15.103  1.00  0.00     0.000 C 
BRANCH   2   3
ATOM      3  C   UNL     1      19.062   0.380  16.266  1.00  0.00     0.000 C 
BRANCH   3   4
ATOM      4  C   UNL     1      17.635   0.936  16.111  1.00  0.00     0.000 C 
BRANCH   4   5
ATOM      5  C   UNL     1      17.032   0.624  14.732  1.00  0.00     0.000 C 
BRANCH   5   6
ATOM      6  C   UNL     1      15.545   0.246  14.811  1.00  0.00     0.000 C 
BRANCH   6   7
ATOM      7  C   UNL     1      14.709   1.119  13.862  1.00  0.00     0.000 C 
BRANCH   7   8
ATOM      8  C   UNL     1      15.184   2.583  13.824  1.00  0.00     0.000 C 
BRANCH   8   9
ATOM      9  C   UNL     1      15.586   3.100  12.427  1.00  0.00     0.000 C 
BRANCH   9  10
ATOM     10  C   UNL     1      15.881   2.007  11.384  1.00  0.00     0.006 C 
BRANCH  10  11
ATOM     11  C   UNL     1      17.383   1.781  11.165  1.00  0.00     0.053 C 
BRANCH  11  12
ATOM     12  C   UNL     1      17.612   0.585  10.297  1.00  0.00     0.041 C 
ATOM     13  O   UNL     1      17.360  -0.569  10.733  1.00  0.00    -0.550 OA
ATOM     14  O   UNL     1      18.142   0.738   9.021  1.00  0.00    -0.550 OA
ENDBRANCH  11  12
ENDBRANCH  10  11
ENDBRANCH   9  10
ENDBRANCH   8   9
ENDBRANCH   7   8
ENDBRANCH   6   7
ENDBRANCH   5   6
ENDBRANCH   4   5
ENDBRANCH   3   4
ENDBRANCH   2   3
ENDBRANCH   1   2
BRANCH   1  15
ATOM     15  C   UNL     1      18.680  -2.264  16.820  1.00  0.00     0.000 C 
BRANCH  15  16
ATOM     16  C   UNL     1      17.193  -2.642  16.707  1.00  0.00     0.000 C 
BRANCH  16  17
ATOM     17  C   UNL     1      16.305  -1.870  17.707  1.00  0.00     0.000 C 
BRANCH  17  18
ATOM     18  C   UNL     1      16.939  -1.689  19.099  1.00  0.00    -0.000 C 
BRANCH  18  19
ATOM     19  C   UNL     1      17.284  -0.236  19.481  1.00  0.00    -0.000 C 
BRANCH  19  20
ATOM     20  C   UNL     1      16.100   0.748  19.446  1.00  0.00    -0.000 C 
BRANCH  20  21
ATOM     21  C   UNL     1      14.802   0.147  20.013  1.00  0.00    -0.000 C 
BRANCH  21  22
ATOM     22  C   UNL     1      13.575   0.490  19.151  1.00  0.00    -0.000 C 
BRANCH  22  23
ATOM     23  C   UNL     1      13.930   1.396  17.957  1.00  0.00    -0.000 C 
BRANCH  23  24
ATOM     24  C   UNL     1      13.104   2.691  17.933  1.00  0.00    -0.000 C 
BRANCH  24  25
ATOM     25  C   UNL     1      13.936   3.918  17.527  1.00  0.00    -0.003 C 
ATOM     26  C   UNL     1      15.360   3.514  17.156  1.00  0.00     0.004 C 
ENDBRANCH  24  25
ENDBRANCH  23  24
ENDBRANCH  22  23
ENDBRANCH  21  22
ENDBRANCH  20  21
ENDBRANCH  19  20
ENDBRANCH  18  19
ENDBRANCH  17  18
ENDBRANCH  16  17
ENDBRANCH  15  16
ENDBRANCH   1  15
TORSDOF 22
ENDMDL
MODEL 7
REMARK VINA RESULT:    -5.863      1.900      4.247
REMARK INTER + INTRA:         -17.225
REMARK INTER:                 -14.408
REMARK INTRA:                  -2.817
REMARK UNBOUND:                -3.822
REMARK SMILES CCCCCCCCCCCCCCCCCCCCCCCC(=O)[O-]
REMARK SMILES IDX 13 1 14 2 15 3 16 4 17 5 18 6 19 7 20 8 21 9 22 10 23 11
REMARK SMILES IDX 24 12 25 13 26 14 12 15 11 16 10 17 9 18 8 19 7 20 6 21 5 22
REMARK SMILES IDX 4 23 3 24 2 25 1 26
REMARK H PARENT
REMARK Flexibility Score: inf
ROOT
ATOM      1  C   UNL     1      14.750   1.654  20.595  1.00  0.00     0.000 C 
ENDROOT
BRANCH   1   2
ATOM      2  C   UNL     1      14.909   2.048  19.116  1.00  0.00     0.000 C 
BRANCH   2   3
ATOM      3  C   UNL     1      14.110   3.308  18.750  1.00  0.00     0.000 C 
BRANCH   3   4
ATOM      4  C   UNL     1      12.900   3.005  17.848  1.00  0.00     0.000 C 
BRANCH   4   5
ATOM      5  C   UNL     1      13.227   3.175  16.356  1.00  0.00     0.000 C 
BRANCH   5   6
ATOM      6  C   UNL     1      14.061   2.012  15.799  1.00  0.00     0.000 C 
BRANCH   6   7
ATOM      7  C   UNL     1      15.308   2.534  15.069  1.00  0.00     0.000 C 
BRANCH   7   8
ATOM      8  C   UNL     1      15.095   2.681  13.552  1.00  0.00     0.000 C 
BRANCH   8   9
ATOM      9  C   UNL     1      15.509   1.453  12.715  1.00  0.00     0.000 C 
BRANCH   9  10
ATOM     10  C   UNL     1      16.537   0.521  13.382  1.00  0.00     0.006 C 
BRANCH  10  11
ATOM     11  C   UNL     1      17.797   0.317  12.532  1.00  0.00     0.053 C 
BRANCH  11  12
ATOM     12  C   UNL     1      17.612   0.906  11.169  1.00  0.00     0.041 C 
ATOM     13  O   UNL     1      17.277   0.170  10.204  1.00  0.00    -0.550 OA
ATOM     14  O   UNL     1      17.849   2.258  10.954  1.00  0.00    -0.550 OA
ENDBRANCH  11  12
ENDBRANCH  10  11
ENDBRANCH   9  10
ENDBRANCH   8   9
ENDBRANCH   7   8
ENDBRANCH   6   7
ENDBRANCH   5   6
ENDBRANCH   4   5
ENDBRANCH   3   4
ENDBRANCH   2   3
ENDBRANCH   1   2
BRANCH   1  15
ATOM     15  C   UNL     1      14.681   0.132  20.798  1.00  0.00     0.000 C 
BRANCH  15  16
ATOM     16  C   UNL     1      13.482  -0.508  20.078  1.00  0.00     0.000 C 
BRANCH  16  17
ATOM     17  C   UNL     1      13.709  -0.655  18.558  1.00  0.00     0.000 C 
BRANCH  17  18
ATOM     18  C   UNL     1      14.241  -2.038  18.134  1.00  0.00    -0.000 C 
BRANCH  18  19
ATOM     19  C   UNL     1      15.683  -2.049  17.592  1.00  0.00    -0.000 C 
BRANCH  19  20
ATOM     20  C   UNL     1      16.783  -1.845  18.651  1.00  0.00    -0.000 C 
BRANCH  20  21
ATOM     21  C   UNL     1      17.512  -0.497  18.507  1.00  0.00    -0.000 C 
BRANCH  21  22
ATOM     22  C   UNL     1      17.419   0.068  17.080  1.00  0.00    -0.000 C 
BRANCH  22  23
ATOM     23  C   UNL     1      18.712   0.780  16.644  1.00  0.00    -0.000 C 
BRANCH  23  24
ATOM     24  C   UNL     1      19.607  -0.107  15.765  1.00  0.00    -0.000 C 
BRANCH  24  25
ATOM     25  C   UNL     1      18.947  -1.447  15.407  1.00  0.00    -0.003 C 
ATOM     26  C   UNL     1      19.963  -2.585  15.447  1.00  0.00     0.004 C 
ENDBRANCH  24  25
ENDBRANCH  23  24
ENDBRANCH  22  23
ENDBRANCH  21  22
ENDBRANCH  20  21
ENDBRANCH  19  20
ENDBRANCH  18  19
ENDBRANCH  17  18
ENDBRANCH  16  17
ENDBRANCH  15  16
ENDBRANCH   1  15
TORSDOF 22
ENDMDL
MODEL 8
REMARK VINA RESULT:    -5.797      2.240      7.282
REMARK INTER + INTRA:         -17.074
REMARK INTER:                 -14.854
REMARK INTRA:                  -2.220
REMARK UNBOUND:                -3.822
REMARK SMILES CCCCCCCCCCCCCCCCCCCCCCCC(=O)[O-]
REMARK SMILES IDX 13 1 14 2 15 3 16 4 17 5 18 6 19 7 20 8 21 9 22 10 23 11
REMARK SMILES IDX 24 12 25 13 26 14 12 15 11 16 10 17 9 18 8 19 7 20 6 21 5 22
REMARK SMILES IDX 4 23 3 24 2 25 1 26
REMARK H PARENT
REMARK Flexibility Score: inf
ROOT
ATOM      1  C   UNL     1      13.193   3.328  16.655  1.00  0.00     0.000 C 
ENDROOT
BRANCH   1   2
ATOM      2  C   UNL     1      14.375   3.370  17.640  1.00  0.00     0.000 C 
BRANCH   2   3
ATOM      3  C   UNL     1      14.137   2.507  18.888  1.00  0.00     0.000 C 
BRANCH   3   4
ATOM      4  C   UNL     1      13.701   1.072  18.545  1.00  0.00     0.000 C 
BRANCH   4   5
ATOM      5  C   UNL     1      14.032   0.077  19.669  1.00  0.00     0.000 C 
BRANCH   5   6
ATOM      6  C   UNL     1      15.407   0.339  20.302  1.00  0.00     0.000 C 
BRANCH   6   7
ATOM      7  C   UNL     1      16.492  -0.511  19.621  1.00  0.00     0.000 C 
BRANCH   7   8
ATOM      8  C   UNL     1      17.683   0.327  19.124  1.00  0.00     0.000 C 
BRANCH   8   9
ATOM      9  C   UNL     1      17.611   0.745  17.641  1.00  0.00     0.000 C 
BRANCH   9  10
ATOM     10  C   UNL     1      17.016  -0.310  16.691  1.00  0.00     0.006 C 
BRANCH  10  11
ATOM     11  C   UNL     1      18.024  -1.400  16.304  1.00  0.00     0.053 C 
BRANCH  11  12
ATOM     12  C   UNL     1      18.983  -0.886  15.278  1.00  0.00     0.041 C 
ATOM     13  O   UNL     1      18.577  -0.597  14.122  1.00  0.00    -0.550 OA
ATOM     14  O   UNL     1      20.334  -0.766  15.583  1.00  0.00    -0.550 OA
ENDBRANCH  11  12
ENDBRANCH  10  11
ENDBRANCH   9  10
ENDBRANCH   8   9
ENDBRANCH   7   8
ENDBRANCH   6   7
ENDBRANCH   5   6
ENDBRANCH   4   5
ENDBRANCH   3   4
ENDBRANCH   2   3
ENDBRANCH   1   2
BRANCH   1  15
ATOM     15  C   UNL     1      13.504   2.510  15.392  1.00  0.00     0.000 C 
BRANCH  15  16
ATOM     16  C   UNL     1      15.012   2.280  15.191  1.00  0.00     0.000 C 
BRANCH  16  17
ATOM     17  C   UNL     1      15.494   2.688  13.781  1.00  0.00     0.000 C 
BRANCH  17  18
ATOM     18  C   UNL     1      15.124   1.680  12.676  1.00  0.00    -0.000 C 
BRANCH  18  19
ATOM     19  C   UNL     1      15.926   1.816  11.368  1.00  0.00    -0.000 C 
BRANCH  19  20
ATOM     20  C   UNL     1      17.370   1.285  11.426  1.00  0.00    -0.000 C 
BRANCH  20  21
ATOM     21  C   UNL     1      18.112   1.414  10.083  1.00  0.00    -0.000 C 
BRANCH  21  22
ATOM     22  C   UNL     1      17.667   0.351   9.066  1.00  0.00    -0.000 C 
BRANCH  22  23
ATOM     23  C   UNL     1      18.745   0.066   8.003  1.00  0.00    -0.000 C 
BRANCH  23  24
ATOM     24  C   UNL     1      19.065   1.297   7.142  1.00  0.00    -0.000 C 
BRANCH  24  25
ATOM     25  C   UNL     1      20.550   1.385   6.760  1.00  0.00    -0.003 C 
ATOM     26  C   UNL     1      21.132  -0.003   6.505  1.00  0.00     0.004 C 
ENDBRANCH  24  25
ENDBRANCH  23  24
ENDBRANCH  22  23
ENDBRANCH  21  22
ENDBRANCH  20  21
ENDBRANCH  19  20
ENDBRANCH  18  19
ENDBRANCH  17  18
ENDBRANCH  16  17
ENDBRANCH  15  16
ENDBRANCH   1  15
TORSDOF 22
ENDMDL
MODEL 9
REMARK VINA RESULT:    -5.781      1.903      4.762
REMARK INTER + INTRA:         -17.039
REMARK INTER:                 -13.550
REMARK INTRA:                  -3.489
REMARK UNBOUND:                -3.822
REMARK SMILES CCCCCCCCCCCCCCCCCCCCCCCC(=O)[O-]
REMARK SMILES IDX 13 1 14 2 15 3 16 4 17 5 18 6 19 7 20 8 21 9 22 10 23 11
REMARK SMILES IDX 24 12 25 13 26 14 12 15 11 16 10 17 9 18 8 19 7 20 6 21 5 22
REMARK SMILES IDX 4 23 3 24 2 25 1 26
REMARK H PARENT
REMARK Flexibility Score: inf
ROOT
ATOM      1  C   UNL     1      15.567  -1.863  17.109  1.00  0.00     0.000 C 
ENDROOT
BRANCH   1   2
ATOM      2  C   UNL     1      17.095  -1.853  17.290  1.00  0.00     0.000 C 
BRANCH   2   3
ATOM      3  C   UNL     1      17.528  -1.250  18.636  1.00  0.00     0.000 C 
BRANCH   3   4
ATOM      4  C   UNL     1      17.747   0.271  18.564  1.00  0.00     0.000 C 
BRANCH   4   5
ATOM      5  C   UNL     1      18.124   0.740  17.149  1.00  0.00     0.000 C 
BRANCH   5   6
ATOM      6  C   UNL     1      19.642   0.735  16.912  1.00  0.00     0.000 C 
BRANCH   6   7
ATOM      7  C   UNL     1      19.962   0.444  15.438  1.00  0.00     0.000 C 
BRANCH   7   8
ATOM      8  C   UNL     1      19.610  -0.996  15.022  1.00  0.00     0.000 C 
BRANCH   8   9
ATOM      9  C   UNL     1      18.904  -1.125  13.657  1.00  0.00     0.000 C 
BRANCH   9  10
ATOM     10  C   UNL     1      17.850  -0.043  13.359  1.00  0.00     0.006 C 
BRANCH  10  11
ATOM     11  C   UNL     1      17.350  -0.079  11.910  1.00  0.00     0.053 C 
BRANCH  11  12
ATOM     12  C   UNL     1      16.983   1.295  11.447  1.00  0.00     0.041 C 
ATOM     13  O   UNL     1      17.881   2.097  11.076  1.00  0.00    -0.550 OA
ATOM     14  O   UNL     1      15.656   1.707  11.464  1.00  0.00    -0.550 OA
ENDBRANCH  11  12
ENDBRANCH  10  11
ENDBRANCH   9  10
ENDBRANCH   8   9
ENDBRANCH   7   8
ENDBRANCH   6   7
ENDBRANCH   5   6
ENDBRANCH   4   5
ENDBRANCH   3   4
ENDBRANCH   2   3
ENDBRANCH   1   2
BRANCH   1  15
ATOM     15  C   UNL     1      14.812  -1.926  18.445  1.00  0.00     0.000 C 
BRANCH  15  16
ATOM     16  C   UNL     1      13.667  -0.902  18.528  1.00  0.00     0.000 C 
BRANCH  16  17
ATOM     17  C   UNL     1      13.437  -0.380  19.963  1.00  0.00     0.000 C 
BRANCH  17  18
ATOM     18  C   UNL     1      14.689   0.242  20.612  1.00  0.00    -0.000 C 
BRANCH  18  19
ATOM     19  C   UNL     1      14.831   1.766  20.437  1.00  0.00    -0.000 C 
BRANCH  19  20
ATOM     20  C   UNL     1      14.709   2.273  18.988  1.00  0.00    -0.000 C 
BRANCH  20  21
ATOM     21  C   UNL     1      13.930   3.596  18.878  1.00  0.00    -0.000 C 
BRANCH  21  22
ATOM     22  C   UNL     1      13.013   3.632  17.644  1.00  0.00    -0.000 C 
BRANCH  22  23
ATOM     23  C   UNL     1      13.179   2.390  16.751  1.00  0.00    -0.000 C 
BRANCH  23  24
ATOM     24  C   UNL     1      13.076   2.720  15.254  1.00  0.00    -0.000 C 
BRANCH  24  25
ATOM     25  C   UNL     1      14.222   2.111  14.431  1.00  0.00    -0.003 C 
ATOM     26  C   UNL     1      15.197   1.355  15.329  1.00  0.00     0.004 C 
ENDBRANCH  24  25
ENDBRANCH  23  24
ENDBRANCH  22  23
ENDBRANCH  21  22
ENDBRANCH  20  21
ENDBRANCH  19  20
ENDBRANCH  18  19
ENDBRANCH  17  18
ENDBRANCH  16  17
ENDBRANCH  15  16
ENDBRANCH   1  15
TORSDOF 22
ENDMDL
