MODEL 1
REMARK VINA RESULT:    -4.137      0.000      0.000
REMARK INTER + INTRA:          -9.236
REMARK INTER:                  -7.522
REMARK INTRA:                  -1.714
REMARK UNBOUND:                -1.714
REMARK SMILES CCCCCCCCCCCCCCCC(=O)[O-]
REMARK SMILES IDX 9 1 10 2 11 3 12 4 13 5 14 6 15 7 16 8 17 9 18 10 8 11 7 12
REMARK SMILES IDX 6 13 5 14 4 15 3 16 2 17 1 18
REMARK H PARENT
REMARK Flexibility Score: inf
ROOT
ATOM      1  C   UNL     1       5.962  -2.389  -9.690  1.00  0.00     0.000 C 
ENDROOT
BRANCH   1   2
ATOM      2  C   UNL     1       7.465  -2.664  -9.504  1.00  0.00     0.000 C 
BRANCH   2   3
ATOM      3  C   UNL     1       8.026  -2.061  -8.202  1.00  0.00     0.000 C 
BRANCH   3   4
ATOM      4  C   UNL     1       8.822  -3.046  -7.325  1.00  0.00     0.000 C 
BRANCH   4   5
ATOM      5  C   UNL     1       7.929  -3.830  -6.348  1.00  0.00     0.000 C 
BRANCH   5   6
ATOM      6  C   UNL     1       8.020  -5.355  -6.552  1.00  0.00     0.006 C 
BRANCH   6   7
ATOM      7  C   UNL     1       6.824  -5.965  -7.303  1.00  0.00     0.053 C 
BRANCH   7   8
ATOM      8  C   UNL     1       5.863  -6.638  -6.370  1.00  0.00     0.041 C 
ATOM      9  O   UNL     1       4.986  -7.420  -6.823  1.00  0.00    -0.550 OA
ATOM     10  O   UNL     1       5.960  -6.432  -4.999  1.00  0.00    -0.550 OA
ENDBRANCH   7   8
ENDBRANCH   6   7
ENDBRANCH   5   6
ENDBRANCH   4   5
ENDBRANCH   3   4
ENDBRANCH   2   3
ENDBRANCH   1   2
BRANCH   1  11
ATOM     11  C   UNL     1       5.124  -3.676  -9.743  1.00  0.00     0.000 C 
BRANCH  11  12
ATOM     12  C   UNL     1       4.050  -3.735  -8.645  1.00  0.00    -0.000 C 
BRANCH  12  13
ATOM     13  C   UNL     1       4.507  -2.979  -7.391  1.00  0.00    -0.000 C 
BRANCH  13  14
ATOM     14  C   UNL     1       4.048  -3.700  -6.115  1.00  0.00    -0.000 C 
BRANCH  14  15
ATOM     15  C   UNL     1       2.605  -3.347  -5.721  1.00  0.00    -0.000 C 
BRANCH  15  16
ATOM     16  C   UNL     1       2.531  -2.380  -4.530  1.00  0.00    -0.000 C 
BRANCH  16  17
ATOM     17  C   UNL     1       1.975  -3.086  -3.288  1.00  0.00    -0.003 C 
ATOM     18  C   UNL     1       2.380  -2.361  -2.010  1.00  0.00     0.004 C 
ENDBRANCH  16  17
ENDBRANCH  15  16
ENDBRANCH  14  15
ENDBRANCH  13  14
ENDBRANCH  12  13
ENDBRANCH  11  12
ENDBRANCH   1  11
TORSDOF 14
ENDMDL
MODEL 2
REMARK VINA RESULT:    -3.925      2.262      4.655
REMARK INTER + INTRA:          -8.851
REMARK INTER:                  -6.752
REMARK INTRA:                  -2.099
REMARK UNBOUND:                -1.714
REMARK SMILES CCCCCCCCCCCCCCCC(=O)[O-]
REMARK SMILES IDX 9 1 10 2 11 3 12 4 13 5 14 6 15 7 16 8 17 9 18 10 8 11 7 12
REMARK SMILES IDX 6 13 5 14 4 15 3 16 2 17 1 18
REMARK H PARENT
REMARK Flexibility Score: inf
ROOT
ATOM      1  C   UNL     1       6.955  -2.806  -9.694  1.00  0.00     0.000 C 
ENDROOT
BRANCH   1   2
ATOM      2  C   UNL     1       5.563  -2.292 -10.103  1.00  0.00     0.000 C 
BRANCH   2   3
ATOM      3  C   UNL     1       4.574  -2.245  -8.922  1.00  0.00     0.000 C 
BRANCH   3   4
ATOM      4  C   UNL     1       5.095  -2.877  -7.618  1.00  0.00     0.000 C 
BRANCH   4   5
ATOM      5  C   UNL     1       4.127  -3.920  -7.032  1.00  0.00     0.000 C 
BRANCH   5   6
ATOM      6  C   UNL     1       3.422  -4.753  -8.119  1.00  0.00     0.006 C 
BRANCH   6   7
ATOM      7  C   UNL     1       4.292  -5.866  -8.727  1.00  0.00     0.053 C 
BRANCH   7   8
ATOM      8  C   UNL     1       4.248  -7.121  -7.908  1.00  0.00     0.041 C 
ATOM      9  O   UNL     1       3.238  -7.381  -7.204  1.00  0.00    -0.550 OA
ATOM     10  O   UNL     1       5.306  -8.021  -7.953  1.00  0.00    -0.550 OA
ENDBRANCH   7   8
ENDBRANCH   6   7
ENDBRANCH   5   6
ENDBRANCH   4   5
ENDBRANCH   3   4
ENDBRANCH   2   3
ENDBRANCH   1   2
BRANCH   1  11
ATOM     11  C   UNL     1       7.991  -1.679  -9.569  1.00  0.00     0.000 C 
BRANCH  11  12
ATOM     12  C   UNL     1       8.919  -1.853  -8.356  1.00  0.00    -0.000 C 
BRANCH  12  13
ATOM     13  C   UNL     1       9.943  -2.968  -8.605  1.00  0.00    -0.000 C 
BRANCH  13  14
ATOM     14  C   UNL     1       9.940  -3.984  -7.452  1.00  0.00    -0.000 C 
BRANCH  14  15
ATOM     15  C   UNL     1       8.609  -4.005  -6.684  1.00  0.00    -0.000 C 
BRANCH  15  16
ATOM     16  C   UNL     1       7.721  -5.201  -7.063  1.00  0.00    -0.000 C 
BRANCH  16  17
ATOM     17  C   UNL     1       7.116  -5.848  -5.811  1.00  0.00    -0.003 C 
ATOM     18  C   UNL     1       7.837  -7.144  -5.456  1.00  0.00     0.004 C 
ENDBRANCH  16  17
ENDBRANCH  15  16
ENDBRANCH  14  15
ENDBRANCH  13  14
ENDBRANCH  12  13
ENDBRANCH  11  12
ENDBRANCH   1  11
TORSDOF 14
ENDMDL
MODEL 3
REMARK VINA RESULT:    -3.904      1.468      3.202
REMARK INTER + INTRA:          -8.812
REMARK INTER:                  -7.098
REMARK INTRA:                  -1.714
REMARK UNBOUND:                -1.714
REMARK SMILES CCCCCCCCCCCCCCCC(=O)[O-]
REMARK SMILES IDX 9 1 10 2 11 3 12 4 13 5 14 6 15 7 16 8 17 9 18 10 8 11 7 12
REMARK SMILES IDX 6 13 5 14 4 15 3 16 2 17 1 18
REMARK H PARENT
REMARK Flexibility Score: inf
ROOT
ATOM      1  C   UNL     1       6.882  -3.262  -9.069  1.00  0.00     0.000 C 
ENDROOT
BRANCH   1   2
ATOM      2  C   UNL     1       5.985  -2.307  -9.877  1.00  0.00     0.000 C 
BRANCH   2   3
ATOM      3  C   UNL     1       4.553  -2.215  -9.316  1.00  0.00     0.000 C 
BRANCH   3   4
ATOM      4  C   UNL     1       3.555  -3.216  -9.927  1.00  0.00     0.000 C 
BRANCH   4   5
ATOM      5  C   UNL     1       3.351  -4.465  -9.052  1.00  0.00     0.000 C 
BRANCH   5   6
ATOM      6  C   UNL     1       3.459  -5.777  -9.852  1.00  0.00     0.006 C 
BRANCH   6   7
ATOM      7  C   UNL     1       4.654  -6.662  -9.459  1.00  0.00     0.053 C 
BRANCH   7   8
ATOM      8  C   UNL     1       4.432  -7.352  -8.147  1.00  0.00     0.041 C 
ATOM      9  O   UNL     1       5.406  -7.837  -7.515  1.00  0.00    -0.550 OA
ATOM     10  O   UNL     1       3.154  -7.424  -7.604  1.00  0.00    -0.550 OA
ENDBRANCH   7   8
ENDBRANCH   6   7
ENDBRANCH   5   6
ENDBRANCH   4   5
ENDBRANCH   3   4
ENDBRANCH   2   3
ENDBRANCH   1   2
BRANCH   1  11
ATOM     11  C   UNL     1       7.508  -2.590  -7.837  1.00  0.00     0.000 C 
BRANCH  11  12
ATOM     12  C   UNL     1       7.248  -3.367  -6.536  1.00  0.00    -0.000 C 
BRANCH  12  13
ATOM     13  C   UNL     1       6.217  -4.481  -6.761  1.00  0.00    -0.000 C 
BRANCH  13  14
ATOM     14  C   UNL     1       5.085  -4.400  -5.726  1.00  0.00    -0.000 C 
BRANCH  14  15
ATOM     15  C   UNL     1       4.038  -3.331  -6.076  1.00  0.00    -0.000 C 
BRANCH  15  16
ATOM     16  C   UNL     1       2.730  -3.496  -5.286  1.00  0.00    -0.000 C 
BRANCH  16  17
ATOM     17  C   UNL     1       2.535  -2.334  -4.306  1.00  0.00    -0.003 C 
ATOM     18  C   UNL     1       2.182  -2.840  -2.912  1.00  0.00     0.004 C 
ENDBRANCH  16  17
ENDBRANCH  15  16
ENDBRANCH  14  15
ENDBRANCH  13  14
ENDBRANCH  12  13
ENDBRANCH  11  12
ENDBRANCH   1  11
TORSDOF 14
ENDMDL
MODEL 4
REMARK VINA RESULT:    -3.829      2.316      3.462
REMARK INTER + INTRA:          -8.676
REMARK INTER:                  -6.746
REMARK INTRA:                  -1.930
REMARK UNBOUND:                -1.714
REMARK SMILES CCCCCCCCCCCCCCCC(=O)[O-]
REMARK SMILES IDX 9 1 10 2 11 3 12 4 13 5 14 6 15 7 16 8 17 9 18 10 8 11 7 12
REMARK SMILES IDX 6 13 5 14 4 15 3 16 2 17 1 18
REMARK H PARENT
REMARK Flexibility Score: inf
ROOT
ATOM      1  C   UNL     1       4.090  -6.839  -8.363  1.00  0.00     0.000 C 
ENDROOT
BRANCH   1   2
ATOM      2  C   UNL     1       5.293  -7.786  -8.520  1.00  0.00     0.000 C 
BRANCH   2   3
ATOM      3  C   UNL     1       6.447  -7.451  -7.555  1.00  0.00     0.000 C 
BRANCH   3   4
ATOM      4  C   UNL     1       6.075  -6.482  -6.417  1.00  0.00     0.000 C 
BRANCH   4   5
ATOM      5  C   UNL     1       7.076  -5.323  -6.269  1.00  0.00     0.000 C 
BRANCH   5   6
ATOM      6  C   UNL     1       7.917  -5.098  -7.540  1.00  0.00     0.006 C 
BRANCH   6   7
ATOM      7  C   UNL     1       7.198  -4.300  -8.641  1.00  0.00     0.053 C 
BRANCH   7   8
ATOM      8  C   UNL     1       7.263  -2.822  -8.394  1.00  0.00     0.041 C 
ATOM      9  O   UNL     1       6.370  -2.065  -8.855  1.00  0.00    -0.550 OA
ATOM     10  O   UNL     1       8.288  -2.288  -7.623  1.00  0.00    -0.550 OA
ENDBRANCH   7   8
ENDBRANCH   6   7
ENDBRANCH   5   6
ENDBRANCH   4   5
ENDBRANCH   3   4
ENDBRANCH   2   3
ENDBRANCH   1   2
BRANCH   1  11
ATOM     11  C   UNL     1       4.022  -5.777  -9.472  1.00  0.00     0.000 C 
BRANCH  11  12
ATOM     12  C   UNL     1       3.450  -4.437  -8.981  1.00  0.00    -0.000 C 
BRANCH  12  13
ATOM     13  C   UNL     1       3.102  -4.504  -7.489  1.00  0.00    -0.000 C 
BRANCH  13  14
ATOM     14  C   UNL     1       3.966  -3.526  -6.678  1.00  0.00    -0.000 C 
BRANCH  14  15
ATOM     15  C   UNL     1       3.638  -3.550  -5.177  1.00  0.00    -0.000 C 
BRANCH  15  16
ATOM     16  C   UNL     1       2.506  -2.582  -4.798  1.00  0.00    -0.000 C 
BRANCH  16  17
ATOM     17  C   UNL     1       1.851  -3.001  -3.476  1.00  0.00    -0.003 C 
ATOM     18  C   UNL     1       2.561  -2.372  -2.283  1.00  0.00     0.004 C 
ENDBRANCH  16  17
ENDBRANCH  15  16
ENDBRANCH  14  15
ENDBRANCH  13  14
ENDBRANCH  12  13
ENDBRANCH  11  12
ENDBRANCH   1  11
TORSDOF 14
ENDMDL
MODEL 5
REMARK VINA RESULT:    -3.770      2.133      5.092
REMARK INTER + INTRA:          -8.568
REMARK INTER:                  -6.264
REMARK INTRA:                  -2.304
REMARK UNBOUND:                -1.714
REMARK SMILES CCCCCCCCCCCCCCCC(=O)[O-]
REMARK SMILES IDX 9 1 10 2 11 3 12 4 13 5 14 6 15 7 16 8 17 9 18 10 8 11 7 12
REMARK SMILES IDX 6 13 5 14 4 15 3 16 2 17 1 18
REMARK H PARENT
REMARK Flexibility Score: inf
ROOT
ATOM      1  C   UNL     1       5.071  -2.982  -7.482  1.00  0.00     0.000 C 
ENDROOT
BRANCH   1   2
ATOM      2  C   UNL     1       4.002  -3.923  -6.897  1.00  0.00     0.000 C 
BRANCH   2   3
ATOM      3  C   UNL     1       3.334  -4.805  -7.969  1.00  0.00     0.000 C 
BRANCH   3   4
ATOM      4  C   UNL     1       3.935  -6.217  -8.109  1.00  0.00     0.000 C 
BRANCH   4   5
ATOM      5  C   UNL     1       5.217  -6.238  -8.959  1.00  0.00     0.000 C 
BRANCH   5   6
ATOM      6  C   UNL     1       6.488  -6.441  -8.112  1.00  0.00     0.006 C 
BRANCH   6   7
ATOM      7  C   UNL     1       6.295  -7.351  -6.887  1.00  0.00     0.053 C 
BRANCH   7   8
ATOM      8  C   UNL     1       6.721  -6.678  -5.618  1.00  0.00     0.041 C 
ATOM      9  O   UNL     1       5.894  -6.002  -4.952  1.00  0.00    -0.550 OA
ATOM     10  O   UNL     1       8.021  -6.830  -5.149  1.00  0.00    -0.550 OA
ENDBRANCH   7   8
ENDBRANCH   6   7
ENDBRANCH   5   6
ENDBRANCH   4   5
ENDBRANCH   3   4
ENDBRANCH   2   3
ENDBRANCH   1   2
BRANCH   1  11
ATOM     11  C   UNL     1       4.651  -2.366  -8.825  1.00  0.00     0.000 C 
BRANCH  11  12
ATOM     12  C   UNL     1       5.806  -2.293  -9.837  1.00  0.00    -0.000 C 
BRANCH  12  13
ATOM     13  C   UNL     1       7.078  -2.929  -9.262  1.00  0.00    -0.000 C 
BRANCH  13  14
ATOM     14  C   UNL     1       8.196  -1.885  -9.115  1.00  0.00    -0.000 C 
BRANCH  14  15
ATOM     15  C   UNL     1       9.295  -2.328  -8.136  1.00  0.00    -0.000 C 
BRANCH  15  16
ATOM     16  C   UNL     1       8.826  -3.428  -7.171  1.00  0.00    -0.000 C 
BRANCH  16  17
ATOM     17  C   UNL     1       9.841  -4.577  -7.121  1.00  0.00    -0.003 C 
ATOM     18  C   UNL     1      10.029  -5.209  -8.495  1.00  0.00     0.004 C 
ENDBRANCH  16  17
ENDBRANCH  15  16
ENDBRANCH  14  15
ENDBRANCH  13  14
ENDBRANCH  12  13
ENDBRANCH  11  12
ENDBRANCH   1  11
TORSDOF 14
ENDMDL
MODEL 6
REMARK VINA RESULT:    -3.720      2.242      4.766
REMARK INTER + INTRA:          -8.479
REMARK INTER:                  -5.787
REMARK INTRA:                  -2.692
REMARK UNBOUND:                -1.714
REMARK SMILES CCCCCCCCCCCCCCCC(=O)[O-]
REMARK SMILES IDX 9 1 10 2 11 3 12 4 13 5 14 6 15 7 16 8 17 9 18 10 8 11 7 12
REMARK SMILES IDX 6 13 5 14 4 15 3 16 2 17 1 18
REMARK H PARENT
REMARK Flexibility Score: inf
ROOT
ATOM      1  C   UNL     1       9.711  -4.348  -8.444  1.00  0.00     0.000 C 
ENDROOT
BRANCH   1   2
ATOM      2  C   UNL     1       9.373  -3.817  -7.040  1.00  0.00     0.000 C 
BRANCH   2   3
ATOM      3  C   UNL     1       8.163  -2.864  -7.037  1.00  0.00     0.000 C 
BRANCH   3   4
ATOM      4  C   UNL     1       7.791  -2.289  -8.417  1.00  0.00     0.000 C 
BRANCH   4   5
ATOM      5  C   UNL     1       6.329  -2.572  -8.807  1.00  0.00     0.000 C 
BRANCH   5   6
ATOM      6  C   UNL     1       5.637  -3.555  -7.844  1.00  0.00     0.006 C 
BRANCH   6   7
ATOM      7  C   UNL     1       4.100  -3.528  -7.909  1.00  0.00     0.053 C 
BRANCH   7   8
ATOM      8  C   UNL     1       3.478  -4.133  -6.687  1.00  0.00     0.041 C 
ATOM      9  O   UNL     1       2.377  -4.737  -6.771  1.00  0.00    -0.550 OA
ATOM     10  O   UNL     1       4.133  -4.064  -5.463  1.00  0.00    -0.550 OA
ENDBRANCH   7   8
ENDBRANCH   6   7
ENDBRANCH   5   6
ENDBRANCH   4   5
ENDBRANCH   3   4
ENDBRANCH   2   3
ENDBRANCH   1   2
BRANCH   1  11
ATOM     11  C   UNL     1      10.112  -5.831  -8.438  1.00  0.00     0.000 C 
BRANCH  11  12
ATOM     12  C   UNL     1       9.225  -6.694  -9.350  1.00  0.00    -0.000 C 
BRANCH  12  13
ATOM     13  C   UNL     1       7.915  -5.969  -9.684  1.00  0.00    -0.000 C 
BRANCH  13  14
ATOM     14  C   UNL     1       6.702  -6.759  -9.171  1.00  0.00    -0.000 C 
BRANCH  14  15
ATOM     15  C   UNL     1       6.960  -7.421  -7.808  1.00  0.00    -0.000 C 
BRANCH  15  16
ATOM     16  C   UNL     1       6.059  -6.864  -6.694  1.00  0.00    -0.000 C 
BRANCH  16  17
ATOM     17  C   UNL     1       6.900  -6.319  -5.534  1.00  0.00    -0.003 C 
ATOM     18  C   UNL     1       8.256  -7.012  -5.461  1.00  0.00     0.004 C 
ENDBRANCH  16  17
ENDBRANCH  15  16
ENDBRANCH  14  15
ENDBRANCH  13  14
ENDBRANCH  12  13
ENDBRANCH  11  12
ENDBRANCH   1  11
TORSDOF 14
ENDMDL
MODEL 7
REMARK VINA RESULT:    -3.718      2.526      5.542
REMARK INTER + INTRA:          -8.475
REMARK INTER:                  -5.854
REMARK INTRA:                  -2.621
REMARK UNBOUND:                -1.714
REMARK SMILES CCCCCCCCCCCCCCCC(=O)[O-]
REMARK SMILES IDX 9 1 10 2 11 3 12 4 13 5 14 6 15 7 16 8 17 9 18 10 8 11 7 12
REMARK SMILES IDX 6 13 5 14 4 15 3 16 2 17 1 18
REMARK H PARENT
REMARK Flexibility Score: inf
ROOT
ATOM      1  C   UNL     1       6.374  -6.008  -5.544  1.00  0.00     0.000 C 
ENDROOT
BRANCH   1   2
ATOM      2  C   UNL     1       5.680  -4.642  -5.695  1.00  0.00     0.000 C 
BRANCH   2   3
ATOM      3  C   UNL     1       6.237  -3.818  -6.872  1.00  0.00     0.000 C 
BRANCH   3   4
ATOM      4  C   UNL     1       5.177  -3.033  -7.668  1.00  0.00     0.000 C 
BRANCH   4   5
ATOM      5  C   UNL     1       4.790  -3.723  -8.987  1.00  0.00     0.000 C 
BRANCH   5   6
ATOM      6  C   UNL     1       5.379  -5.141  -9.112  1.00  0.00     0.006 C 
BRANCH   6   7
ATOM      7  C   UNL     1       4.338  -6.236  -9.403  1.00  0.00     0.053 C 
BRANCH   7   8
ATOM      8  C   UNL     1       4.273  -7.253  -8.304  1.00  0.00     0.041 C 
ATOM      9  O   UNL     1       5.099  -8.201  -8.271  1.00  0.00    -0.550 OA
ATOM     10  O   UNL     1       3.325  -7.130  -7.295  1.00  0.00    -0.550 OA
ENDBRANCH   7   8
ENDBRANCH   6   7
ENDBRANCH   5   6
ENDBRANCH   4   5
ENDBRANCH   3   4
ENDBRANCH   2   3
ENDBRANCH   1   2
BRANCH   1  11
ATOM     11  C   UNL     1       7.850  -5.975  -5.972  1.00  0.00     0.000 C 
BRANCH  11  12
ATOM     12  C   UNL     1       8.132  -6.846  -7.207  1.00  0.00    -0.000 C 
BRANCH  12  13
ATOM     13  C   UNL     1       9.166  -6.178  -8.123  1.00  0.00    -0.000 C 
BRANCH  13  14
ATOM     14  C   UNL     1       9.815  -4.970  -7.431  1.00  0.00    -0.000 C 
BRANCH  14  15
ATOM     15  C   UNL     1       9.826  -3.715  -8.318  1.00  0.00    -0.000 C 
BRANCH  15  16
ATOM     16  C   UNL     1       8.917  -3.846  -9.550  1.00  0.00    -0.000 C 
BRANCH  16  17
ATOM     17  C   UNL     1       8.168  -2.536  -9.815  1.00  0.00    -0.003 C 
ATOM     18  C   UNL     1       8.481  -1.493  -8.748  1.00  0.00     0.004 C 
ENDBRANCH  16  17
ENDBRANCH  15  16
ENDBRANCH  14  15
ENDBRANCH  13  14
ENDBRANCH  12  13
ENDBRANCH  11  12
ENDBRANCH   1  11
TORSDOF 14
ENDMDL
MODEL 8
REMARK VINA RESULT:    -3.688      2.821      5.095
REMARK INTER + INTRA:          -8.419
REMARK INTER:                  -5.818
REMARK INTRA:                  -2.601
REMARK UNBOUND:                -1.714
REMARK SMILES CCCCCCCCCCCCCCCC(=O)[O-]
REMARK SMILES IDX 9 1 10 2 11 3 12 4 13 5 14 6 15 7 16 8 17 9 18 10 8 11 7 12
REMARK SMILES IDX 6 13 5 14 4 15 3 16 2 17 1 18
REMARK H PARENT
REMARK Flexibility Score: inf
ROOT
ATOM      1  C   UNL     1       6.388  -5.341  -5.518  1.00  0.00     0.000 C 
ENDROOT
BRANCH   1   2
ATOM      2  C   UNL     1       7.407  -6.438  -5.878  1.00  0.00     0.000 C 
BRANCH   2   3
ATOM      3  C   UNL     1       6.767  -7.836  -5.985  1.00  0.00     0.000 C 
BRANCH   3   4
ATOM      4  C   UNL     1       6.922  -8.513  -7.359  1.00  0.00     0.000 C 
BRANCH   4   5
ATOM      5  C   UNL     1       6.872  -7.512  -8.527  1.00  0.00     0.000 C 
BRANCH   5   6
ATOM      6  C   UNL     1       5.477  -7.424  -9.175  1.00  0.00     0.006 C 
BRANCH   6   7
ATOM      7  C   UNL     1       4.734  -6.106  -8.901  1.00  0.00     0.053 C 
BRANCH   7   8
ATOM      8  C   UNL     1       3.693  -6.261  -7.834  1.00  0.00     0.041 C 
ATOM      9  O   UNL     1       3.329  -7.409  -7.468  1.00  0.00    -0.550 OA
ATOM     10  O   UNL     1       3.154  -5.139  -7.215  1.00  0.00    -0.550 OA
ENDBRANCH   7   8
ENDBRANCH   6   7
ENDBRANCH   5   6
ENDBRANCH   4   5
ENDBRANCH   3   4
ENDBRANCH   2   3
ENDBRANCH   1   2
BRANCH   1  11
ATOM     11  C   UNL     1       6.496  -4.109  -6.430  1.00  0.00     0.000 C 
BRANCH  11  12
ATOM     12  C   UNL     1       7.840  -3.376  -6.288  1.00  0.00    -0.000 C 
BRANCH  12  13
ATOM     13  C   UNL     1       8.399  -2.988  -7.663  1.00  0.00    -0.000 C 
BRANCH  13  14
ATOM     14  C   UNL     1       8.179  -4.114  -8.685  1.00  0.00    -0.000 C 
BRANCH  14  15
ATOM     15  C   UNL     1       7.615  -3.601 -10.019  1.00  0.00    -0.000 C 
BRANCH  15  16
ATOM     16  C   UNL     1       6.790  -2.314  -9.863  1.00  0.00    -0.000 C 
BRANCH  16  17
ATOM     17  C   UNL     1       5.302  -2.588 -10.109  1.00  0.00    -0.003 C 
ATOM     18  C   UNL     1       4.470  -2.273  -8.871  1.00  0.00     0.004 C 
ENDBRANCH  16  17
ENDBRANCH  15  16
ENDBRANCH  14  15
ENDBRANCH  13  14
ENDBRANCH  12  13
ENDBRANCH  11  12
ENDBRANCH   1  11
TORSDOF 14
ENDMDL
MODEL 9
REMARK VINA RESULT:    -3.671      2.256      5.306
REMARK INTER + INTRA:          -8.390
REMARK INTER:                  -5.885
REMARK INTRA:                  -2.504
REMARK UNBOUND:                -1.714
REMARK SMILES CCCCCCCCCCCCCCCC(=O)[O-]
REMARK SMILES IDX 9 1 10 2 11 3 12 4 13 5 14 6 15 7 16 8 17 9 18 10 8 11 7 12
REMARK SMILES IDX 6 13 5 14 4 15 3 16 2 17 1 18
REMARK H PARENT
REMARK Flexibility Score: inf
ROOT
ATOM      1  C   UNL     1       9.071  -5.152  -7.333  1.00  0.00     0.000 C 
ENDROOT
BRANCH   1   2
ATOM      2  C   UNL     1       9.681  -3.756  -7.116  1.00  0.00     0.000 C 
BRANCH   2   3
ATOM      3  C   UNL     1       8.758  -2.620  -7.598  1.00  0.00     0.000 C 
BRANCH   3   4
ATOM      4  C   UNL     1       8.163  -2.824  -9.004  1.00  0.00     0.000 C 
BRANCH   4   5
ATOM      5  C   UNL     1       6.626  -2.896  -8.996  1.00  0.00     0.000 C 
BRANCH   5   6
ATOM      6  C   UNL     1       6.046  -3.071  -7.579  1.00  0.00     0.006 C 
BRANCH   6   7
ATOM      7  C   UNL     1       4.511  -2.998  -7.510  1.00  0.00     0.053 C 
BRANCH   7   8
ATOM      8  C   UNL     1       3.938  -4.085  -6.651  1.00  0.00     0.041 C 
ATOM      9  O   UNL     1       4.182  -4.111  -5.417  1.00  0.00    -0.550 OA
ATOM     10  O   UNL     1       3.103  -5.047  -7.208  1.00  0.00    -0.550 OA
ENDBRANCH   7   8
ENDBRANCH   6   7
ENDBRANCH   5   6
ENDBRANCH   4   5
ENDBRANCH   3   4
ENDBRANCH   2   3
ENDBRANCH   1   2
BRANCH   1  11
ATOM     11  C   UNL     1       9.610  -6.196  -6.343  1.00  0.00     0.000 C 
BRANCH  11  12
ATOM     12  C   UNL     1       8.494  -6.990  -5.645  1.00  0.00    -0.000 C 
BRANCH  12  13
ATOM     13  C   UNL     1       7.172  -6.212  -5.668  1.00  0.00    -0.000 C 
BRANCH  13  14
ATOM     14  C   UNL     1       6.016  -7.105  -6.142  1.00  0.00    -0.000 C 
BRANCH  14  15
ATOM     15  C   UNL     1       6.229  -7.644  -7.566  1.00  0.00    -0.000 C 
BRANCH  15  16
ATOM     16  C   UNL     1       5.991  -6.580  -8.649  1.00  0.00    -0.000 C 
BRANCH  16  17
ATOM     17  C   UNL     1       6.855  -6.858  -9.884  1.00  0.00    -0.003 C 
ATOM     18  C   UNL     1       7.984  -7.830  -9.562  1.00  0.00     0.004 C 
ENDBRANCH  16  17
ENDBRANCH  15  16
ENDBRANCH  14  15
ENDBRANCH  13  14
ENDBRANCH  12  13
ENDBRANCH  11  12
ENDBRANCH   1  11
TORSDOF 14
ENDMDL
