MODEL 1
REMARK VINA RESULT:    14.513      0.000      0.000
REMARK INTER + INTRA:          31.873
REMARK INTER:                  33.178
REMARK INTRA:                  -1.305
REMARK UNBOUND:                -1.305
REMARK SMILES CCCCCCCCCCCCCCCCCCCCCCCC(=O)[O-]
REMARK SMILES IDX 13 1 14 2 15 3 16 4 17 5 18 6 19 7 20 8 21 9 22 10 23 11
REMARK SMILES IDX 24 12 25 13 26 14 12 15 11 16 10 17 9 18 8 19 7 20 6 21 5 22
REMARK SMILES IDX 4 23 3 24 2 25 1 26
REMARK H PARENT
REMARK Flexibility Score: inf
ROOT
ATOM      1  C   UNL     1      25.856  45.516   6.644  1.00  0.00     0.000 C 
ENDROOT
BRANCH   1   2
ATOM      2  C   UNL     1      26.356  46.739   7.432  1.00  0.00     0.000 C 
BRANCH   2   3
ATOM      3  C   UNL     1      27.544  47.439   6.751  1.00  0.00     0.000 C 
BRANCH   3   4
ATOM      4  C   UNL     1      27.456  47.387   5.217  1.00  0.00     0.000 C 
BRANCH   4   5
ATOM      5  C   UNL     1      28.541  46.468   4.633  1.00  0.00     0.000 C 
BRANCH   5   6
ATOM      6  C   UNL     1      28.010  45.565   3.508  1.00  0.00     0.000 C 
BRANCH   6   7
ATOM      7  C   UNL     1      29.004  44.457   3.124  1.00  0.00     0.000 C 
BRANCH   7   8
ATOM      8  C   UNL     1      29.478  44.563   1.663  1.00  0.00     0.000 C 
BRANCH   8   9
ATOM      9  C   UNL     1      30.072  43.267   1.077  1.00  0.00     0.000 C 
BRANCH   9  10
ATOM     10  C   UNL     1      30.446  43.375  -0.416  1.00  0.00     0.006 C 
BRANCH  10  11
ATOM     11  C   UNL     1      29.945  42.171  -1.228  1.00  0.00     0.053 C 
BRANCH  11  12
ATOM     12  C   UNL     1      29.307  42.625  -2.502  1.00  0.00     0.041 C 
ATOM     13  O   UNL     1      29.392  43.830  -2.857  1.00  0.00    -0.550 OA
ATOM     14  O   UNL     1      28.584  41.727  -3.277  1.00  0.00    -0.550 OA
ENDBRANCH  11  12
ENDBRANCH  10  11
ENDBRANCH   9  10
ENDBRANCH   8   9
ENDBRANCH   7   8
ENDBRANCH   6   7
ENDBRANCH   5   6
ENDBRANCH   4   5
ENDBRANCH   3   4
ENDBRANCH   2   3
ENDBRANCH   1   2
BRANCH   1  15
ATOM     15  C   UNL     1      26.796  44.301   6.794  1.00  0.00     0.000 C 
BRANCH  15  16
ATOM     16  C   UNL     1      26.792  43.355   5.581  1.00  0.00     0.000 C 
BRANCH  16  17
ATOM     17  C   UNL     1      25.719  43.718   4.542  1.00  0.00     0.000 C 
BRANCH  17  18
ATOM     18  C   UNL     1      25.769  42.806   3.303  1.00  0.00    -0.000 C 
BRANCH  18  19
ATOM     19  C   UNL     1      24.466  42.848   2.491  1.00  0.00    -0.000 C 
BRANCH  19  20
ATOM     20  C   UNL     1      23.468  41.797   2.995  1.00  0.00    -0.000 C 
BRANCH  20  21
ATOM     21  C   UNL     1      22.748  42.290   4.261  1.00  0.00    -0.000 C 
BRANCH  21  22
ATOM     22  C   UNL     1      22.894  41.311   5.437  1.00  0.00    -0.000 C 
BRANCH  22  23
ATOM     23  C   UNL     1      24.303  40.700   5.520  1.00  0.00    -0.000 C 
BRANCH  23  24
ATOM     24  C   UNL     1      24.459  39.767   6.739  1.00  0.00    -0.000 C 
BRANCH  24  25
ATOM     25  C   UNL     1      25.727  38.897   6.690  1.00  0.00    -0.003 C 
ATOM     26  C   UNL     1      25.683  37.836   5.592  1.00  0.00     0.004 C 
ENDBRANCH  24  25
ENDBRANCH  23  24
ENDBRANCH  22  23
ENDBRANCH  21  22
ENDBRANCH  20  21
ENDBRANCH  19  20
ENDBRANCH  18  19
ENDBRANCH  17  18
ENDBRANCH  16  17
ENDBRANCH  15  16
ENDBRANCH   1  15
TORSDOF 22
ENDMDL
MODEL 2
REMARK VINA RESULT:    14.874      0.741      1.218
REMARK INTER + INTRA:          32.698
REMARK INTER:                  32.691
REMARK INTRA:                   0.007
REMARK UNBOUND:                -1.305
REMARK SMILES CCCCCCCCCCCCCCCCCCCCCCCC(=O)[O-]
REMARK SMILES IDX 13 1 14 2 15 3 16 4 17 5 18 6 19 7 20 8 21 9 22 10 23 11
REMARK SMILES IDX 24 12 25 13 26 14 12 15 11 16 10 17 9 18 8 19 7 20 6 21 5 22
REMARK SMILES IDX 4 23 3 24 2 25 1 26
REMARK H PARENT
REMARK Flexibility Score: inf
ROOT
ATOM      1  C   UNL     1      25.768  44.793   5.990  1.00  0.00     0.000 C 
ENDROOT
BRANCH   1   2
ATOM      2  C   UNL     1      26.577  45.469   7.111  1.00  0.00     0.000 C 
BRANCH   2   3
ATOM      3  C   UNL     1      26.650  46.997   6.952  1.00  0.00     0.000 C 
BRANCH   3   4
ATOM      4  C   UNL     1      27.649  47.428   5.866  1.00  0.00     0.000 C 
BRANCH   4   5
ATOM      5  C   UNL     1      27.530  46.535   4.621  1.00  0.00     0.000 C 
BRANCH   5   6
ATOM      6  C   UNL     1      28.892  46.019   4.130  1.00  0.00     0.000 C 
BRANCH   6   7
ATOM      7  C   UNL     1      28.768  44.740   3.285  1.00  0.00     0.000 C 
BRANCH   7   8
ATOM      8  C   UNL     1      29.611  44.793   1.998  1.00  0.00     0.000 C 
BRANCH   8   9
ATOM      9  C   UNL     1      29.435  43.586   1.055  1.00  0.00     0.000 C 
BRANCH   9  10
ATOM     10  C   UNL     1      30.525  43.482  -0.032  1.00  0.00     0.006 C 
BRANCH  10  11
ATOM     11  C   UNL     1      30.323  42.260  -0.939  1.00  0.00     0.053 C 
BRANCH  11  12
ATOM     12  C   UNL     1      29.426  42.599  -2.087  1.00  0.00     0.041 C 
ATOM     13  O   UNL     1      29.651  43.623  -2.784  1.00  0.00    -0.550 OA
ATOM     14  O   UNL     1      28.318  41.808  -2.361  1.00  0.00    -0.550 OA
ENDBRANCH  11  12
ENDBRANCH  10  11
ENDBRANCH   9  10
ENDBRANCH   8   9
ENDBRANCH   7   8
ENDBRANCH   6   7
ENDBRANCH   5   6
ENDBRANCH   4   5
ENDBRANCH   3   4
ENDBRANCH   2   3
ENDBRANCH   1   2
BRANCH   1  15
ATOM     15  C   UNL     1      26.430  43.487   5.499  1.00  0.00     0.000 C 
BRANCH  15  16
ATOM     16  C   UNL     1      26.517  43.369   3.968  1.00  0.00     0.000 C 
BRANCH  16  17
ATOM     17  C   UNL     1      25.197  43.723   3.264  1.00  0.00     0.000 C 
BRANCH  17  18
ATOM     18  C   UNL     1      24.669  42.569   2.393  1.00  0.00    -0.000 C 
BRANCH  18  19
ATOM     19  C   UNL     1      23.223  42.185   2.743  1.00  0.00    -0.000 C 
BRANCH  19  20
ATOM     20  C   UNL     1      22.866  42.627   4.168  1.00  0.00    -0.000 C 
BRANCH  20  21
ATOM     21  C   UNL     1      23.027  41.462   5.158  1.00  0.00    -0.000 C 
BRANCH  21  22
ATOM     22  C   UNL     1      24.440  40.857   5.126  1.00  0.00    -0.000 C 
BRANCH  22  23
ATOM     23  C   UNL     1      24.703  39.917   6.315  1.00  0.00    -0.000 C 
BRANCH  23  24
ATOM     24  C   UNL     1      24.995  38.473   5.858  1.00  0.00    -0.000 C 
BRANCH  24  25
ATOM     25  C   UNL     1      26.357  37.941   6.334  1.00  0.00    -0.003 C 
ATOM     26  C   UNL     1      26.870  38.643   7.589  1.00  0.00     0.004 C 
ENDBRANCH  24  25
ENDBRANCH  23  24
ENDBRANCH  22  23
ENDBRANCH  21  22
ENDBRANCH  20  21
ENDBRANCH  19  20
ENDBRANCH  18  19
ENDBRANCH  17  18
ENDBRANCH  16  17
ENDBRANCH  15  16
ENDBRANCH   1  15
TORSDOF 22
ENDMDL
MODEL 3
REMARK VINA RESULT:    14.977      1.183      2.471
REMARK INTER + INTRA:          32.935
REMARK INTER:                  32.116
REMARK INTRA:                   0.819
REMARK UNBOUND:                -1.305
REMARK SMILES CCCCCCCCCCCCCCCCCCCCCCCC(=O)[O-]
REMARK SMILES IDX 13 1 14 2 15 3 16 4 17 5 18 6 19 7 20 8 21 9 22 10 23 11
REMARK SMILES IDX 24 12 25 13 26 14 12 15 11 16 10 17 9 18 8 19 7 20 6 21 5 22
REMARK SMILES IDX 4 23 3 24 2 25 1 26
REMARK H PARENT
REMARK Flexibility Score: inf
ROOT
ATOM      1  C   UNL     1      26.526  43.271   4.348  1.00  0.00     0.000 C 
ENDROOT
BRANCH   1   2
ATOM      2  C   UNL     1      26.412  43.988   5.705  1.00  0.00     0.000 C 
BRANCH   2   3
ATOM      3  C   UNL     1      26.919  45.439   5.654  1.00  0.00     0.000 C 
BRANCH   3   4
ATOM      4  C   UNL     1      27.644  45.763   4.338  1.00  0.00     0.000 C 
BRANCH   4   5
ATOM      5  C   UNL     1      28.625  44.642   3.958  1.00  0.00     0.000 C 
BRANCH   5   6
ATOM      6  C   UNL     1      29.411  44.953   2.674  1.00  0.00     0.000 C 
BRANCH   6   7
ATOM      7  C   UNL     1      29.282  43.840   1.620  1.00  0.00     0.000 C 
BRANCH   7   8
ATOM      8  C   UNL     1      30.144  44.100   0.371  1.00  0.00     0.000 C 
BRANCH   8   9
ATOM      9  C   UNL     1      30.866  42.860  -0.190  1.00  0.00     0.000 C 
BRANCH   9  10
ATOM     10  C   UNL     1      30.020  42.048  -1.193  1.00  0.00     0.006 C 
BRANCH  10  11
ATOM     11  C   UNL     1      29.652  42.869  -2.438  1.00  0.00     0.053 C 
BRANCH  11  12
ATOM     12  C   UNL     1      28.936  42.017  -3.437  1.00  0.00     0.041 C 
ATOM     13  O   UNL     1      27.830  41.490  -3.142  1.00  0.00    -0.550 OA
ATOM     14  O   UNL     1      29.507  41.770  -4.679  1.00  0.00    -0.550 OA
ENDBRANCH  11  12
ENDBRANCH  10  11
ENDBRANCH   9  10
ENDBRANCH   8   9
ENDBRANCH   7   8
ENDBRANCH   6   7
ENDBRANCH   5   6
ENDBRANCH   4   5
ENDBRANCH   3   4
ENDBRANCH   2   3
ENDBRANCH   1   2
BRANCH   1  15
ATOM     15  C   UNL     1      25.290  43.513   3.455  1.00  0.00     0.000 C 
BRANCH  15  16
ATOM     16  C   UNL     1      24.830  42.270   2.674  1.00  0.00     0.000 C 
BRANCH  16  17
ATOM     17  C   UNL     1      23.406  42.409   2.113  1.00  0.00     0.000 C 
BRANCH  17  18
ATOM     18  C   UNL     1      22.333  42.347   3.214  1.00  0.00    -0.000 C 
BRANCH  18  19
ATOM     19  C   UNL     1      22.923  42.541   4.619  1.00  0.00    -0.000 C 
BRANCH  19  20
ATOM     20  C   UNL     1      22.866  41.237   5.425  1.00  0.00    -0.000 C 
BRANCH  20  21
ATOM     21  C   UNL     1      24.272  40.813   5.880  1.00  0.00    -0.000 C 
BRANCH  21  22
ATOM     22  C   UNL     1      24.233  39.720   6.960  1.00  0.00    -0.000 C 
BRANCH  22  23
ATOM     23  C   UNL     1      25.599  39.513   7.636  1.00  0.00    -0.000 C 
BRANCH  23  24
ATOM     24  C   UNL     1      26.448  38.447   6.912  1.00  0.00    -0.000 C 
BRANCH  24  25
ATOM     25  C   UNL     1      25.780  37.885   5.646  1.00  0.00    -0.003 C 
ATOM     26  C   UNL     1      24.789  36.761   5.939  1.00  0.00     0.004 C 
ENDBRANCH  24  25
ENDBRANCH  23  24
ENDBRANCH  22  23
ENDBRANCH  21  22
ENDBRANCH  20  21
ENDBRANCH  19  20
ENDBRANCH  18  19
ENDBRANCH  17  18
ENDBRANCH  16  17
ENDBRANCH  15  16
ENDBRANCH   1  15
TORSDOF 22
ENDMDL
MODEL 4
REMARK VINA RESULT:    15.450      4.518      9.730
REMARK INTER + INTRA:          34.016
REMARK INTER:                  34.676
REMARK INTRA:                  -0.660
REMARK UNBOUND:                -1.305
REMARK SMILES CCCCCCCCCCCCCCCCCCCCCCCC(=O)[O-]
REMARK SMILES IDX 13 1 14 2 15 3 16 4 17 5 18 6 19 7 20 8 21 9 22 10 23 11
REMARK SMILES IDX 24 12 25 13 26 14 12 15 11 16 10 17 9 18 8 19 7 20 6 21 5 22
REMARK SMILES IDX 4 23 3 24 2 25 1 26
REMARK H PARENT
REMARK Flexibility Score: inf
ROOT
ATOM      1  C   UNL     1      28.990  44.617   3.375  1.00  0.00     0.000 C 
ENDROOT
BRANCH   1   2
ATOM      2  C   UNL     1      27.567  45.105   3.699  1.00  0.00     0.000 C 
BRANCH   2   3
ATOM      3  C   UNL     1      26.920  44.324   4.855  1.00  0.00     0.000 C 
BRANCH   3   4
ATOM      4  C   UNL     1      26.018  43.183   4.362  1.00  0.00     0.000 C 
BRANCH   4   5
ATOM      5  C   UNL     1      25.563  43.424   2.914  1.00  0.00     0.000 C 
BRANCH   5   6
ATOM      6  C   UNL     1      24.398  42.511   2.499  1.00  0.00     0.000 C 
BRANCH   6   7
ATOM      7  C   UNL     1      23.076  42.895   3.185  1.00  0.00     0.000 C 
BRANCH   7   8
ATOM      8  C   UNL     1      22.632  41.866   4.240  1.00  0.00     0.000 C 
BRANCH   8   9
ATOM      9  C   UNL     1      23.636  41.636   5.387  1.00  0.00     0.000 C 
BRANCH   9  10
ATOM     10  C   UNL     1      24.371  40.281   5.308  1.00  0.00     0.006 C 
BRANCH  10  11
ATOM     11  C   UNL     1      24.504  39.613   6.683  1.00  0.00     0.053 C 
BRANCH  11  12
ATOM     12  C   UNL     1      25.666  38.670   6.701  1.00  0.00     0.041 C 
ATOM     13  O   UNL     1      26.510  38.726   7.633  1.00  0.00    -0.550 OA
ATOM     14  O   UNL     1      25.838  37.759   5.667  1.00  0.00    -0.550 OA
ENDBRANCH  11  12
ENDBRANCH  10  11
ENDBRANCH   9  10
ENDBRANCH   8   9
ENDBRANCH   7   8
ENDBRANCH   6   7
ENDBRANCH   5   6
ENDBRANCH   4   5
ENDBRANCH   3   4
ENDBRANCH   2   3
ENDBRANCH   1   2
BRANCH   1  15
ATOM     15  C   UNL     1      29.375  44.875   1.903  1.00  0.00     0.000 C 
BRANCH  15  16
ATOM     16  C   UNL     1      30.059  43.681   1.217  1.00  0.00     0.000 C 
BRANCH  16  17
ATOM     17  C   UNL     1      29.840  43.658  -0.305  1.00  0.00     0.000 C 
BRANCH  17  18
ATOM     18  C   UNL     1      30.519  42.452  -0.977  1.00  0.00    -0.000 C 
BRANCH  18  19
ATOM     19  C   UNL     1      31.888  42.130  -0.360  1.00  0.00    -0.000 C 
BRANCH  19  20
ATOM     20  C   UNL     1      32.907  43.233  -0.673  1.00  0.00    -0.000 C 
BRANCH  20  21
ATOM     21  C   UNL     1      34.342  42.737  -0.430  1.00  0.00    -0.000 C 
BRANCH  21  22
ATOM     22  C   UNL     1      35.352  43.892  -0.337  1.00  0.00    -0.000 C 
BRANCH  22  23
ATOM     23  C   UNL     1      36.313  43.929  -1.537  1.00  0.00    -0.000 C 
BRANCH  23  24
ATOM     24  C   UNL     1      37.791  43.863  -1.098  1.00  0.00    -0.000 C 
BRANCH  24  25
ATOM     25  C   UNL     1      38.743  43.394  -2.212  1.00  0.00    -0.003 C 
ATOM     26  C   UNL     1      38.791  41.876  -2.360  1.00  0.00     0.004 C 
ENDBRANCH  24  25
ENDBRANCH  23  24
ENDBRANCH  22  23
ENDBRANCH  21  22
ENDBRANCH  20  21
ENDBRANCH  19  20
ENDBRANCH  18  19
ENDBRANCH  17  18
ENDBRANCH  16  17
ENDBRANCH  15  16
ENDBRANCH   1  15
TORSDOF 22
ENDMDL
MODEL 5
REMARK VINA RESULT:    15.537      3.136      7.999
REMARK INTER + INTRA:          34.216
REMARK INTER:                  34.575
REMARK INTRA:                  -0.359
REMARK UNBOUND:                -1.305
REMARK SMILES CCCCCCCCCCCCCCCCCCCCCCCC(=O)[O-]
REMARK SMILES IDX 13 1 14 2 15 3 16 4 17 5 18 6 19 7 20 8 21 9 22 10 23 11
REMARK SMILES IDX 24 12 25 13 26 14 12 15 11 16 10 17 9 18 8 19 7 20 6 21 5 22
REMARK SMILES IDX 4 23 3 24 2 25 1 26
REMARK H PARENT
REMARK Flexibility Score: inf
ROOT
ATOM      1  C   UNL     1      26.276  43.454   3.537  1.00  0.00     0.000 C 
ENDROOT
BRANCH   1   2
ATOM      2  C   UNL     1      24.839  43.519   2.993  1.00  0.00     0.000 C 
BRANCH   2   3
ATOM      3  C   UNL     1      24.519  42.371   2.022  1.00  0.00     0.000 C 
BRANCH   3   4
ATOM      4  C   UNL     1      23.095  41.822   2.208  1.00  0.00     0.000 C 
BRANCH   4   5
ATOM      5  C   UNL     1      22.272  42.726   3.140  1.00  0.00     0.000 C 
BRANCH   5   6
ATOM      6  C   UNL     1      22.790  42.712   4.588  1.00  0.00     0.000 C 
BRANCH   6   7
ATOM      7  C   UNL     1      22.845  41.294   5.180  1.00  0.00     0.000 C 
BRANCH   7   8
ATOM      8  C   UNL     1      24.279  40.744   5.276  1.00  0.00     0.000 C 
BRANCH   8   9
ATOM      9  C   UNL     1      24.672  40.190   6.660  1.00  0.00     0.000 C 
BRANCH   9  10
ATOM     10  C   UNL     1      24.715  38.649   6.725  1.00  0.00     0.006 C 
BRANCH  10  11
ATOM     11  C   UNL     1      25.813  38.062   5.827  1.00  0.00     0.053 C 
BRANCH  11  12
ATOM     12  C   UNL     1      27.153  38.190   6.481  1.00  0.00     0.041 C 
ATOM     13  O   UNL     1      28.203  38.093   5.794  1.00  0.00    -0.550 OA
ATOM     14  O   UNL     1      27.241  38.374   7.855  1.00  0.00    -0.550 OA
ENDBRANCH  11  12
ENDBRANCH  10  11
ENDBRANCH   9  10
ENDBRANCH   8   9
ENDBRANCH   7   8
ENDBRANCH   6   7
ENDBRANCH   5   6
ENDBRANCH   4   5
ENDBRANCH   3   4
ENDBRANCH   2   3
ENDBRANCH   1   2
BRANCH   1  15
ATOM     15  C   UNL     1      26.325  43.600   5.074  1.00  0.00     0.000 C 
BRANCH  15  16
ATOM     16  C   UNL     1      26.801  44.981   5.555  1.00  0.00     0.000 C 
BRANCH  16  17
ATOM     17  C   UNL     1      27.690  45.700   4.527  1.00  0.00     0.000 C 
BRANCH  17  18
ATOM     18  C   UNL     1      28.848  44.816   4.032  1.00  0.00    -0.000 C 
BRANCH  18  19
ATOM     19  C   UNL     1      29.213  45.095   2.566  1.00  0.00    -0.000 C 
BRANCH  19  20
ATOM     20  C   UNL     1      29.700  43.820   1.867  1.00  0.00    -0.000 C 
BRANCH  20  21
ATOM     21  C   UNL     1      30.009  44.092   0.386  1.00  0.00    -0.000 C 
BRANCH  21  22
ATOM     22  C   UNL     1      30.727  42.912  -0.289  1.00  0.00    -0.000 C 
BRANCH  22  23
ATOM     23  C   UNL     1      29.818  42.157  -1.273  1.00  0.00    -0.000 C 
BRANCH  23  24
ATOM     24  C   UNL     1      29.793  42.822  -2.666  1.00  0.00    -0.000 C 
BRANCH  24  25
ATOM     25  C   UNL     1      28.922  42.073  -3.689  1.00  0.00    -0.003 C 
ATOM     26  C   UNL     1      27.921  41.120  -3.041  1.00  0.00     0.004 C 
ENDBRANCH  24  25
ENDBRANCH  23  24
ENDBRANCH  22  23
ENDBRANCH  21  22
ENDBRANCH  20  21
ENDBRANCH  19  20
ENDBRANCH  18  19
ENDBRANCH  17  18
ENDBRANCH  16  17
ENDBRANCH  15  16
ENDBRANCH   1  15
TORSDOF 22
ENDMDL
MODEL 6
REMARK VINA RESULT:    15.660      3.104      7.671
REMARK INTER + INTRA:          34.496
REMARK INTER:                  33.748
REMARK INTRA:                   0.748
REMARK UNBOUND:                -1.305
REMARK SMILES CCCCCCCCCCCCCCCCCCCCCCCC(=O)[O-]
REMARK SMILES IDX 13 1 14 2 15 3 16 4 17 5 18 6 19 7 20 8 21 9 22 10 23 11
REMARK SMILES IDX 24 12 25 13 26 14 12 15 11 16 10 17 9 18 8 19 7 20 6 21 5 22
REMARK SMILES IDX 4 23 3 24 2 25 1 26
REMARK H PARENT
REMARK Flexibility Score: inf
ROOT
ATOM      1  C   UNL     1      26.531  43.604   5.671  1.00  0.00     0.000 C 
ENDROOT
BRANCH   1   2
ATOM      2  C   UNL     1      26.476  43.281   4.167  1.00  0.00     0.000 C 
BRANCH   2   3
ATOM      3  C   UNL     1      25.070  43.461   3.572  1.00  0.00     0.000 C 
BRANCH   3   4
ATOM      4  C   UNL     1      24.841  42.586   2.330  1.00  0.00     0.000 C 
BRANCH   4   5
ATOM      5  C   UNL     1      23.388  42.090   2.264  1.00  0.00     0.000 C 
BRANCH   5   6
ATOM      6  C   UNL     1      22.499  42.714   3.352  1.00  0.00     0.000 C 
BRANCH   6   7
ATOM      7  C   UNL     1      23.117  42.599   4.755  1.00  0.00     0.000 C 
BRANCH   7   8
ATOM      8  C   UNL     1      23.107  41.156   5.294  1.00  0.00     0.000 C 
BRANCH   8   9
ATOM      9  C   UNL     1      24.494  40.587   5.651  1.00  0.00     0.000 C 
BRANCH   9  10
ATOM     10  C   UNL     1      24.447  39.424   6.665  1.00  0.00     0.006 C 
BRANCH  10  11
ATOM     11  C   UNL     1      25.274  38.217   6.201  1.00  0.00     0.053 C 
BRANCH  11  12
ATOM     12  C   UNL     1      26.665  38.291   6.746  1.00  0.00     0.041 C 
ATOM     13  O   UNL     1      26.852  38.501   7.973  1.00  0.00    -0.550 OA
ATOM     14  O   UNL     1      27.754  38.171   5.892  1.00  0.00    -0.550 OA
ENDBRANCH  11  12
ENDBRANCH  10  11
ENDBRANCH   9  10
ENDBRANCH   8   9
ENDBRANCH   7   8
ENDBRANCH   6   7
ENDBRANCH   5   6
ENDBRANCH   4   5
ENDBRANCH   3   4
ENDBRANCH   2   3
ENDBRANCH   1   2
BRANCH   1  15
ATOM     15  C   UNL     1      25.786  44.911   6.014  1.00  0.00     0.000 C 
BRANCH  15  16
ATOM     16  C   UNL     1      26.592  45.876   6.901  1.00  0.00     0.000 C 
BRANCH  16  17
ATOM     17  C   UNL     1      27.259  47.007   6.103  1.00  0.00     0.000 C 
BRANCH  17  18
ATOM     18  C   UNL     1      27.410  46.663   4.610  1.00  0.00    -0.000 C 
BRANCH  18  19
ATOM     19  C   UNL     1      28.743  45.965   4.302  1.00  0.00    -0.000 C 
BRANCH  19  20
ATOM     20  C   UNL     1      28.535  44.768   3.366  1.00  0.00    -0.000 C 
BRANCH  20  21
ATOM     21  C   UNL     1      29.541  44.801   2.204  1.00  0.00    -0.000 C 
BRANCH  21  22
ATOM     22  C   UNL     1      29.469  43.538   1.331  1.00  0.00    -0.000 C 
BRANCH  22  23
ATOM     23  C   UNL     1      30.392  43.619   0.103  1.00  0.00    -0.000 C 
BRANCH  23  24
ATOM     24  C   UNL     1      30.173  42.438  -0.865  1.00  0.00    -0.000 C 
BRANCH  24  25
ATOM     25  C   UNL     1      29.929  42.873  -2.320  1.00  0.00    -0.003 C 
ATOM     26  C   UNL     1      28.782  42.118  -2.987  1.00  0.00     0.004 C 
ENDBRANCH  24  25
ENDBRANCH  23  24
ENDBRANCH  22  23
ENDBRANCH  21  22
ENDBRANCH  20  21
ENDBRANCH  19  20
ENDBRANCH  18  19
ENDBRANCH  17  18
ENDBRANCH  16  17
ENDBRANCH  15  16
ENDBRANCH   1  15
TORSDOF 22
ENDMDL
MODEL 7
REMARK VINA RESULT:    15.969      3.192      7.593
REMARK INTER + INTRA:          35.202
REMARK INTER:                  35.181
REMARK INTRA:                   0.020
REMARK UNBOUND:                -1.305
REMARK SMILES CCCCCCCCCCCCCCCCCCCCCCCC(=O)[O-]
REMARK SMILES IDX 13 1 14 2 15 3 16 4 17 5 18 6 19 7 20 8 21 9 22 10 23 11
REMARK SMILES IDX 24 12 25 13 26 14 12 15 11 16 10 17 9 18 8 19 7 20 6 21 5 22
REMARK SMILES IDX 4 23 3 24 2 25 1 26
REMARK H PARENT
REMARK Flexibility Score: inf
ROOT
ATOM      1  C   UNL     1      26.786  44.808   6.415  1.00  0.00     0.000 C 
ENDROOT
BRANCH   1   2
ATOM      2  C   UNL     1      25.599  44.280   5.590  1.00  0.00     0.000 C 
BRANCH   2   3
ATOM      3  C   UNL     1      26.044  43.508   4.337  1.00  0.00     0.000 C 
BRANCH   3   4
ATOM      4  C   UNL     1      25.172  43.824   3.111  1.00  0.00     0.000 C 
BRANCH   4   5
ATOM      5  C   UNL     1      24.862  42.549   2.311  1.00  0.00     0.000 C 
BRANCH   5   6
ATOM      6  C   UNL     1      23.364  42.203   2.304  1.00  0.00     0.000 C 
BRANCH   6   7
ATOM      7  C   UNL     1      22.645  42.677   3.578  1.00  0.00     0.000 C 
BRANCH   7   8
ATOM      8  C   UNL     1      23.086  41.904   4.834  1.00  0.00     0.000 C 
BRANCH   8   9
ATOM      9  C   UNL     1      24.216  40.881   4.604  1.00  0.00     0.000 C 
BRANCH   9  10
ATOM     10  C   UNL     1      25.145  40.698   5.822  1.00  0.00     0.006 C 
BRANCH  10  11
ATOM     11  C   UNL     1      24.704  39.531   6.717  1.00  0.00     0.053 C 
BRANCH  11  12
ATOM     12  C   UNL     1      25.641  38.373   6.573  1.00  0.00     0.041 C 
ATOM     13  O   UNL     1      26.813  38.448   7.027  1.00  0.00    -0.550 OA
ATOM     14  O   UNL     1      25.233  37.228   5.901  1.00  0.00    -0.550 OA
ENDBRANCH  11  12
ENDBRANCH  10  11
ENDBRANCH   9  10
ENDBRANCH   8   9
ENDBRANCH   7   8
ENDBRANCH   6   7
ENDBRANCH   5   6
ENDBRANCH   4   5
ENDBRANCH   3   4
ENDBRANCH   2   3
ENDBRANCH   1   2
BRANCH   1  15
ATOM     15  C   UNL     1      26.575  46.268   6.873  1.00  0.00     0.000 C 
BRANCH  15  16
ATOM     16  C   UNL     1      27.525  47.275   6.203  1.00  0.00     0.000 C 
BRANCH  16  17
ATOM     17  C   UNL     1      27.662  47.054   4.688  1.00  0.00     0.000 C 
BRANCH  17  18
ATOM     18  C   UNL     1      28.614  45.893   4.349  1.00  0.00    -0.000 C 
BRANCH  18  19
ATOM     19  C   UNL     1      28.411  45.367   2.920  1.00  0.00    -0.000 C 
BRANCH  19  20
ATOM     20  C   UNL     1      29.392  44.230   2.607  1.00  0.00    -0.000 C 
BRANCH  20  21
ATOM     21  C   UNL     1      29.757  44.219   1.113  1.00  0.00    -0.000 C 
BRANCH  21  22
ATOM     22  C   UNL     1      29.923  42.794   0.562  1.00  0.00    -0.000 C 
BRANCH  22  23
ATOM     23  C   UNL     1      30.677  42.767  -0.779  1.00  0.00    -0.000 C 
BRANCH  23  24
ATOM     24  C   UNL     1      29.781  43.205  -1.956  1.00  0.00    -0.000 C 
BRANCH  24  25
ATOM     25  C   UNL     1      28.968  42.053  -2.571  1.00  0.00    -0.003 C 
ATOM     26  C   UNL     1      29.050  42.009  -4.095  1.00  0.00     0.004 C 
ENDBRANCH  24  25
ENDBRANCH  23  24
ENDBRANCH  22  23
ENDBRANCH  21  22
ENDBRANCH  20  21
ENDBRANCH  19  20
ENDBRANCH  18  19
ENDBRANCH  17  18
ENDBRANCH  16  17
ENDBRANCH  15  16
ENDBRANCH   1  15
TORSDOF 22
ENDMDL
MODEL 8
REMARK VINA RESULT:    16.144      4.196      5.716
REMARK INTER + INTRA:          35.603
REMARK INTER:                  37.080
REMARK INTRA:                  -1.477
REMARK UNBOUND:                -1.305
REMARK SMILES CCCCCCCCCCCCCCCCCCCCCCCC(=O)[O-]
REMARK SMILES IDX 13 1 14 2 15 3 16 4 17 5 18 6 19 7 20 8 21 9 22 10 23 11
REMARK SMILES IDX 24 12 25 13 26 14 12 15 11 16 10 17 9 18 8 19 7 20 6 21 5 22
REMARK SMILES IDX 4 23 3 24 2 25 1 26
REMARK H PARENT
REMARK Flexibility Score: inf
ROOT
ATOM      1  C   UNL     1      29.369  44.757   2.560  1.00  0.00     0.000 C 
ENDROOT
BRANCH   1   2
ATOM      2  C   UNL     1      29.240  43.694   1.455  1.00  0.00     0.000 C 
BRANCH   2   3
ATOM      3  C   UNL     1      30.098  44.015   0.220  1.00  0.00     0.000 C 
BRANCH   3   4
ATOM      4  C   UNL     1      30.242  42.812  -0.725  1.00  0.00     0.000 C 
BRANCH   4   5
ATOM      5  C   UNL     1      31.722  42.490  -0.988  1.00  0.00     0.000 C 
BRANCH   5   6
ATOM      6  C   UNL     1      32.673  43.304  -0.097  1.00  0.00     0.000 C 
BRANCH   6   7
ATOM      7  C   UNL     1      34.151  43.090  -0.463  1.00  0.00     0.000 C 
BRANCH   7   8
ATOM      8  C   UNL     1      35.094  44.053   0.280  1.00  0.00     0.000 C 
BRANCH   8   9
ATOM      9  C   UNL     1      36.316  44.523  -0.533  1.00  0.00     0.000 C 
BRANCH   9  10
ATOM     10  C   UNL     1      36.501  43.772  -1.868  1.00  0.00     0.006 C 
BRANCH  10  11
ATOM     11  C   UNL     1      37.918  43.937  -2.435  1.00  0.00     0.053 C 
BRANCH  11  12
ATOM     12  C   UNL     1      38.769  42.759  -2.078  1.00  0.00     0.041 C 
ATOM     13  O   UNL     1      39.529  42.809  -1.075  1.00  0.00    -0.550 OA
ATOM     14  O   UNL     1      38.753  41.622  -2.876  1.00  0.00    -0.550 OA
ENDBRANCH  11  12
ENDBRANCH  10  11
ENDBRANCH   9  10
ENDBRANCH   8   9
ENDBRANCH   7   8
ENDBRANCH   6   7
ENDBRANCH   5   6
ENDBRANCH   4   5
ENDBRANCH   3   4
ENDBRANCH   2   3
ENDBRANCH   1   2
BRANCH   1  15
ATOM     15  C   UNL     1      28.790  44.272   3.907  1.00  0.00     0.000 C 
BRANCH  15  16
ATOM     16  C   UNL     1      27.462  44.946   4.294  1.00  0.00     0.000 C 
BRANCH  16  17
ATOM     17  C   UNL     1      26.290  43.955   4.381  1.00  0.00     0.000 C 
BRANCH  17  18
ATOM     18  C   UNL     1      26.087  43.171   3.072  1.00  0.00    -0.000 C 
BRANCH  18  19
ATOM     19  C   UNL     1      24.639  43.244   2.565  1.00  0.00    -0.000 C 
BRANCH  19  20
ATOM     20  C   UNL     1      23.840  42.009   2.999  1.00  0.00    -0.000 C 
BRANCH  20  21
ATOM     21  C   UNL     1      22.966  42.325   4.224  1.00  0.00    -0.000 C 
BRANCH  21  22
ATOM     22  C   UNL     1      23.136  41.290   5.348  1.00  0.00    -0.000 C 
BRANCH  22  23
ATOM     23  C   UNL     1      24.513  40.605   5.312  1.00  0.00    -0.000 C 
BRANCH  23  24
ATOM     24  C   UNL     1      24.784  39.782   6.588  1.00  0.00    -0.000 C 
BRANCH  24  25
ATOM     25  C   UNL     1      25.861  38.699   6.405  1.00  0.00    -0.003 C 
ATOM     26  C   UNL     1      25.308  37.395   5.834  1.00  0.00     0.004 C 
ENDBRANCH  24  25
ENDBRANCH  23  24
ENDBRANCH  22  23
ENDBRANCH  21  22
ENDBRANCH  20  21
ENDBRANCH  19  20
ENDBRANCH  18  19
ENDBRANCH  17  18
ENDBRANCH  16  17
ENDBRANCH  15  16
ENDBRANCH   1  15
TORSDOF 22
ENDMDL
MODEL 9
REMARK VINA RESULT:    16.284      1.490      3.712
REMARK INTER + INTRA:          35.922
REMARK INTER:                  36.455
REMARK INTRA:                  -0.533
REMARK UNBOUND:                -1.305
REMARK SMILES CCCCCCCCCCCCCCCCCCCCCCCC(=O)[O-]
REMARK SMILES IDX 13 1 14 2 15 3 16 4 17 5 18 6 19 7 20 8 21 9 22 10 23 11
REMARK SMILES IDX 24 12 25 13 26 14 12 15 11 16 10 17 9 18 8 19 7 20 6 21 5 22
REMARK SMILES IDX 4 23 3 24 2 25 1 26
REMARK H PARENT
REMARK Flexibility Score: inf
ROOT
ATOM      1  C   UNL     1      26.286  47.017   7.241  1.00  0.00     0.000 C 
ENDROOT
BRANCH   1   2
ATOM      2  C   UNL     1      27.639  47.651   6.872  1.00  0.00     0.000 C 
BRANCH   2   3
ATOM      3  C   UNL     1      27.911  47.630   5.359  1.00  0.00     0.000 C 
BRANCH   3   4
ATOM      4  C   UNL     1      27.508  46.298   4.707  1.00  0.00     0.000 C 
BRANCH   4   5
ATOM      5  C   UNL     1      28.738  45.553   4.166  1.00  0.00     0.000 C 
BRANCH   5   6
ATOM      6  C   UNL     1      28.416  44.695   2.932  1.00  0.00     0.000 C 
BRANCH   6   7
ATOM      7  C   UNL     1      29.455  44.861   1.811  1.00  0.00     0.000 C 
BRANCH   7   8
ATOM      8  C   UNL     1      29.675  43.568   1.005  1.00  0.00     0.000 C 
BRANCH   8   9
ATOM      9  C   UNL     1      30.996  43.512   0.213  1.00  0.00     0.000 C 
BRANCH   9  10
ATOM     10  C   UNL     1      30.967  42.529  -0.975  1.00  0.00     0.006 C 
BRANCH  10  11
ATOM     11  C   UNL     1      29.538  42.099  -1.337  1.00  0.00     0.053 C 
BRANCH  11  12
ATOM     12  C   UNL     1      29.155  42.625  -2.684  1.00  0.00     0.041 C 
ATOM     13  O   UNL     1      29.337  43.839  -2.963  1.00  0.00    -0.550 OA
ATOM     14  O   UNL     1      28.560  41.784  -3.616  1.00  0.00    -0.550 OA
ENDBRANCH  11  12
ENDBRANCH  10  11
ENDBRANCH   9  10
ENDBRANCH   8   9
ENDBRANCH   7   8
ENDBRANCH   6   7
ENDBRANCH   5   6
ENDBRANCH   4   5
ENDBRANCH   3   4
ENDBRANCH   2   3
ENDBRANCH   1   2
BRANCH   1  15
ATOM     15  C   UNL     1      26.366  45.477   7.318  1.00  0.00     0.000 C 
BRANCH  15  16
ATOM     16  C   UNL     1      25.655  44.756   6.159  1.00  0.00     0.000 C 
BRANCH  16  17
ATOM     17  C   UNL     1      26.414  43.512   5.672  1.00  0.00     0.000 C 
BRANCH  17  18
ATOM     18  C   UNL     1      25.835  42.946   4.363  1.00  0.00    -0.000 C 
BRANCH  18  19
ATOM     19  C   UNL     1      24.791  41.848   4.611  1.00  0.00    -0.000 C 
BRANCH  19  20
ATOM     20  C   UNL     1      23.469  42.175   3.905  1.00  0.00    -0.000 C 
BRANCH  20  21
ATOM     21  C   UNL     1      23.679  42.319   2.389  1.00  0.00    -0.000 C 
BRANCH  21  22
ATOM     22  C   UNL     1      23.360  43.736   1.885  1.00  0.00    -0.000 C 
BRANCH  22  23
ATOM     23  C   UNL     1      24.423  44.763   2.308  1.00  0.00    -0.000 C 
BRANCH  23  24
ATOM     24  C   UNL     1      24.440  45.995   1.379  1.00  0.00    -0.000 C 
BRANCH  24  25
ATOM     25  C   UNL     1      25.810  46.693   1.308  1.00  0.00    -0.003 C 
ATOM     26  C   UNL     1      25.820  48.063   1.980  1.00  0.00     0.004 C 
ENDBRANCH  24  25
ENDBRANCH  23  24
ENDBRANCH  22  23
ENDBRANCH  21  22
ENDBRANCH  20  21
ENDBRANCH  19  20
ENDBRANCH  18  19
ENDBRANCH  17  18
ENDBRANCH  16  17
ENDBRANCH  15  16
ENDBRANCH   1  15
TORSDOF 22
ENDMDL
