MODEL 1
REMARK VINA RESULT:    -5.384      0.000      0.000
REMARK INTER + INTRA:         -11.861
REMARK INTER:                  -8.846
REMARK INTRA:                  -3.015
REMARK UNBOUND:                -3.015
REMARK SMILES C[C@@H]1O[C@@H](OC[C@@H]2O[C@@H](Oc3c(-c4ccc(O)c(O)c4)oc4cc(O)cc(O)c4c3=O)[C@@H](O)[C@@H](O)[C@H]2O)[C@H](O)[C@H](O)[C@@H]1O
REMARK SMILES IDX 7 1 36 2 34 3 32 4 9 5 8 6 6 7 5 8 4 9 1 10 2 11 42 12 3 13
REMARK SMILES IDX 40 14 38 15 43 16 41 18 39 20 37 22 35 24 10 26 11 27 12 28
REMARK SMILES IDX 30 29 21 30 29 31 31 32 22 33 27 34 23 35 26 36 24 37 13 38
REMARK SMILES IDX 20 39 14 40 18 41 15 42 16 43 19 44 17 46 28 48 25 50 33 52
REMARK H PARENT 43 17 41 19 39 21 37 23 35 25 19 45 17 47 28 49 25 51 33 53
REMARK Flexibility Score: inf
ROOT
ATOM      1  C   UNL     1     136.164 132.833 118.305  1.00  0.00     0.180 C 
ATOM      2  C   UNL     1     135.288 134.112 118.296  1.00  0.00     0.177 C 
ATOM      3  C   UNL     1     134.047 133.863 119.211  1.00  0.00     0.180 C 
ATOM      4  C   UNL     1     133.368 132.548 118.785  1.00  0.00     0.214 C 
ATOM      5  C   UNL     1     134.375 131.365 118.537  1.00  0.00     0.339 C 
ATOM      6  O   UNL     1     135.430 131.770 117.691  1.00  0.00    -0.332 OA
ENDROOT
BRANCH   1   7
ATOM      7  C   UNL     1     137.492 133.096 117.576  1.00  0.00     0.198 C 
BRANCH   7   8
ATOM      8  O   UNL     1     137.283 133.794 116.343  1.00  0.00    -0.347 OA
BRANCH   8   9
ATOM      9  C   UNL     1     137.620 133.045 115.174  1.00  0.00     0.281 C 
ATOM     10  C   UNL     1     134.972 131.267 113.240  1.00  0.00     0.041 C 
ATOM     11  C   UNL     1     135.985 131.436 114.366  1.00  0.00     0.150 C 
ATOM     12  C   UNL     1     137.010 130.268 114.507  1.00  0.00     0.174 C 
ATOM     13  O   UNL     1     136.581 132.748 114.252  1.00  0.00    -0.344 OA
ATOM     14  C   UNL     1     138.463 130.757 114.383  1.00  0.00     0.179 C 
ATOM     15  C   UNL     1     138.643 131.866 115.446  1.00  0.00     0.202 C 
BRANCH  12  16
ATOM     16  O   UNL     1     136.780 129.230 113.576  1.00  0.00    -0.388 OA
ATOM     17  H   UNL     1     135.842 129.350 113.256  1.00  0.00     0.211 HD
ENDBRANCH  12  16
BRANCH  14  18
ATOM     18  O   UNL     1     138.749 131.323 113.126  1.00  0.00    -0.387 OA
ATOM     19  H   UNL     1     138.299 132.207 113.025  1.00  0.00     0.211 HD
ENDBRANCH  14  18
BRANCH  15  20
ATOM     20  O   UNL     1     139.977 132.299 115.458  1.00  0.00    -0.385 OA
ATOM     21  H   UNL     1     140.405 131.878 116.238  1.00  0.00     0.211 HD
ENDBRANCH  15  20
ENDBRANCH   8   9
ENDBRANCH   7   8
ENDBRANCH   1   7
BRANCH   2  22
ATOM     22  O   UNL     1     136.022 135.253 118.735  1.00  0.00    -0.387 OA
ATOM     23  H   UNL     1     136.646 134.964 119.421  1.00  0.00     0.211 HD
ENDBRANCH   2  22
BRANCH   3  24
ATOM     24  O   UNL     1     134.451 133.816 120.571  1.00  0.00    -0.387 OA
ATOM     25  H   UNL     1     135.252 134.389 120.654  1.00  0.00     0.211 HD
ENDBRANCH   3  24
BRANCH   5  26
ATOM     26  O   UNL     1     134.882 130.748 119.710  1.00  0.00    -0.454 OA
BRANCH  26  27
ATOM     27  C   UNL     1     135.380 129.454 119.759  1.00  0.00     0.214 A 
ATOM     28  C   UNL     1     134.558 128.324 119.707  1.00  0.00     0.180 A 
ATOM     29  C   UNL     1     136.698 129.225 120.213  1.00  0.00     0.239 A 
ATOM     30  O   UNL     1     134.678 127.442 120.722  1.00  0.00    -0.452 OA
ATOM     31  C   UNL     1     136.906 128.214 121.191  1.00  0.00     0.111 A 
ATOM     32  O   UNL     1     137.602 130.079 119.928  1.00  0.00    -0.285 OA
ATOM     33  C   UNL     1     135.761 127.422 121.536  1.00  0.00     0.146 A 
ATOM     34  C   UNL     1     138.106 128.002 121.915  1.00  0.00     0.134 A 
ATOM     35  C   UNL     1     135.727 126.683 122.725  1.00  0.00     0.094 A 
ATOM     36  C   UNL     1     138.081 127.251 123.097  1.00  0.00     0.093 A 
ATOM     37  C   UNL     1     136.892 126.614 123.537  1.00  0.00     0.123 A 
BRANCH  28  38
ATOM     38  C   UNL     1     134.164 127.709 118.428  1.00  0.00     0.025 A 
ATOM     39  C   UNL     1     134.468 128.233 117.133  1.00  0.00     0.062 A 
ATOM     40  C   UNL     1     133.356 126.530 118.521  1.00  0.00     0.016 A 
ATOM     41  C   UNL     1     134.008 127.587 115.984  1.00  0.00     0.158 A 
ATOM     42  C   UNL     1     132.855 125.944 117.371  1.00  0.00     0.051 A 
ATOM     43  C   UNL     1     133.149 126.481 116.119  1.00  0.00     0.157 A 
BRANCH  41  44
ATOM     44  O   UNL     1     134.299 128.080 114.693  1.00  0.00    -0.504 OA
ATOM     45  H   UNL     1     133.616 128.087 113.928  1.00  0.00     0.293 HD
ENDBRANCH  41  44
BRANCH  43  46
ATOM     46  O   UNL     1     132.543 125.912 114.971  1.00  0.00    -0.504 OA
ATOM     47  H   UNL     1     132.148 126.467 114.194  1.00  0.00     0.293 HD
ENDBRANCH  43  46
ENDBRANCH  28  38
BRANCH  34  48
ATOM     48  O   UNL     1     139.357 128.521 121.502  1.00  0.00    -0.507 OA
ATOM     49  H   UNL     1     139.538 129.506 121.352  1.00  0.00     0.293 HD
ENDBRANCH  34  48
BRANCH  37  50
ATOM     50  O   UNL     1     136.889 125.890 124.762  1.00  0.00    -0.508 OA
ATOM     51  H   UNL     1     136.595 124.917 124.812  1.00  0.00     0.293 HD
ENDBRANCH  37  50
ENDBRANCH  26  27
ENDBRANCH   5  26
BRANCH   4  52
ATOM     52  O   UNL     1     132.340 132.195 119.722  1.00  0.00    -0.384 OA
ATOM     53  H   UNL     1     131.643 132.927 119.745  1.00  0.00     0.211 HD
ENDBRANCH   4  52
TORSDOF 16
ENDMDL
MODEL 2
REMARK VINA RESULT:    -5.247      5.724     11.106
REMARK INTER + INTRA:         -11.637
REMARK INTER:                  -8.226
REMARK INTRA:                  -3.411
REMARK UNBOUND:                -3.015
REMARK SMILES C[C@@H]1O[C@@H](OC[C@@H]2O[C@@H](Oc3c(-c4ccc(O)c(O)c4)oc4cc(O)cc(O)c4c3=O)[C@@H](O)[C@@H](O)[C@H]2O)[C@H](O)[C@H](O)[C@@H]1O
REMARK SMILES IDX 7 1 36 2 34 3 32 4 9 5 8 6 6 7 5 8 4 9 1 10 2 11 42 12 3 13
REMARK SMILES IDX 40 14 38 15 43 16 41 18 39 20 37 22 35 24 10 26 11 27 12 28
REMARK SMILES IDX 30 29 21 30 29 31 31 32 22 33 27 34 23 35 26 36 24 37 13 38
REMARK SMILES IDX 20 39 14 40 18 41 15 42 16 43 19 44 17 46 28 48 25 50 33 52
REMARK H PARENT 43 17 41 19 39 21 37 23 35 25 19 45 17 47 28 49 25 51 33 53
REMARK Flexibility Score: inf
ROOT
ATOM      1  C   UNL     1     138.793 127.841 123.780  1.00  0.00     0.180 C 
ATOM      2  C   UNL     1     138.634 127.390 122.306  1.00  0.00     0.177 C 
ATOM      3  C   UNL     1     138.453 128.663 121.420  1.00  0.00     0.180 C 
ATOM      4  C   UNL     1     137.326 129.529 122.013  1.00  0.00     0.214 C 
ATOM      5  C   UNL     1     137.409 129.699 123.574  1.00  0.00     0.339 C 
ATOM      6  O   UNL     1     137.572 128.448 124.210  1.00  0.00    -0.332 OA
ENDROOT
BRANCH   1   7
ATOM      7  C   UNL     1     139.166 126.638 124.664  1.00  0.00     0.198 C 
BRANCH   7   8
ATOM      8  O   UNL     1     140.585 126.515 124.807  1.00  0.00    -0.347 OA
BRANCH   8   9
ATOM      9  C   UNL     1     141.048 126.532 126.159  1.00  0.00     0.281 C 
ATOM     10  C   UNL     1     139.407 128.724 128.691  1.00  0.00     0.041 C 
ATOM     11  C   UNL     1     140.367 128.406 127.552  1.00  0.00     0.150 C 
ATOM     12  C   UNL     1     141.855 128.795 127.819  1.00  0.00     0.174 C 
ATOM     13  O   UNL     1     140.167 127.029 127.157  1.00  0.00    -0.344 OA
ATOM     14  C   UNL     1     142.796 127.584 127.710  1.00  0.00     0.179 C 
ATOM     15  C   UNL     1     142.562 126.973 126.308  1.00  0.00     0.202 C 
BRANCH  12  16
ATOM     16  O   UNL     1     142.033 129.421 129.073  1.00  0.00    -0.388 OA
ATOM     17  H   UNL     1     141.655 128.794 129.751  1.00  0.00     0.211 HD
ENDBRANCH  12  16
BRANCH  14  18
ATOM     18  O   UNL     1     142.521 126.584 128.661  1.00  0.00    -0.387 OA
ATOM     19  H   UNL     1     143.358 126.291 129.118  1.00  0.00     0.211 HD
ENDBRANCH  14  18
BRANCH  15  20
ATOM     20  O   UNL     1     143.458 125.915 126.098  1.00  0.00    -0.385 OA
ATOM     21  H   UNL     1     143.645 125.889 125.132  1.00  0.00     0.211 HD
ENDBRANCH  15  20
ENDBRANCH   8   9
ENDBRANCH   7   8
ENDBRANCH   1   7
BRANCH   2  22
ATOM     22  O   UNL     1     139.752 126.621 121.869  1.00  0.00    -0.387 OA
ATOM     23  H   UNL     1     139.928 125.938 122.536  1.00  0.00     0.211 HD
ENDBRANCH   2  22
BRANCH   3  24
ATOM     24  O   UNL     1     139.675 129.384 121.357  1.00  0.00    -0.387 OA
ATOM     25  H   UNL     1     140.257 128.909 120.714  1.00  0.00     0.211 HD
ENDBRANCH   3  24
BRANCH   5  26
ATOM     26  O   UNL     1     138.386 130.622 124.029  1.00  0.00    -0.454 OA
BRANCH  26  27
ATOM     27  C   UNL     1     138.142 131.621 124.962  1.00  0.00     0.214 A 
ATOM     28  C   UNL     1     138.535 131.518 126.300  1.00  0.00     0.180 A 
ATOM     29  C   UNL     1     137.186 132.622 124.685  1.00  0.00     0.239 A 
ATOM     30  O   UNL     1     137.565 131.669 127.228  1.00  0.00    -0.452 OA
ATOM     31  C   UNL     1     136.214 132.918 125.680  1.00  0.00     0.111 A 
ATOM     32  O   UNL     1     137.068 133.044 123.486  1.00  0.00    -0.285 OA
ATOM     33  C   UNL     1     136.377 132.253 126.940  1.00  0.00     0.146 A 
ATOM     34  C   UNL     1     135.060 133.720 125.493  1.00  0.00     0.134 A 
ATOM     35  C   UNL     1     135.312 132.149 127.843  1.00  0.00     0.094 A 
ATOM     36  C   UNL     1     133.998 133.632 126.402  1.00  0.00     0.093 A 
ATOM     37  C   UNL     1     134.091 132.824 127.564  1.00  0.00     0.123 A 
BRANCH  28  38
ATOM     38  C   UNL     1     139.866 131.957 126.755  1.00  0.00     0.025 A 
ATOM     39  C   UNL     1     141.066 131.883 125.982  1.00  0.00     0.062 A 
ATOM     40  C   UNL     1     139.944 132.428 128.105  1.00  0.00     0.016 A 
ATOM     41  C   UNL     1     142.284 132.291 126.529  1.00  0.00     0.158 A 
ATOM     42  C   UNL     1     141.172 132.763 128.648  1.00  0.00     0.051 A 
ATOM     43  C   UNL     1     142.333 132.668 127.884  1.00  0.00     0.157 A 
BRANCH  41  44
ATOM     44  O   UNL     1     143.484 132.235 125.786  1.00  0.00    -0.504 OA
ATOM     45  H   UNL     1     143.513 132.019 124.784  1.00  0.00     0.293 HD
ENDBRANCH  41  44
BRANCH  43  46
ATOM     46  O   UNL     1     143.582 132.929 128.500  1.00  0.00    -0.504 OA
ATOM     47  H   UNL     1     144.434 132.368 128.335  1.00  0.00     0.293 HD
ENDBRANCH  43  46
ENDBRANCH  28  38
BRANCH  34  48
ATOM     48  O   UNL     1     134.918 134.625 124.413  1.00  0.00    -0.507 OA
ATOM     49  H   UNL     1     134.043 135.066 124.159  1.00  0.00     0.293 HD
ENDBRANCH  34  48
BRANCH  37  50
ATOM     50  O   UNL     1     132.981 132.724 128.447  1.00  0.00    -0.508 OA
ATOM     51  H   UNL     1     132.993 133.138 129.377  1.00  0.00     0.293 HD
ENDBRANCH  37  50
ENDBRANCH  26  27
ENDBRANCH   5  26
BRANCH   4  52
ATOM     52  O   UNL     1     137.262 130.792 121.334  1.00  0.00    -0.384 OA
ATOM     53  H   UNL     1     136.893 131.491 121.964  1.00  0.00     0.211 HD
ENDBRANCH   4  52
TORSDOF 16
ENDMDL
MODEL 3
REMARK VINA RESULT:    -5.102      1.962      6.780
REMARK INTER + INTRA:         -11.397
REMARK INTER:                  -9.153
REMARK INTRA:                  -2.245
REMARK UNBOUND:                -3.015
REMARK SMILES C[C@@H]1O[C@@H](OC[C@@H]2O[C@@H](Oc3c(-c4ccc(O)c(O)c4)oc4cc(O)cc(O)c4c3=O)[C@@H](O)[C@@H](O)[C@H]2O)[C@H](O)[C@H](O)[C@@H]1O
REMARK SMILES IDX 7 1 36 2 34 3 32 4 9 5 8 6 6 7 5 8 4 9 1 10 2 11 42 12 3 13
REMARK SMILES IDX 40 14 38 15 43 16 41 18 39 20 37 22 35 24 10 26 11 27 12 28
REMARK SMILES IDX 30 29 21 30 29 31 31 32 22 33 27 34 23 35 26 36 24 37 13 38
REMARK SMILES IDX 20 39 14 40 18 41 15 42 16 43 19 44 17 46 28 48 25 50 33 52
REMARK H PARENT 43 17 41 19 39 21 37 23 35 25 19 45 17 47 28 49 25 51 33 53
REMARK Flexibility Score: inf
ROOT
ATOM      1  C   UNL     1     136.052 132.347 118.743  1.00  0.00     0.180 C 
ATOM      2  C   UNL     1     135.206 133.573 119.172  1.00  0.00     0.177 C 
ATOM      3  C   UNL     1     133.796 133.451 118.509  1.00  0.00     0.180 C 
ATOM      4  C   UNL     1     133.974 133.217 116.998  1.00  0.00     0.214 C 
ATOM      5  C   UNL     1     135.070 132.146 116.644  1.00  0.00     0.339 C 
ATOM      6  O   UNL     1     136.275 132.412 117.332  1.00  0.00    -0.332 OA
ENDROOT
BRANCH   1   7
ATOM      7  C   UNL     1     137.378 132.321 119.523  1.00  0.00     0.198 C 
BRANCH   7   8
ATOM      8  O   UNL     1     137.293 131.471 120.671  1.00  0.00    -0.347 OA
BRANCH   8   9
ATOM      9  C   UNL     1     137.669 130.113 120.432  1.00  0.00     0.281 C 
ATOM     10  C   UNL     1     135.187 127.361 120.851  1.00  0.00     0.041 C 
ATOM     11  C   UNL     1     136.221 128.376 121.325  1.00  0.00     0.150 C 
ATOM     12  C   UNL     1     137.395 127.775 122.160  1.00  0.00     0.174 C 
ATOM     13  O   UNL     1     136.636 129.169 120.189  1.00  0.00    -0.344 OA
ATOM     14  C   UNL     1     138.764 128.070 121.526  1.00  0.00     0.179 C 
ATOM     15  C   UNL     1     138.848 129.606 121.360  1.00  0.00     0.202 C 
BRANCH  12  16
ATOM     16  O   UNL     1     137.258 126.384 122.364  1.00  0.00    -0.388 OA
ATOM     17  H   UNL     1     136.514 126.090 121.767  1.00  0.00     0.211 HD
ENDBRANCH  12  16
BRANCH  14  18
ATOM     18  O   UNL     1     138.916 127.496 120.250  1.00  0.00    -0.387 OA
ATOM     19  H   UNL     1     139.198 126.542 120.322  1.00  0.00     0.211 HD
ENDBRANCH  14  18
BRANCH  15  20
ATOM     20  O   UNL     1     140.114 129.961 120.872  1.00  0.00    -0.385 OA
ATOM     21  H   UNL     1     139.979 130.711 120.250  1.00  0.00     0.211 HD
ENDBRANCH  15  20
ENDBRANCH   8   9
ENDBRANCH   7   8
ENDBRANCH   1   7
BRANCH   2  22
ATOM     22  O   UNL     1     135.094 133.663 120.590  1.00  0.00    -0.387 OA
ATOM     23  H   UNL     1     134.169 133.493 120.831  1.00  0.00     0.211 HD
ENDBRANCH   2  22
BRANCH   3  24
ATOM     24  O   UNL     1     133.069 132.391 119.111  1.00  0.00    -0.387 OA
ATOM     25  H   UNL     1     132.257 132.788 119.510  1.00  0.00     0.211 HD
ENDBRANCH   3  24
BRANCH   5  26
ATOM     26  O   UNL     1     134.677 130.796 116.829  1.00  0.00    -0.454 OA
BRANCH  26  27
ATOM     27  C   UNL     1     134.519 129.880 115.798  1.00  0.00     0.214 A 
ATOM     28  C   UNL     1     134.471 130.258 114.452  1.00  0.00     0.180 A 
ATOM     29  C   UNL     1     134.051 128.578 116.080  1.00  0.00     0.239 A 
ATOM     30  O   UNL     1     133.384 129.865 113.753  1.00  0.00    -0.452 OA
ATOM     31  C   UNL     1     132.991 128.058 115.288  1.00  0.00     0.111 A 
ATOM     32  O   UNL     1     134.412 128.019 117.169  1.00  0.00    -0.285 OA
ATOM     33  C   UNL     1     132.575 128.865 114.178  1.00  0.00     0.146 A 
ATOM     34  C   UNL     1     132.255 126.879 115.568  1.00  0.00     0.134 A 
ATOM     35  C   UNL     1     131.328 128.672 113.573  1.00  0.00     0.094 A 
ATOM     36  C   UNL     1     131.013 126.673 114.954  1.00  0.00     0.093 A 
ATOM     37  C   UNL     1     130.516 127.578 113.980  1.00  0.00     0.123 A 
BRANCH  28  38
ATOM     38  C   UNL     1     135.691 130.379 113.635  1.00  0.00     0.025 A 
ATOM     39  C   UNL     1     135.738 130.862 112.291  1.00  0.00     0.062 A 
ATOM     40  C   UNL     1     136.900 129.906 114.240  1.00  0.00     0.016 A 
ATOM     41  C   UNL     1     136.948 130.896 111.595  1.00  0.00     0.158 A 
ATOM     42  C   UNL     1     138.075 129.886 113.508  1.00  0.00     0.051 A 
ATOM     43  C   UNL     1     138.097 130.346 112.192  1.00  0.00     0.157 A 
BRANCH  41  44
ATOM     44  O   UNL     1     137.024 131.374 110.268  1.00  0.00    -0.504 OA
ATOM     45  H   UNL     1     137.207 130.766 109.463  1.00  0.00     0.293 HD
ENDBRANCH  41  44
BRANCH  43  46
ATOM     46  O   UNL     1     139.294 130.223 111.444  1.00  0.00    -0.504 OA
ATOM     47  H   UNL     1     139.936 131.011 111.254  1.00  0.00     0.293 HD
ENDBRANCH  43  46
ENDBRANCH  28  38
BRANCH  34  48
ATOM     48  O   UNL     1     132.716 125.875 116.455  1.00  0.00    -0.507 OA
ATOM     49  H   UNL     1     132.250 124.987 116.592  1.00  0.00     0.293 HD
ENDBRANCH  34  48
BRANCH  37  50
ATOM     50  O   UNL     1     129.234 127.362 113.404  1.00  0.00    -0.508 OA
ATOM     51  H   UNL     1     128.680 128.125 113.021  1.00  0.00     0.293 HD
ENDBRANCH  37  50
ENDBRANCH  26  27
ENDBRANCH   5  26
BRANCH   4  52
ATOM     52  O   UNL     1     132.708 132.914 116.391  1.00  0.00    -0.384 OA
ATOM     53  H   UNL     1     131.968 133.335 116.935  1.00  0.00     0.211 HD
ENDBRANCH   4  52
TORSDOF 16
ENDMDL
MODEL 4
REMARK VINA RESULT:    -5.070      2.475      7.411
REMARK INTER + INTRA:         -11.346
REMARK INTER:                  -8.570
REMARK INTRA:                  -2.776
REMARK UNBOUND:                -3.015
REMARK SMILES C[C@@H]1O[C@@H](OC[C@@H]2O[C@@H](Oc3c(-c4ccc(O)c(O)c4)oc4cc(O)cc(O)c4c3=O)[C@@H](O)[C@@H](O)[C@H]2O)[C@H](O)[C@H](O)[C@@H]1O
REMARK SMILES IDX 7 1 36 2 34 3 32 4 9 5 8 6 6 7 5 8 4 9 1 10 2 11 42 12 3 13
REMARK SMILES IDX 40 14 38 15 43 16 41 18 39 20 37 22 35 24 10 26 11 27 12 28
REMARK SMILES IDX 30 29 21 30 29 31 31 32 22 33 27 34 23 35 26 36 24 37 13 38
REMARK SMILES IDX 20 39 14 40 18 41 15 42 16 43 19 44 17 46 28 48 25 50 33 52
REMARK H PARENT 43 17 41 19 39 21 37 23 35 25 19 45 17 47 28 49 25 51 33 53
REMARK Flexibility Score: inf
ROOT
ATOM      1  C   UNL     1     135.652 128.755 119.509  1.00  0.00     0.180 C 
ATOM      2  C   UNL     1     135.320 127.521 120.386  1.00  0.00     0.177 C 
ATOM      3  C   UNL     1     134.871 126.357 119.446  1.00  0.00     0.180 C 
ATOM      4  C   UNL     1     133.760 126.870 118.512  1.00  0.00     0.214 C 
ATOM      5  C   UNL     1     134.060 128.279 117.880  1.00  0.00     0.339 C 
ATOM      6  O   UNL     1     134.451 129.204 118.874  1.00  0.00    -0.332 OA
ENDROOT
BRANCH   1   7
ATOM      7  C   UNL     1     136.282 129.863 120.370  1.00  0.00     0.198 C 
BRANCH   7   8
ATOM      8  O   UNL     1     137.705 129.725 120.439  1.00  0.00    -0.347 OA
BRANCH   8   9
ATOM      9  C   UNL     1     138.422 130.961 120.402  1.00  0.00     0.281 C 
ATOM     10  C   UNL     1     137.358 133.694 118.098  1.00  0.00     0.041 C 
ATOM     11  C   UNL     1     138.071 132.401 118.474  1.00  0.00     0.150 C 
ATOM     12  C   UNL     1     139.591 132.363 118.122  1.00  0.00     0.174 C 
ATOM     13  O   UNL     1     137.765 132.094 119.854  1.00  0.00    -0.344 OA
ATOM     14  C   UNL     1     140.463 132.110 119.363  1.00  0.00     0.179 C 
ATOM     15  C   UNL     1     139.947 130.800 120.003  1.00  0.00     0.202 C 
BRANCH  12  16
ATOM     16  O   UNL     1     140.025 133.539 117.470  1.00  0.00    -0.388 OA
ATOM     17  H   UNL     1     140.023 134.256 118.164  1.00  0.00     0.211 HD
ENDBRANCH  12  16
BRANCH  14  18
ATOM     18  O   UNL     1     140.355 133.127 120.330  1.00  0.00    -0.387 OA
ATOM     19  H   UNL     1     139.399 133.294 120.562  1.00  0.00     0.211 HD
ENDBRANCH  14  18
BRANCH  15  20
ATOM     20  O   UNL     1     140.759 130.453 121.092  1.00  0.00    -0.385 OA
ATOM     21  H   UNL     1     141.144 129.570 120.888  1.00  0.00     0.211 HD
ENDBRANCH  15  20
ENDBRANCH   8   9
ENDBRANCH   7   8
ENDBRANCH   1   7
BRANCH   2  22
ATOM     22  O   UNL     1     136.435 127.129 121.183  1.00  0.00    -0.387 OA
ATOM     23  H   UNL     1     136.183 126.338 121.687  1.00  0.00     0.211 HD
ENDBRANCH   2  22
BRANCH   3  24
ATOM     24  O   UNL     1     135.984 125.877 118.706  1.00  0.00    -0.387 OA
ATOM     25  H   UNL     1     136.629 125.513 119.360  1.00  0.00     0.211 HD
ENDBRANCH   3  24
BRANCH   5  26
ATOM     26  O   UNL     1     134.989 128.274 116.808  1.00  0.00    -0.454 OA
BRANCH  26  27
ATOM     27  C   UNL     1     134.722 128.774 115.541  1.00  0.00     0.214 A 
ATOM     28  C   UNL     1     135.143 130.040 115.123  1.00  0.00     0.180 A 
ATOM     29  C   UNL     1     133.721 128.174 114.746  1.00  0.00     0.239 A 
ATOM     30  O   UNL     1     134.185 130.875 114.666  1.00  0.00    -0.452 OA
ATOM     31  C   UNL     1     132.757 129.018 114.129  1.00  0.00     0.111 A 
ATOM     32  O   UNL     1     133.564 126.909 114.808  1.00  0.00    -0.285 OA
ATOM     33  C   UNL     1     132.970 130.429 114.269  1.00  0.00     0.146 A 
ATOM     34  C   UNL     1     131.568 128.582 113.492  1.00  0.00     0.134 A 
ATOM     35  C   UNL     1     131.926 131.339 114.060  1.00  0.00     0.094 A 
ATOM     36  C   UNL     1     130.527 129.492 113.266  1.00  0.00     0.093 A 
ATOM     37  C   UNL     1     130.675 130.868 113.577  1.00  0.00     0.123 A 
BRANCH  28  38
ATOM     38  C   UNL     1     136.464 130.255 114.505  1.00  0.00     0.025 A 
ATOM     39  C   UNL     1     136.920 129.635 113.301  1.00  0.00     0.062 A 
ATOM     40  C   UNL     1     137.363 131.105 115.225  1.00  0.00     0.016 A 
ATOM     41  C   UNL     1     138.210 129.879 112.825  1.00  0.00     0.158 A 
ATOM     42  C   UNL     1     138.659 131.280 114.772  1.00  0.00     0.051 A 
ATOM     43  C   UNL     1     139.090 130.653 113.604  1.00  0.00     0.157 A 
BRANCH  41  44
ATOM     44  O   UNL     1     138.684 129.284 111.635  1.00  0.00    -0.504 OA
ATOM     45  H   UNL     1     139.164 129.811 110.898  1.00  0.00     0.293 HD
ENDBRANCH  41  44
BRANCH  43  46
ATOM     46  O   UNL     1     140.449 130.779 113.221  1.00  0.00    -0.504 OA
ATOM     47  H   UNL     1     140.887 130.227 112.465  1.00  0.00     0.293 HD
ENDBRANCH  43  46
ENDBRANCH  28  38
BRANCH  34  48
ATOM     48  O   UNL     1     131.368 127.247 113.062  1.00  0.00    -0.507 OA
ATOM     49  H   UNL     1     130.458 126.839 112.894  1.00  0.00     0.293 HD
ENDBRANCH  34  48
BRANCH  37  50
ATOM     50  O   UNL     1     129.585 131.760 113.373  1.00  0.00    -0.508 OA
ATOM     51  H   UNL     1     128.628 131.503 113.606  1.00  0.00     0.293 HD
ENDBRANCH  37  50
ENDBRANCH  26  27
ENDBRANCH   5  26
BRANCH   4  52
ATOM     52  O   UNL     1     133.458 125.884 117.513  1.00  0.00    -0.384 OA
ATOM     53  H   UNL     1     133.064 125.067 117.959  1.00  0.00     0.211 HD
ENDBRANCH   4  52
TORSDOF 16
ENDMDL
MODEL 5
REMARK VINA RESULT:    -5.057      2.018      6.575
REMARK INTER + INTRA:         -11.323
REMARK INTER:                  -8.216
REMARK INTRA:                  -3.108
REMARK UNBOUND:                -3.015
REMARK SMILES C[C@@H]1O[C@@H](OC[C@@H]2O[C@@H](Oc3c(-c4ccc(O)c(O)c4)oc4cc(O)cc(O)c4c3=O)[C@@H](O)[C@@H](O)[C@H]2O)[C@H](O)[C@H](O)[C@@H]1O
REMARK SMILES IDX 7 1 36 2 34 3 32 4 9 5 8 6 6 7 5 8 4 9 1 10 2 11 42 12 3 13
REMARK SMILES IDX 40 14 38 15 43 16 41 18 39 20 37 22 35 24 10 26 11 27 12 28
REMARK SMILES IDX 30 29 21 30 29 31 31 32 22 33 27 34 23 35 26 36 24 37 13 38
REMARK SMILES IDX 20 39 14 40 18 41 15 42 16 43 19 44 17 46 28 48 25 50 33 52
REMARK H PARENT 43 17 41 19 39 21 37 23 35 25 19 45 17 47 28 49 25 51 33 53
REMARK Flexibility Score: inf
ROOT
ATOM      1  C   UNL     1     134.891 132.899 120.809  1.00  0.00     0.180 C 
ATOM      2  C   UNL     1     133.823 133.945 121.218  1.00  0.00     0.177 C 
ATOM      3  C   UNL     1     132.557 133.726 120.330  1.00  0.00     0.180 C 
ATOM      4  C   UNL     1     132.982 133.702 118.851  1.00  0.00     0.214 C 
ATOM      5  C   UNL     1     134.262 132.831 118.571  1.00  0.00     0.339 C 
ATOM      6  O   UNL     1     135.303 133.163 119.465  1.00  0.00    -0.332 OA
ENDROOT
BRANCH   1   7
ATOM      7  C   UNL     1     136.081 132.948 121.783  1.00  0.00     0.198 C 
BRANCH   7   8
ATOM      8  O   UNL     1     136.407 131.644 122.276  1.00  0.00    -0.347 OA
BRANCH   8   9
ATOM      9  C   UNL     1     137.392 130.951 121.507  1.00  0.00     0.281 C 
ATOM     10  C   UNL     1     136.945 127.343 120.674  1.00  0.00     0.041 C 
ATOM     11  C   UNL     1     137.344 128.520 121.556  1.00  0.00     0.150 C 
ATOM     12  C   UNL     1     138.804 128.465 122.104  1.00  0.00     0.174 C 
ATOM     13  O   UNL     1     137.006 129.745 120.865  1.00  0.00    -0.344 OA
ATOM     14  C   UNL     1     139.622 129.700 121.690  1.00  0.00     0.179 C 
ATOM     15  C   UNL     1     138.827 130.935 122.178  1.00  0.00     0.202 C 
BRANCH  12  16
ATOM     16  O   UNL     1     139.486 127.293 121.708  1.00  0.00    -0.388 OA
ATOM     17  H   UNL     1     139.313 127.189 120.731  1.00  0.00     0.211 HD
ENDBRANCH  12  16
BRANCH  14  18
ATOM     18  O   UNL     1     139.776 129.818 120.296  1.00  0.00    -0.387 OA
ATOM     19  H   UNL     1     139.946 128.927 119.882  1.00  0.00     0.211 HD
ENDBRANCH  14  18
BRANCH  15  20
ATOM     20  O   UNL     1     139.560 132.102 121.919  1.00  0.00    -0.385 OA
ATOM     21  H   UNL     1     140.501 131.830 121.818  1.00  0.00     0.211 HD
ENDBRANCH  15  20
ENDBRANCH   8   9
ENDBRANCH   7   8
ENDBRANCH   1   7
BRANCH   2  22
ATOM     22  O   UNL     1     133.496 133.847 122.602  1.00  0.00    -0.387 OA
ATOM     23  H   UNL     1     132.614 133.448 122.676  1.00  0.00     0.211 HD
ENDBRANCH   2  22
BRANCH   3  24
ATOM     24  O   UNL     1     131.912 132.516 120.699  1.00  0.00    -0.387 OA
ATOM     25  H   UNL     1     131.775 132.549 121.677  1.00  0.00     0.211 HD
ENDBRANCH   3  24
BRANCH   5  26
ATOM     26  O   UNL     1     134.045 131.429 118.554  1.00  0.00    -0.454 OA
BRANCH  26  27
ATOM     27  C   UNL     1     134.740 130.542 117.743  1.00  0.00     0.214 A 
ATOM     28  C   UNL     1     135.423 130.945 116.592  1.00  0.00     0.180 A 
ATOM     29  C   UNL     1     134.496 129.155 117.850  1.00  0.00     0.239 A 
ATOM     30  O   UNL     1     135.087 130.323 115.441  1.00  0.00    -0.452 OA
ATOM     31  C   UNL     1     134.264 128.419 116.656  1.00  0.00     0.111 A 
ATOM     32  O   UNL     1     134.247 128.662 119.001  1.00  0.00    -0.285 OA
ATOM     33  C   UNL     1     134.429 129.139 115.427  1.00  0.00     0.146 A 
ATOM     34  C   UNL     1     133.788 127.085 116.589  1.00  0.00     0.134 A 
ATOM     35  C   UNL     1     133.869 128.666 114.234  1.00  0.00     0.094 A 
ATOM     36  C   UNL     1     133.241 126.601 115.393  1.00  0.00     0.093 A 
ATOM     37  C   UNL     1     133.240 127.391 114.215  1.00  0.00     0.123 A 
BRANCH  28  38
ATOM     38  C   UNL     1     136.825 131.394 116.638  1.00  0.00     0.025 A 
ATOM     39  C   UNL     1     137.590 131.585 117.830  1.00  0.00     0.062 A 
ATOM     40  C   UNL     1     137.421 131.721 115.378  1.00  0.00     0.016 A 
ATOM     41  C   UNL     1     138.903 132.054 117.759  1.00  0.00     0.158 A 
ATOM     42  C   UNL     1     138.700 132.248 115.335  1.00  0.00     0.051 A 
ATOM     43  C   UNL     1     139.424 132.443 116.511  1.00  0.00     0.157 A 
BRANCH  41  44
ATOM     44  O   UNL     1     139.683 132.246 118.921  1.00  0.00    -0.504 OA
ATOM     45  H   UNL     1     140.567 131.755 119.090  1.00  0.00     0.293 HD
ENDBRANCH  41  44
BRANCH  43  46
ATOM     46  O   UNL     1     140.692 133.071 116.438  1.00  0.00    -0.504 OA
ATOM     47  H   UNL     1     141.502 132.801 117.020  1.00  0.00     0.293 HD
ENDBRANCH  43  46
ENDBRANCH  28  38
BRANCH  34  48
ATOM     48  O   UNL     1     133.835 126.194 117.689  1.00  0.00    -0.507 OA
ATOM     49  H   UNL     1     133.462 125.253 117.669  1.00  0.00     0.293 HD
ENDBRANCH  34  48
BRANCH  37  50
ATOM     50  O   UNL     1     132.642 126.887 113.027  1.00  0.00    -0.508 OA
ATOM     51  H   UNL     1     133.034 126.096 112.520  1.00  0.00     0.293 HD
ENDBRANCH  37  50
ENDBRANCH  26  27
ENDBRANCH   5  26
BRANCH   4  52
ATOM     52  O   UNL     1     131.874 133.316 118.023  1.00  0.00    -0.384 OA
ATOM     53  H   UNL     1     131.598 132.371 118.253  1.00  0.00     0.211 HD
ENDBRANCH   4  52
TORSDOF 16
ENDMDL
MODEL 6
REMARK VINA RESULT:    -5.042      1.143      2.235
REMARK INTER + INTRA:         -11.299
REMARK INTER:                  -9.108
REMARK INTRA:                  -2.191
REMARK UNBOUND:                -3.015
REMARK SMILES C[C@@H]1O[C@@H](OC[C@@H]2O[C@@H](Oc3c(-c4ccc(O)c(O)c4)oc4cc(O)cc(O)c4c3=O)[C@@H](O)[C@@H](O)[C@H]2O)[C@H](O)[C@H](O)[C@@H]1O
REMARK SMILES IDX 7 1 36 2 34 3 32 4 9 5 8 6 6 7 5 8 4 9 1 10 2 11 42 12 3 13
REMARK SMILES IDX 40 14 38 15 43 16 41 18 39 20 37 22 35 24 10 26 11 27 12 28
REMARK SMILES IDX 30 29 21 30 29 31 31 32 22 33 27 34 23 35 26 36 24 37 13 38
REMARK SMILES IDX 20 39 14 40 18 41 15 42 16 43 19 44 17 46 28 48 25 50 33 52
REMARK H PARENT 43 17 41 19 39 21 37 23 35 25 19 45 17 47 28 49 25 51 33 53
REMARK Flexibility Score: inf
ROOT
ATOM      1  C   UNL     1     135.906 133.006 118.406  1.00  0.00     0.180 C 
ATOM      2  C   UNL     1     134.982 134.250 118.452  1.00  0.00     0.177 C 
ATOM      3  C   UNL     1     133.780 133.934 119.397  1.00  0.00     0.180 C 
ATOM      4  C   UNL     1     133.139 132.603 118.963  1.00  0.00     0.214 C 
ATOM      5  C   UNL     1     134.182 131.464 118.659  1.00  0.00     0.339 C 
ATOM      6  O   UNL     1     135.195 131.928 117.791  1.00  0.00    -0.332 OA
ENDROOT
BRANCH   1   7
ATOM      7  C   UNL     1     137.200 133.336 117.643  1.00  0.00     0.198 C 
BRANCH   7   8
ATOM      8  O   UNL     1     137.307 132.568 116.439  1.00  0.00    -0.347 OA
BRANCH   8   9
ATOM      9  C   UNL     1     138.500 131.787 116.340  1.00  0.00     0.281 C 
ATOM     10  C   UNL     1     141.733 133.095 117.661  1.00  0.00     0.041 C 
ATOM     11  C   UNL     1     140.621 132.939 116.631  1.00  0.00     0.150 C 
ATOM     12  C   UNL     1     141.099 132.496 115.212  1.00  0.00     0.174 C 
ATOM     13  O   UNL     1     139.582 132.112 117.201  1.00  0.00    -0.344 OA
ATOM     14  C   UNL     1     140.428 131.189 114.761  1.00  0.00     0.179 C 
ATOM     15  C   UNL     1     138.902 131.425 114.851  1.00  0.00     0.202 C 
BRANCH  12  16
ATOM     16  O   UNL     1     142.503 132.360 115.132  1.00  0.00    -0.388 OA
ATOM     17  H   UNL     1     142.752 132.610 114.199  1.00  0.00     0.211 HD
ENDBRANCH  12  16
BRANCH  14  18
ATOM     18  O   UNL     1     140.738 130.094 115.590  1.00  0.00    -0.387 OA
ATOM     19  H   UNL     1     141.411 130.352 116.280  1.00  0.00     0.211 HD
ENDBRANCH  14  18
BRANCH  15  20
ATOM     20  O   UNL     1     138.218 130.302 114.362  1.00  0.00    -0.385 OA
ATOM     21  H   UNL     1     138.575 129.521 114.844  1.00  0.00     0.211 HD
ENDBRANCH  15  20
ENDBRANCH   8   9
ENDBRANCH   7   8
ENDBRANCH   1   7
BRANCH   2  22
ATOM     22  O   UNL     1     135.685 135.409 118.894  1.00  0.00    -0.387 OA
ATOM     23  H   UNL     1     135.200 135.787 119.645  1.00  0.00     0.211 HD
ENDBRANCH   2  22
BRANCH   3  24
ATOM     24  O   UNL     1     134.227 133.874 120.743  1.00  0.00    -0.387 OA
ATOM     25  H   UNL     1     133.424 133.762 121.309  1.00  0.00     0.211 HD
ENDBRANCH   3  24
BRANCH   5  26
ATOM     26  O   UNL     1     134.749 130.844 119.802  1.00  0.00    -0.454 OA
BRANCH  26  27
ATOM     27  C   UNL     1     135.334 129.586 119.799  1.00  0.00     0.214 A 
ATOM     28  C   UNL     1     134.586 128.404 119.747  1.00  0.00     0.180 A 
ATOM     29  C   UNL     1     136.679 129.435 120.199  1.00  0.00     0.239 A 
ATOM     30  O   UNL     1     134.804 127.508 120.733  1.00  0.00    -0.452 OA
ATOM     31  C   UNL     1     136.991 128.417 121.141  1.00  0.00     0.111 A 
ATOM     32  O   UNL     1     137.514 130.354 119.904  1.00  0.00    -0.285 OA
ATOM     33  C   UNL     1     135.915 127.542 121.506  1.00  0.00     0.146 A 
ATOM     34  C   UNL     1     138.229 128.269 121.816  1.00  0.00     0.134 A 
ATOM     35  C   UNL     1     135.976 126.773 122.675  1.00  0.00     0.094 A 
ATOM     36  C   UNL     1     138.299 127.489 122.978  1.00  0.00     0.093 A 
ATOM     37  C   UNL     1     137.173 126.763 123.443  1.00  0.00     0.123 A 
BRANCH  28  38
ATOM     38  C   UNL     1     134.186 127.795 118.466  1.00  0.00     0.025 A 
ATOM     39  C   UNL     1     134.496 128.318 117.173  1.00  0.00     0.062 A 
ATOM     40  C   UNL     1     133.367 126.624 118.558  1.00  0.00     0.016 A 
ATOM     41  C   UNL     1     134.029 127.678 116.023  1.00  0.00     0.158 A 
ATOM     42  C   UNL     1     132.860 126.045 117.408  1.00  0.00     0.051 A 
ATOM     43  C   UNL     1     133.159 126.580 116.156  1.00  0.00     0.157 A 
BRANCH  41  44
ATOM     44  O   UNL     1     134.325 128.170 114.732  1.00  0.00    -0.504 OA
ATOM     45  H   UNL     1     134.177 129.146 114.456  1.00  0.00     0.293 HD
ENDBRANCH  41  44
BRANCH  43  46
ATOM     46  O   UNL     1     132.547 126.019 115.007  1.00  0.00    -0.504 OA
ATOM     47  H   UNL     1     132.984 126.007 114.070  1.00  0.00     0.293 HD
ENDBRANCH  43  46
ENDBRANCH  28  38
BRANCH  34  48
ATOM     48  O   UNL     1     139.427 128.881 121.372  1.00  0.00    -0.507 OA
ATOM     49  H   UNL     1     139.668 129.847 121.555  1.00  0.00     0.293 HD
ENDBRANCH  34  48
BRANCH  37  50
ATOM     50  O   UNL     1     137.264 126.012 124.647  1.00  0.00    -0.508 OA
ATOM     51  H   UNL     1     136.962 125.041 124.701  1.00  0.00     0.293 HD
ENDBRANCH  37  50
ENDBRANCH  26  27
ENDBRANCH   5  26
BRANCH   4  52
ATOM     52  O   UNL     1     132.155 132.190 119.923  1.00  0.00    -0.384 OA
ATOM     53  H   UNL     1     132.375 132.593 120.823  1.00  0.00     0.211 HD
ENDBRANCH   4  52
TORSDOF 16
ENDMDL
MODEL 7
REMARK VINA RESULT:    -4.974      2.401      6.045
REMARK INTER + INTRA:         -11.187
REMARK INTER:                  -8.900
REMARK INTRA:                  -2.287
REMARK UNBOUND:                -3.015
REMARK SMILES C[C@@H]1O[C@@H](OC[C@@H]2O[C@@H](Oc3c(-c4ccc(O)c(O)c4)oc4cc(O)cc(O)c4c3=O)[C@@H](O)[C@@H](O)[C@H]2O)[C@H](O)[C@H](O)[C@@H]1O
REMARK SMILES IDX 7 1 36 2 34 3 32 4 9 5 8 6 6 7 5 8 4 9 1 10 2 11 42 12 3 13
REMARK SMILES IDX 40 14 38 15 43 16 41 18 39 20 37 22 35 24 10 26 11 27 12 28
REMARK SMILES IDX 30 29 21 30 29 31 31 32 22 33 27 34 23 35 26 36 24 37 13 38
REMARK SMILES IDX 20 39 14 40 18 41 15 42 16 43 19 44 17 46 28 48 25 50 33 52
REMARK H PARENT 43 17 41 19 39 21 37 23 35 25 19 45 17 47 28 49 25 51 33 53
REMARK Flexibility Score: inf
ROOT
ATOM      1  C   UNL     1     134.178 130.894 114.277  1.00  0.00     0.180 C 
ATOM      2  C   UNL     1     135.135 131.907 113.598  1.00  0.00     0.177 C 
ATOM      3  C   UNL     1     136.303 132.217 114.588  1.00  0.00     0.180 C 
ATOM      4  C   UNL     1     135.710 132.619 115.950  1.00  0.00     0.214 C 
ATOM      5  C   UNL     1     134.536 131.689 116.433  1.00  0.00     0.339 C 
ATOM      6  O   UNL     1     133.575 131.520 115.412  1.00  0.00    -0.332 OA
ENDROOT
BRANCH   1   7
ATOM      7  C   UNL     1     133.119 130.410 113.270  1.00  0.00     0.198 C 
BRANCH   7   8
ATOM      8  O   UNL     1     133.540 129.216 112.602  1.00  0.00    -0.347 OA
BRANCH   8   9
ATOM      9  C   UNL     1     132.817 128.042 112.976  1.00  0.00     0.281 C 
ATOM     10  C   UNL     1     129.916 126.879 110.942  1.00  0.00     0.041 C 
ATOM     11  C   UNL     1     130.613 127.726 112.000  1.00  0.00     0.150 C 
ATOM     12  C   UNL     1     129.952 127.684 113.414  1.00  0.00     0.174 C 
ATOM     13  O   UNL     1     132.023 127.406 111.986  1.00  0.00    -0.344 OA
ATOM     14  C   UNL     1     130.932 127.198 114.494  1.00  0.00     0.179 C 
ATOM     15  C   UNL     1     132.165 128.129 114.418  1.00  0.00     0.202 C 
BRANCH  12  16
ATOM     16  O   UNL     1     128.784 126.889 113.442  1.00  0.00    -0.388 OA
ATOM     17  H   UNL     1     128.224 127.194 112.674  1.00  0.00     0.211 HD
ENDBRANCH  12  16
BRANCH  14  18
ATOM     18  O   UNL     1     131.381 125.881 114.280  1.00  0.00    -0.387 OA
ATOM     19  H   UNL     1     131.954 125.830 113.466  1.00  0.00     0.211 HD
ENDBRANCH  14  18
BRANCH  15  20
ATOM     20  O   UNL     1     133.067 127.805 115.442  1.00  0.00    -0.385 OA
ATOM     21  H   UNL     1     132.546 127.761 116.275  1.00  0.00     0.211 HD
ENDBRANCH  15  20
ENDBRANCH   8   9
ENDBRANCH   7   8
ENDBRANCH   1   7
BRANCH   2  22
ATOM     22  O   UNL     1     135.637 131.407 112.361  1.00  0.00    -0.387 OA
ATOM     23  H   UNL     1     135.561 130.439 112.374  1.00  0.00     0.211 HD
ENDBRANCH   2  22
BRANCH   3  24
ATOM     24  O   UNL     1     137.146 131.081 114.711  1.00  0.00    -0.387 OA
ATOM     25  H   UNL     1     136.573 130.284 114.601  1.00  0.00     0.211 HD
ENDBRANCH   3  24
BRANCH   5  26
ATOM     26  O   UNL     1     134.938 130.433 116.955  1.00  0.00    -0.454 OA
BRANCH  26  27
ATOM     27  C   UNL     1     134.920 130.106 118.304  1.00  0.00     0.214 A 
ATOM     28  C   UNL     1     135.228 131.028 119.309  1.00  0.00     0.180 A 
ATOM     29  C   UNL     1     134.934 128.750 118.698  1.00  0.00     0.239 A 
ATOM     30  O   UNL     1     136.212 130.680 120.166  1.00  0.00    -0.452 OA
ATOM     31  C   UNL     1     135.864 128.349 119.696  1.00  0.00     0.111 A 
ATOM     32  O   UNL     1     134.303 127.898 117.988  1.00  0.00    -0.285 OA
ATOM     33  C   UNL     1     136.625 129.398 120.309  1.00  0.00     0.146 A 
ATOM     34  C   UNL     1     136.169 127.010 120.048  1.00  0.00     0.134 A 
ATOM     35  C   UNL     1     137.812 129.120 120.997  1.00  0.00     0.094 A 
ATOM     36  C   UNL     1     137.348 126.727 120.750  1.00  0.00     0.093 A 
ATOM     37  C   UNL     1     138.201 127.768 121.201  1.00  0.00     0.123 A 
BRANCH  28  38
ATOM     38  C   UNL     1     134.199 131.898 119.906  1.00  0.00     0.025 A 
ATOM     39  C   UNL     1     132.797 131.819 119.639  1.00  0.00     0.062 A 
ATOM     40  C   UNL     1     134.679 132.938 120.765  1.00  0.00     0.016 A 
ATOM     41  C   UNL     1     131.914 132.724 120.230  1.00  0.00     0.158 A 
ATOM     42  C   UNL     1     133.794 133.865 121.287  1.00  0.00     0.051 A 
ATOM     43  C   UNL     1     132.432 133.782 121.001  1.00  0.00     0.157 A 
BRANCH  41  44
ATOM     44  O   UNL     1     130.524 132.665 119.988  1.00  0.00    -0.504 OA
ATOM     45  H   UNL     1     130.055 131.836 119.608  1.00  0.00     0.293 HD
ENDBRANCH  41  44
BRANCH  43  46
ATOM     46  O   UNL     1     131.569 134.801 121.474  1.00  0.00    -0.504 OA
ATOM     47  H   UNL     1     130.571 134.875 121.218  1.00  0.00     0.293 HD
ENDBRANCH  43  46
ENDBRANCH  28  38
BRANCH  34  48
ATOM     48  O   UNL     1     135.330 125.917 119.721  1.00  0.00    -0.507 OA
ATOM     49  H   UNL     1     135.673 124.995 119.482  1.00  0.00     0.293 HD
ENDBRANCH  34  48
BRANCH  37  50
ATOM     50  O   UNL     1     139.411 127.447 121.877  1.00  0.00    -0.508 OA
ATOM     51  H   UNL     1     140.006 128.164 122.286  1.00  0.00     0.293 HD
ENDBRANCH  37  50
ENDBRANCH  26  27
ENDBRANCH   5  26
BRANCH   4  52
ATOM     52  O   UNL     1     136.751 132.728 116.932  1.00  0.00    -0.384 OA
ATOM     53  H   UNL     1     137.250 131.851 116.989  1.00  0.00     0.211 HD
ENDBRANCH   4  52
TORSDOF 16
ENDMDL
MODEL 8
REMARK VINA RESULT:    -4.971      2.576      8.201
REMARK INTER + INTRA:         -11.183
REMARK INTER:                  -8.743
REMARK INTRA:                  -2.440
REMARK UNBOUND:                -3.015
REMARK SMILES C[C@@H]1O[C@@H](OC[C@@H]2O[C@@H](Oc3c(-c4ccc(O)c(O)c4)oc4cc(O)cc(O)c4c3=O)[C@@H](O)[C@@H](O)[C@H]2O)[C@H](O)[C@H](O)[C@@H]1O
REMARK SMILES IDX 7 1 36 2 34 3 32 4 9 5 8 6 6 7 5 8 4 9 1 10 2 11 42 12 3 13
REMARK SMILES IDX 40 14 38 15 43 16 41 18 39 20 37 22 35 24 10 26 11 27 12 28
REMARK SMILES IDX 30 29 21 30 29 31 31 32 22 33 27 34 23 35 26 36 24 37 13 38
REMARK SMILES IDX 20 39 14 40 18 41 15 42 16 43 19 44 17 46 28 48 25 50 33 52
REMARK H PARENT 43 17 41 19 39 21 37 23 35 25 19 45 17 47 28 49 25 51 33 53
REMARK Flexibility Score: inf
ROOT
ATOM      1  C   UNL     1     135.890 128.803 119.428  1.00  0.00     0.180 C 
ATOM      2  C   UNL     1     135.492 127.649 120.383  1.00  0.00     0.177 C 
ATOM      3  C   UNL     1     134.856 126.505 119.530  1.00  0.00     0.180 C 
ATOM      4  C   UNL     1     133.743 127.098 118.648  1.00  0.00     0.214 C 
ATOM      5  C   UNL     1     134.146 128.440 117.932  1.00  0.00     0.339 C 
ATOM      6  O   UNL     1     134.702 129.355 118.853  1.00  0.00    -0.332 OA
ENDROOT
BRANCH   1   7
ATOM      7  C   UNL     1     136.693 129.870 120.193  1.00  0.00     0.198 C 
BRANCH   7   8
ATOM      8  O   UNL     1     138.095 129.579 120.176  1.00  0.00    -0.347 OA
BRANCH   8   9
ATOM      9  C   UNL     1     138.797 129.984 121.353  1.00  0.00     0.281 C 
ATOM     10  C   UNL     1     138.635 127.919 124.455  1.00  0.00     0.041 C 
ATOM     11  C   UNL     1     138.139 128.959 123.457  1.00  0.00     0.150 C 
ATOM     12  C   UNL     1     137.805 130.353 124.074  1.00  0.00     0.174 C 
ATOM     13  O   UNL     1     139.059 128.999 122.343  1.00  0.00    -0.344 OA
ATOM     14  C   UNL     1     138.623 131.481 123.425  1.00  0.00     0.179 C 
ATOM     15  C   UNL     1     138.352 131.400 121.905  1.00  0.00     0.202 C 
BRANCH  12  16
ATOM     16  O   UNL     1     137.987 130.382 125.475  1.00  0.00    -0.388 OA
ATOM     17  H   UNL     1     138.964 130.245 125.629  1.00  0.00     0.211 HD
ENDBRANCH  12  16
BRANCH  14  18
ATOM     18  O   UNL     1     140.010 131.338 123.617  1.00  0.00    -0.387 OA
ATOM     19  H   UNL     1     140.371 132.091 124.164  1.00  0.00     0.211 HD
ENDBRANCH  14  18
BRANCH  15  20
ATOM     20  O   UNL     1     138.993 132.463 121.251  1.00  0.00    -0.385 OA
ATOM     21  H   UNL     1     138.498 132.623 120.416  1.00  0.00     0.211 HD
ENDBRANCH  15  20
ENDBRANCH   8   9
ENDBRANCH   7   8
ENDBRANCH   1   7
BRANCH   2  22
ATOM     22  O   UNL     1     136.613 127.170 121.121  1.00  0.00    -0.387 OA
ATOM     23  H   UNL     1     136.379 127.177 122.064  1.00  0.00     0.211 HD
ENDBRANCH   2  22
BRANCH   3  24
ATOM     24  O   UNL     1     135.857 125.877 118.742  1.00  0.00    -0.387 OA
ATOM     25  H   UNL     1     135.389 125.310 118.081  1.00  0.00     0.211 HD
ENDBRANCH   3  24
BRANCH   5  26
ATOM     26  O   UNL     1     134.991 128.291 116.803  1.00  0.00    -0.454 OA
BRANCH  26  27
ATOM     27  C   UNL     1     134.725 128.831 115.552  1.00  0.00     0.214 A 
ATOM     28  C   UNL     1     135.143 130.111 115.176  1.00  0.00     0.180 A 
ATOM     29  C   UNL     1     133.727 128.254 114.736  1.00  0.00     0.239 A 
ATOM     30  O   UNL     1     134.183 130.958 114.745  1.00  0.00    -0.452 OA
ATOM     31  C   UNL     1     132.761 129.115 114.145  1.00  0.00     0.111 A 
ATOM     32  O   UNL     1     133.573 126.988 114.756  1.00  0.00    -0.285 OA
ATOM     33  C   UNL     1     132.969 130.522 114.331  1.00  0.00     0.146 A 
ATOM     34  C   UNL     1     131.574 128.697 113.491  1.00  0.00     0.134 A 
ATOM     35  C   UNL     1     131.924 131.435 114.150  1.00  0.00     0.094 A 
ATOM     36  C   UNL     1     130.531 129.611 113.293  1.00  0.00     0.093 A 
ATOM     37  C   UNL     1     130.674 130.976 113.650  1.00  0.00     0.123 A 
BRANCH  28  38
ATOM     38  C   UNL     1     136.463 130.350 114.568  1.00  0.00     0.025 A 
ATOM     39  C   UNL     1     136.940 129.738 113.368  1.00  0.00     0.062 A 
ATOM     40  C   UNL     1     137.341 131.217 115.294  1.00  0.00     0.016 A 
ATOM     41  C   UNL     1     138.229 130.006 112.903  1.00  0.00     0.158 A 
ATOM     42  C   UNL     1     138.637 131.416 114.851  1.00  0.00     0.051 A 
ATOM     43  C   UNL     1     139.089 130.796 113.687  1.00  0.00     0.157 A 
BRANCH  41  44
ATOM     44  O   UNL     1     138.723 129.419 111.716  1.00  0.00    -0.504 OA
ATOM     45  H   UNL     1     138.151 129.284 110.877  1.00  0.00     0.293 HD
ENDBRANCH  41  44
BRANCH  43  46
ATOM     46  O   UNL     1     140.448 130.947 113.315  1.00  0.00    -0.504 OA
ATOM     47  H   UNL     1     141.177 130.238 113.500  1.00  0.00     0.293 HD
ENDBRANCH  43  46
ENDBRANCH  28  38
BRANCH  34  48
ATOM     48  O   UNL     1     131.380 127.376 113.018  1.00  0.00    -0.507 OA
ATOM     49  H   UNL     1     130.471 126.972 112.832  1.00  0.00     0.293 HD
ENDBRANCH  34  48
BRANCH  37  50
ATOM     50  O   UNL     1     129.583 131.871 113.472  1.00  0.00    -0.508 OA
ATOM     51  H   UNL     1     129.417 132.350 112.590  1.00  0.00     0.293 HD
ENDBRANCH  37  50
ENDBRANCH  26  27
ENDBRANCH   5  26
BRANCH   4  52
ATOM     52  O   UNL     1     133.268 126.112 117.719  1.00  0.00    -0.384 OA
ATOM     53  H   UNL     1     133.100 125.244 118.210  1.00  0.00     0.211 HD
ENDBRANCH   4  52
TORSDOF 16
ENDMDL
MODEL 9
REMARK VINA RESULT:    -4.966      1.843      7.104
REMARK INTER + INTRA:         -11.175
REMARK INTER:                  -8.589
REMARK INTRA:                  -2.585
REMARK UNBOUND:                -3.015
REMARK SMILES C[C@@H]1O[C@@H](OC[C@@H]2O[C@@H](Oc3c(-c4ccc(O)c(O)c4)oc4cc(O)cc(O)c4c3=O)[C@@H](O)[C@@H](O)[C@H]2O)[C@H](O)[C@H](O)[C@@H]1O
REMARK SMILES IDX 7 1 36 2 34 3 32 4 9 5 8 6 6 7 5 8 4 9 1 10 2 11 42 12 3 13
REMARK SMILES IDX 40 14 38 15 43 16 41 18 39 20 37 22 35 24 10 26 11 27 12 28
REMARK SMILES IDX 30 29 21 30 29 31 31 32 22 33 27 34 23 35 26 36 24 37 13 38
REMARK SMILES IDX 20 39 14 40 18 41 15 42 16 43 19 44 17 46 28 48 25 50 33 52
REMARK H PARENT 43 17 41 19 39 21 37 23 35 25 19 45 17 47 28 49 25 51 33 53
REMARK Flexibility Score: inf
ROOT
ATOM      1  C   UNL     1     135.847 132.094 119.950  1.00  0.00     0.180 C 
ATOM      2  C   UNL     1     134.819 133.209 120.273  1.00  0.00     0.177 C 
ATOM      3  C   UNL     1     133.591 133.034 119.324  1.00  0.00     0.180 C 
ATOM      4  C   UNL     1     134.091 132.944 117.871  1.00  0.00     0.214 C 
ATOM      5  C   UNL     1     135.333 131.996 117.683  1.00  0.00     0.339 C 
ATOM      6  O   UNL     1     136.343 132.297 118.624  1.00  0.00    -0.332 OA
ENDROOT
BRANCH   1   7
ATOM      7  C   UNL     1     136.985 132.107 120.985  1.00  0.00     0.198 C 
BRANCH   7   8
ATOM      8  O   UNL     1     137.809 130.942 120.870  1.00  0.00    -0.347 OA
BRANCH   8   9
ATOM      9  C   UNL     1     137.284 129.779 121.514  1.00  0.00     0.281 C 
ATOM     10  C   UNL     1     139.300 127.962 124.072  1.00  0.00     0.041 C 
ATOM     11  C   UNL     1     138.861 128.325 122.658  1.00  0.00     0.150 C 
ATOM     12  C   UNL     1     138.445 127.112 121.769  1.00  0.00     0.174 C 
ATOM     13  O   UNL     1     137.873 129.377 122.742  1.00  0.00    -0.344 OA
ATOM     14  C   UNL     1     137.004 127.245 121.250  1.00  0.00     0.179 C 
ATOM     15  C   UNL     1     136.927 128.604 120.514  1.00  0.00     0.202 C 
BRANCH  12  16
ATOM     16  O   UNL     1     138.594 125.875 122.436  1.00  0.00    -0.388 OA
ATOM     17  H   UNL     1     138.160 125.192 121.853  1.00  0.00     0.211 HD
ENDBRANCH  12  16
BRANCH  14  18
ATOM     18  O   UNL     1     136.046 127.267 122.281  1.00  0.00    -0.387 OA
ATOM     19  H   UNL     1     135.198 127.689 121.968  1.00  0.00     0.211 HD
ENDBRANCH  14  18
BRANCH  15  20
ATOM     20  O   UNL     1     135.662 128.755 119.928  1.00  0.00    -0.385 OA
ATOM     21  H   UNL     1     135.784 128.649 118.957  1.00  0.00     0.211 HD
ENDBRANCH  15  20
ENDBRANCH   8   9
ENDBRANCH   7   8
ENDBRANCH   1   7
BRANCH   2  22
ATOM     22  O   UNL     1     134.415 133.169 121.640  1.00  0.00    -0.387 OA
ATOM     23  H   UNL     1     133.551 132.730 121.686  1.00  0.00     0.211 HD
ENDBRANCH   2  22
BRANCH   3  24
ATOM     24  O   UNL     1     132.861 131.872 119.689  1.00  0.00    -0.387 OA
ATOM     25  H   UNL     1     132.047 131.856 119.128  1.00  0.00     0.211 HD
ENDBRANCH   3  24
BRANCH   5  26
ATOM     26  O   UNL     1     135.039 130.608 117.691  1.00  0.00    -0.454 OA
BRANCH  26  27
ATOM     27  C   UNL     1     134.977 129.817 116.553  1.00  0.00     0.214 A 
ATOM     28  C   UNL     1     135.201 130.321 115.268  1.00  0.00     0.180 A 
ATOM     29  C   UNL     1     134.344 128.555 116.608  1.00  0.00     0.239 A 
ATOM     30  O   UNL     1     134.220 130.121 114.361  1.00  0.00    -0.452 OA
ATOM     31  C   UNL     1     133.393 128.235 115.600  1.00  0.00     0.111 A 
ATOM     32  O   UNL     1     134.454 127.860 117.672  1.00  0.00    -0.285 OA
ATOM     33  C   UNL     1     133.258 129.184 114.534  1.00  0.00     0.146 A 
ATOM     34  C   UNL     1     132.510 127.126 115.623  1.00  0.00     0.134 A 
ATOM     35  C   UNL     1     132.122 129.191 113.715  1.00  0.00     0.094 A 
ATOM     36  C   UNL     1     131.381 127.120 114.794  1.00  0.00     0.093 A 
ATOM     37  C   UNL     1     131.151 128.162 113.860  1.00  0.00     0.123 A 
BRANCH  28  38
ATOM     38  C   UNL     1     136.551 130.379 114.681  1.00  0.00     0.025 A 
ATOM     39  C   UNL     1     137.641 131.147 115.196  1.00  0.00     0.062 A 
ATOM     40  C   UNL     1     136.737 129.651 113.462  1.00  0.00     0.016 A 
ATOM     41  C   UNL     1     138.870 131.160 114.534  1.00  0.00     0.158 A 
ATOM     42  C   UNL     1     137.943 129.732 112.787  1.00  0.00     0.051 A 
ATOM     43  C   UNL     1     138.988 130.500 113.297  1.00  0.00     0.157 A 
BRANCH  41  44
ATOM     44  O   UNL     1     139.965 131.905 115.024  1.00  0.00    -0.504 OA
ATOM     45  H   UNL     1     140.064 132.175 116.008  1.00  0.00     0.293 HD
ENDBRANCH  41  44
BRANCH  43  46
ATOM     46  O   UNL     1     140.174 130.636 112.533  1.00  0.00    -0.504 OA
ATOM     47  H   UNL     1     140.266 130.319 111.553  1.00  0.00     0.293 HD
ENDBRANCH  43  46
ENDBRANCH  28  38
BRANCH  34  48
ATOM     48  O   UNL     1     132.710 125.998 116.456  1.00  0.00    -0.507 OA
ATOM     49  H   UNL     1     132.206 125.127 116.356  1.00  0.00     0.293 HD
ENDBRANCH  34  48
BRANCH  37  50
ATOM     50  O   UNL     1     129.974 128.148 113.060  1.00  0.00    -0.508 OA
ATOM     51  H   UNL     1     129.935 127.660 112.168  1.00  0.00     0.293 HD
ENDBRANCH  37  50
ENDBRANCH  26  27
ENDBRANCH   5  26
BRANCH   4  52
ATOM     52  O   UNL     1     133.009 132.595 116.995  1.00  0.00    -0.384 OA
ATOM     53  H   UNL     1     133.068 133.151 116.153  1.00  0.00     0.211 HD
ENDBRANCH   4  52
TORSDOF 16
ENDMDL
