MODEL 1
REMARK VINA RESULT:    17.349      0.000      0.000
REMARK INTER + INTRA:          45.584
REMARK INTER:                  45.748
REMARK INTRA:                  -0.164
REMARK UNBOUND:                -0.164
REMARK SMILES CCCCCCCCCCCCCCCCCCCCCCCCCCCCCC(=O)[O-]
REMARK SMILES IDX 16 1 17 2 18 3 19 4 20 5 21 6 22 7 23 8 24 9 25 10 26 11
REMARK SMILES IDX 27 12 28 13 29 14 30 15 31 16 32 17 15 18 14 19 13 20 12 21
REMARK SMILES IDX 11 22 10 23 9 24 8 25 7 26 6 27 5 28 4 29 3 30 2 31 1 32
REMARK H PARENT
REMARK Flexibility Score: inf
ROOT
ATOM      1  C   UNL     1       9.183 -30.412 -13.814  1.00  0.00     0.000 C 
ENDROOT
BRANCH   1   2
ATOM      2  C   UNL     1      10.043 -30.030 -12.600  1.00  0.00     0.000 C 
BRANCH   2   3
ATOM      3  C   UNL     1       9.203 -30.011 -11.312  1.00  0.00     0.000 C 
BRANCH   3   4
ATOM      4  C   UNL     1      10.019 -29.638 -10.059  1.00  0.00     0.000 C 
BRANCH   4   5
ATOM      5  C   UNL     1       9.332 -28.653  -9.089  1.00  0.00     0.000 C 
BRANCH   5   6
ATOM      6  C   UNL     1       9.751 -27.183  -9.269  1.00  0.00     0.000 C 
BRANCH   6   7
ATOM      7  C   UNL     1       8.627 -26.183  -8.949  1.00  0.00     0.000 C 
BRANCH   7   8
ATOM      8  C   UNL     1       8.961 -25.247  -7.774  1.00  0.00     0.000 C 
BRANCH   8   9
ATOM      9  C   UNL     1       7.742 -24.490  -7.201  1.00  0.00     0.000 C 
BRANCH   9  10
ATOM     10  C   UNL     1       7.582 -24.579  -5.671  1.00  0.00     0.000 C 
BRANCH  10  11
ATOM     11  C   UNL     1       8.415 -25.709  -5.041  1.00  0.00     0.000 C 
BRANCH  11  12
ATOM     12  C   UNL     1       9.575 -25.142  -4.213  1.00  0.00     0.000 C 
BRANCH  12  13
ATOM     13  C   UNL     1      10.930 -25.497  -4.848  1.00  0.00     0.006 C 
BRANCH  13  14
ATOM     14  C   UNL     1      11.383 -26.922  -4.500  1.00  0.00     0.053 C 
BRANCH  14  15
ATOM     15  C   UNL     1      12.824 -27.158  -4.836  1.00  0.00     0.041 C 
ATOM     16  O   UNL     1      13.420 -28.184  -4.404  1.00  0.00    -0.550 OA
ATOM     17  O   UNL     1      13.514 -26.243  -5.622  1.00  0.00    -0.550 OA
ENDBRANCH  14  15
ENDBRANCH  13  14
ENDBRANCH  12  13
ENDBRANCH  11  12
ENDBRANCH  10  11
ENDBRANCH   9  10
ENDBRANCH   8   9
ENDBRANCH   7   8
ENDBRANCH   6   7
ENDBRANCH   5   6
ENDBRANCH   4   5
ENDBRANCH   3   4
ENDBRANCH   2   3
ENDBRANCH   1   2
BRANCH   1  18
ATOM     18  C   UNL     1       8.121 -29.349 -14.141  1.00  0.00     0.000 C 
BRANCH  18  19
ATOM     19  C   UNL     1       7.957 -29.130 -15.657  1.00  0.00     0.000 C 
BRANCH  19  20
ATOM     20  C   UNL     1       7.174 -27.840 -15.981  1.00  0.00     0.000 C 
BRANCH  20  21
ATOM     21  C   UNL     1       6.112 -28.021 -17.081  1.00  0.00     0.000 C 
BRANCH  21  22
ATOM     22  C   UNL     1       6.593 -28.924 -18.230  1.00  0.00     0.000 C 
BRANCH  22  23
ATOM     23  C   UNL     1       6.423 -28.265 -19.608  1.00  0.00     0.000 C 
BRANCH  23  24
ATOM     24  C   UNL     1       6.771 -29.213 -20.764  1.00  0.00    -0.000 C 
BRANCH  24  25
ATOM     25  C   UNL     1       8.291 -29.338 -20.929  1.00  0.00    -0.000 C 
BRANCH  25  26
ATOM     26  C   UNL     1       8.893 -30.253 -19.852  1.00  0.00    -0.000 C 
BRANCH  26  27
ATOM     27  C   UNL     1       9.886 -29.514 -18.937  1.00  0.00    -0.000 C 
BRANCH  27  28
ATOM     28  C   UNL     1       9.803 -29.986 -17.475  1.00  0.00    -0.000 C 
BRANCH  28  29
ATOM     29  C   UNL     1       9.231 -31.407 -17.341  1.00  0.00    -0.000 C 
BRANCH  29  30
ATOM     30  C   UNL     1       9.603 -32.138 -16.037  1.00  0.00    -0.000 C 
BRANCH  30  31
ATOM     31  C   UNL     1       8.855 -33.472 -15.838  1.00  0.00    -0.003 C 
ATOM     32  C   UNL     1       8.729 -33.859 -14.364  1.00  0.00     0.004 C 
ENDBRANCH  30  31
ENDBRANCH  29  30
ENDBRANCH  28  29
ENDBRANCH  27  28
ENDBRANCH  26  27
ENDBRANCH  25  26
ENDBRANCH  24  25
ENDBRANCH  23  24
ENDBRANCH  22  23
ENDBRANCH  21  22
ENDBRANCH  20  21
ENDBRANCH  19  20
ENDBRANCH  18  19
ENDBRANCH   1  18
TORSDOF 28
ENDMDL
MODEL 2
REMARK VINA RESULT:    17.519      3.516     11.805
REMARK INTER + INTRA:          46.031
REMARK INTER:                  44.802
REMARK INTRA:                   1.229
REMARK UNBOUND:                -0.164
REMARK SMILES CCCCCCCCCCCCCCCCCCCCCCCCCCCCCC(=O)[O-]
REMARK SMILES IDX 16 1 17 2 18 3 19 4 20 5 21 6 22 7 23 8 24 9 25 10 26 11
REMARK SMILES IDX 27 12 28 13 29 14 30 15 31 16 32 17 15 18 14 19 13 20 12 21
REMARK SMILES IDX 11 22 10 23 9 24 8 25 7 26 6 27 5 28 4 29 3 30 2 31 1 32
REMARK H PARENT
REMARK Flexibility Score: inf
ROOT
ATOM      1  C   UNL     1       8.198 -30.304 -13.403  1.00  0.00     0.000 C 
ENDROOT
BRANCH   1   2
ATOM      2  C   UNL     1       8.535 -29.526 -14.683  1.00  0.00     0.000 C 
BRANCH   2   3
ATOM      3  C   UNL     1       7.293 -28.807 -15.237  1.00  0.00     0.000 C 
BRANCH   3   4
ATOM      4  C   UNL     1       7.493 -28.258 -16.662  1.00  0.00     0.000 C 
BRANCH   4   5
ATOM      5  C   UNL     1       6.541 -28.834 -17.734  1.00  0.00     0.000 C 
BRANCH   5   6
ATOM      6  C   UNL     1       6.525 -28.053 -19.060  1.00  0.00     0.000 C 
BRANCH   6   7
ATOM      7  C   UNL     1       5.983 -28.871 -20.244  1.00  0.00     0.000 C 
BRANCH   7   8
ATOM      8  C   UNL     1       6.970 -28.966 -21.421  1.00  0.00     0.000 C 
BRANCH   8   9
ATOM      9  C   UNL     1       8.133 -29.959 -21.195  1.00  0.00     0.000 C 
BRANCH   9  10
ATOM     10  C   UNL     1       9.148 -29.536 -20.115  1.00  0.00     0.000 C 
BRANCH  10  11
ATOM     11  C   UNL     1       9.096 -30.421 -18.857  1.00  0.00     0.000 C 
BRANCH  11  12
ATOM     12  C   UNL     1       9.783 -29.733 -17.671  1.00  0.00     0.000 C 
BRANCH  12  13
ATOM     13  C   UNL     1      10.597 -30.742 -16.844  1.00  0.00     0.006 C 
BRANCH  13  14
ATOM     14  C   UNL     1       9.763 -31.389 -15.728  1.00  0.00     0.053 C 
BRANCH  14  15
ATOM     15  C   UNL     1       9.265 -32.751 -16.107  1.00  0.00     0.041 C 
ATOM     16  O   UNL     1       8.675 -33.473 -15.258  1.00  0.00    -0.550 OA
ATOM     17  O   UNL     1       9.457 -33.226 -17.399  1.00  0.00    -0.550 OA
ENDBRANCH  14  15
ENDBRANCH  13  14
ENDBRANCH  12  13
ENDBRANCH  11  12
ENDBRANCH  10  11
ENDBRANCH   9  10
ENDBRANCH   8   9
ENDBRANCH   7   8
ENDBRANCH   6   7
ENDBRANCH   5   6
ENDBRANCH   4   5
ENDBRANCH   3   4
ENDBRANCH   2   3
ENDBRANCH   1   2
BRANCH   1  18
ATOM     18  C   UNL     1       8.871 -29.706 -12.157  1.00  0.00     0.000 C 
BRANCH  18  19
ATOM     19  C   UNL     1       7.871 -29.457 -11.012  1.00  0.00     0.000 C 
BRANCH  19  20
ATOM     20  C   UNL     1       8.560 -29.411  -9.631  1.00  0.00     0.000 C 
BRANCH  20  21
ATOM     21  C   UNL     1       9.912 -28.675  -9.639  1.00  0.00     0.000 C 
BRANCH  21  22
ATOM     22  C   UNL     1       9.760 -27.150  -9.506  1.00  0.00     0.000 C 
BRANCH  22  23
ATOM     23  C   UNL     1       9.253 -26.727  -8.118  1.00  0.00     0.000 C 
BRANCH  23  24
ATOM     24  C   UNL     1       8.639 -25.320  -8.116  1.00  0.00    -0.000 C 
BRANCH  24  25
ATOM     25  C   UNL     1       7.546 -25.203  -7.045  1.00  0.00    -0.000 C 
BRANCH  25  26
ATOM     26  C   UNL     1       7.716 -23.921  -6.216  1.00  0.00    -0.000 C 
BRANCH  26  27
ATOM     27  C   UNL     1       8.113 -24.210  -4.757  1.00  0.00    -0.000 C 
BRANCH  27  28
ATOM     28  C   UNL     1       8.737 -25.605  -4.582  1.00  0.00    -0.000 C 
BRANCH  28  29
ATOM     29  C   UNL     1      10.274 -25.579  -4.632  1.00  0.00    -0.000 C 
BRANCH  29  30
ATOM     30  C   UNL     1      10.952 -26.959  -4.548  1.00  0.00    -0.000 C 
BRANCH  30  31
ATOM     31  C   UNL     1      12.484 -26.911  -4.725  1.00  0.00    -0.003 C 
ATOM     32  C   UNL     1      12.927 -25.808  -5.687  1.00  0.00     0.004 C 
ENDBRANCH  30  31
ENDBRANCH  29  30
ENDBRANCH  28  29
ENDBRANCH  27  28
ENDBRANCH  26  27
ENDBRANCH  25  26
ENDBRANCH  24  25
ENDBRANCH  23  24
ENDBRANCH  22  23
ENDBRANCH  21  22
ENDBRANCH  20  21
ENDBRANCH  19  20
ENDBRANCH  18  19
ENDBRANCH   1  18
TORSDOF 28
ENDMDL
MODEL 3
REMARK VINA RESULT:    18.113      4.274     12.228
REMARK INTER + INTRA:          47.597
REMARK INTER:                  46.454
REMARK INTRA:                   1.144
REMARK UNBOUND:                -0.164
REMARK SMILES CCCCCCCCCCCCCCCCCCCCCCCCCCCCCC(=O)[O-]
REMARK SMILES IDX 16 1 17 2 18 3 19 4 20 5 21 6 22 7 23 8 24 9 25 10 26 11
REMARK SMILES IDX 27 12 28 13 29 14 30 15 31 16 32 17 15 18 14 19 13 20 12 21
REMARK SMILES IDX 11 22 10 23 9 24 8 25 7 26 6 27 5 28 4 29 3 30 2 31 1 32
REMARK H PARENT
REMARK Flexibility Score: inf
ROOT
ATOM      1  C   UNL     1      10.235 -30.328 -11.623  1.00  0.00     0.000 C 
ENDROOT
BRANCH   1   2
ATOM      2  C   UNL     1       8.796 -30.085 -12.101  1.00  0.00     0.000 C 
BRANCH   2   3
ATOM      3  C   UNL     1       8.712 -30.117 -13.637  1.00  0.00     0.000 C 
BRANCH   3   4
ATOM      4  C   UNL     1       9.722 -31.085 -14.281  1.00  0.00     0.000 C 
BRANCH   4   5
ATOM      5  C   UNL     1       9.104 -32.270 -15.055  1.00  0.00     0.000 C 
BRANCH   5   6
ATOM      6  C   UNL     1       9.144 -32.124 -16.587  1.00  0.00     0.000 C 
BRANCH   6   7
ATOM      7  C   UNL     1       9.856 -30.847 -17.060  1.00  0.00     0.000 C 
BRANCH   7   8
ATOM      8  C   UNL     1       8.888 -29.751 -17.538  1.00  0.00     0.000 C 
BRANCH   8   9
ATOM      9  C   UNL     1       8.264 -28.915 -16.397  1.00  0.00     0.000 C 
BRANCH   9  10
ATOM     10  C   UNL     1       6.803 -28.483 -16.632  1.00  0.00     0.000 C 
BRANCH  10  11
ATOM     11  C   UNL     1       6.254 -28.926 -17.998  1.00  0.00     0.000 C 
BRANCH  11  12
ATOM     12  C   UNL     1       7.020 -28.255 -19.145  1.00  0.00     0.000 C 
BRANCH  12  13
ATOM     13  C   UNL     1       6.178 -28.232 -20.432  1.00  0.00     0.006 C 
BRANCH  13  14
ATOM     14  C   UNL     1       6.926 -28.836 -21.629  1.00  0.00     0.053 C 
BRANCH  14  15
ATOM     15  C   UNL     1       7.851 -29.944 -21.223  1.00  0.00     0.041 C 
ATOM     16  O   UNL     1       7.760 -31.080 -21.763  1.00  0.00    -0.550 OA
ATOM     17  O   UNL     1       8.811 -29.722 -20.243  1.00  0.00    -0.550 OA
ENDBRANCH  14  15
ENDBRANCH  13  14
ENDBRANCH  12  13
ENDBRANCH  11  12
ENDBRANCH  10  11
ENDBRANCH   9  10
ENDBRANCH   8   9
ENDBRANCH   7   8
ENDBRANCH   6   7
ENDBRANCH   5   6
ENDBRANCH   4   5
ENDBRANCH   3   4
ENDBRANCH   2   3
ENDBRANCH   1   2
BRANCH   1  18
ATOM     18  C   UNL     1      10.381 -30.182 -10.099  1.00  0.00     0.000 C 
BRANCH  18  19
ATOM     19  C   UNL     1       9.336 -29.223  -9.498  1.00  0.00     0.000 C 
BRANCH  19  20
ATOM     20  C   UNL     1       9.908 -27.810  -9.258  1.00  0.00     0.000 C 
BRANCH  20  21
ATOM     21  C   UNL     1       8.846 -26.696  -9.304  1.00  0.00     0.000 C 
BRANCH  21  22
ATOM     22  C   UNL     1       9.210 -25.489  -8.422  1.00  0.00     0.000 C 
BRANCH  22  23
ATOM     23  C   UNL     1       7.982 -24.651  -8.035  1.00  0.00     0.000 C 
BRANCH  23  24
ATOM     24  C   UNL     1       8.281 -23.646  -6.913  1.00  0.00    -0.000 C 
BRANCH  24  25
ATOM     25  C   UNL     1       7.104 -23.556  -5.933  1.00  0.00    -0.000 C 
BRANCH  25  26
ATOM     26  C   UNL     1       6.851 -24.905  -5.244  1.00  0.00    -0.000 C 
BRANCH  26  27
ATOM     27  C   UNL     1       8.115 -25.781  -5.181  1.00  0.00    -0.000 C 
BRANCH  27  28
ATOM     28  C   UNL     1       9.188 -25.201  -4.242  1.00  0.00    -0.000 C 
BRANCH  28  29
ATOM     29  C   UNL     1      10.614 -25.379  -4.789  1.00  0.00    -0.000 C 
BRANCH  29  30
ATOM     30  C   UNL     1      11.360 -26.623  -4.270  1.00  0.00    -0.000 C 
BRANCH  30  31
ATOM     31  C   UNL     1      12.690 -26.899  -5.001  1.00  0.00    -0.003 C 
ATOM     32  C   UNL     1      13.335 -28.216  -4.566  1.00  0.00     0.004 C 
ENDBRANCH  30  31
ENDBRANCH  29  30
ENDBRANCH  28  29
ENDBRANCH  27  28
ENDBRANCH  26  27
ENDBRANCH  25  26
ENDBRANCH  24  25
ENDBRANCH  23  24
ENDBRANCH  22  23
ENDBRANCH  21  22
ENDBRANCH  20  21
ENDBRANCH  19  20
ENDBRANCH  18  19
ENDBRANCH   1  18
TORSDOF 28
ENDMDL
MODEL 4
REMARK VINA RESULT:    18.977      4.547     12.218
REMARK INTER + INTRA:          49.875
REMARK INTER:                  49.250
REMARK INTRA:                   0.625
REMARK UNBOUND:                -0.164
REMARK SMILES CCCCCCCCCCCCCCCCCCCCCCCCCCCCCC(=O)[O-]
REMARK SMILES IDX 16 1 17 2 18 3 19 4 20 5 21 6 22 7 23 8 24 9 25 10 26 11
REMARK SMILES IDX 27 12 28 13 29 14 30 15 31 16 32 17 15 18 14 19 13 20 12 21
REMARK SMILES IDX 11 22 10 23 9 24 8 25 7 26 6 27 5 28 4 29 3 30 2 31 1 32
REMARK H PARENT
REMARK Flexibility Score: inf
ROOT
ATOM      1  C   UNL     1      11.148 -29.426 -10.571  1.00  0.00     0.000 C 
ENDROOT
BRANCH   1   2
ATOM      2  C   UNL     1      11.217 -29.957 -12.011  1.00  0.00     0.000 C 
BRANCH   2   3
ATOM      3  C   UNL     1       9.938 -30.730 -12.376  1.00  0.00     0.000 C 
BRANCH   3   4
ATOM      4  C   UNL     1       8.849 -29.841 -13.005  1.00  0.00     0.000 C 
BRANCH   4   5
ATOM      5  C   UNL     1       8.670 -29.991 -14.532  1.00  0.00     0.000 C 
BRANCH   5   6
ATOM      6  C   UNL     1       9.734 -30.867 -15.217  1.00  0.00     0.000 C 
BRANCH   6   7
ATOM      7  C   UNL     1       9.238 -32.283 -15.550  1.00  0.00     0.000 C 
BRANCH   7   8
ATOM      8  C   UNL     1       9.316 -32.618 -17.050  1.00  0.00     0.000 C 
BRANCH   8   9
ATOM      9  C   UNL     1       9.052 -31.415 -17.983  1.00  0.00     0.000 C 
BRANCH   9  10
ATOM     10  C   UNL     1       9.803 -30.123 -17.606  1.00  0.00     0.000 C 
BRANCH  10  11
ATOM     11  C   UNL     1       8.982 -28.849 -17.867  1.00  0.00     0.000 C 
BRANCH  11  12
ATOM     12  C   UNL     1       7.525 -29.031 -17.423  1.00  0.00     0.000 C 
BRANCH  12  13
ATOM     13  C   UNL     1       6.616 -29.334 -18.626  1.00  0.00     0.006 C 
BRANCH  13  14
ATOM     14  C   UNL     1       6.528 -28.154 -19.603  1.00  0.00     0.053 C 
BRANCH  14  15
ATOM     15  C   UNL     1       6.772 -28.570 -21.022  1.00  0.00     0.041 C 
ATOM     16  O   UNL     1       7.774 -28.133 -21.652  1.00  0.00    -0.550 OA
ATOM     17  O   UNL     1       5.889 -29.439 -21.652  1.00  0.00    -0.550 OA
ENDBRANCH  14  15
ENDBRANCH  13  14
ENDBRANCH  12  13
ENDBRANCH  11  12
ENDBRANCH  10  11
ENDBRANCH   9  10
ENDBRANCH   8   9
ENDBRANCH   7   8
ENDBRANCH   6   7
ENDBRANCH   5   6
ENDBRANCH   4   5
ENDBRANCH   3   4
ENDBRANCH   2   3
ENDBRANCH   1   2
BRANCH   1  18
ATOM     18  C   UNL     1      10.347 -30.351  -9.641  1.00  0.00     0.000 C 
BRANCH  18  19
ATOM     19  C   UNL     1       9.251 -29.597  -8.865  1.00  0.00     0.000 C 
BRANCH  19  20
ATOM     20  C   UNL     1       8.967 -28.201  -9.458  1.00  0.00     0.000 C 
BRANCH  20  21
ATOM     21  C   UNL     1       9.481 -27.042  -8.584  1.00  0.00     0.000 C 
BRANCH  21  22
ATOM     22  C   UNL     1       8.665 -25.751  -8.769  1.00  0.00     0.000 C 
BRANCH  22  23
ATOM     23  C   UNL     1       8.528 -24.950  -7.464  1.00  0.00     0.000 C 
BRANCH  23  24
ATOM     24  C   UNL     1       7.120 -25.042  -6.858  1.00  0.00    -0.000 C 
BRANCH  24  25
ATOM     25  C   UNL     1       6.902 -23.940  -5.814  1.00  0.00    -0.000 C 
BRANCH  25  26
ATOM     26  C   UNL     1       8.042 -23.917  -4.785  1.00  0.00    -0.000 C 
BRANCH  26  27
ATOM     27  C   UNL     1       8.562 -25.326  -4.448  1.00  0.00    -0.000 C 
BRANCH  27  28
ATOM     28  C   UNL     1      10.008 -25.551  -4.925  1.00  0.00    -0.000 C 
BRANCH  28  29
ATOM     29  C   UNL     1      10.418 -27.032  -4.898  1.00  0.00    -0.000 C 
BRANCH  29  30
ATOM     30  C   UNL     1      11.453 -27.401  -3.818  1.00  0.00    -0.000 C 
BRANCH  30  31
ATOM     31  C   UNL     1      12.869 -27.653  -4.375  1.00  0.00    -0.003 C 
ATOM     32  C   UNL     1      13.278 -26.618  -5.424  1.00  0.00     0.004 C 
ENDBRANCH  30  31
ENDBRANCH  29  30
ENDBRANCH  28  29
ENDBRANCH  27  28
ENDBRANCH  26  27
ENDBRANCH  25  26
ENDBRANCH  24  25
ENDBRANCH  23  24
ENDBRANCH  22  23
ENDBRANCH  21  22
ENDBRANCH  20  21
ENDBRANCH  19  20
ENDBRANCH  18  19
ENDBRANCH   1  18
TORSDOF 28
ENDMDL
MODEL 5
REMARK VINA RESULT:    19.260      3.532     11.830
REMARK INTER + INTRA:          50.623
REMARK INTER:                  48.263
REMARK INTRA:                   2.360
REMARK UNBOUND:                -0.164
REMARK SMILES CCCCCCCCCCCCCCCCCCCCCCCCCCCCCC(=O)[O-]
REMARK SMILES IDX 16 1 17 2 18 3 19 4 20 5 21 6 22 7 23 8 24 9 25 10 26 11
REMARK SMILES IDX 27 12 28 13 29 14 30 15 31 16 32 17 15 18 14 19 13 20 12 21
REMARK SMILES IDX 11 22 10 23 9 24 8 25 7 26 6 27 5 28 4 29 3 30 2 31 1 32
REMARK H PARENT
REMARK Flexibility Score: inf
ROOT
ATOM      1  C   UNL     1      10.133 -30.559 -12.911  1.00  0.00     0.000 C 
ENDROOT
BRANCH   1   2
ATOM      2  C   UNL     1       9.073 -30.753 -14.005  1.00  0.00     0.000 C 
BRANCH   2   3
ATOM      3  C   UNL     1       8.140 -29.533 -14.094  1.00  0.00     0.000 C 
BRANCH   3   4
ATOM      4  C   UNL     1       8.103 -28.897 -15.497  1.00  0.00     0.000 C 
BRANCH   4   5
ATOM      5  C   UNL     1       7.020 -27.817 -15.707  1.00  0.00     0.000 C 
BRANCH   5   6
ATOM      6  C   UNL     1       6.167 -28.004 -16.974  1.00  0.00     0.000 C 
BRANCH   6   7
ATOM      7  C   UNL     1       6.965 -28.540 -18.174  1.00  0.00     0.000 C 
BRANCH   7   8
ATOM      8  C   UNL     1       6.250 -28.333 -19.522  1.00  0.00     0.000 C 
BRANCH   8   9
ATOM      9  C   UNL     1       6.611 -29.383 -20.598  1.00  0.00     0.000 C 
BRANCH   9  10
ATOM     10  C   UNL     1       7.998 -29.201 -21.244  1.00  0.00     0.000 C 
BRANCH  10  11
ATOM     11  C   UNL     1       9.124 -29.901 -20.463  1.00  0.00     0.000 C 
BRANCH  11  12
ATOM     12  C   UNL     1       8.659 -30.291 -19.055  1.00  0.00     0.000 C 
BRANCH  12  13
ATOM     13  C   UNL     1       9.808 -30.165 -18.040  1.00  0.00     0.006 C 
BRANCH  13  14
ATOM     14  C   UNL     1       9.509 -30.899 -16.726  1.00  0.00     0.053 C 
BRANCH  14  15
ATOM     15  C   UNL     1       9.357 -32.377 -16.921  1.00  0.00     0.041 C 
ATOM     16  O   UNL     1       9.405 -32.876 -18.079  1.00  0.00    -0.550 OA
ATOM     17  O   UNL     1       9.157 -33.206 -15.824  1.00  0.00    -0.550 OA
ENDBRANCH  14  15
ENDBRANCH  13  14
ENDBRANCH  12  13
ENDBRANCH  11  12
ENDBRANCH  10  11
ENDBRANCH   9  10
ENDBRANCH   8   9
ENDBRANCH   7   8
ENDBRANCH   6   7
ENDBRANCH   5   6
ENDBRANCH   4   5
ENDBRANCH   3   4
ENDBRANCH   2   3
ENDBRANCH   1   2
BRANCH   1  18
ATOM     18  C   UNL     1       9.557 -29.905 -11.644  1.00  0.00     0.000 C 
BRANCH  18  19
ATOM     19  C   UNL     1      10.452 -30.127 -10.411  1.00  0.00     0.000 C 
BRANCH  19  20
ATOM     20  C   UNL     1       9.727 -29.787  -9.091  1.00  0.00     0.000 C 
BRANCH  20  21
ATOM     21  C   UNL     1       8.840 -28.531  -9.179  1.00  0.00     0.000 C 
BRANCH  21  22
ATOM     22  C   UNL     1       9.657 -27.235  -9.323  1.00  0.00     0.000 C 
BRANCH  22  23
ATOM     23  C   UNL     1       8.786 -25.974  -9.198  1.00  0.00     0.000 C 
BRANCH  23  24
ATOM     24  C   UNL     1       8.813 -25.374  -7.785  1.00  0.00    -0.000 C 
BRANCH  24  25
ATOM     25  C   UNL     1       7.440 -24.801  -7.409  1.00  0.00    -0.000 C 
BRANCH  25  26
ATOM     26  C   UNL     1       7.416 -24.333  -5.946  1.00  0.00    -0.000 C 
BRANCH  26  27
ATOM     27  C   UNL     1       8.101 -25.331  -4.996  1.00  0.00    -0.000 C 
BRANCH  27  28
ATOM     28  C   UNL     1       8.951 -24.631  -3.920  1.00  0.00    -0.000 C 
BRANCH  28  29
ATOM     29  C   UNL     1      10.461 -24.821  -4.139  1.00  0.00    -0.000 C 
BRANCH  29  30
ATOM     30  C   UNL     1      10.844 -26.032  -5.010  1.00  0.00    -0.000 C 
BRANCH  30  31
ATOM     31  C   UNL     1      12.235 -26.616  -4.684  1.00  0.00    -0.003 C 
ATOM     32  C   UNL     1      13.180 -26.583  -5.885  1.00  0.00     0.004 C 
ENDBRANCH  30  31
ENDBRANCH  29  30
ENDBRANCH  28  29
ENDBRANCH  27  28
ENDBRANCH  26  27
ENDBRANCH  25  26
ENDBRANCH  24  25
ENDBRANCH  23  24
ENDBRANCH  22  23
ENDBRANCH  21  22
ENDBRANCH  20  21
ENDBRANCH  19  20
ENDBRANCH  18  19
ENDBRANCH   1  18
TORSDOF 28
ENDMDL
MODEL 6
REMARK VINA RESULT:    19.708      4.580     12.526
REMARK INTER + INTRA:          51.804
REMARK INTER:                  51.848
REMARK INTRA:                  -0.044
REMARK UNBOUND:                -0.164
REMARK SMILES CCCCCCCCCCCCCCCCCCCCCCCCCCCCCC(=O)[O-]
REMARK SMILES IDX 16 1 17 2 18 3 19 4 20 5 21 6 22 7 23 8 24 9 25 10 26 11
REMARK SMILES IDX 27 12 28 13 29 14 30 15 31 16 32 17 15 18 14 19 13 20 12 21
REMARK SMILES IDX 11 22 10 23 9 24 8 25 7 26 6 27 5 28 4 29 3 30 2 31 1 32
REMARK H PARENT
REMARK Flexibility Score: inf
ROOT
ATOM      1  C   UNL     1       9.019 -30.083 -12.835  1.00  0.00     0.000 C 
ENDROOT
BRANCH   1   2
ATOM      2  C   UNL     1       8.843 -30.053 -14.360  1.00  0.00     0.000 C 
BRANCH   2   3
ATOM      3  C   UNL     1       9.622 -31.199 -15.029  1.00  0.00     0.000 C 
BRANCH   3   4
ATOM      4  C   UNL     1       9.142 -31.505 -16.460  1.00  0.00     0.000 C 
BRANCH   4   5
ATOM      5  C   UNL     1       9.639 -30.529 -17.549  1.00  0.00     0.000 C 
BRANCH   5   6
ATOM      6  C   UNL     1       8.941 -29.157 -17.544  1.00  0.00     0.000 C 
BRANCH   6   7
ATOM      7  C   UNL     1       7.500 -29.207 -17.014  1.00  0.00     0.000 C 
BRANCH   7   8
ATOM      8  C   UNL     1       6.438 -29.118 -18.125  1.00  0.00     0.000 C 
BRANCH   8   9
ATOM      9  C   UNL     1       6.676 -27.976 -19.139  1.00  0.00     0.000 C 
BRANCH   9  10
ATOM     10  C   UNL     1       6.453 -28.361 -20.615  1.00  0.00     0.000 C 
BRANCH  10  11
ATOM     11  C   UNL     1       7.000 -29.755 -20.965  1.00  0.00     0.000 C 
BRANCH  11  12
ATOM     12  C   UNL     1       8.396 -29.967 -20.365  1.00  0.00     0.000 C 
BRANCH  12  13
ATOM     13  C   UNL     1       9.304 -30.734 -21.341  1.00  0.00     0.006 C 
BRANCH  13  14
ATOM     14  C   UNL     1       8.858 -32.191 -21.530  1.00  0.00     0.053 C 
BRANCH  14  15
ATOM     15  C   UNL     1      10.002 -33.154 -21.428  1.00  0.00     0.041 C 
ATOM     16  O   UNL     1      10.943 -33.118 -22.269  1.00  0.00    -0.550 OA
ATOM     17  O   UNL     1      10.028 -34.096 -20.407  1.00  0.00    -0.550 OA
ENDBRANCH  14  15
ENDBRANCH  13  14
ENDBRANCH  12  13
ENDBRANCH  11  12
ENDBRANCH  10  11
ENDBRANCH   9  10
ENDBRANCH   8   9
ENDBRANCH   7   8
ENDBRANCH   6   7
ENDBRANCH   5   6
ENDBRANCH   4   5
ENDBRANCH   3   4
ENDBRANCH   2   3
ENDBRANCH   1   2
BRANCH   1  18
ATOM     18  C   UNL     1       7.695 -29.867 -12.085  1.00  0.00     0.000 C 
BRANCH  18  19
ATOM     19  C   UNL     1       7.823 -28.830 -10.953  1.00  0.00     0.000 C 
BRANCH  19  20
ATOM     20  C   UNL     1       8.654 -29.358  -9.765  1.00  0.00     0.000 C 
BRANCH  20  21
ATOM     21  C   UNL     1      10.079 -28.780  -9.700  1.00  0.00     0.000 C 
BRANCH  21  22
ATOM     22  C   UNL     1      10.139 -27.426  -8.971  1.00  0.00     0.000 C 
BRANCH  22  23
ATOM     23  C   UNL     1       8.973 -26.500  -9.352  1.00  0.00     0.000 C 
BRANCH  23  24
ATOM     24  C   UNL     1       8.828 -25.308  -8.395  1.00  0.00    -0.000 C 
BRANCH  24  25
ATOM     25  C   UNL     1       8.170 -25.741  -7.079  1.00  0.00    -0.000 C 
BRANCH  25  26
ATOM     26  C   UNL     1       8.085 -24.569  -6.089  1.00  0.00    -0.000 C 
BRANCH  26  27
ATOM     27  C   UNL     1       8.426 -24.989  -4.648  1.00  0.00    -0.000 C 
BRANCH  27  28
ATOM     28  C   UNL     1       9.933 -24.897  -4.348  1.00  0.00    -0.000 C 
BRANCH  28  29
ATOM     29  C   UNL     1      10.689 -26.187  -4.709  1.00  0.00    -0.000 C 
BRANCH  29  30
ATOM     30  C   UNL     1      11.943 -25.984  -5.580  1.00  0.00    -0.000 C 
BRANCH  30  31
ATOM     31  C   UNL     1      13.216 -26.632  -4.998  1.00  0.00    -0.003 C 
ATOM     32  C   UNL     1      12.911 -27.890  -4.183  1.00  0.00     0.004 C 
ENDBRANCH  30  31
ENDBRANCH  29  30
ENDBRANCH  28  29
ENDBRANCH  27  28
ENDBRANCH  26  27
ENDBRANCH  25  26
ENDBRANCH  24  25
ENDBRANCH  23  24
ENDBRANCH  22  23
ENDBRANCH  21  22
ENDBRANCH  20  21
ENDBRANCH  19  20
ENDBRANCH  18  19
ENDBRANCH   1  18
TORSDOF 28
ENDMDL
MODEL 7
REMARK VINA RESULT:    19.900      3.511     11.650
REMARK INTER + INTRA:          52.309
REMARK INTER:                  48.762
REMARK INTRA:                   3.547
REMARK UNBOUND:                -0.164
REMARK SMILES CCCCCCCCCCCCCCCCCCCCCCCCCCCCCC(=O)[O-]
REMARK SMILES IDX 16 1 17 2 18 3 19 4 20 5 21 6 22 7 23 8 24 9 25 10 26 11
REMARK SMILES IDX 27 12 28 13 29 14 30 15 31 16 32 17 15 18 14 19 13 20 12 21
REMARK SMILES IDX 11 22 10 23 9 24 8 25 7 26 6 27 5 28 4 29 3 30 2 31 1 32
REMARK H PARENT
REMARK Flexibility Score: inf
ROOT
ATOM      1  C   UNL     1       7.695 -28.114 -15.185  1.00  0.00     0.000 C 
ENDROOT
BRANCH   1   2
ATOM      2  C   UNL     1       6.553 -28.110 -16.212  1.00  0.00     0.000 C 
BRANCH   2   3
ATOM      3  C   UNL     1       6.955 -28.869 -17.488  1.00  0.00     0.000 C 
BRANCH   3   4
ATOM      4  C   UNL     1       6.186 -28.403 -18.740  1.00  0.00     0.000 C 
BRANCH   4   5
ATOM      5  C   UNL     1       7.063 -27.894 -19.905  1.00  0.00     0.000 C 
BRANCH   5   6
ATOM      6  C   UNL     1       6.379 -27.932 -21.283  1.00  0.00     0.000 C 
BRANCH   6   7
ATOM      7  C   UNL     1       6.562 -29.268 -22.020  1.00  0.00     0.000 C 
BRANCH   7   8
ATOM      8  C   UNL     1       7.471 -30.258 -21.269  1.00  0.00     0.000 C 
BRANCH   8   9
ATOM      9  C   UNL     1       8.507 -29.587 -20.339  1.00  0.00     0.000 C 
BRANCH   9  10
ATOM     10  C   UNL     1       9.195 -30.538 -19.340  1.00  0.00     0.000 C 
BRANCH  10  11
ATOM     11  C   UNL     1      10.091 -29.805 -18.327  1.00  0.00     0.000 C 
BRANCH  11  12
ATOM     12  C   UNL     1       9.725 -30.192 -16.888  1.00  0.00     0.000 C 
BRANCH  12  13
ATOM     13  C   UNL     1       9.401 -31.691 -16.785  1.00  0.00     0.006 C 
BRANCH  13  14
ATOM     14  C   UNL     1       9.287 -32.166 -15.329  1.00  0.00     0.053 C 
BRANCH  14  15
ATOM     15  C   UNL     1       8.752 -33.562 -15.226  1.00  0.00     0.041 C 
ATOM     16  O   UNL     1       7.909 -33.985 -16.064  1.00  0.00    -0.550 OA
ATOM     17  O   UNL     1       9.182 -34.396 -14.201  1.00  0.00    -0.550 OA
ENDBRANCH  14  15
ENDBRANCH  13  14
ENDBRANCH  12  13
ENDBRANCH  11  12
ENDBRANCH  10  11
ENDBRANCH   9  10
ENDBRANCH   8   9
ENDBRANCH   7   8
ENDBRANCH   6   7
ENDBRANCH   5   6
ENDBRANCH   4   5
ENDBRANCH   3   4
ENDBRANCH   2   3
ENDBRANCH   1   2
BRANCH   1  18
ATOM     18  C   UNL     1       8.300 -29.513 -14.983  1.00  0.00     0.000 C 
BRANCH  18  19
ATOM     19  C   UNL     1       8.923 -29.687 -13.585  1.00  0.00     0.000 C 
BRANCH  19  20
ATOM     20  C   UNL     1       7.884 -30.124 -12.531  1.00  0.00     0.000 C 
BRANCH  20  21
ATOM     21  C   UNL     1       7.395 -28.974 -11.631  1.00  0.00     0.000 C 
BRANCH  21  22
ATOM     22  C   UNL     1       7.662 -29.231 -10.138  1.00  0.00     0.000 C 
BRANCH  22  23
ATOM     23  C   UNL     1       9.059 -28.762  -9.701  1.00  0.00     0.000 C 
BRANCH  23  24
ATOM     24  C   UNL     1       9.175 -27.233  -9.629  1.00  0.00    -0.000 C 
BRANCH  24  25
ATOM     25  C   UNL     1       9.973 -26.804  -8.390  1.00  0.00    -0.000 C 
BRANCH  25  26
ATOM     26  C   UNL     1       9.039 -26.342  -7.261  1.00  0.00    -0.000 C 
BRANCH  26  27
ATOM     27  C   UNL     1       9.504 -26.825  -5.876  1.00  0.00    -0.000 C 
BRANCH  27  28
ATOM     28  C   UNL     1       9.508 -25.696  -4.829  1.00  0.00    -0.000 C 
BRANCH  28  29
ATOM     29  C   UNL     1       8.724 -24.456  -5.290  1.00  0.00    -0.000 C 
BRANCH  29  30
ATOM     30  C   UNL     1       7.588 -24.017  -4.347  1.00  0.00    -0.000 C 
BRANCH  30  31
ATOM     31  C   UNL     1       6.235 -23.809  -5.059  1.00  0.00    -0.003 C 
ATOM     32  C   UNL     1       5.875 -24.971  -5.985  1.00  0.00     0.004 C 
ENDBRANCH  30  31
ENDBRANCH  29  30
ENDBRANCH  28  29
ENDBRANCH  27  28
ENDBRANCH  26  27
ENDBRANCH  25  26
ENDBRANCH  24  25
ENDBRANCH  23  24
ENDBRANCH  22  23
ENDBRANCH  21  22
ENDBRANCH  20  21
ENDBRANCH  19  20
ENDBRANCH  18  19
ENDBRANCH   1  18
TORSDOF 28
ENDMDL
MODEL 8
REMARK VINA RESULT:    20.339      3.210     12.162
REMARK INTER + INTRA:          53.467
REMARK INTER:                  50.661
REMARK INTRA:                   2.805
REMARK UNBOUND:                -0.164
REMARK SMILES CCCCCCCCCCCCCCCCCCCCCCCCCCCCCC(=O)[O-]
REMARK SMILES IDX 16 1 17 2 18 3 19 4 20 5 21 6 22 7 23 8 24 9 25 10 26 11
REMARK SMILES IDX 27 12 28 13 29 14 30 15 31 16 32 17 15 18 14 19 13 20 12 21
REMARK SMILES IDX 11 22 10 23 9 24 8 25 7 26 6 27 5 28 4 29 3 30 2 31 1 32
REMARK H PARENT
REMARK Flexibility Score: inf
ROOT
ATOM      1  C   UNL     1      10.146 -29.825 -11.786  1.00  0.00     0.000 C 
ENDROOT
BRANCH   1   2
ATOM      2  C   UNL     1       8.977 -30.427 -12.580  1.00  0.00     0.000 C 
BRANCH   2   3
ATOM      3  C   UNL     1       9.143 -30.170 -14.088  1.00  0.00     0.000 C 
BRANCH   3   4
ATOM      4  C   UNL     1       9.666 -31.396 -14.860  1.00  0.00     0.000 C 
BRANCH   4   5
ATOM      5  C   UNL     1       9.327 -31.426 -16.366  1.00  0.00     0.000 C 
BRANCH   5   6
ATOM      6  C   UNL     1      10.030 -30.341 -17.201  1.00  0.00     0.000 C 
BRANCH   6   7
ATOM      7  C   UNL     1       9.174 -29.814 -18.364  1.00  0.00     0.000 C 
BRANCH   7   8
ATOM      8  C   UNL     1       9.288 -30.667 -19.640  1.00  0.00     0.000 C 
BRANCH   8   9
ATOM      9  C   UNL     1       8.217 -30.354 -20.709  1.00  0.00     0.000 C 
BRANCH   9  10
ATOM     10  C   UNL     1       8.075 -28.861 -21.068  1.00  0.00     0.000 C 
BRANCH  10  11
ATOM     11  C   UNL     1       6.611 -28.402 -21.174  1.00  0.00     0.000 C 
BRANCH  11  12
ATOM     12  C   UNL     1       5.876 -28.592 -19.841  1.00  0.00     0.000 C 
BRANCH  12  13
ATOM     13  C   UNL     1       6.856 -28.534 -18.658  1.00  0.00     0.006 C 
BRANCH  13  14
ATOM     14  C   UNL     1       6.160 -28.164 -17.340  1.00  0.00     0.053 C 
BRANCH  14  15
ATOM     15  C   UNL     1       7.115 -28.115 -16.186  1.00  0.00     0.041 C 
ATOM     16  O   UNL     1       7.774 -29.140 -15.860  1.00  0.00    -0.550 OA
ATOM     17  O   UNL     1       7.275 -26.937 -15.467  1.00  0.00    -0.550 OA
ENDBRANCH  14  15
ENDBRANCH  13  14
ENDBRANCH  12  13
ENDBRANCH  11  12
ENDBRANCH  10  11
ENDBRANCH   9  10
ENDBRANCH   8   9
ENDBRANCH   7   8
ENDBRANCH   6   7
ENDBRANCH   5   6
ENDBRANCH   4   5
ENDBRANCH   3   4
ENDBRANCH   2   3
ENDBRANCH   1   2
BRANCH   1  18
ATOM     18  C   UNL     1       9.856 -29.751 -10.279  1.00  0.00     0.000 C 
BRANCH  18  19
ATOM     19  C   UNL     1       8.966 -28.549  -9.910  1.00  0.00     0.000 C 
BRANCH  19  20
ATOM     20  C   UNL     1       9.790 -27.329  -9.447  1.00  0.00     0.000 C 
BRANCH  20  21
ATOM     21  C   UNL     1       8.936 -26.084  -9.143  1.00  0.00     0.000 C 
BRANCH  21  22
ATOM     22  C   UNL     1       8.367 -26.088  -7.714  1.00  0.00     0.000 C 
BRANCH  22  23
ATOM     23  C   UNL     1       8.149 -24.669  -7.163  1.00  0.00     0.000 C 
BRANCH  23  24
ATOM     24  C   UNL     1       6.947 -24.582  -6.212  1.00  0.00    -0.000 C 
BRANCH  24  25
ATOM     25  C   UNL     1       7.231 -23.609  -5.061  1.00  0.00    -0.000 C 
BRANCH  25  26
ATOM     26  C   UNL     1       8.311 -24.164  -4.119  1.00  0.00    -0.000 C 
BRANCH  26  27
ATOM     27  C   UNL     1       8.732 -25.598  -4.485  1.00  0.00    -0.000 C 
BRANCH  27  28
ATOM     28  C   UNL     1      10.258 -25.795  -4.434  1.00  0.00    -0.000 C 
BRANCH  28  29
ATOM     29  C   UNL     1      11.033 -24.550  -4.896  1.00  0.00    -0.000 C 
BRANCH  29  30
ATOM     30  C   UNL     1      12.525 -24.788  -5.197  1.00  0.00    -0.000 C 
BRANCH  30  31
ATOM     31  C   UNL     1      13.011 -26.209  -4.844  1.00  0.00    -0.003 C 
ATOM     32  C   UNL     1      13.428 -27.009  -6.078  1.00  0.00     0.004 C 
ENDBRANCH  30  31
ENDBRANCH  29  30
ENDBRANCH  28  29
ENDBRANCH  27  28
ENDBRANCH  26  27
ENDBRANCH  25  26
ENDBRANCH  24  25
ENDBRANCH  23  24
ENDBRANCH  22  23
ENDBRANCH  21  22
ENDBRANCH  20  21
ENDBRANCH  19  20
ENDBRANCH  18  19
ENDBRANCH   1  18
TORSDOF 28
ENDMDL
