MODEL 1
REMARK VINA RESULT:    -1.420      0.000      0.000
REMARK INTER + INTRA:          -1.987
REMARK INTER:                  -1.669
REMARK INTRA:                  -0.318
REMARK UNBOUND:                -0.318
REMARK SMILES O=c1cc(-c2ccc(O)c(O)c2)oc2cc(O)cc(O)c12
REMARK SMILES IDX 4 1 3 2 2 3 1 4 21 5 19 6 18 7 16 8 15 9 14 10 13 11 5 12
REMARK SMILES IDX 6 13 7 14 8 15 12 16 10 17 9 18 11 20 20 22 17 24
REMARK H PARENT 9 19 11 21 20 23 17 25
REMARK Flexibility Score: inf
ROOT
ATOM      1  C   UNL     1      51.109  22.175  19.429  1.00  0.00     0.138 A 
ATOM      2  C   UNL     1      52.076  21.887  18.457  1.00  0.00     0.100 A 
ATOM      3  C   UNL     1      51.684  21.675  17.134  1.00  0.00     0.197 A 
ATOM      4  O   UNL     1      52.567  21.358  16.296  1.00  0.00    -0.289 OA
ATOM      5  C   UNL     1      50.318  21.781  16.780  1.00  0.00     0.107 A 
ATOM      6  C   UNL     1      49.807  21.626  15.457  1.00  0.00     0.134 A 
ATOM      7  C   UNL     1      48.423  21.638  15.246  1.00  0.00     0.093 A 
ATOM      8  C   UNL     1      47.534  21.862  16.301  1.00  0.00     0.123 A 
ATOM      9  C   UNL     1      48.026  22.069  17.587  1.00  0.00     0.094 A 
ATOM     10  C   UNL     1      49.401  22.027  17.836  1.00  0.00     0.146 A 
ATOM     11  O   UNL     1      49.826  22.216  19.081  1.00  0.00    -0.456 OA
ENDROOT
BRANCH   1  12
ATOM     12  C   UNL     1      51.471  22.411  20.849  1.00  0.00     0.021 A 
ATOM     13  C   UNL     1      52.812  22.426  21.279  1.00  0.00     0.016 A 
ATOM     14  C   UNL     1      53.124  22.660  22.620  1.00  0.00     0.051 A 
ATOM     15  C   UNL     1      52.106  22.892  23.554  1.00  0.00     0.157 A 
ATOM     16  C   UNL     1      50.456  22.658  21.791  1.00  0.00     0.062 A 
ATOM     17  C   UNL     1      50.766  22.893  23.136  1.00  0.00     0.158 A 
BRANCH  15  18
ATOM     18  O   UNL     1      52.422  23.125  24.892  1.00  0.00    -0.504 OA
ATOM     19  H   UNL     1      53.340  23.449  25.172  1.00  0.00     0.293 HD
ENDBRANCH  15  18
BRANCH  17  20
ATOM     20  O   UNL     1      49.729  23.125  24.039  1.00  0.00    -0.504 OA
ATOM     21  H   UNL     1      49.885  23.578  24.932  1.00  0.00     0.293 HD
ENDBRANCH  17  20
ENDBRANCH   1  12
BRANCH   6  22
ATOM     22  O   UNL     1      50.610  21.482  14.321  1.00  0.00    -0.507 OA
ATOM     23  H   UNL     1      50.525  22.034  13.481  1.00  0.00     0.293 HD
ENDBRANCH   6  22
BRANCH   8  24
ATOM     24  O   UNL     1      46.159  21.887  16.079  1.00  0.00    -0.508 OA
ATOM     25  H   UNL     1      45.498  21.902  16.848  1.00  0.00     0.293 HD
ENDBRANCH   8  24
TORSDOF 5
ENDMDL
MODEL 2
REMARK VINA RESULT:    -0.552     15.608     17.372
REMARK INTER + INTRA:          -0.967
REMARK INTER:                  -0.683
REMARK INTRA:                  -0.285
REMARK UNBOUND:                -0.318
REMARK SMILES O=c1cc(-c2ccc(O)c(O)c2)oc2cc(O)cc(O)c12
REMARK SMILES IDX 4 1 3 2 2 3 1 4 21 5 19 6 18 7 16 8 15 9 14 10 13 11 5 12
REMARK SMILES IDX 6 13 7 14 8 15 12 16 10 17 9 18 11 20 20 22 17 24
REMARK H PARENT 9 19 11 21 20 23 17 25
REMARK Flexibility Score: inf
ROOT
ATOM      1  C   UNL     1      34.786  20.512  13.832  1.00  0.00     0.138 A 
ATOM      2  C   UNL     1      36.044  21.125  13.759  1.00  0.00     0.100 A 
ATOM      3  C   UNL     1      36.453  21.720  12.564  1.00  0.00     0.197 A 
ATOM      4  O   UNL     1      37.612  22.208  12.509  1.00  0.00    -0.289 OA
ATOM      5  C   UNL     1      35.584  21.726  11.447  1.00  0.00     0.107 A 
ATOM      6  C   UNL     1      35.877  22.337  10.192  1.00  0.00     0.134 A 
ATOM      7  C   UNL     1      34.988  22.178   9.122  1.00  0.00     0.093 A 
ATOM      8  C   UNL     1      33.786  21.482   9.280  1.00  0.00     0.123 A 
ATOM      9  C   UNL     1      33.466  20.929  10.517  1.00  0.00     0.094 A 
ATOM     10  C   UNL     1      34.349  21.039  11.594  1.00  0.00     0.146 A 
ATOM     11  O   UNL     1      34.010  20.484  12.753  1.00  0.00    -0.456 OA
ENDROOT
BRANCH   1  12
ATOM     12  C   UNL     1      34.300  19.867  15.078  1.00  0.00     0.021 A 
ATOM     13  C   UNL     1      34.244  20.564  16.299  1.00  0.00     0.016 A 
ATOM     14  C   UNL     1      33.773  19.935  17.454  1.00  0.00     0.051 A 
ATOM     15  C   UNL     1      33.343  18.603  17.410  1.00  0.00     0.157 A 
ATOM     16  C   UNL     1      33.854  18.534  15.038  1.00  0.00     0.062 A 
ATOM     17  C   UNL     1      33.382  17.900  16.194  1.00  0.00     0.158 A 
BRANCH  15  18
ATOM     18  O   UNL     1      32.875  17.978  18.565  1.00  0.00    -0.504 OA
ATOM     19  H   UNL     1      31.922  17.642  18.637  1.00  0.00     0.293 HD
ENDBRANCH  15  18
BRANCH  17  20
ATOM     20  O   UNL     1      32.957  16.574  16.114  1.00  0.00    -0.504 OA
ATOM     21  H   UNL     1      32.026  16.291  16.393  1.00  0.00     0.293 HD
ENDBRANCH  17  20
ENDBRANCH   1  12
BRANCH   6  22
ATOM     22  O   UNL     1      37.007  23.125   9.952  1.00  0.00    -0.507 OA
ATOM     23  H   UNL     1      37.885  22.781   9.593  1.00  0.00     0.293 HD
ENDBRANCH   6  22
BRANCH   8  24
ATOM     24  O   UNL     1      32.900  21.342   8.215  1.00  0.00    -0.508 OA
ATOM     25  H   UNL     1      32.962  21.932   7.392  1.00  0.00     0.293 HD
ENDBRANCH   8  24
TORSDOF 5
ENDMDL
MODEL 3
REMARK VINA RESULT:     0.271      2.725      6.411
REMARK INTER + INTRA:           0.000
REMARK INTER:                   0.293
REMARK INTRA:                  -0.292
REMARK UNBOUND:                -0.318
REMARK SMILES O=c1cc(-c2ccc(O)c(O)c2)oc2cc(O)cc(O)c12
REMARK SMILES IDX 4 1 3 2 2 3 1 4 21 5 19 6 18 7 16 8 15 9 14 10 13 11 5 12
REMARK SMILES IDX 6 13 7 14 8 15 12 16 10 17 9 18 11 20 20 22 17 24
REMARK H PARENT 9 19 11 21 20 23 17 25
REMARK Flexibility Score: inf
ROOT
ATOM      1  C   UNL     1      48.041  22.736  17.815  1.00  0.00     0.138 A 
ATOM      2  C   UNL     1      48.625  23.028  19.056  1.00  0.00     0.100 A 
ATOM      3  C   UNL     1      50.007  22.913  19.212  1.00  0.00     0.197 A 
ATOM      4  O   UNL     1      50.495  23.121  20.353  1.00  0.00    -0.289 OA
ATOM      5  C   UNL     1      50.810  22.531  18.112  1.00  0.00     0.107 A 
ATOM      6  C   UNL     1      52.232  22.420  18.143  1.00  0.00     0.134 A 
ATOM      7  C   UNL     1      52.911  21.921  17.024  1.00  0.00     0.093 A 
ATOM      8  C   UNL     1      52.224  21.589  15.854  1.00  0.00     0.123 A 
ATOM      9  C   UNL     1      50.842  21.745  15.795  1.00  0.00     0.094 A 
ATOM     10  C   UNL     1      50.132  22.207  16.907  1.00  0.00     0.146 A 
ATOM     11  O   UNL     1      48.812  22.328  16.812  1.00  0.00    -0.456 OA
ENDROOT
BRANCH   1  12
ATOM     12  C   UNL     1      46.577  22.844  17.593  1.00  0.00     0.021 A 
ATOM     13  C   UNL     1      46.022  22.830  16.299  1.00  0.00     0.016 A 
ATOM     14  C   UNL     1      44.640  22.924  16.120  1.00  0.00     0.051 A 
ATOM     15  C   UNL     1      43.787  23.024  17.226  1.00  0.00     0.157 A 
ATOM     16  C   UNL     1      45.713  22.932  18.699  1.00  0.00     0.062 A 
ATOM     17  C   UNL     1      44.328  23.026  18.522  1.00  0.00     0.158 A 
BRANCH  15  18
ATOM     18  O   UNL     1      42.408  23.119  17.043  1.00  0.00    -0.504 OA
ATOM     19  H   UNL     1      42.006  23.761  16.371  1.00  0.00     0.293 HD
ENDBRANCH  15  18
BRANCH  17  20
ATOM     20  O   UNL     1      43.507  23.121  19.645  1.00  0.00    -0.504 OA
ATOM     21  H   UNL     1      42.798  23.839  19.734  1.00  0.00     0.293 HD
ENDBRANCH  17  20
ENDBRANCH   1  12
BRANCH   6  22
ATOM     22  O   UNL     1      53.022  22.806  19.231  1.00  0.00    -0.507 OA
ATOM     23  H   UNL     1      53.894  23.309  19.161  1.00  0.00     0.293 HD
ENDBRANCH   6  22
BRANCH   8  24
ATOM     24  O   UNL     1      52.909  21.108  14.740  1.00  0.00    -0.508 OA
ATOM     25  H   UNL     1      53.121  20.122  14.633  1.00  0.00     0.293 HD
ENDBRANCH   8  24
TORSDOF 5
ENDMDL
MODEL 4
REMARK VINA RESULT:     0.277     16.639     17.886
REMARK INTER + INTRA:           0.007
REMARK INTER:                   0.273
REMARK INTRA:                  -0.266
REMARK UNBOUND:                -0.318
REMARK SMILES O=c1cc(-c2ccc(O)c(O)c2)oc2cc(O)cc(O)c12
REMARK SMILES IDX 4 1 3 2 2 3 1 4 21 5 19 6 18 7 16 8 15 9 14 10 13 11 5 12
REMARK SMILES IDX 6 13 7 14 8 15 12 16 10 17 9 18 11 20 20 22 17 24
REMARK H PARENT 9 19 11 21 20 23 17 25
REMARK Flexibility Score: inf
ROOT
ATOM      1  C   UNL     1      34.018  20.406  12.756  1.00  0.00     0.138 A 
ATOM      2  C   UNL     1      33.233  21.470  12.289  1.00  0.00     0.100 A 
ATOM      3  C   UNL     1      33.562  22.095  11.086  1.00  0.00     0.197 A 
ATOM      4  O   UNL     1      32.877  23.086  10.724  1.00  0.00    -0.289 OA
ATOM      5  C   UNL     1      34.667  21.632  10.332  1.00  0.00     0.107 A 
ATOM      6  C   UNL     1      35.072  22.165   9.072  1.00  0.00     0.134 A 
ATOM      7  C   UNL     1      36.250  21.702   8.473  1.00  0.00     0.093 A 
ATOM      8  C   UNL     1      37.004  20.683   9.059  1.00  0.00     0.123 A 
ATOM      9  C   UNL     1      36.588  20.118  10.262  1.00  0.00     0.094 A 
ATOM     10  C   UNL     1      35.435  20.582  10.902  1.00  0.00     0.146 A 
ATOM     11  O   UNL     1      35.082  20.025  12.055  1.00  0.00    -0.456 OA
ENDROOT
BRANCH   1  12
ATOM     12  C   UNL     1      33.711  19.705  14.028  1.00  0.00     0.021 A 
ATOM     13  C   UNL     1      33.186  18.399  14.045  1.00  0.00     0.016 A 
ATOM     14  C   UNL     1      32.916  17.759  15.257  1.00  0.00     0.051 A 
ATOM     15  C   UNL     1      33.173  18.406  16.472  1.00  0.00     0.157 A 
ATOM     16  C   UNL     1      33.979  20.343  15.252  1.00  0.00     0.062 A 
ATOM     17  C   UNL     1      33.709  19.704  16.468  1.00  0.00     0.158 A 
BRANCH  15  18
ATOM     18  O   UNL     1      32.901  17.764  17.679  1.00  0.00    -0.504 OA
ATOM     19  H   UNL     1      33.132  18.189  18.569  1.00  0.00     0.293 HD
ENDBRANCH  15  18
BRANCH  17  20
ATOM     20  O   UNL     1      33.980  20.375  17.660  1.00  0.00    -0.504 OA
ATOM     21  H   UNL     1      33.481  21.215  17.929  1.00  0.00     0.293 HD
ENDBRANCH  17  20
ENDBRANCH   1  12
BRANCH   6  22
ATOM     22  O   UNL     1      34.345  23.125   8.360  1.00  0.00    -0.507 OA
ATOM     23  H   UNL     1      33.385  23.024   8.071  1.00  0.00     0.293 HD
ENDBRANCH   6  22
BRANCH   8  24
ATOM     24  O   UNL     1      38.167  20.218   8.449  1.00  0.00    -0.508 OA
ATOM     25  H   UNL     1      39.076  20.330   8.885  1.00  0.00     0.293 HD
ENDBRANCH   8  24
TORSDOF 5
ENDMDL
MODEL 5
REMARK VINA RESULT:     0.337     13.623     18.363
REMARK INTER + INTRA:           0.078
REMARK INTER:                   0.392
REMARK INTRA:                  -0.314
REMARK UNBOUND:                -0.318
REMARK SMILES O=c1cc(-c2ccc(O)c(O)c2)oc2cc(O)cc(O)c12
REMARK SMILES IDX 4 1 3 2 2 3 1 4 21 5 19 6 18 7 16 8 15 9 14 10 13 11 5 12
REMARK SMILES IDX 6 13 7 14 8 15 12 16 10 17 9 18 11 20 20 22 17 24
REMARK H PARENT 9 19 11 21 20 23 17 25
REMARK Flexibility Score: inf
ROOT
ATOM      1  C   UNL     1      34.537  21.249  11.893  1.00  0.00     0.138 A 
ATOM      2  C   UNL     1      33.586  20.466  12.561  1.00  0.00     0.100 A 
ATOM      3  C   UNL     1      33.832  20.046  13.869  1.00  0.00     0.197 A 
ATOM      4  O   UNL     1      32.987  19.293  14.420  1.00  0.00    -0.289 OA
ATOM      5  C   UNL     1      35.025  20.438  14.521  1.00  0.00     0.107 A 
ATOM      6  C   UNL     1      35.363  20.104  15.866  1.00  0.00     0.134 A 
ATOM      7  C   UNL     1      36.625  20.451  16.367  1.00  0.00     0.093 A 
ATOM      8  C   UNL     1      37.535  21.174  15.591  1.00  0.00     0.123 A 
ATOM      9  C   UNL     1      37.192  21.552  14.296  1.00  0.00     0.094 A 
ATOM     10  C   UNL     1      35.955  21.190  13.755  1.00  0.00     0.146 A 
ATOM     11  O   UNL     1      35.674  21.559  12.510  1.00  0.00    -0.456 OA
ENDROOT
BRANCH   1  12
ATOM     12  C   UNL     1      34.326  21.724  10.503  1.00  0.00     0.021 A 
ATOM     13  C   UNL     1      33.046  21.754   9.918  1.00  0.00     0.016 A 
ATOM     14  C   UNL     1      32.875  22.216   8.611  1.00  0.00     0.051 A 
ATOM     15  C   UNL     1      33.975  22.663   7.867  1.00  0.00     0.157 A 
ATOM     16  C   UNL     1      35.423  22.187   9.755  1.00  0.00     0.062 A 
ATOM     17  C   UNL     1      35.255  22.650   8.445  1.00  0.00     0.158 A 
BRANCH  15  18
ATOM     18  O   UNL     1      33.800  23.122   6.563  1.00  0.00    -0.504 OA
ATOM     19  H   UNL     1      34.496  22.956   5.845  1.00  0.00     0.293 HD
ENDBRANCH  15  18
BRANCH  17  20
ATOM     20  O   UNL     1      36.370  23.092   7.734  1.00  0.00    -0.504 OA
ATOM     21  H   UNL     1      37.162  22.488   7.546  1.00  0.00     0.293 HD
ENDBRANCH  17  20
ENDBRANCH   1  12
BRANCH   6  22
ATOM     22  O   UNL     1      34.496  19.459  16.753  1.00  0.00    -0.507 OA
ATOM     23  H   UNL     1      33.622  19.027  16.494  1.00  0.00     0.293 HD
ENDBRANCH   6  22
BRANCH   8  24
ATOM     24  O   UNL     1      38.781  21.527  16.103  1.00  0.00    -0.508 OA
ATOM     25  H   UNL     1      39.179  21.052  16.905  1.00  0.00     0.293 HD
ENDBRANCH   8  24
TORSDOF 5
ENDMDL
