MODEL 1
REMARK VINA RESULT:    -5.898      0.000      0.000
REMARK INTER + INTRA:          -7.592
REMARK INTER:                  -7.277
REMARK INTRA:                  -0.315
REMARK UNBOUND:                -0.315
REMARK SMILES Oc1cc(O)c2cc(O)c(-c3cc(O)c(O)c(O)c3)[o+]c2c1
REMARK SMILES IDX 10 1 20 2 21 3 22 4 2 5 3 6 4 7 6 8 7 9 8 10 11 11 12 12
REMARK SMILES IDX 13 13 19 14 15 15 17 16 14 17 16 19 18 21 9 23 1 25 5 27
REMARK H PARENT 14 18 16 20 18 22 9 24 1 26 5 28
REMARK Flexibility Score: inf
ROOT
ATOM      1  C   UNL     1      14.608  -4.071  -2.848  1.00  0.00     0.402 A 
ATOM      2  O   UNL     1      15.843  -4.068  -2.354  1.00  0.00    -0.202 OA
ATOM      3  C   UNL     1      16.868  -3.474  -2.955  1.00  0.00     0.368 A 
ATOM      4  C   UNL     1      18.130  -3.527  -2.357  1.00  0.00     0.162 A 
ATOM      5  C   UNL     1      19.226  -2.916  -2.968  1.00  0.00     0.128 A 
ATOM      6  C   UNL     1      19.060  -2.246  -4.185  1.00  0.00     0.093 A 
ATOM      7  C   UNL     1      17.806  -2.178  -4.805  1.00  0.00     0.136 A 
ATOM      8  C   UNL     1      16.689  -2.797  -4.185  1.00  0.00     0.125 A 
ATOM      9  C   UNL     1      15.393  -2.770  -4.726  1.00  0.00     0.078 A 
ATOM     10  C   UNL     1      14.340  -3.399  -4.055  1.00  0.00     0.223 A 
ENDROOT
BRANCH   1  11
ATOM     11  C   UNL     1      13.551  -4.777  -2.089  1.00  0.00     0.091 A 
ATOM     12  C   UNL     1      12.998  -4.228  -0.920  1.00  0.00     0.068 A 
ATOM     13  C   UNL     1      11.982  -4.902  -0.226  1.00  0.00     0.162 A 
ATOM     14  C   UNL     1      13.050  -5.995  -2.573  1.00  0.00     0.068 A 
ATOM     15  C   UNL     1      11.504  -6.132  -0.707  1.00  0.00     0.200 A 
ATOM     16  C   UNL     1      12.039  -6.675  -1.887  1.00  0.00     0.162 A 
BRANCH  13  17
ATOM     17  O   UNL     1      11.446  -4.349   0.937  1.00  0.00    -0.504 OA
ATOM     18  H   UNL     1      11.667  -3.404   1.227  1.00  0.00     0.293 HD
ENDBRANCH  13  17
BRANCH  15  19
ATOM     19  O   UNL     1      10.496  -6.818  -0.026  1.00  0.00    -0.502 OA
ATOM     20  H   UNL     1      10.672  -7.685   0.468  1.00  0.00     0.293 HD
ENDBRANCH  15  19
BRANCH  16  21
ATOM     21  O   UNL     1      11.578  -7.890  -2.394  1.00  0.00    -0.504 OA
ATOM     22  H   UNL     1      10.666  -8.263  -2.155  1.00  0.00     0.293 HD
ENDBRANCH  16  21
ENDBRANCH   1  11
BRANCH  10  23
ATOM     23  O   UNL     1      13.044  -3.329  -4.565  1.00  0.00    -0.500 OA
ATOM     24  H   UNL     1      12.372  -2.652  -4.223  1.00  0.00     0.294 HD
ENDBRANCH  10  23
BRANCH   5  25
ATOM     25  O   UNL     1      20.476  -2.979  -2.357  1.00  0.00    -0.507 OA
ATOM     26  H   UNL     1      20.573  -2.981  -1.348  1.00  0.00     0.293 HD
ENDBRANCH   5  25
BRANCH   7  27
ATOM     27  O   UNL     1      17.724  -1.494  -6.020  1.00  0.00    -0.507 OA
ATOM     28  H   UNL     1      18.522  -1.202  -6.565  1.00  0.00     0.293 HD
ENDBRANCH   7  27
TORSDOF 7
ENDMDL
MODEL 2
REMARK VINA RESULT:    -5.849      1.574      6.926
REMARK INTER + INTRA:          -7.532
REMARK INTER:                  -7.544
REMARK INTRA:                   0.012
REMARK UNBOUND:                -0.315
REMARK SMILES Oc1cc(O)c2cc(O)c(-c3cc(O)c(O)c(O)c3)[o+]c2c1
REMARK SMILES IDX 10 1 20 2 21 3 22 4 2 5 3 6 4 7 6 8 7 9 8 10 11 11 12 12
REMARK SMILES IDX 13 13 19 14 15 15 17 16 14 17 16 19 18 21 9 23 1 25 5 27
REMARK H PARENT 14 18 16 20 18 22 9 24 1 26 5 28
REMARK Flexibility Score: inf
ROOT
ATOM      1  C   UNL     1      15.275  -3.440  -3.019  1.00  0.00     0.402 A 
ATOM      2  O   UNL     1      14.811  -3.753  -1.812  1.00  0.00    -0.202 OA
ATOM      3  C   UNL     1      13.533  -4.020  -1.568  1.00  0.00     0.368 A 
ATOM      4  C   UNL     1      13.141  -4.337  -0.265  1.00  0.00     0.162 A 
ATOM      5  C   UNL     1      11.804  -4.618   0.021  1.00  0.00     0.128 A 
ATOM      6  C   UNL     1      10.851  -4.582  -1.002  1.00  0.00     0.093 A 
ATOM      7  C   UNL     1      11.218  -4.267  -2.317  1.00  0.00     0.136 A 
ATOM      8  C   UNL     1      12.576  -3.983  -2.611  1.00  0.00     0.125 A 
ATOM      9  C   UNL     1      13.038  -3.669  -3.900  1.00  0.00     0.078 A 
ATOM     10  C   UNL     1      14.394  -3.406  -4.115  1.00  0.00     0.223 A 
ENDROOT
BRANCH   1  11
ATOM     11  C   UNL     1      16.721  -3.153  -3.161  1.00  0.00     0.091 A 
ATOM     12  C   UNL     1      17.182  -2.092  -3.958  1.00  0.00     0.068 A 
ATOM     13  C   UNL     1      18.555  -1.823  -4.061  1.00  0.00     0.162 A 
ATOM     14  C   UNL     1      17.650  -3.920  -2.442  1.00  0.00     0.068 A 
ATOM     15  C   UNL     1      19.478  -2.611  -3.356  1.00  0.00     0.200 A 
ATOM     16  C   UNL     1      19.020  -3.661  -2.541  1.00  0.00     0.162 A 
BRANCH  13  17
ATOM     17  O   UNL     1      19.001  -0.770  -4.860  1.00  0.00    -0.504 OA
ATOM     18  H   UNL     1      19.351  -0.927  -5.798  1.00  0.00     0.293 HD
ENDBRANCH  13  17
BRANCH  15  19
ATOM     19  O   UNL     1      20.848  -2.360  -3.452  1.00  0.00    -0.502 OA
ATOM     20  H   UNL     1      21.425  -2.777  -4.173  1.00  0.00     0.293 HD
ENDBRANCH  15  19
BRANCH  16  21
ATOM     21  O   UNL     1      19.912  -4.456  -1.822  1.00  0.00    -0.504 OA
ATOM     22  H   UNL     1      19.671  -5.390  -1.509  1.00  0.00     0.293 HD
ENDBRANCH  16  21
ENDBRANCH   1  11
BRANCH  10  23
ATOM     23  O   UNL     1      14.861  -3.145  -5.403  1.00  0.00    -0.500 OA
ATOM     24  H   UNL     1      15.851  -3.101  -5.613  1.00  0.00     0.294 HD
ENDBRANCH  10  23
BRANCH   5  25
ATOM     25  O   UNL     1      11.433  -4.932   1.326  1.00  0.00    -0.507 OA
ATOM     26  H   UNL     1      11.132  -4.217   1.978  1.00  0.00     0.293 HD
ENDBRANCH   5  25
BRANCH   7  27
ATOM     27  O   UNL     1      10.206  -4.248  -3.281  1.00  0.00    -0.507 OA
ATOM     28  H   UNL     1      10.074  -3.509  -3.955  1.00  0.00     0.293 HD
ENDBRANCH   7  27
TORSDOF 7
ENDMDL
MODEL 3
REMARK VINA RESULT:    -5.791      0.222      1.805
REMARK INTER + INTRA:          -7.460
REMARK INTER:                  -7.123
REMARK INTRA:                  -0.337
REMARK UNBOUND:                -0.315
REMARK SMILES Oc1cc(O)c2cc(O)c(-c3cc(O)c(O)c(O)c3)[o+]c2c1
REMARK SMILES IDX 10 1 20 2 21 3 22 4 2 5 3 6 4 7 6 8 7 9 8 10 11 11 12 12
REMARK SMILES IDX 13 13 19 14 15 15 17 16 14 17 16 19 18 21 9 23 1 25 5 27
REMARK H PARENT 14 18 16 20 18 22 9 24 1 26 5 28
REMARK Flexibility Score: inf
ROOT
ATOM      1  C   UNL     1      14.517  -4.102  -2.855  1.00  0.00     0.402 A 
ATOM      2  O   UNL     1      15.740  -4.115  -2.332  1.00  0.00    -0.202 OA
ATOM      3  C   UNL     1      16.798  -3.584  -2.935  1.00  0.00     0.368 A 
ATOM      4  C   UNL     1      18.044  -3.649  -2.306  1.00  0.00     0.162 A 
ATOM      5  C   UNL     1      19.172  -3.102  -2.918  1.00  0.00     0.128 A 
ATOM      6  C   UNL     1      19.056  -2.485  -4.168  1.00  0.00     0.093 A 
ATOM      7  C   UNL     1      17.819  -2.407  -4.820  1.00  0.00     0.136 A 
ATOM      8  C   UNL     1      16.669  -2.959  -4.199  1.00  0.00     0.125 A 
ATOM      9  C   UNL     1      15.387  -2.917  -4.772  1.00  0.00     0.078 A 
ATOM     10  C   UNL     1      14.299  -3.479  -4.097  1.00  0.00     0.223 A 
ENDROOT
BRANCH   1  11
ATOM     11  C   UNL     1      13.421  -4.738  -2.089  1.00  0.00     0.091 A 
ATOM     12  C   UNL     1      12.886  -5.980  -2.470  1.00  0.00     0.068 A 
ATOM     13  C   UNL     1      11.863  -6.577  -1.718  1.00  0.00     0.162 A 
ATOM     14  C   UNL     1      12.940  -4.116  -0.927  1.00  0.00     0.068 A 
ATOM     15  C   UNL     1      11.373  -5.935  -0.569  1.00  0.00     0.200 A 
ATOM     16  C   UNL     1      11.919  -4.702  -0.172  1.00  0.00     0.162 A 
BRANCH  13  17
ATOM     17  O   UNL     1      11.336  -7.807  -2.109  1.00  0.00    -0.504 OA
ATOM     18  H   UNL     1      10.339  -7.986  -2.097  1.00  0.00     0.293 HD
ENDBRANCH  13  17
BRANCH  15  19
ATOM     19  O   UNL     1      10.352  -6.512   0.188  1.00  0.00    -0.502 OA
ATOM     20  H   UNL     1       9.488  -6.024   0.390  1.00  0.00     0.293 HD
ENDBRANCH  15  19
BRANCH  16  21
ATOM     21  O   UNL     1      11.460  -4.044   0.969  1.00  0.00    -0.504 OA
ATOM     22  H   UNL     1      10.500  -4.118   1.284  1.00  0.00     0.293 HD
ENDBRANCH  16  21
ENDBRANCH   1  11
BRANCH  10  23
ATOM     23  O   UNL     1      13.018  -3.392  -4.642  1.00  0.00    -0.500 OA
ATOM     24  H   UNL     1      12.823  -3.676  -5.595  1.00  0.00     0.294 HD
ENDBRANCH  10  23
BRANCH   5  25
ATOM     25  O   UNL     1      20.405  -3.176  -2.274  1.00  0.00    -0.507 OA
ATOM     26  H   UNL     1      21.040  -2.386  -2.253  1.00  0.00     0.293 HD
ENDBRANCH   5  25
BRANCH   7  27
ATOM     27  O   UNL     1      17.787  -1.778  -6.068  1.00  0.00    -0.507 OA
ATOM     28  H   UNL     1      17.729  -2.264  -6.950  1.00  0.00     0.293 HD
ENDBRANCH   7  27
TORSDOF 7
ENDMDL
MODEL 4
REMARK VINA RESULT:    -5.736      2.071      3.461
REMARK INTER + INTRA:          -7.393
REMARK INTER:                  -7.472
REMARK INTRA:                   0.079
REMARK UNBOUND:                -0.315
REMARK SMILES Oc1cc(O)c2cc(O)c(-c3cc(O)c(O)c(O)c3)[o+]c2c1
REMARK SMILES IDX 10 1 20 2 21 3 22 4 2 5 3 6 4 7 6 8 7 9 8 10 11 11 12 12
REMARK SMILES IDX 13 13 19 14 15 15 17 16 14 17 16 19 18 21 9 23 1 25 5 27
REMARK H PARENT 14 18 16 20 18 22 9 24 1 26 5 28
REMARK Flexibility Score: inf
ROOT
ATOM      1  C   UNL     1      16.025  -3.904  -2.175  1.00  0.00     0.402 A 
ATOM      2  O   UNL     1      16.656  -4.478  -1.154  1.00  0.00    -0.202 OA
ATOM      3  C   UNL     1      17.978  -4.478  -1.020  1.00  0.00     0.368 A 
ATOM      4  C   UNL     1      18.549  -5.111   0.087  1.00  0.00     0.162 A 
ATOM      5  C   UNL     1      19.934  -5.129   0.252  1.00  0.00     0.128 A 
ATOM      6  C   UNL     1      20.757  -4.510  -0.696  1.00  0.00     0.093 A 
ATOM      7  C   UNL     1      20.209  -3.870  -1.815  1.00  0.00     0.136 A 
ATOM      8  C   UNL     1      18.800  -3.847  -1.984  1.00  0.00     0.125 A 
ATOM      9  C   UNL     1      18.163  -3.219  -3.067  1.00  0.00     0.078 A 
ATOM     10  C   UNL     1      16.768  -3.234  -3.163  1.00  0.00     0.223 A 
ENDROOT
BRANCH   1  11
ATOM     11  C   UNL     1      14.546  -3.981  -2.217  1.00  0.00     0.091 A 
ATOM     12  C   UNL     1      13.856  -4.133  -3.431  1.00  0.00     0.068 A 
ATOM     13  C   UNL     1      12.456  -4.227  -3.448  1.00  0.00     0.162 A 
ATOM     14  C   UNL     1      13.820  -3.958  -1.017  1.00  0.00     0.068 A 
ATOM     15  C   UNL     1      11.737  -4.180  -2.243  1.00  0.00     0.200 A 
ATOM     16  C   UNL     1      12.425  -4.049  -1.024  1.00  0.00     0.162 A 
BRANCH  13  17
ATOM     17  O   UNL     1      11.781  -4.372  -4.660  1.00  0.00    -0.504 OA
ATOM     18  H   UNL     1      11.670  -5.277  -5.101  1.00  0.00     0.293 HD
ENDBRANCH  13  17
BRANCH  15  19
ATOM     19  O   UNL     1      10.344  -4.267  -2.242  1.00  0.00    -0.502 OA
ATOM     20  H   UNL     1       9.772  -3.786  -1.558  1.00  0.00     0.293 HD
ENDBRANCH  15  19
BRANCH  16  21
ATOM     21  O   UNL     1      11.739  -4.007   0.189  1.00  0.00    -0.504 OA
ATOM     22  H   UNL     1      12.220  -3.985   1.081  1.00  0.00     0.293 HD
ENDBRANCH  16  21
ENDBRANCH   1  11
BRANCH  10  23
ATOM     23  O   UNL     1      16.132  -2.566  -4.210  1.00  0.00    -0.500 OA
ATOM     24  H   UNL     1      15.583  -1.730  -4.054  1.00  0.00     0.294 HD
ENDBRANCH  10  23
BRANCH   5  25
ATOM     25  O   UNL     1      20.485  -5.764   1.362  1.00  0.00    -0.507 OA
ATOM     26  H   UNL     1      20.961  -5.242   2.090  1.00  0.00     0.293 HD
ENDBRANCH   5  25
BRANCH   7  27
ATOM     27  O   UNL     1      21.097  -3.279  -2.718  1.00  0.00    -0.507 OA
ATOM     28  H   UNL     1      22.084  -3.154  -2.549  1.00  0.00     0.293 HD
ENDBRANCH   7  27
TORSDOF 7
ENDMDL
MODEL 5
REMARK VINA RESULT:    -5.727      2.722      6.683
REMARK INTER + INTRA:          -7.382
REMARK INTER:                  -7.020
REMARK INTRA:                  -0.362
REMARK UNBOUND:                -0.315
REMARK SMILES Oc1cc(O)c2cc(O)c(-c3cc(O)c(O)c(O)c3)[o+]c2c1
REMARK SMILES IDX 10 1 20 2 21 3 22 4 2 5 3 6 4 7 6 8 7 9 8 10 11 11 12 12
REMARK SMILES IDX 13 13 19 14 15 15 17 16 14 17 16 19 18 21 9 23 1 25 5 27
REMARK H PARENT 14 18 16 20 18 22 9 24 1 26 5 28
REMARK Flexibility Score: inf
ROOT
ATOM      1  C   UNL     1      15.918  -4.975  -1.438  1.00  0.00     0.402 A 
ATOM      2  O   UNL     1      14.797  -4.807  -0.740  1.00  0.00    -0.202 OA
ATOM      3  C   UNL     1      13.607  -4.624  -1.302  1.00  0.00     0.368 A 
ATOM      4  C   UNL     1      12.488  -4.455  -0.484  1.00  0.00     0.162 A 
ATOM      5  C   UNL     1      11.227  -4.258  -1.047  1.00  0.00     0.128 A 
ATOM      6  C   UNL     1      11.082  -4.228  -2.438  1.00  0.00     0.093 A 
ATOM      7  C   UNL     1      12.189  -4.395  -3.280  1.00  0.00     0.136 A 
ATOM      8  C   UNL     1      13.472  -4.599  -2.711  1.00  0.00     0.125 A 
ATOM      9  C   UNL     1      14.635  -4.787  -3.476  1.00  0.00     0.078 A 
ATOM     10  C   UNL     1      15.866  -4.988  -2.843  1.00  0.00     0.223 A 
ENDROOT
BRANCH   1  11
ATOM     11  C   UNL     1      17.185  -5.160  -0.694  1.00  0.00     0.091 A 
ATOM     12  C   UNL     1      17.565  -6.418  -0.197  1.00  0.00     0.068 A 
ATOM     13  C   UNL     1      18.780  -6.577   0.485  1.00  0.00     0.162 A 
ATOM     14  C   UNL     1      18.053  -4.070  -0.527  1.00  0.00     0.068 A 
ATOM     15  C   UNL     1      19.631  -5.474   0.667  1.00  0.00     0.200 A 
ATOM     16  C   UNL     1      19.264  -4.218   0.154  1.00  0.00     0.162 A 
BRANCH  13  17
ATOM     17  O   UNL     1      19.144  -7.829   0.979  1.00  0.00    -0.504 OA
ATOM     18  H   UNL     1      20.112  -8.067   1.162  1.00  0.00     0.293 HD
ENDBRANCH  13  17
BRANCH  15  19
ATOM     19  O   UNL     1      20.841  -5.614   1.348  1.00  0.00    -0.502 OA
ATOM     20  H   UNL     1      20.927  -6.175   2.188  1.00  0.00     0.293 HD
ENDBRANCH  15  19
BRANCH  16  21
ATOM     21  O   UNL     1      20.092  -3.107   0.310  1.00  0.00    -0.504 OA
ATOM     22  H   UNL     1      20.648  -2.736  -0.452  1.00  0.00     0.293 HD
ENDBRANCH  16  21
ENDBRANCH   1  11
BRANCH  10  23
ATOM     23  O   UNL     1      17.012  -5.226  -3.602  1.00  0.00    -0.500 OA
ATOM     24  H   UNL     1      17.103  -4.883  -4.551  1.00  0.00     0.294 HD
ENDBRANCH  10  23
BRANCH   5  25
ATOM     25  O   UNL     1      10.122  -4.091  -0.215  1.00  0.00    -0.507 OA
ATOM     26  H   UNL     1       9.659  -3.194  -0.122  1.00  0.00     0.293 HD
ENDBRANCH   5  25
BRANCH   7  27
ATOM     27  O   UNL     1      11.962  -4.349  -4.659  1.00  0.00    -0.507 OA
ATOM     28  H   UNL     1      11.298  -4.932  -5.147  1.00  0.00     0.293 HD
ENDBRANCH   7  27
TORSDOF 7
ENDMDL
MODEL 6
REMARK VINA RESULT:    -5.725      2.754      6.503
REMARK INTER + INTRA:          -7.378
REMARK INTER:                  -7.000
REMARK INTRA:                  -0.378
REMARK UNBOUND:                -0.315
REMARK SMILES Oc1cc(O)c2cc(O)c(-c3cc(O)c(O)c(O)c3)[o+]c2c1
REMARK SMILES IDX 10 1 20 2 21 3 22 4 2 5 3 6 4 7 6 8 7 9 8 10 11 11 12 12
REMARK SMILES IDX 13 13 19 14 15 15 17 16 14 17 16 19 18 21 9 23 1 25 5 27
REMARK H PARENT 14 18 16 20 18 22 9 24 1 26 5 28
REMARK Flexibility Score: inf
ROOT
ATOM      1  C   UNL     1      15.942  -5.029  -1.510  1.00  0.00     0.402 A 
ATOM      2  O   UNL     1      14.827  -4.880  -0.798  1.00  0.00    -0.202 OA
ATOM      3  C   UNL     1      13.633  -4.681  -1.346  1.00  0.00     0.368 A 
ATOM      4  C   UNL     1      12.520  -4.533  -0.515  1.00  0.00     0.162 A 
ATOM      5  C   UNL     1      11.255  -4.318  -1.063  1.00  0.00     0.128 A 
ATOM      6  C   UNL     1      11.099  -4.251  -2.452  1.00  0.00     0.093 A 
ATOM      7  C   UNL     1      12.199  -4.396  -3.307  1.00  0.00     0.136 A 
ATOM      8  C   UNL     1      13.487  -4.616  -2.753  1.00  0.00     0.125 A 
ATOM      9  C   UNL     1      14.643  -4.785  -3.532  1.00  0.00     0.078 A 
ATOM     10  C   UNL     1      15.878  -5.004  -2.915  1.00  0.00     0.223 A 
ENDROOT
BRANCH   1  11
ATOM     11  C   UNL     1      17.214  -5.236  -0.781  1.00  0.00     0.091 A 
ATOM     12  C   UNL     1      18.094  -4.170  -0.529  1.00  0.00     0.068 A 
ATOM     13  C   UNL     1      19.285  -4.382   0.182  1.00  0.00     0.162 A 
ATOM     14  C   UNL     1      17.526  -6.510  -0.284  1.00  0.00     0.068 A 
ATOM     15  C   UNL     1      19.598  -5.666   0.656  1.00  0.00     0.200 A 
ATOM     16  C   UNL     1      18.711  -6.731   0.424  1.00  0.00     0.162 A 
BRANCH  13  17
ATOM     17  O   UNL     1      20.154  -3.317   0.422  1.00  0.00    -0.504 OA
ATOM     18  H   UNL     1      20.885  -3.071  -0.235  1.00  0.00     0.293 HD
ENDBRANCH  13  17
BRANCH  15  19
ATOM     19  O   UNL     1      20.781  -5.895   1.362  1.00  0.00    -0.502 OA
ATOM     20  H   UNL     1      20.840  -6.573   2.112  1.00  0.00     0.293 HD
ENDBRANCH  15  19
BRANCH  16  21
ATOM     21  O   UNL     1      18.990  -8.016   0.890  1.00  0.00    -0.504 OA
ATOM     22  H   UNL     1      19.416  -8.181   1.795  1.00  0.00     0.293 HD
ENDBRANCH  16  21
ENDBRANCH   1  11
BRANCH  10  23
ATOM     23  O   UNL     1      17.018  -5.222  -3.688  1.00  0.00    -0.500 OA
ATOM     24  H   UNL     1      17.931  -4.888  -3.400  1.00  0.00     0.294 HD
ENDBRANCH  10  23
BRANCH   5  25
ATOM     25  O   UNL     1      10.156  -4.174  -0.218  1.00  0.00    -0.507 OA
ATOM     26  H   UNL     1       9.374  -4.817  -0.251  1.00  0.00     0.293 HD
ENDBRANCH   5  25
BRANCH   7  27
ATOM     27  O   UNL     1      11.961  -4.312  -4.681  1.00  0.00    -0.507 OA
ATOM     28  H   UNL     1      12.652  -4.036  -5.364  1.00  0.00     0.293 HD
ENDBRANCH   7  27
TORSDOF 7
ENDMDL
MODEL 7
REMARK VINA RESULT:    -5.690      2.227      3.401
REMARK INTER + INTRA:          -7.336
REMARK INTER:                  -7.015
REMARK INTRA:                  -0.321
REMARK UNBOUND:                -0.315
REMARK SMILES Oc1cc(O)c2cc(O)c(-c3cc(O)c(O)c(O)c3)[o+]c2c1
REMARK SMILES IDX 10 1 20 2 21 3 22 4 2 5 3 6 4 7 6 8 7 9 8 10 11 11 12 12
REMARK SMILES IDX 13 13 19 14 15 15 17 16 14 17 16 19 18 21 9 23 1 25 5 27
REMARK H PARENT 14 18 16 20 18 22 9 24 1 26 5 28
REMARK Flexibility Score: inf
ROOT
ATOM      1  C   UNL     1      17.357  -3.319  -3.609  1.00  0.00     0.402 A 
ATOM      2  O   UNL     1      18.178  -3.534  -2.583  1.00  0.00    -0.202 OA
ATOM      3  C   UNL     1      19.439  -3.117  -2.557  1.00  0.00     0.368 A 
ATOM      4  C   UNL     1      20.224  -3.394  -1.435  1.00  0.00     0.162 A 
ATOM      5  C   UNL     1      21.552  -2.970  -1.382  1.00  0.00     0.128 A 
ATOM      6  C   UNL     1      22.102  -2.265  -2.458  1.00  0.00     0.093 A 
ATOM      7  C   UNL     1      21.337  -1.975  -3.595  1.00  0.00     0.136 A 
ATOM      8  C   UNL     1      19.984  -2.402  -3.651  1.00  0.00     0.125 A 
ATOM      9  C   UNL     1      19.139  -2.145  -4.743  1.00  0.00     0.078 A 
ATOM     10  C   UNL     1      17.814  -2.593  -4.724  1.00  0.00     0.223 A 
ENDROOT
BRANCH   1  11
ATOM     11  C   UNL     1      15.976  -3.844  -3.522  1.00  0.00     0.091 A 
ATOM     12  C   UNL     1      14.886  -2.997  -3.260  1.00  0.00     0.068 A 
ATOM     13  C   UNL     1      13.581  -3.510  -3.204  1.00  0.00     0.162 A 
ATOM     14  C   UNL     1      15.739  -5.206  -3.759  1.00  0.00     0.068 A 
ATOM     15  C   UNL     1      13.358  -4.879  -3.421  1.00  0.00     0.200 A 
ATOM     16  C   UNL     1      14.443  -5.727  -3.703  1.00  0.00     0.162 A 
BRANCH  13  17
ATOM     17  O   UNL     1      12.508  -2.660  -2.938  1.00  0.00    -0.504 OA
ATOM     18  H   UNL     1      11.573  -2.865  -3.271  1.00  0.00     0.293 HD
ENDBRANCH  13  17
BRANCH  15  19
ATOM     19  O   UNL     1      12.067  -5.407  -3.364  1.00  0.00    -0.502 OA
ATOM     20  H   UNL     1      11.330  -5.102  -3.989  1.00  0.00     0.293 HD
ENDBRANCH  15  19
BRANCH  16  21
ATOM     21  O   UNL     1      14.252  -7.090  -3.931  1.00  0.00    -0.504 OA
ATOM     22  H   UNL     1      14.689  -7.799  -3.355  1.00  0.00     0.293 HD
ENDBRANCH  16  21
ENDBRANCH   1  11
BRANCH  10  23
ATOM     23  O   UNL     1      16.960  -2.295  -5.786  1.00  0.00    -0.500 OA
ATOM     24  H   UNL     1      16.699  -1.342  -6.008  1.00  0.00     0.294 HD
ENDBRANCH  10  23
BRANCH   5  25
ATOM     25  O   UNL     1      22.319  -3.256  -0.255  1.00  0.00    -0.507 OA
ATOM     26  H   UNL     1      23.267  -3.605  -0.333  1.00  0.00     0.293 HD
ENDBRANCH   5  25
BRANCH   7  27
ATOM     27  O   UNL     1      21.960  -1.270  -4.628  1.00  0.00    -0.507 OA
ATOM     28  H   UNL     1      21.979  -0.264  -4.702  1.00  0.00     0.293 HD
ENDBRANCH   7  27
TORSDOF 7
ENDMDL
MODEL 8
REMARK VINA RESULT:    -5.683      1.757      2.966
REMARK INTER + INTRA:          -7.327
REMARK INTER:                  -7.237
REMARK INTRA:                  -0.090
REMARK UNBOUND:                -0.315
REMARK SMILES Oc1cc(O)c2cc(O)c(-c3cc(O)c(O)c(O)c3)[o+]c2c1
REMARK SMILES IDX 10 1 20 2 21 3 22 4 2 5 3 6 4 7 6 8 7 9 8 10 11 11 12 12
REMARK SMILES IDX 13 13 19 14 15 15 17 16 14 17 16 19 18 21 9 23 1 25 5 27
REMARK H PARENT 14 18 16 20 18 22 9 24 1 26 5 28
REMARK Flexibility Score: inf
ROOT
ATOM      1  C   UNL     1      15.869  -3.826  -2.439  1.00  0.00     0.402 A 
ATOM      2  O   UNL     1      16.338  -2.951  -3.325  1.00  0.00    -0.202 OA
ATOM      3  C   UNL     1      17.634  -2.716  -3.502  1.00  0.00     0.368 A 
ATOM      4  C   UNL     1      18.030  -1.775  -4.456  1.00  0.00     0.162 A 
ATOM      5  C   UNL     1      19.384  -1.505  -4.660  1.00  0.00     0.128 A 
ATOM      6  C   UNL     1      20.350  -2.180  -3.906  1.00  0.00     0.093 A 
ATOM      7  C   UNL     1      19.979  -3.127  -2.943  1.00  0.00     0.136 A 
ATOM      8  C   UNL     1      18.604  -3.406  -2.735  1.00  0.00     0.125 A 
ATOM      9  C   UNL     1      18.139  -4.348  -1.802  1.00  0.00     0.078 A 
ATOM     10  C   UNL     1      16.767  -4.572  -1.655  1.00  0.00     0.223 A 
ENDROOT
BRANCH   1  11
ATOM     11  C   UNL     1      14.401  -3.992  -2.329  1.00  0.00     0.091 A 
ATOM     12  C   UNL     1      13.751  -3.948  -1.084  1.00  0.00     0.068 A 
ATOM     13  C   UNL     1      12.357  -4.085  -1.003  1.00  0.00     0.162 A 
ATOM     14  C   UNL     1      13.634  -4.141  -3.494  1.00  0.00     0.068 A 
ATOM     15  C   UNL     1      11.601  -4.256  -2.174  1.00  0.00     0.200 A 
ATOM     16  C   UNL     1      12.245  -4.280  -3.423  1.00  0.00     0.162 A 
BRANCH  13  17
ATOM     17  O   UNL     1      11.724  -4.046   0.239  1.00  0.00    -0.504 OA
ATOM     18  H   UNL     1      12.139  -4.471   1.060  1.00  0.00     0.293 HD
ENDBRANCH  13  17
BRANCH  15  19
ATOM     19  O   UNL     1      10.214  -4.398  -2.110  1.00  0.00    -0.502 OA
ATOM     20  H   UNL     1       9.720  -5.118  -2.624  1.00  0.00     0.293 HD
ENDBRANCH  15  19
BRANCH  16  21
ATOM     21  O   UNL     1      11.520  -4.439  -4.604  1.00  0.00    -0.504 OA
ATOM     22  H   UNL     1      10.534  -4.213  -4.666  1.00  0.00     0.293 HD
ENDBRANCH  16  21
ENDBRANCH   1  11
BRANCH  10  23
ATOM     23  O   UNL     1      16.308  -5.544  -0.765  1.00  0.00    -0.500 OA
ATOM     24  H   UNL     1      16.054  -6.474  -1.076  1.00  0.00     0.294 HD
ENDBRANCH  10  23
BRANCH   5  25
ATOM     25  O   UNL     1      19.759  -0.564  -5.616  1.00  0.00    -0.507 OA
ATOM     26  H   UNL     1      19.081  -0.148  -6.245  1.00  0.00     0.293 HD
ENDBRANCH   5  25
BRANCH   7  27
ATOM     27  O   UNL     1      21.003  -3.755  -2.229  1.00  0.00    -0.507 OA
ATOM     28  H   UNL     1      21.763  -3.269  -1.775  1.00  0.00     0.293 HD
ENDBRANCH   7  27
TORSDOF 7
ENDMDL
MODEL 9
REMARK VINA RESULT:    -5.497      2.950      7.044
REMARK INTER + INTRA:          -7.097
REMARK INTER:                  -6.763
REMARK INTRA:                  -0.335
REMARK UNBOUND:                -0.315
REMARK SMILES Oc1cc(O)c2cc(O)c(-c3cc(O)c(O)c(O)c3)[o+]c2c1
REMARK SMILES IDX 10 1 20 2 21 3 22 4 2 5 3 6 4 7 6 8 7 9 8 10 11 11 12 12
REMARK SMILES IDX 13 13 19 14 15 15 17 16 14 17 16 19 18 21 9 23 1 25 5 27
REMARK H PARENT 14 18 16 20 18 22 9 24 1 26 5 28
REMARK Flexibility Score: inf
ROOT
ATOM      1  C   UNL     1      16.609  -4.879  -0.327  1.00  0.00     0.402 A 
ATOM      2  O   UNL     1      16.140  -4.654  -1.552  1.00  0.00    -0.202 OA
ATOM      3  C   UNL     1      14.862  -4.396  -1.808  1.00  0.00     0.368 A 
ATOM      4  C   UNL     1      14.464  -4.175  -3.129  1.00  0.00     0.162 A 
ATOM      5  C   UNL     1      13.128  -3.906  -3.428  1.00  0.00     0.128 A 
ATOM      6  C   UNL     1      12.181  -3.856  -2.399  1.00  0.00     0.093 A 
ATOM      7  C   UNL     1      12.554  -4.074  -1.067  1.00  0.00     0.136 A 
ATOM      8  C   UNL     1      13.912  -4.346  -0.759  1.00  0.00     0.125 A 
ATOM      9  C   UNL     1      14.379  -4.565   0.547  1.00  0.00     0.078 A 
ATOM     10  C   UNL     1      15.734  -4.822   0.774  1.00  0.00     0.223 A 
ENDROOT
BRANCH   1  11
ATOM     11  C   UNL     1      18.053  -5.165  -0.172  1.00  0.00     0.091 A 
ATOM     12  C   UNL     1      19.012  -4.139  -0.214  1.00  0.00     0.068 A 
ATOM     13  C   UNL     1      20.374  -4.428  -0.043  1.00  0.00     0.162 A 
ATOM     14  C   UNL     1      18.473  -6.481   0.076  1.00  0.00     0.068 A 
ATOM     15  C   UNL     1      20.785  -5.752   0.182  1.00  0.00     0.200 A 
ATOM     16  C   UNL     1      19.828  -6.779   0.246  1.00  0.00     0.162 A 
BRANCH  13  17
ATOM     17  O   UNL     1      21.317  -3.402  -0.093  1.00  0.00    -0.504 OA
ATOM     18  H   UNL     1      21.645  -3.025  -0.974  1.00  0.00     0.293 HD
ENDBRANCH  13  17
BRANCH  15  19
ATOM     19  O   UNL     1      22.137  -6.058   0.350  1.00  0.00    -0.502 OA
ATOM     20  H   UNL     1      22.447  -6.870   0.870  1.00  0.00     0.293 HD
ENDBRANCH  15  19
BRANCH  16  21
ATOM     21  O   UNL     1      20.205  -8.102   0.477  1.00  0.00    -0.504 OA
ATOM     22  H   UNL     1      19.640  -8.735   1.032  1.00  0.00     0.293 HD
ENDBRANCH  16  21
ENDBRANCH   1  11
BRANCH  10  23
ATOM     23  O   UNL     1      16.207  -4.988   2.075  1.00  0.00    -0.500 OA
ATOM     24  H   UNL     1      15.843  -5.710   2.686  1.00  0.00     0.294 HD
ENDBRANCH  10  23
BRANCH   5  25
ATOM     25  O   UNL     1      12.751  -3.688  -4.751  1.00  0.00    -0.507 OA
ATOM     26  H   UNL     1      13.401  -3.826  -5.517  1.00  0.00     0.293 HD
ENDBRANCH   5  25
BRANCH   7  27
ATOM     27  O   UNL     1      11.548  -4.012  -0.098  1.00  0.00    -0.507 OA
ATOM     28  H   UNL     1      11.470  -4.643   0.686  1.00  0.00     0.293 HD
ENDBRANCH   7  27
TORSDOF 7
ENDMDL
