MODEL 1
REMARK VINA RESULT:    -7.237      0.000      0.000
REMARK INTER + INTRA:         -12.033
REMARK INTER:                  -9.564
REMARK INTRA:                  -2.468
REMARK UNBOUND:                -2.468
REMARK SMILES CC[C@@H](C=C[C@H](C)[C@@H]1CC[C@H]2[C@@H]3CC=C4C[C@@H](O)CC[C@]4(C)[C@H]3CC[C@@]21C)C(C)C
REMARK SMILES IDX 6 1 7 2 5 3 4 4 3 5 2 6 1 7 28 8 29 9 30 10 8 11 9 12 26 13
REMARK SMILES IDX 10 14 11 15 25 16 27 17 12 18 24 19 23 20 13 21 21 22 14 23
REMARK SMILES IDX 15 24 20 25 22 26 16 27 19 28 17 29 18 30
REMARK H PARENT 18 31
REMARK Flexibility Score: inf
ROOT
ATOM      1  C   UNL     1      16.071  22.800  47.823  1.00  0.00     0.012 C 
ATOM      2  C   UNL     1      15.626  22.536  49.280  1.00  0.00     0.012 C 
ENDROOT
BRANCH   1   3
ATOM      3  C   UNL     1      15.667  21.593  46.992  1.00  0.00    -0.028 C 
ATOM      4  C   UNL     1      16.548  20.906  46.241  1.00  0.00    -0.027 C 
BRANCH   4   5
ATOM      5  C   UNL     1      16.124  19.745  45.363  1.00  0.00     0.014 C 
BRANCH   5   6
ATOM      6  C   UNL     1      17.086  18.543  45.557  1.00  0.00     0.004 C 
ATOM      7  C   UNL     1      16.750  17.375  44.625  1.00  0.00     0.004 C 
ENDBRANCH   5   6
BRANCH   5   8
ATOM      8  C   UNL     1      16.016  20.213  43.875  1.00  0.00    -0.011 C 
ATOM      9  C   UNL     1      17.139  21.192  43.501  1.00  0.00     0.008 C 
ATOM     10  C   UNL     1      14.645  20.825  43.519  1.00  0.00     0.008 C 
ENDBRANCH   5   8
ENDBRANCH   4   5
ENDBRANCH   1   3
BRANCH   1  11
ATOM     11  C   UNL     1      15.492  24.138  47.235  1.00  0.00     0.002 C 
ATOM     12  C   UNL     1      14.025  23.974  46.722  1.00  0.00     0.005 C 
ATOM     13  C   UNL     1      16.245  24.789  46.016  1.00  0.00    -0.026 C 
ATOM     14  C   UNL     1      13.987  24.394  45.252  1.00  0.00     0.005 C 
ATOM     15  C   UNL     1      15.433  24.275  44.818  1.00  0.00    -0.001 C 
ATOM     16  C   UNL     1      17.721  24.391  45.760  1.00  0.00     0.007 C 
ATOM     17  C   UNL     1      16.159  26.339  46.201  1.00  0.00     0.012 C 
ATOM     18  C   UNL     1      15.837  24.927  43.475  1.00  0.00     0.000 C 
ATOM     19  C   UNL     1      18.250  24.962  44.424  1.00  0.00     0.005 C 
ATOM     20  C   UNL     1      17.340  24.624  43.201  1.00  0.00     0.003 C 
ATOM     21  C   UNL     1      14.985  24.359  42.329  1.00  0.00     0.031 C 
ATOM     22  C   UNL     1      17.825  25.272  41.847  1.00  0.00    -0.008 C 
ATOM     23  C   UNL     1      15.510  24.727  40.973  1.00  0.00    -0.027 C 
ATOM     24  C   UNL     1      16.807  25.009  40.723  1.00  0.00    -0.065 C 
ATOM     25  C   UNL     1      19.188  24.628  41.437  1.00  0.00     0.014 C 
ATOM     26  C   UNL     1      18.004  26.810  41.988  1.00  0.00     0.016 C 
ATOM     27  C   UNL     1      17.229  25.250  39.285  1.00  0.00     0.063 C 
ATOM     28  C   UNL     1      19.629  24.973  40.007  1.00  0.00     0.033 C 
ATOM     29  C   UNL     1      18.561  24.559  38.984  1.00  0.00     0.118 C 
BRANCH  29  30
ATOM     30  O   UNL     1      18.976  24.912  37.690  1.00  0.00    -0.393 OA
ATOM     31  H   UNL     1      18.465  25.727  37.436  1.00  0.00     0.210 HD
ENDBRANCH  29  30
ENDBRANCH   1  11
TORSDOF 6
ENDMDL
MODEL 2
REMARK VINA RESULT:    -6.793      1.764      2.714
REMARK INTER + INTRA:         -11.445
REMARK INTER:                  -9.476
REMARK INTRA:                  -1.970
REMARK UNBOUND:                -2.468
REMARK SMILES CC[C@@H](C=C[C@H](C)[C@@H]1CC[C@H]2[C@@H]3CC=C4C[C@@H](O)CC[C@]4(C)[C@H]3CC[C@@]21C)C(C)C
REMARK SMILES IDX 6 1 7 2 5 3 4 4 3 5 2 6 1 7 28 8 29 9 30 10 8 11 9 12 26 13
REMARK SMILES IDX 10 14 11 15 25 16 27 17 12 18 24 19 23 20 13 21 21 22 14 23
REMARK SMILES IDX 15 24 20 25 22 26 16 27 19 28 17 29 18 30
REMARK H PARENT 18 31
REMARK Flexibility Score: inf
ROOT
ATOM      1  C   UNL     1      14.603  22.074  47.877  1.00  0.00     0.012 C 
ATOM      2  C   UNL     1      13.670  21.350  48.874  1.00  0.00     0.012 C 
ENDROOT
BRANCH   1   3
ATOM      3  C   UNL     1      15.062  21.052  46.849  1.00  0.00    -0.028 C 
ATOM      4  C   UNL     1      16.346  20.945  46.461  1.00  0.00    -0.027 C 
BRANCH   4   5
ATOM      5  C   UNL     1      16.783  19.968  45.386  1.00  0.00     0.014 C 
BRANCH   5   6
ATOM      6  C   UNL     1      16.272  20.431  43.996  1.00  0.00     0.004 C 
ATOM      7  C   UNL     1      17.161  21.518  43.384  1.00  0.00     0.004 C 
ENDBRANCH   5   6
BRANCH   5   8
ATOM      8  C   UNL     1      16.323  18.521  45.761  1.00  0.00    -0.011 C 
ATOM      9  C   UNL     1      16.835  18.100  47.147  1.00  0.00     0.008 C 
ATOM     10  C   UNL     1      16.711  17.459  44.712  1.00  0.00     0.008 C 
ENDBRANCH   5   8
ENDBRANCH   4   5
ENDBRANCH   1   3
BRANCH   1  11
ATOM     11  C   UNL     1      13.931  23.325  47.202  1.00  0.00     0.002 C 
ATOM     12  C   UNL     1      13.080  22.937  45.951  1.00  0.00     0.005 C 
ATOM     13  C   UNL     1      14.875  24.468  46.673  1.00  0.00    -0.026 C 
ATOM     14  C   UNL     1      13.605  23.732  44.755  1.00  0.00     0.005 C 
ATOM     15  C   UNL     1      15.004  24.122  45.184  1.00  0.00    -0.001 C 
ATOM     16  C   UNL     1      16.316  24.558  47.238  1.00  0.00     0.007 C 
ATOM     17  C   UNL     1      14.140  25.823  46.932  1.00  0.00     0.012 C 
ATOM     18  C   UNL     1      15.732  25.210  44.359  1.00  0.00     0.000 C 
ATOM     19  C   UNL     1      17.169  25.602  46.482  1.00  0.00     0.005 C 
ATOM     20  C   UNL     1      17.167  25.400  44.933  1.00  0.00     0.003 C 
ATOM     21  C   UNL     1      15.824  24.789  42.884  1.00  0.00     0.031 C 
ATOM     22  C   UNL     1      17.965  26.510  44.145  1.00  0.00    -0.008 C 
ATOM     23  C   UNL     1      16.759  25.651  42.088  1.00  0.00    -0.027 C 
ATOM     24  C   UNL     1      17.802  26.321  42.626  1.00  0.00    -0.065 C 
ATOM     25  C   UNL     1      19.482  26.386  44.495  1.00  0.00     0.014 C 
ATOM     26  C   UNL     1      17.465  27.935  44.512  1.00  0.00     0.016 C 
ATOM     27  C   UNL     1      18.742  27.061  41.693  1.00  0.00     0.063 C 
ATOM     28  C   UNL     1      20.396  27.226  43.590  1.00  0.00     0.033 C 
ATOM     29  C   UNL     1      20.200  26.856  42.112  1.00  0.00     0.118 C 
BRANCH  29  30
ATOM     30  O   UNL     1      21.024  27.658  41.306  1.00  0.00    -0.393 OA
ATOM     31  H   UNL     1      21.661  28.119  41.914  1.00  0.00     0.210 HD
ENDBRANCH  29  30
ENDBRANCH   1  11
TORSDOF 6
ENDMDL
MODEL 3
REMARK VINA RESULT:    -6.675      1.983      4.627
REMARK INTER + INTRA:         -11.289
REMARK INTER:                  -9.210
REMARK INTRA:                  -2.079
REMARK UNBOUND:                -2.468
REMARK SMILES CC[C@@H](C=C[C@H](C)[C@@H]1CC[C@H]2[C@@H]3CC=C4C[C@@H](O)CC[C@]4(C)[C@H]3CC[C@@]21C)C(C)C
REMARK SMILES IDX 6 1 7 2 5 3 4 4 3 5 2 6 1 7 28 8 29 9 30 10 8 11 9 12 26 13
REMARK SMILES IDX 10 14 11 15 25 16 27 17 12 18 24 19 23 20 13 21 21 22 14 23
REMARK SMILES IDX 15 24 20 25 22 26 16 27 19 28 17 29 18 30
REMARK H PARENT 18 31
REMARK Flexibility Score: inf
ROOT
ATOM      1  C   UNL     1      13.598  19.731  46.951  1.00  0.00     0.012 C 
ATOM      2  C   UNL     1      12.980  18.534  47.708  1.00  0.00     0.012 C 
ENDROOT
BRANCH   1   3
ATOM      3  C   UNL     1      14.866  20.136  47.687  1.00  0.00    -0.028 C 
ATOM      4  C   UNL     1      15.138  21.415  48.005  1.00  0.00    -0.027 C 
BRANCH   4   5
ATOM      5  C   UNL     1      16.436  21.818  48.679  1.00  0.00     0.014 C 
BRANCH   5   6
ATOM      6  C   UNL     1      17.489  22.231  47.617  1.00  0.00     0.004 C 
ATOM      7  C   UNL     1      17.075  23.489  46.849  1.00  0.00     0.004 C 
ENDBRANCH   5   6
BRANCH   5   8
ATOM      8  C   UNL     1      16.927  20.670  49.620  1.00  0.00    -0.011 C 
ATOM      9  C   UNL     1      16.508  20.908  51.080  1.00  0.00     0.008 C 
ATOM     10  C   UNL     1      18.447  20.418  49.545  1.00  0.00     0.008 C 
ENDBRANCH   5   8
ENDBRANCH   4   5
ENDBRANCH   1   3
BRANCH   1  11
ATOM     11  C   UNL     1      13.872  19.426  45.434  1.00  0.00     0.002 C 
ATOM     12  C   UNL     1      15.102  18.483  45.232  1.00  0.00     0.005 C 
ATOM     13  C   UNL     1      14.174  20.644  44.484  1.00  0.00    -0.026 C 
ATOM     14  C   UNL     1      16.097  19.193  44.314  1.00  0.00     0.005 C 
ATOM     15  C   UNL     1      15.708  20.651  44.439  1.00  0.00    -0.001 C 
ATOM     16  C   UNL     1      13.733  22.060  44.934  1.00  0.00     0.007 C 
ATOM     17  C   UNL     1      13.516  20.319  43.103  1.00  0.00     0.012 C 
ATOM     18  C   UNL     1      16.290  21.642  43.403  1.00  0.00     0.000 C 
ATOM     19  C   UNL     1      14.272  23.160  43.990  1.00  0.00     0.005 C 
ATOM     20  C   UNL     1      15.814  23.081  43.762  1.00  0.00     0.003 C 
ATOM     21  C   UNL     1      17.825  21.592  43.421  1.00  0.00     0.031 C 
ATOM     22  C   UNL     1      16.362  24.146  42.735  1.00  0.00    -0.008 C 
ATOM     23  C   UNL     1      18.455  22.720  42.658  1.00  0.00    -0.027 C 
ATOM     24  C   UNL     1      17.858  23.915  42.459  1.00  0.00    -0.065 C 
ATOM     25  C   UNL     1      16.188  25.573  43.345  1.00  0.00     0.014 C 
ATOM     26  C   UNL     1      15.602  24.069  41.380  1.00  0.00     0.016 C 
ATOM     27  C   UNL     1      18.651  25.012  41.773  1.00  0.00     0.063 C 
ATOM     28  C   UNL     1      16.927  26.672  42.567  1.00  0.00     0.033 C 
ATOM     29  C   UNL     1      18.427  26.361  42.462  1.00  0.00     0.118 C 
BRANCH  29  30
ATOM     30  O   UNL     1      19.073  27.364  41.721  1.00  0.00    -0.393 OA
ATOM     31  H   UNL     1      19.995  27.442  42.085  1.00  0.00     0.210 HD
ENDBRANCH  29  30
ENDBRANCH   1  11
TORSDOF 6
ENDMDL
MODEL 4
REMARK VINA RESULT:    -6.641      3.014      6.944
REMARK INTER + INTRA:         -11.245
REMARK INTER:                 -11.223
REMARK INTRA:                  -0.022
REMARK UNBOUND:                -2.468
REMARK SMILES CC[C@@H](C=C[C@H](C)[C@@H]1CC[C@H]2[C@@H]3CC=C4C[C@@H](O)CC[C@]4(C)[C@H]3CC[C@@]21C)C(C)C
REMARK SMILES IDX 6 1 7 2 5 3 4 4 3 5 2 6 1 7 28 8 29 9 30 10 8 11 9 12 26 13
REMARK SMILES IDX 10 14 11 15 25 16 27 17 12 18 24 19 23 20 13 21 21 22 14 23
REMARK SMILES IDX 15 24 20 25 22 26 16 27 19 28 17 29 18 30
REMARK H PARENT 18 31
REMARK Flexibility Score: inf
ROOT
ATOM      1  C   UNL     1      18.480  25.773  41.378  1.00  0.00     0.012 C 
ATOM      2  C   UNL     1      19.711  26.354  42.110  1.00  0.00     0.012 C 
ENDROOT
BRANCH   1   3
ATOM      3  C   UNL     1      18.802  24.335  41.004  1.00  0.00    -0.028 C 
ATOM      4  C   UNL     1      19.657  24.021  40.013  1.00  0.00    -0.027 C 
BRANCH   4   5
ATOM      5  C   UNL     1      19.921  22.585  39.602  1.00  0.00     0.014 C 
BRANCH   5   6
ATOM      6  C   UNL     1      21.236  22.073  40.248  1.00  0.00     0.004 C 
ATOM      7  C   UNL     1      20.976  21.058  41.364  1.00  0.00     0.004 C 
ENDBRANCH   5   6
BRANCH   5   8
ATOM      8  C   UNL     1      19.913  22.467  38.043  1.00  0.00    -0.011 C 
ATOM      9  C   UNL     1      18.574  22.922  37.442  1.00  0.00     0.008 C 
ATOM     10  C   UNL     1      20.268  21.057  37.529  1.00  0.00     0.008 C 
ENDBRANCH   5   8
ENDBRANCH   4   5
ENDBRANCH   1   3
BRANCH   1  11
ATOM     11  C   UNL     1      17.157  25.879  42.220  1.00  0.00     0.002 C 
ATOM     12  C   UNL     1      17.295  26.870  43.419  1.00  0.00     0.005 C 
ATOM     13  C   UNL     1      16.604  24.563  42.884  1.00  0.00    -0.026 C 
ATOM     14  C   UNL     1      16.957  26.112  44.703  1.00  0.00     0.005 C 
ATOM     15  C   UNL     1      17.154  24.662  44.313  1.00  0.00    -0.001 C 
ATOM     16  C   UNL     1      17.070  23.197  42.319  1.00  0.00     0.007 C 
ATOM     17  C   UNL     1      15.044  24.638  42.815  1.00  0.00     0.012 C 
ATOM     18  C   UNL     1      16.595  23.579  45.266  1.00  0.00     0.000 C 
ATOM     19  C   UNL     1      16.596  22.016  43.196  1.00  0.00     0.005 C 
ATOM     20  C   UNL     1      16.969  22.174  44.704  1.00  0.00     0.003 C 
ATOM     21  C   UNL     1      17.195  23.742  46.671  1.00  0.00     0.031 C 
ATOM     22  C   UNL     1      16.416  21.017  45.623  1.00  0.00    -0.008 C 
ATOM     23  C   UNL     1      16.923  22.567  47.562  1.00  0.00    -0.027 C 
ATOM     24  C   UNL     1      16.704  21.314  47.105  1.00  0.00    -0.065 C 
ATOM     25  C   UNL     1      17.133  19.682  45.240  1.00  0.00     0.014 C 
ATOM     26  C   UNL     1      14.881  20.844  45.453  1.00  0.00     0.016 C 
ATOM     27  C   UNL     1      16.561  20.192  48.116  1.00  0.00     0.063 C 
ATOM     28  C   UNL     1      16.885  18.540  46.238  1.00  0.00     0.033 C 
ATOM     29  C   UNL     1      17.317  18.943  47.656  1.00  0.00     0.118 C 
BRANCH  29  30
ATOM     30  O   UNL     1      17.053  17.894  48.551  1.00  0.00    -0.393 OA
ATOM     31  H   UNL     1      17.862  17.316  48.565  1.00  0.00     0.210 HD
ENDBRANCH  29  30
ENDBRANCH   1  11
TORSDOF 6
ENDMDL
MODEL 5
REMARK VINA RESULT:    -6.595      0.882      1.611
REMARK INTER + INTRA:         -11.184
REMARK INTER:                  -9.655
REMARK INTRA:                  -1.529
REMARK UNBOUND:                -2.468
REMARK SMILES CC[C@@H](C=C[C@H](C)[C@@H]1CC[C@H]2[C@@H]3CC=C4C[C@@H](O)CC[C@]4(C)[C@H]3CC[C@@]21C)C(C)C
REMARK SMILES IDX 6 1 7 2 5 3 4 4 3 5 2 6 1 7 28 8 29 9 30 10 8 11 9 12 26 13
REMARK SMILES IDX 10 14 11 15 25 16 27 17 12 18 24 19 23 20 13 21 21 22 14 23
REMARK SMILES IDX 15 24 20 25 22 26 16 27 19 28 17 29 18 30
REMARK H PARENT 18 31
REMARK Flexibility Score: inf
ROOT
ATOM      1  C   UNL     1      16.282  22.564  48.336  1.00  0.00     0.012 C 
ATOM      2  C   UNL     1      15.465  21.628  49.255  1.00  0.00     0.012 C 
ENDROOT
BRANCH   1   3
ATOM      3  C   UNL     1      16.774  21.738  47.158  1.00  0.00    -0.028 C 
ATOM      4  C   UNL     1      16.079  20.695  46.667  1.00  0.00    -0.027 C 
BRANCH   4   5
ATOM      5  C   UNL     1      16.609  19.835  45.536  1.00  0.00     0.014 C 
BRANCH   5   6
ATOM      6  C   UNL     1      16.144  20.399  44.167  1.00  0.00     0.004 C 
ATOM      7  C   UNL     1      17.224  21.249  43.493  1.00  0.00     0.004 C 
ENDBRANCH   5   6
BRANCH   5   8
ATOM      8  C   UNL     1      16.196  18.344  45.761  1.00  0.00    -0.011 C 
ATOM      9  C   UNL     1      16.783  17.419  44.684  1.00  0.00     0.008 C 
ATOM     10  C   UNL     1      14.671  18.135  45.861  1.00  0.00     0.008 C 
ENDBRANCH   5   8
ENDBRANCH   4   5
ENDBRANCH   1   3
BRANCH   1  11
ATOM     11  C   UNL     1      15.472  23.828  47.869  1.00  0.00     0.002 C 
ATOM     12  C   UNL     1      14.003  23.477  47.471  1.00  0.00     0.005 C 
ATOM     13  C   UNL     1      16.015  24.629  46.627  1.00  0.00    -0.026 C 
ATOM     14  C   UNL     1      13.775  23.947  46.034  1.00  0.00     0.005 C 
ATOM     15  C   UNL     1      15.179  24.053  45.476  1.00  0.00    -0.001 C 
ATOM     16  C   UNL     1      17.503  24.457  46.229  1.00  0.00     0.007 C 
ATOM     17  C   UNL     1      15.731  26.142  46.901  1.00  0.00     0.012 C 
ATOM     18  C   UNL     1      15.366  24.810  44.140  1.00  0.00     0.000 C 
ATOM     19  C   UNL     1      17.826  25.152  44.886  1.00  0.00     0.005 C 
ATOM     20  C   UNL     1      16.866  24.737  43.727  1.00  0.00     0.003 C 
ATOM     21  C   UNL     1      14.502  24.173  43.041  1.00  0.00     0.031 C 
ATOM     22  C   UNL     1      17.133  25.502  42.373  1.00  0.00    -0.008 C 
ATOM     23  C   UNL     1      14.847  24.667  41.667  1.00  0.00    -0.027 C 
ATOM     24  C   UNL     1      16.065  25.142  41.325  1.00  0.00    -0.065 C 
ATOM     25  C   UNL     1      18.530  25.076  41.819  1.00  0.00     0.014 C 
ATOM     26  C   UNL     1      17.109  27.042  42.580  1.00  0.00     0.016 C 
ATOM     27  C   UNL     1      16.319  25.498  39.872  1.00  0.00     0.063 C 
ATOM     28  C   UNL     1      18.790  25.539  40.377  1.00  0.00     0.033 C 
ATOM     29  C   UNL     1      17.702  25.018  39.426  1.00  0.00     0.118 C 
BRANCH  29  30
ATOM     30  O   UNL     1      17.946  25.479  38.122  1.00  0.00    -0.393 OA
ATOM     31  H   UNL     1      18.056  26.466  38.182  1.00  0.00     0.210 HD
ENDBRANCH  29  30
ENDBRANCH   1  11
TORSDOF 6
ENDMDL
MODEL 6
REMARK VINA RESULT:    -6.537      3.517      7.717
REMARK INTER + INTRA:         -11.107
REMARK INTER:                  -9.052
REMARK INTRA:                  -2.055
REMARK UNBOUND:                -2.468
REMARK SMILES CC[C@@H](C=C[C@H](C)[C@@H]1CC[C@H]2[C@@H]3CC=C4C[C@@H](O)CC[C@]4(C)[C@H]3CC[C@@]21C)C(C)C
REMARK SMILES IDX 6 1 7 2 5 3 4 4 3 5 2 6 1 7 28 8 29 9 30 10 8 11 9 12 26 13
REMARK SMILES IDX 10 14 11 15 25 16 27 17 12 18 24 19 23 20 13 21 21 22 14 23
REMARK SMILES IDX 15 24 20 25 22 26 16 27 19 28 17 29 18 30
REMARK H PARENT 18 31
REMARK Flexibility Score: inf
ROOT
ATOM      1  C   UNL     1      18.779  25.685  37.506  1.00  0.00     0.012 C 
ATOM      2  C   UNL     1      19.268  25.657  36.040  1.00  0.00     0.012 C 
ENDROOT
BRANCH   1   3
ATOM      3  C   UNL     1      17.401  25.044  37.544  1.00  0.00    -0.028 C 
ATOM      4  C   UNL     1      16.370  25.587  38.217  1.00  0.00    -0.027 C 
BRANCH   4   5
ATOM      5  C   UNL     1      15.017  24.906  38.306  1.00  0.00     0.014 C 
BRANCH   5   6
ATOM      6  C   UNL     1      14.083  25.414  37.176  1.00  0.00     0.004 C 
ATOM      7  C   UNL     1      13.930  24.392  36.046  1.00  0.00     0.004 C 
ENDBRANCH   5   6
BRANCH   5   8
ATOM      8  C   UNL     1      14.417  25.099  39.736  1.00  0.00    -0.011 C 
ATOM      9  C   UNL     1      13.167  25.993  39.716  1.00  0.00     0.008 C 
ATOM     10  C   UNL     1      15.432  25.638  40.765  1.00  0.00     0.008 C 
ENDBRANCH   5   8
ENDBRANCH   4   5
ENDBRANCH   1   3
BRANCH   1  11
ATOM     11  C   UNL     1      19.778  24.991  38.502  1.00  0.00     0.002 C 
ATOM     12  C   UNL     1      19.506  23.459  38.641  1.00  0.00     0.005 C 
ATOM     13  C   UNL     1      19.804  25.504  39.990  1.00  0.00    -0.026 C 
ATOM     14  C   UNL     1      19.269  23.152  40.121  1.00  0.00     0.005 C 
ATOM     15  C   UNL     1      18.886  24.499  40.699  1.00  0.00    -0.001 C 
ATOM     16  C   UNL     1      19.242  26.916  40.296  1.00  0.00     0.007 C 
ATOM     17  C   UNL     1      21.289  25.431  40.472  1.00  0.00     0.012 C 
ATOM     18  C   UNL     1      18.882  24.645  42.238  1.00  0.00     0.000 C 
ATOM     19  C   UNL     1      19.161  27.189  41.816  1.00  0.00     0.005 C 
ATOM     20  C   UNL     1      18.397  26.079  42.605  1.00  0.00     0.003 C 
ATOM     21  C   UNL     1      17.940  23.610  42.871  1.00  0.00     0.031 C 
ATOM     22  C   UNL     1      18.381  26.304  44.167  1.00  0.00    -0.008 C 
ATOM     23  C   UNL     1      17.668  23.878  44.322  1.00  0.00    -0.027 C 
ATOM     24  C   UNL     1      17.734  25.105  44.883  1.00  0.00    -0.065 C 
ATOM     25  C   UNL     1      17.538  27.581  44.485  1.00  0.00     0.014 C 
ATOM     26  C   UNL     1      19.820  26.484  44.727  1.00  0.00     0.016 C 
ATOM     27  C   UNL     1      17.318  25.259  46.334  1.00  0.00     0.063 C 
ATOM     28  C   UNL     1      17.219  27.754  45.978  1.00  0.00     0.033 C 
ATOM     29  C   UNL     1      16.481  26.525  46.531  1.00  0.00     0.118 C 
BRANCH  29  30
ATOM     30  O   UNL     1      16.229  26.697  47.901  1.00  0.00    -0.393 OA
ATOM     31  H   UNL     1      15.504  26.060  48.142  1.00  0.00     0.210 HD
ENDBRANCH  29  30
ENDBRANCH   1  11
TORSDOF 6
ENDMDL
MODEL 7
REMARK VINA RESULT:    -6.527      2.922      7.315
REMARK INTER + INTRA:         -11.094
REMARK INTER:                  -9.632
REMARK INTRA:                  -1.462
REMARK UNBOUND:                -2.468
REMARK SMILES CC[C@@H](C=C[C@H](C)[C@@H]1CC[C@H]2[C@@H]3CC=C4C[C@@H](O)CC[C@]4(C)[C@H]3CC[C@@]21C)C(C)C
REMARK SMILES IDX 6 1 7 2 5 3 4 4 3 5 2 6 1 7 28 8 29 9 30 10 8 11 9 12 26 13
REMARK SMILES IDX 10 14 11 15 25 16 27 17 12 18 24 19 23 20 13 21 21 22 14 23
REMARK SMILES IDX 15 24 20 25 22 26 16 27 19 28 17 29 18 30
REMARK H PARENT 18 31
REMARK Flexibility Score: inf
ROOT
ATOM      1  C   UNL     1      16.093  24.595  40.442  1.00  0.00     0.012 C 
ATOM      2  C   UNL     1      15.525  25.261  39.168  1.00  0.00     0.012 C 
ENDROOT
BRANCH   1   3
ATOM      3  C   UNL     1      17.598  24.811  40.442  1.00  0.00    -0.028 C 
ATOM      4  C   UNL     1      18.473  23.794  40.555  1.00  0.00    -0.027 C 
BRANCH   4   5
ATOM      5  C   UNL     1      19.971  24.023  40.621  1.00  0.00     0.014 C 
BRANCH   5   6
ATOM      6  C   UNL     1      20.342  25.361  39.930  1.00  0.00     0.004 C 
ATOM      7  C   UNL     1      20.988  26.355  40.899  1.00  0.00     0.004 C 
ENDBRANCH   5   6
BRANCH   5   8
ATOM      8  C   UNL     1      20.726  22.790  40.026  1.00  0.00    -0.011 C 
ATOM      9  C   UNL     1      20.115  22.337  38.690  1.00  0.00     0.008 C 
ATOM     10  C   UNL     1      20.816  21.595  40.995  1.00  0.00     0.008 C 
ENDBRANCH   5   8
ENDBRANCH   4   5
ENDBRANCH   1   3
BRANCH   1  11
ATOM     11  C   UNL     1      15.425  25.124  41.763  1.00  0.00     0.002 C 
ATOM     12  C   UNL     1      16.356  26.102  42.548  1.00  0.00     0.005 C 
ATOM     13  C   UNL     1      15.000  24.062  42.844  1.00  0.00    -0.026 C 
ATOM     14  C   UNL     1      16.543  25.548  43.961  1.00  0.00     0.005 C 
ATOM     15  C   UNL     1      16.193  24.082  43.809  1.00  0.00    -0.001 C 
ATOM     16  C   UNL     1      14.808  22.589  42.400  1.00  0.00     0.007 C 
ATOM     17  C   UNL     1      13.673  24.576  43.492  1.00  0.00     0.012 C 
ATOM     18  C   UNL     1      15.958  23.261  45.099  1.00  0.00     0.000 C 
ATOM     19  C   UNL     1      14.585  21.647  43.605  1.00  0.00     0.005 C 
ATOM     20  C   UNL     1      15.682  21.779  44.708  1.00  0.00     0.003 C 
ATOM     21  C   UNL     1      17.195  23.328  46.007  1.00  0.00     0.031 C 
ATOM     22  C   UNL     1      15.418  20.883  45.980  1.00  0.00    -0.008 C 
ATOM     23  C   UNL     1      17.150  22.333  47.128  1.00  0.00    -0.027 C 
ATOM     24  C   UNL     1      16.462  21.171  47.073  1.00  0.00    -0.065 C 
ATOM     25  C   UNL     1      15.535  19.380  45.572  1.00  0.00     0.014 C 
ATOM     26  C   UNL     1      14.007  21.148  46.576  1.00  0.00     0.016 C 
ATOM     27  C   UNL     1      16.596  20.197  48.229  1.00  0.00     0.063 C 
ATOM     28  C   UNL     1      15.570  18.416  46.768  1.00  0.00     0.033 C 
ATOM     29  C   UNL     1      16.726  18.760  47.719  1.00  0.00     0.118 C 
BRANCH  29  30
ATOM     30  O   UNL     1      16.717  17.884  48.817  1.00  0.00    -0.393 OA
ATOM     31  H   UNL     1      16.709  18.449  49.636  1.00  0.00     0.210 HD
ENDBRANCH  29  30
ENDBRANCH   1  11
TORSDOF 6
ENDMDL
MODEL 8
REMARK VINA RESULT:    -6.426      3.196      6.942
REMARK INTER + INTRA:         -10.961
REMARK INTER:                  -8.539
REMARK INTRA:                  -2.422
REMARK UNBOUND:                -2.468
REMARK SMILES CC[C@@H](C=C[C@H](C)[C@@H]1CC[C@H]2[C@@H]3CC=C4C[C@@H](O)CC[C@]4(C)[C@H]3CC[C@@]21C)C(C)C
REMARK SMILES IDX 6 1 7 2 5 3 4 4 3 5 2 6 1 7 28 8 29 9 30 10 8 11 9 12 26 13
REMARK SMILES IDX 10 14 11 15 25 16 27 17 12 18 24 19 23 20 13 21 21 22 14 23
REMARK SMILES IDX 15 24 20 25 22 26 16 27 19 28 17 29 18 30
REMARK H PARENT 18 31
REMARK Flexibility Score: inf
ROOT
ATOM      1  C   UNL     1      18.296  26.019  44.967  1.00  0.00     0.012 C 
ATOM      2  C   UNL     1      19.267  27.176  44.637  1.00  0.00     0.012 C 
ENDROOT
BRANCH   1   3
ATOM      3  C   UNL     1      17.113  26.611  45.716  1.00  0.00    -0.028 C 
ATOM      4  C   UNL     1      16.646  26.081  46.862  1.00  0.00    -0.027 C 
BRANCH   4   5
ATOM      5  C   UNL     1      15.424  26.637  47.567  1.00  0.00     0.014 C 
BRANCH   5   6
ATOM      6  C   UNL     1      15.819  27.224  48.948  1.00  0.00     0.004 C 
ATOM      7  C   UNL     1      14.690  27.099  49.975  1.00  0.00     0.004 C 
ENDBRANCH   5   6
BRANCH   5   8
ATOM      8  C   UNL     1      14.316  25.538  47.659  1.00  0.00    -0.011 C 
ATOM      9  C   UNL     1      14.917  24.128  47.777  1.00  0.00     0.008 C 
ATOM     10  C   UNL     1      13.305  25.582  46.494  1.00  0.00     0.008 C 
ENDBRANCH   5   8
ENDBRANCH   4   5
ENDBRANCH   1   3
BRANCH   1  11
ATOM     11  C   UNL     1      17.843  25.214  43.695  1.00  0.00     0.002 C 
ATOM     12  C   UNL     1      16.630  25.883  42.972  1.00  0.00     0.005 C 
ATOM     13  C   UNL     1      17.382  23.723  43.897  1.00  0.00    -0.026 C 
ATOM     14  C   UNL     1      15.502  24.853  42.886  1.00  0.00     0.005 C 
ATOM     15  C   UNL     1      15.855  23.859  43.972  1.00  0.00    -0.001 C 
ATOM     16  C   UNL     1      17.829  22.978  45.181  1.00  0.00     0.007 C 
ATOM     17  C   UNL     1      17.870  22.921  42.647  1.00  0.00     0.012 C 
ATOM     18  C   UNL     1      15.114  22.501  43.973  1.00  0.00     0.000 C 
ATOM     19  C   UNL     1      17.139  21.602  45.321  1.00  0.00     0.005 C 
ATOM     20  C   UNL     1      15.583  21.673  45.206  1.00  0.00     0.003 C 
ATOM     21  C   UNL     1      13.596  22.722  44.054  1.00  0.00     0.031 C 
ATOM     22  C   UNL     1      14.874  20.265  45.263  1.00  0.00    -0.008 C 
ATOM     23  C   UNL     1      12.837  21.462  44.347  1.00  0.00    -0.027 C 
ATOM     24  C   UNL     1      13.364  20.406  45.005  1.00  0.00    -0.065 C 
ATOM     25  C   UNL     1      15.076  19.654  46.686  1.00  0.00     0.014 C 
ATOM     26  C   UNL     1      15.458  19.294  44.198  1.00  0.00     0.016 C 
ATOM     27  C   UNL     1      12.454  19.239  45.343  1.00  0.00     0.063 C 
ATOM     28  C   UNL     1      14.208  18.415  46.956  1.00  0.00     0.033 C 
ATOM     29  C   UNL     1      12.718  18.733  46.763  1.00  0.00     0.118 C 
BRANCH  29  30
ATOM     30  O   UNL     1      11.951  17.578  46.986  1.00  0.00    -0.393 OA
ATOM     31  H   UNL     1      11.359  17.771  47.762  1.00  0.00     0.210 HD
ENDBRANCH  29  30
ENDBRANCH   1  11
TORSDOF 6
ENDMDL
MODEL 9
REMARK VINA RESULT:    -6.352      3.297      7.513
REMARK INTER + INTRA:         -10.863
REMARK INTER:                  -8.324
REMARK INTRA:                  -2.539
REMARK UNBOUND:                -2.468
REMARK SMILES CC[C@@H](C=C[C@H](C)[C@@H]1CC[C@H]2[C@@H]3CC=C4C[C@@H](O)CC[C@]4(C)[C@H]3CC[C@@]21C)C(C)C
REMARK SMILES IDX 6 1 7 2 5 3 4 4 3 5 2 6 1 7 28 8 29 9 30 10 8 11 9 12 26 13
REMARK SMILES IDX 10 14 11 15 25 16 27 17 12 18 24 19 23 20 13 21 21 22 14 23
REMARK SMILES IDX 15 24 20 25 22 26 16 27 19 28 17 29 18 30
REMARK H PARENT 18 31
REMARK Flexibility Score: inf
ROOT
ATOM      1  C   UNL     1      15.676  24.338  41.825  1.00  0.00     0.012 C 
ATOM      2  C   UNL     1      15.624  25.118  40.491  1.00  0.00     0.012 C 
ENDROOT
BRANCH   1   3
ATOM      3  C   UNL     1      16.023  25.329  42.924  1.00  0.00    -0.028 C 
ATOM      4  C   UNL     1      16.974  25.083  43.844  1.00  0.00    -0.027 C 
BRANCH   4   5
ATOM      5  C   UNL     1      17.267  26.047  44.978  1.00  0.00     0.014 C 
BRANCH   5   6
ATOM      6  C   UNL     1      18.778  26.396  45.011  1.00  0.00     0.004 C 
ATOM      7  C   UNL     1      19.323  26.748  43.624  1.00  0.00     0.004 C 
ENDBRANCH   5   6
BRANCH   5   8
ATOM      8  C   UNL     1      16.740  25.458  46.327  1.00  0.00    -0.011 C 
ATOM      9  C   UNL     1      17.044  23.957  46.454  1.00  0.00     0.008 C 
ATOM     10  C   UNL     1      15.238  25.713  46.567  1.00  0.00     0.008 C 
ENDBRANCH   5   8
ENDBRANCH   4   5
ENDBRANCH   1   3
BRANCH   1  11
ATOM     11  C   UNL     1      14.347  23.558  42.134  1.00  0.00     0.002 C 
ATOM     12  C   UNL     1      13.300  24.445  42.881  1.00  0.00     0.005 C 
ATOM     13  C   UNL     1      14.447  22.265  43.026  1.00  0.00    -0.026 C 
ATOM     14  C   UNL     1      12.927  23.741  44.186  1.00  0.00     0.005 C 
ATOM     15  C   UNL     1      14.091  22.801  44.420  1.00  0.00    -0.001 C 
ATOM     16  C   UNL     1      15.821  21.560  43.155  1.00  0.00     0.007 C 
ATOM     17  C   UNL     1      13.400  21.245  42.470  1.00  0.00     0.012 C 
ATOM     18  C   UNL     1      13.916  21.690  45.482  1.00  0.00     0.000 C 
ATOM     19  C   UNL     1      15.794  20.431  44.211  1.00  0.00     0.005 C 
ATOM     20  C   UNL     1      15.249  20.893  45.600  1.00  0.00     0.003 C 
ATOM     21  C   UNL     1      13.566  22.305  46.845  1.00  0.00     0.031 C 
ATOM     22  C   UNL     1      15.138  19.730  46.660  1.00  0.00    -0.008 C 
ATOM     23  C   UNL     1      13.665  21.320  47.972  1.00  0.00    -0.027 C 
ATOM     24  C   UNL     1      14.467  20.234  47.951  1.00  0.00    -0.065 C 
ATOM     25  C   UNL     1      16.575  19.231  47.016  1.00  0.00     0.014 C 
ATOM     26  C   UNL     1      14.301  18.542  46.111  1.00  0.00     0.016 C 
ATOM     27  C   UNL     1      14.564  19.383  49.204  1.00  0.00     0.063 C 
ATOM     28  C   UNL     1      16.621  18.293  48.232  1.00  0.00     0.033 C 
ATOM     29  C   UNL     1      16.013  18.968  49.471  1.00  0.00     0.118 C 
BRANCH  29  30
ATOM     30  O   UNL     1      16.040  18.080  50.559  1.00  0.00    -0.393 OA
ATOM     31  H   UNL     1      15.655  17.220  50.238  1.00  0.00     0.210 HD
ENDBRANCH  29  30
ENDBRANCH   1  11
TORSDOF 6
ENDMDL
