MODEL 1
REMARK VINA RESULT:    -4.828      0.000      0.000
REMARK INTER + INTRA:         -12.037
REMARK INTER:                  -9.062
REMARK INTRA:                  -2.975
REMARK UNBOUND:                -2.975
REMARK SMILES CCCCCCCCC=CCCCCCCCC(=O)[O-]
REMARK SMILES IDX 10 1 9 2 11 3 12 4 13 5 14 6 15 7 16 8 17 9 18 10 19 11
REMARK SMILES IDX 20 12 8 13 7 14 6 15 5 16 4 17 3 18 2 19 1 20
REMARK H PARENT
REMARK Flexibility Score: inf
ROOT
ATOM      1  C   UNL     1      12.882  21.197  28.499  1.00  0.00    -0.031 C 
ATOM      2  C   UNL     1      11.537  21.140  28.519  1.00  0.00    -0.031 C 
ENDROOT
BRANCH   1   3
ATOM      3  C   UNL     1      13.805  20.308  29.297  1.00  0.00     0.027 C 
BRANCH   3   4
ATOM      4  C   UNL     1      14.118  20.950  30.655  1.00  0.00     0.004 C 
BRANCH   4   5
ATOM      5  C   UNL     1      15.621  20.947  30.984  1.00  0.00     0.000 C 
BRANCH   5   6
ATOM      6  C   UNL     1      16.329  22.305  30.805  1.00  0.00     0.000 C 
BRANCH   6   7
ATOM      7  C   UNL     1      17.235  22.411  29.566  1.00  0.00     0.000 C 
BRANCH   7   8
ATOM      8  C   UNL     1      16.556  23.135  28.390  1.00  0.00     0.006 C 
BRANCH   8   9
ATOM      9  C   UNL     1      16.403  22.228  27.163  1.00  0.00     0.053 C 
BRANCH   9  10
ATOM     10  C   UNL     1      16.062  23.009  25.929  1.00  0.00     0.041 C 
ATOM     11  O   UNL     1      15.928  24.259  25.988  1.00  0.00    -0.550 OA
ATOM     12  O   UNL     1      15.915  22.357  24.712  1.00  0.00    -0.550 OA
ENDBRANCH   9  10
ENDBRANCH   8   9
ENDBRANCH   7   8
ENDBRANCH   6   7
ENDBRANCH   5   6
ENDBRANCH   4   5
ENDBRANCH   3   4
ENDBRANCH   1   3
BRANCH   2  13
ATOM     13  C   UNL     1      10.723  20.157  29.323  1.00  0.00     0.027 C 
BRANCH  13  14
ATOM     14  C   UNL     1       9.770  20.874  30.288  1.00  0.00     0.004 C 
BRANCH  14  15
ATOM     15  C   UNL     1      10.362  20.938  31.701  1.00  0.00     0.000 C 
BRANCH  15  16
ATOM     16  C   UNL     1      10.947  22.328  31.988  1.00  0.00     0.000 C 
BRANCH  16  17
ATOM     17  C   UNL     1      10.199  23.450  31.250  1.00  0.00    -0.000 C 
BRANCH  17  18
ATOM     18  C   UNL     1      11.130  24.310  30.383  1.00  0.00    -0.000 C 
BRANCH  18  19
ATOM     19  C   UNL     1      12.571  24.256  30.905  1.00  0.00    -0.003 C 
ATOM     20  C   UNL     1      13.570  24.582  29.799  1.00  0.00     0.004 C 
ENDBRANCH  18  19
ENDBRANCH  17  18
ENDBRANCH  16  17
ENDBRANCH  15  16
ENDBRANCH  14  15
ENDBRANCH  13  14
ENDBRANCH   2  13
TORSDOF 15
ENDMDL
MODEL 2
REMARK VINA RESULT:    -4.803      3.000      6.269
REMARK INTER + INTRA:         -11.990
REMARK INTER:                  -9.403
REMARK INTRA:                  -2.587
REMARK UNBOUND:                -2.975
REMARK SMILES CCCCCCCCC=CCCCCCCCC(=O)[O-]
REMARK SMILES IDX 10 1 9 2 11 3 12 4 13 5 14 6 15 7 16 8 17 9 18 10 19 11
REMARK SMILES IDX 20 12 8 13 7 14 6 15 5 16 4 17 3 18 2 19 1 20
REMARK H PARENT
REMARK Flexibility Score: inf
ROOT
ATOM      1  C   UNL     1      14.106  21.492  26.640  1.00  0.00    -0.031 C 
ATOM      2  C   UNL     1      15.239  21.948  26.072  1.00  0.00    -0.031 C 
ENDROOT
BRANCH   1   3
ATOM      3  C   UNL     1      14.009  20.865  28.009  1.00  0.00     0.027 C 
BRANCH   3   4
ATOM      4  C   UNL     1      12.837  21.475  28.790  1.00  0.00     0.004 C 
BRANCH   4   5
ATOM      5  C   UNL     1      13.297  22.328  29.986  1.00  0.00     0.000 C 
BRANCH   5   6
ATOM      6  C   UNL     1      13.223  23.852  29.764  1.00  0.00     0.000 C 
BRANCH   6   7
ATOM      7  C   UNL     1      12.841  24.675  31.006  1.00  0.00     0.000 C 
BRANCH   7   8
ATOM      8  C   UNL     1      11.601  24.123  31.731  1.00  0.00     0.006 C 
BRANCH   8   9
ATOM      9  C   UNL     1      10.320  24.304  30.907  1.00  0.00     0.053 C 
BRANCH   9  10
ATOM     10  C   UNL     1       9.449  23.085  30.953  1.00  0.00     0.041 C 
ATOM     11  O   UNL     1       8.839  22.782  32.011  1.00  0.00    -0.550 OA
ATOM     12  O   UNL     1       9.295  22.298  29.819  1.00  0.00    -0.550 OA
ENDBRANCH   9  10
ENDBRANCH   8   9
ENDBRANCH   7   8
ENDBRANCH   6   7
ENDBRANCH   5   6
ENDBRANCH   4   5
ENDBRANCH   3   4
ENDBRANCH   1   3
BRANCH   2  13
ATOM     13  C   UNL     1      16.600  21.936  26.722  1.00  0.00     0.027 C 
BRANCH  13  14
ATOM     14  C   UNL     1      16.976  23.322  27.262  1.00  0.00     0.004 C 
BRANCH  14  15
ATOM     15  C   UNL     1      16.633  23.443  28.752  1.00  0.00     0.000 C 
BRANCH  15  16
ATOM     16  C   UNL     1      17.571  22.575  29.603  1.00  0.00     0.000 C 
BRANCH  16  17
ATOM     17  C   UNL     1      16.816  21.523  30.431  1.00  0.00    -0.000 C 
BRANCH  17  18
ATOM     18  C   UNL     1      17.039  20.093  29.915  1.00  0.00    -0.000 C 
BRANCH  18  19
ATOM     19  C   UNL     1      16.088  19.107  30.603  1.00  0.00    -0.003 C 
ATOM     20  C   UNL     1      15.344  19.774  31.757  1.00  0.00     0.004 C 
ENDBRANCH  18  19
ENDBRANCH  17  18
ENDBRANCH  16  17
ENDBRANCH  15  16
ENDBRANCH  14  15
ENDBRANCH  13  14
ENDBRANCH   2  13
TORSDOF 15
ENDMDL
MODEL 3
REMARK VINA RESULT:    -4.782      3.207      6.466
REMARK INTER + INTRA:         -11.949
REMARK INTER:                  -9.589
REMARK INTRA:                  -2.360
REMARK UNBOUND:                -2.975
REMARK SMILES CCCCCCCCC=CCCCCCCCC(=O)[O-]
REMARK SMILES IDX 10 1 9 2 11 3 12 4 13 5 14 6 15 7 16 8 17 9 18 10 19 11
REMARK SMILES IDX 20 12 8 13 7 14 6 15 5 16 4 17 3 18 2 19 1 20
REMARK H PARENT
REMARK Flexibility Score: inf
ROOT
ATOM      1  C   UNL     1      14.377  19.696  29.587  1.00  0.00    -0.031 C 
ATOM      2  C   UNL     1      15.696  19.723  29.856  1.00  0.00    -0.031 C 
ENDROOT
BRANCH   1   3
ATOM      3  C   UNL     1      13.713  20.366  28.409  1.00  0.00     0.027 C 
BRANCH   3   4
ATOM      4  C   UNL     1      12.526  21.216  28.881  1.00  0.00     0.004 C 
BRANCH   4   5
ATOM      5  C   UNL     1      12.686  21.711  30.329  1.00  0.00     0.000 C 
BRANCH   5   6
ATOM      6  C   UNL     1      12.430  23.219  30.533  1.00  0.00     0.000 C 
BRANCH   6   7
ATOM      7  C   UNL     1      10.983  23.592  30.896  1.00  0.00     0.000 C 
BRANCH   7   8
ATOM      8  C   UNL     1      10.297  22.537  31.782  1.00  0.00     0.006 C 
BRANCH   8   9
ATOM      9  C   UNL     1       8.774  22.529  31.600  1.00  0.00     0.053 C 
BRANCH   9  10
ATOM     10  C   UNL     1       8.340  21.532  30.568  1.00  0.00     0.041 C 
ATOM     11  O   UNL     1       7.150  21.520  30.160  1.00  0.00    -0.550 OA
ATOM     12  O   UNL     1       9.258  20.632  30.041  1.00  0.00    -0.550 OA
ENDBRANCH   9  10
ENDBRANCH   8   9
ENDBRANCH   7   8
ENDBRANCH   6   7
ENDBRANCH   5   6
ENDBRANCH   4   5
ENDBRANCH   3   4
ENDBRANCH   1   3
BRANCH   2  13
ATOM     13  C   UNL     1      16.740  20.405  29.007  1.00  0.00     0.027 C 
BRANCH  13  14
ATOM     14  C   UNL     1      17.427  21.545  29.770  1.00  0.00     0.004 C 
BRANCH  14  15
ATOM     15  C   UNL     1      17.281  22.875  29.021  1.00  0.00     0.000 C 
BRANCH  15  16
ATOM     16  C   UNL     1      15.855  23.429  29.160  1.00  0.00     0.000 C 
BRANCH  16  17
ATOM     17  C   UNL     1      15.198  23.721  27.802  1.00  0.00    -0.000 C 
BRANCH  17  18
ATOM     18  C   UNL     1      16.123  23.405  26.617  1.00  0.00    -0.000 C 
BRANCH  18  19
ATOM     19  C   UNL     1      15.656  22.145  25.878  1.00  0.00    -0.003 C 
ATOM     20  C   UNL     1      16.036  22.201  24.401  1.00  0.00     0.004 C 
ENDBRANCH  18  19
ENDBRANCH  17  18
ENDBRANCH  16  17
ENDBRANCH  15  16
ENDBRANCH  14  15
ENDBRANCH  13  14
ENDBRANCH   2  13
TORSDOF 15
ENDMDL
MODEL 4
REMARK VINA RESULT:    -4.678      3.190      6.052
REMARK INTER + INTRA:         -11.756
REMARK INTER:                  -9.135
REMARK INTRA:                  -2.621
REMARK UNBOUND:                -2.975
REMARK SMILES CCCCCCCCC=CCCCCCCCC(=O)[O-]
REMARK SMILES IDX 10 1 9 2 11 3 12 4 13 5 14 6 15 7 16 8 17 9 18 10 19 11
REMARK SMILES IDX 20 12 8 13 7 14 6 15 5 16 4 17 3 18 2 19 1 20
REMARK H PARENT
REMARK Flexibility Score: inf
ROOT
ATOM      1  C   UNL     1      13.938  21.133  27.241  1.00  0.00    -0.031 C 
ATOM      2  C   UNL     1      14.742  21.874  26.454  1.00  0.00    -0.031 C 
ENDROOT
BRANCH   1   3
ATOM      3  C   UNL     1      14.395  20.291  28.407  1.00  0.00     0.027 C 
BRANCH   3   4
ATOM      4  C   UNL     1      13.290  20.210  29.468  1.00  0.00     0.004 C 
BRANCH   4   5
ATOM      5  C   UNL     1      13.844  20.126  30.902  1.00  0.00     0.000 C 
BRANCH   5   6
ATOM      6  C   UNL     1      12.784  19.883  31.995  1.00  0.00     0.000 C 
BRANCH   6   7
ATOM      7  C   UNL     1      11.711  20.979  32.121  1.00  0.00     0.000 C 
BRANCH   7   8
ATOM      8  C   UNL     1      10.283  20.444  31.917  1.00  0.00     0.006 C 
BRANCH   8   9
ATOM      9  C   UNL     1       9.722  20.801  30.535  1.00  0.00     0.053 C 
BRANCH   9  10
ATOM     10  C   UNL     1       8.609  21.800  30.624  1.00  0.00     0.041 C 
ATOM     11  O   UNL     1       8.842  22.977  31.004  1.00  0.00    -0.550 OA
ATOM     12  O   UNL     1       7.317  21.436  30.267  1.00  0.00    -0.550 OA
ENDBRANCH   9  10
ENDBRANCH   8   9
ENDBRANCH   7   8
ENDBRANCH   6   7
ENDBRANCH   5   6
ENDBRANCH   4   5
ENDBRANCH   3   4
ENDBRANCH   1   3
BRANCH   2  13
ATOM     13  C   UNL     1      16.234  22.011  26.624  1.00  0.00     0.027 C 
BRANCH  13  14
ATOM     14  C   UNL     1      16.660  23.484  26.682  1.00  0.00     0.004 C 
BRANCH  14  15
ATOM     15  C   UNL     1      17.105  23.873  28.097  1.00  0.00     0.000 C 
BRANCH  15  16
ATOM     16  C   UNL     1      16.879  22.716  29.080  1.00  0.00     0.000 C 
BRANCH  16  17
ATOM     17  C   UNL     1      15.830  23.047  30.154  1.00  0.00    -0.000 C 
BRANCH  17  18
ATOM     18  C   UNL     1      14.674  23.898  29.608  1.00  0.00    -0.000 C 
BRANCH  18  19
ATOM     19  C   UNL     1      13.507  23.940  30.602  1.00  0.00    -0.003 C 
ATOM     20  C   UNL     1      12.171  23.744  29.892  1.00  0.00     0.004 C 
ENDBRANCH  18  19
ENDBRANCH  17  18
ENDBRANCH  16  17
ENDBRANCH  15  16
ENDBRANCH  14  15
ENDBRANCH  13  14
ENDBRANCH   2  13
TORSDOF 15
ENDMDL
MODEL 5
REMARK VINA RESULT:    -4.645      1.115      3.026
REMARK INTER + INTRA:         -11.692
REMARK INTER:                  -9.560
REMARK INTRA:                  -2.133
REMARK UNBOUND:                -2.975
REMARK SMILES CCCCCCCCC=CCCCCCCCC(=O)[O-]
REMARK SMILES IDX 10 1 9 2 11 3 12 4 13 5 14 6 15 7 16 8 17 9 18 10 19 11
REMARK SMILES IDX 20 12 8 13 7 14 6 15 5 16 4 17 3 18 2 19 1 20
REMARK H PARENT
REMARK Flexibility Score: inf
ROOT
ATOM      1  C   UNL     1      12.069  24.221  29.904  1.00  0.00    -0.031 C 
ATOM      2  C   UNL     1      10.844  24.194  30.461  1.00  0.00    -0.031 C 
ENDROOT
BRANCH   1   3
ATOM      3  C   UNL     1      13.361  23.920  30.624  1.00  0.00     0.027 C 
BRANCH   3   4
ATOM      4  C   UNL     1      14.397  23.358  29.641  1.00  0.00     0.004 C 
BRANCH   4   5
ATOM      5  C   UNL     1      15.546  22.614  30.346  1.00  0.00     0.000 C 
BRANCH   5   6
ATOM      6  C   UNL     1      16.821  22.434  29.497  1.00  0.00     0.000 C 
BRANCH   6   7
ATOM      7  C   UNL     1      16.755  21.308  28.451  1.00  0.00     0.000 C 
BRANCH   7   8
ATOM      8  C   UNL     1      16.978  21.813  27.014  1.00  0.00     0.006 C 
BRANCH   8   9
ATOM      9  C   UNL     1      15.676  21.846  26.204  1.00  0.00     0.053 C 
BRANCH   9  10
ATOM     10  C   UNL     1      15.832  22.619  24.929  1.00  0.00     0.041 C 
ATOM     11  O   UNL     1      16.110  23.846  24.961  1.00  0.00    -0.550 OA
ATOM     12  O   UNL     1      15.692  21.977  23.705  1.00  0.00    -0.550 OA
ENDBRANCH   9  10
ENDBRANCH   8   9
ENDBRANCH   7   8
ENDBRANCH   6   7
ENDBRANCH   5   6
ENDBRANCH   4   5
ENDBRANCH   3   4
ENDBRANCH   1   3
BRANCH   2  13
ATOM     13  C   UNL     1      10.552  23.830  31.896  1.00  0.00     0.027 C 
BRANCH  13  14
ATOM     14  C   UNL     1       9.510  22.708  31.989  1.00  0.00     0.004 C 
BRANCH  14  15
ATOM     15  C   UNL     1      10.103  21.368  31.536  1.00  0.00     0.000 C 
BRANCH  15  16
ATOM     16  C   UNL     1       9.550  20.960  30.163  1.00  0.00     0.000 C 
BRANCH  16  17
ATOM     17  C   UNL     1      10.659  20.606  29.159  1.00  0.00    -0.000 C 
BRANCH  17  18
ATOM     18  C   UNL     1      11.988  20.255  29.846  1.00  0.00    -0.000 C 
BRANCH  18  19
ATOM     19  C   UNL     1      13.012  19.740  28.827  1.00  0.00    -0.003 C 
ATOM     20  C   UNL     1      14.237  19.155  29.525  1.00  0.00     0.004 C 
ENDBRANCH  18  19
ENDBRANCH  17  18
ENDBRANCH  16  17
ENDBRANCH  15  16
ENDBRANCH  14  15
ENDBRANCH  13  14
ENDBRANCH   2  13
TORSDOF 15
ENDMDL
MODEL 6
REMARK VINA RESULT:    -4.612      1.255      3.586
REMARK INTER + INTRA:         -11.631
REMARK INTER:                  -9.126
REMARK INTRA:                  -2.505
REMARK UNBOUND:                -2.975
REMARK SMILES CCCCCCCCC=CCCCCCCCC(=O)[O-]
REMARK SMILES IDX 10 1 9 2 11 3 12 4 13 5 14 6 15 7 16 8 17 9 18 10 19 11
REMARK SMILES IDX 20 12 8 13 7 14 6 15 5 16 4 17 3 18 2 19 1 20
REMARK H PARENT
REMARK Flexibility Score: inf
ROOT
ATOM      1  C   UNL     1      10.603  22.931  30.457  1.00  0.00    -0.031 C 
ATOM      2  C   UNL     1      10.408  21.805  29.745  1.00  0.00    -0.031 C 
ENDROOT
BRANCH   1   3
ATOM      3  C   UNL     1      11.511  24.069  30.059  1.00  0.00     0.027 C 
BRANCH   3   4
ATOM      4  C   UNL     1      12.880  23.916  30.734  1.00  0.00     0.004 C 
BRANCH   4   5
ATOM      5  C   UNL     1      14.013  24.602  29.949  1.00  0.00     0.000 C 
BRANCH   5   6
ATOM      6  C   UNL     1      14.630  23.751  28.821  1.00  0.00     0.000 C 
BRANCH   6   7
ATOM      7  C   UNL     1      16.167  23.771  28.754  1.00  0.00     0.000 C 
BRANCH   7   8
ATOM      8  C   UNL     1      16.704  23.664  27.316  1.00  0.00     0.006 C 
BRANCH   8   9
ATOM      9  C   UNL     1      16.693  22.220  26.799  1.00  0.00     0.053 C 
BRANCH   9  10
ATOM     10  C   UNL     1      15.762  22.050  25.637  1.00  0.00     0.041 C 
ATOM     11  O   UNL     1      14.593  21.620  25.818  1.00  0.00    -0.550 OA
ATOM     12  O   UNL     1      16.180  22.389  24.356  1.00  0.00    -0.550 OA
ENDBRANCH   9  10
ENDBRANCH   8   9
ENDBRANCH   7   8
ENDBRANCH   6   7
ENDBRANCH   5   6
ENDBRANCH   4   5
ENDBRANCH   3   4
ENDBRANCH   1   3
BRANCH   2  13
ATOM     13  C   UNL     1      11.044  21.502  28.412  1.00  0.00     0.027 C 
BRANCH  13  14
ATOM     14  C   UNL     1      12.488  21.009  28.578  1.00  0.00     0.004 C 
BRANCH  14  15
ATOM     15  C   UNL     1      12.522  19.596  29.172  1.00  0.00     0.000 C 
BRANCH  15  16
ATOM     16  C   UNL     1      13.413  19.549  30.422  1.00  0.00     0.000 C 
BRANCH  16  17
ATOM     17  C   UNL     1      14.584  20.542  30.354  1.00  0.00    -0.000 C 
BRANCH  17  18
ATOM     18  C   UNL     1      15.844  19.929  29.725  1.00  0.00    -0.000 C 
BRANCH  18  19
ATOM     19  C   UNL     1      17.112  20.532  30.340  1.00  0.00    -0.003 C 
ATOM     20  C   UNL     1      16.773  21.458  31.504  1.00  0.00     0.004 C 
ENDBRANCH  18  19
ENDBRANCH  17  18
ENDBRANCH  16  17
ENDBRANCH  15  16
ENDBRANCH  14  15
ENDBRANCH  13  14
ENDBRANCH   2  13
TORSDOF 15
ENDMDL
MODEL 7
REMARK VINA RESULT:    -4.601      3.350      6.174
REMARK INTER + INTRA:         -11.611
REMARK INTER:                  -8.790
REMARK INTRA:                  -2.821
REMARK UNBOUND:                -2.975
REMARK SMILES CCCCCCCCC=CCCCCCCCC(=O)[O-]
REMARK SMILES IDX 10 1 9 2 11 3 12 4 13 5 14 6 15 7 16 8 17 9 18 10 19 11
REMARK SMILES IDX 20 12 8 13 7 14 6 15 5 16 4 17 3 18 2 19 1 20
REMARK H PARENT
REMARK Flexibility Score: inf
ROOT
ATOM      1  C   UNL     1      15.160  22.614  26.670  1.00  0.00    -0.031 C 
ATOM      2  C   UNL     1      16.446  22.600  27.072  1.00  0.00    -0.031 C 
ENDROOT
BRANCH   1   3
ATOM      3  C   UNL     1      14.300  21.392  26.457  1.00  0.00     0.027 C 
BRANCH   3   4
ATOM      4  C   UNL     1      13.319  21.224  27.625  1.00  0.00     0.004 C 
BRANCH   4   5
ATOM      5  C   UNL     1      13.519  19.902  28.386  1.00  0.00     0.000 C 
BRANCH   5   6
ATOM      6  C   UNL     1      12.282  19.405  29.163  1.00  0.00     0.000 C 
BRANCH   6   7
ATOM      7  C   UNL     1      11.042  20.309  29.063  1.00  0.00     0.000 C 
BRANCH   7   8
ATOM      8  C   UNL     1      10.808  21.145  30.334  1.00  0.00     0.006 C 
BRANCH   8   9
ATOM      9  C   UNL     1       9.785  22.267  30.109  1.00  0.00     0.053 C 
BRANCH   9  10
ATOM     10  C   UNL     1       8.483  21.981  30.795  1.00  0.00     0.041 C 
ATOM     11  O   UNL     1       8.379  22.119  32.041  1.00  0.00    -0.550 OA
ATOM     12  O   UNL     1       7.379  21.583  30.052  1.00  0.00    -0.550 OA
ENDBRANCH   9  10
ENDBRANCH   8   9
ENDBRANCH   7   8
ENDBRANCH   6   7
ENDBRANCH   5   6
ENDBRANCH   4   5
ENDBRANCH   3   4
ENDBRANCH   1   3
BRANCH   2  13
ATOM     13  C   UNL     1      17.236  21.359  27.404  1.00  0.00     0.027 C 
BRANCH  13  14
ATOM     14  C   UNL     1      17.107  20.992  28.888  1.00  0.00     0.004 C 
BRANCH  14  15
ATOM     15  C   UNL     1      17.634  22.121  29.782  1.00  0.00     0.000 C 
BRANCH  15  16
ATOM     16  C   UNL     1      16.748  22.295  31.024  1.00  0.00     0.000 C 
BRANCH  16  17
ATOM     17  C   UNL     1      15.451  21.475  30.947  1.00  0.00    -0.000 C 
BRANCH  17  18
ATOM     18  C   UNL     1      14.193  22.356  30.972  1.00  0.00    -0.000 C 
BRANCH  18  19
ATOM     19  C   UNL     1      14.370  23.590  30.078  1.00  0.00    -0.003 C 
ATOM     20  C   UNL     1      13.085  24.411  30.012  1.00  0.00     0.004 C 
ENDBRANCH  18  19
ENDBRANCH  17  18
ENDBRANCH  16  17
ENDBRANCH  15  16
ENDBRANCH  14  15
ENDBRANCH  13  14
ENDBRANCH   2  13
TORSDOF 15
ENDMDL
MODEL 8
REMARK VINA RESULT:    -4.278     21.897     24.114
REMARK INTER + INTRA:         -11.005
REMARK INTER:                  -9.255
REMARK INTRA:                  -1.749
REMARK UNBOUND:                -2.975
REMARK SMILES CCCCCCCCC=CCCCCCCCC(=O)[O-]
REMARK SMILES IDX 10 1 9 2 11 3 12 4 13 5 14 6 15 7 16 8 17 9 18 10 19 11
REMARK SMILES IDX 20 12 8 13 7 14 6 15 5 16 4 17 3 18 2 19 1 20
REMARK H PARENT
REMARK Flexibility Score: inf
ROOT
ATOM      1  C   UNL     1       2.116  36.405  13.461  1.00  0.00    -0.031 C 
ATOM      2  C   UNL     1       2.520  35.746  14.563  1.00  0.00    -0.031 C 
ENDROOT
BRANCH   1   3
ATOM      3  C   UNL     1       2.481  37.826  13.111  1.00  0.00     0.027 C 
BRANCH   3   4
ATOM      4  C   UNL     1       1.694  38.808  13.989  1.00  0.00     0.004 C 
BRANCH   4   5
ATOM      5  C   UNL     1       0.248  39.014  13.505  1.00  0.00     0.000 C 
BRANCH   5   6
ATOM      6  C   UNL     1      -0.840  38.488  14.464  1.00  0.00     0.000 C 
BRANCH   6   7
ATOM      7  C   UNL     1      -0.396  38.320  15.927  1.00  0.00     0.000 C 
BRANCH   7   8
ATOM      8  C   UNL     1      -1.043  37.103  16.612  1.00  0.00     0.006 C 
BRANCH   8   9
ATOM      9  C   UNL     1      -0.721  35.791  15.886  1.00  0.00     0.053 C 
BRANCH   9  10
ATOM     10  C   UNL     1      -0.458  34.671  16.846  1.00  0.00     0.041 C 
ATOM     11  O   UNL     1      -1.414  34.101  17.434  1.00  0.00    -0.550 OA
ATOM     12  O   UNL     1       0.844  34.243  17.074  1.00  0.00    -0.550 OA
ENDBRANCH   9  10
ENDBRANCH   8   9
ENDBRANCH   7   8
ENDBRANCH   6   7
ENDBRANCH   5   6
ENDBRANCH   4   5
ENDBRANCH   3   4
ENDBRANCH   1   3
BRANCH   2  13
ATOM     13  C   UNL     1       3.433  36.310  15.624  1.00  0.00     0.027 C 
BRANCH  13  14
ATOM     14  C   UNL     1       4.908  36.176  15.224  1.00  0.00     0.004 C 
BRANCH  14  15
ATOM     15  C   UNL     1       5.830  36.532  16.396  1.00  0.00     0.000 C 
BRANCH  15  16
ATOM     16  C   UNL     1       6.515  37.887  16.164  1.00  0.00     0.000 C 
BRANCH  16  17
ATOM     17  C   UNL     1       6.317  38.412  14.733  1.00  0.00    -0.000 C 
BRANCH  17  18
ATOM     18  C   UNL     1       7.610  38.984  14.130  1.00  0.00    -0.000 C 
BRANCH  18  19
ATOM     19  C   UNL     1       7.786  38.524  12.677  1.00  0.00    -0.003 C 
ATOM     20  C   UNL     1       8.637  37.260  12.599  1.00  0.00     0.004 C 
ENDBRANCH  18  19
ENDBRANCH  17  18
ENDBRANCH  16  17
ENDBRANCH  15  16
ENDBRANCH  14  15
ENDBRANCH  13  14
ENDBRANCH   2  13
TORSDOF 15
ENDMDL
MODEL 9
REMARK VINA RESULT:    -4.157      3.160      6.441
REMARK INTER + INTRA:         -10.776
REMARK INTER:                  -8.562
REMARK INTRA:                  -2.214
REMARK UNBOUND:                -2.975
REMARK SMILES CCCCCCCCC=CCCCCCCCC(=O)[O-]
REMARK SMILES IDX 10 1 9 2 11 3 12 4 13 5 14 6 15 7 16 8 17 9 18 10 19 11
REMARK SMILES IDX 20 12 8 13 7 14 6 15 5 16 4 17 3 18 2 19 1 20
REMARK H PARENT
REMARK Flexibility Score: inf
ROOT
ATOM      1  C   UNL     1      15.546  22.737  27.492  1.00  0.00    -0.031 C 
ATOM      2  C   UNL     1      16.732  22.111  27.625  1.00  0.00    -0.031 C 
ENDROOT
BRANCH   1   3
ATOM      3  C   UNL     1      14.360  22.561  28.409  1.00  0.00     0.027 C 
BRANCH   3   4
ATOM      4  C   UNL     1      14.261  23.742  29.382  1.00  0.00     0.004 C 
BRANCH   4   5
ATOM      5  C   UNL     1      13.353  23.447  30.589  1.00  0.00     0.000 C 
BRANCH   5   6
ATOM      6  C   UNL     1      12.321  24.547  30.910  1.00  0.00     0.000 C 
BRANCH   6   7
ATOM      7  C   UNL     1      11.140  24.099  31.789  1.00  0.00     0.000 C 
BRANCH   7   8
ATOM      8  C   UNL     1       9.876  23.778  30.973  1.00  0.00     0.006 C 
BRANCH   8   9
ATOM      9  C   UNL     1       9.051  22.649  31.604  1.00  0.00     0.053 C 
BRANCH   9  10
ATOM     10  C   UNL     1       8.615  21.639  30.586  1.00  0.00     0.041 C 
ATOM     11  O   UNL     1       9.464  20.904  30.018  1.00  0.00    -0.550 OA
ATOM     12  O   UNL     1       7.267  21.495  30.282  1.00  0.00    -0.550 OA
ENDBRANCH   9  10
ENDBRANCH   8   9
ENDBRANCH   7   8
ENDBRANCH   6   7
ENDBRANCH   5   6
ENDBRANCH   4   5
ENDBRANCH   3   4
ENDBRANCH   1   3
BRANCH   2  13
ATOM     13  C   UNL     1      17.084  21.148  28.731  1.00  0.00     0.027 C 
BRANCH  13  14
ATOM     14  C   UNL     1      17.686  21.878  29.939  1.00  0.00     0.004 C 
BRANCH  14  15
ATOM     15  C   UNL     1      16.765  21.771  31.161  1.00  0.00     0.000 C 
BRANCH  15  16
ATOM     16  C   UNL     1      16.974  20.437  31.891  1.00  0.00     0.000 C 
BRANCH  16  17
ATOM     17  C   UNL     1      15.769  19.493  31.759  1.00  0.00    -0.000 C 
BRANCH  17  18
ATOM     18  C   UNL     1      14.427  20.240  31.801  1.00  0.00    -0.000 C 
BRANCH  18  19
ATOM     19  C   UNL     1      13.494  19.753  30.685  1.00  0.00    -0.003 C 
ATOM     20  C   UNL     1      14.269  19.001  29.608  1.00  0.00     0.004 C 
ENDBRANCH  18  19
ENDBRANCH  17  18
ENDBRANCH  16  17
ENDBRANCH  15  16
ENDBRANCH  14  15
ENDBRANCH  13  14
ENDBRANCH   2  13
TORSDOF 15
ENDMDL
