MODEL 1
REMARK VINA RESULT:    -2.396      0.000      0.000
REMARK INTER + INTRA:          -9.368
REMARK INTER:                  -5.197
REMARK INTRA:                  -4.171
REMARK UNBOUND:                -4.171
REMARK SMILES CCCCCCCCCCCCCCCCCCCCCC(=O)[O-]
REMARK SMILES IDX 12 1 11 2 10 3 9 4 8 5 7 6 6 7 5 8 4 9 3 10 2 11 1 12 13 13
REMARK SMILES IDX 14 14 15 15 16 16 17 17 18 18 19 19 20 20 21 21 22 22 23 23
REMARK SMILES IDX 24 24
REMARK H PARENT
REMARK Flexibility Score: inf
ROOT
ATOM      1  C   UNL     1      56.304 -36.370  26.246  1.00  0.00     0.000 C 
ENDROOT
BRANCH   1   2
ATOM      2  C   UNL     1      57.052 -37.036  25.074  1.00  0.00     0.000 C 
BRANCH   2   3
ATOM      3  C   UNL     1      57.978 -36.075  24.298  1.00  0.00     0.000 C 
BRANCH   3   4
ATOM      4  C   UNL     1      57.604 -35.965  22.813  1.00  0.00    -0.000 C 
BRANCH   4   5
ATOM      5  C   UNL     1      56.316 -36.740  22.511  1.00  0.00    -0.000 C 
BRANCH   5   6
ATOM      6  C   UNL     1      55.239 -35.811  21.930  1.00  0.00    -0.000 C 
BRANCH   6   7
ATOM      7  C   UNL     1      54.332 -35.207  23.013  1.00  0.00    -0.000 C 
BRANCH   7   8
ATOM      8  C   UNL     1      54.570 -33.700  23.216  1.00  0.00    -0.000 C 
BRANCH   8   9
ATOM      9  C   UNL     1      54.867 -33.348  24.687  1.00  0.00    -0.000 C 
BRANCH   9  10
ATOM     10  C   UNL     1      55.858 -32.181  24.865  1.00  0.00    -0.000 C 
BRANCH  10  11
ATOM     11  C   UNL     1      57.281 -32.616  25.267  1.00  0.00    -0.003 C 
ATOM     12  C   UNL     1      58.309 -32.373  24.160  1.00  0.00     0.004 C 
ENDBRANCH  10  11
ENDBRANCH   9  10
ENDBRANCH   8   9
ENDBRANCH   7   8
ENDBRANCH   6   7
ENDBRANCH   5   6
ENDBRANCH   4   5
ENDBRANCH   3   4
ENDBRANCH   2   3
ENDBRANCH   1   2
BRANCH   1  13
ATOM     13  C   UNL     1      54.802 -36.702  26.338  1.00  0.00     0.000 C 
BRANCH  13  14
ATOM     14  C   UNL     1      53.960 -35.703  27.155  1.00  0.00     0.000 C 
BRANCH  14  15
ATOM     15  C   UNL     1      52.512 -35.589  26.657  1.00  0.00     0.000 C 
BRANCH  15  16
ATOM     16  C   UNL     1      52.133 -36.799  25.795  1.00  0.00     0.000 C 
BRANCH  16  17
ATOM     17  C   UNL     1      51.166 -36.393  24.672  1.00  0.00     0.000 C 
BRANCH  17  18
ATOM     18  C   UNL     1      51.019 -34.869  24.539  1.00  0.00     0.000 C 
BRANCH  18  19
ATOM     19  C   UNL     1      50.375 -34.450  23.208  1.00  0.00     0.000 C 
BRANCH  19  20
ATOM     20  C   UNL     1      50.621 -32.959  22.929  1.00  0.00     0.006 C 
BRANCH  20  21
ATOM     21  C   UNL     1      51.273 -32.244  24.119  1.00  0.00     0.053 C 
BRANCH  21  22
ATOM     22  C   UNL     1      51.756 -30.874  23.751  1.00  0.00     0.041 C 
ATOM     23  O   UNL     1      51.093 -30.162  22.951  1.00  0.00    -0.550 OA
ATOM     24  O   UNL     1      52.924 -30.372  24.313  1.00  0.00    -0.550 OA
ENDBRANCH  21  22
ENDBRANCH  20  21
ENDBRANCH  19  20
ENDBRANCH  18  19
ENDBRANCH  17  18
ENDBRANCH  16  17
ENDBRANCH  15  16
ENDBRANCH  14  15
ENDBRANCH  13  14
ENDBRANCH   1  13
TORSDOF 20
ENDMDL
MODEL 2
REMARK VINA RESULT:    -2.329      2.322      6.281
REMARK INTER + INTRA:          -9.222
REMARK INTER:                  -5.362
REMARK INTRA:                  -3.860
REMARK UNBOUND:                -4.171
REMARK SMILES CCCCCCCCCCCCCCCCCCCCCC(=O)[O-]
REMARK SMILES IDX 12 1 11 2 10 3 9 4 8 5 7 6 6 7 5 8 4 9 3 10 2 11 1 12 13 13
REMARK SMILES IDX 14 14 15 15 16 16 17 17 18 18 19 19 20 20 21 21 22 22 23 23
REMARK SMILES IDX 24 24
REMARK H PARENT
REMARK Flexibility Score: inf
ROOT
ATOM      1  C   UNL     1      53.357 -31.425  25.629  1.00  0.00     0.000 C 
ENDROOT
BRANCH   1   2
ATOM      2  C   UNL     1      52.099 -30.790  25.004  1.00  0.00     0.000 C 
BRANCH   2   3
ATOM      3  C   UNL     1      51.896 -31.143  23.515  1.00  0.00     0.000 C 
BRANCH   3   4
ATOM      4  C   UNL     1      50.415 -31.292  23.140  1.00  0.00    -0.000 C 
BRANCH   4   5
ATOM      5  C   UNL     1      50.073 -32.751  22.816  1.00  0.00    -0.000 C 
BRANCH   5   6
ATOM      6  C   UNL     1      51.254 -33.678  23.143  1.00  0.00    -0.000 C 
BRANCH   6   7
ATOM      7  C   UNL     1      50.837 -35.152  23.253  1.00  0.00    -0.000 C 
BRANCH   7   8
ATOM      8  C   UNL     1      51.227 -35.782  24.603  1.00  0.00    -0.000 C 
BRANCH   8   9
ATOM      9  C   UNL     1      51.532 -34.719  25.677  1.00  0.00    -0.000 C 
BRANCH   9  10
ATOM     10  C   UNL     1      52.537 -35.182  26.749  1.00  0.00    -0.000 C 
BRANCH  10  11
ATOM     11  C   UNL     1      53.083 -36.607  26.531  1.00  0.00    -0.003 C 
ATOM     12  C   UNL     1      54.611 -36.662  26.525  1.00  0.00     0.004 C 
ENDBRANCH  10  11
ENDBRANCH   9  10
ENDBRANCH   8   9
ENDBRANCH   7   8
ENDBRANCH   6   7
ENDBRANCH   5   6
ENDBRANCH   4   5
ENDBRANCH   3   4
ENDBRANCH   2   3
ENDBRANCH   1   2
BRANCH   1  13
ATOM     13  C   UNL     1      54.477 -31.779  24.632  1.00  0.00     0.000 C 
BRANCH  13  14
ATOM     14  C   UNL     1      54.857 -33.271  24.579  1.00  0.00     0.000 C 
BRANCH  14  15
ATOM     15  C   UNL     1      54.930 -33.823  23.147  1.00  0.00     0.000 C 
BRANCH  15  16
ATOM     16  C   UNL     1      54.563 -35.311  23.115  1.00  0.00     0.000 C 
BRANCH  16  17
ATOM     17  C   UNL     1      55.295 -36.034  21.974  1.00  0.00     0.000 C 
BRANCH  17  18
ATOM     18  C   UNL     1      56.762 -36.342  22.313  1.00  0.00     0.000 C 
BRANCH  18  19
ATOM     19  C   UNL     1      56.955 -36.775  23.774  1.00  0.00     0.000 C 
BRANCH  19  20
ATOM     20  C   UNL     1      58.067 -35.954  24.445  1.00  0.00     0.006 C 
BRANCH  20  21
ATOM     21  C   UNL     1      58.741 -34.982  23.469  1.00  0.00     0.053 C 
BRANCH  21  22
ATOM     22  C   UNL     1      58.866 -33.605  24.049  1.00  0.00     0.041 C 
ATOM     23  O   UNL     1      58.328 -33.333  25.155  1.00  0.00    -0.550 OA
ATOM     24  O   UNL     1      59.600 -32.632  23.382  1.00  0.00    -0.550 OA
ENDBRANCH  21  22
ENDBRANCH  20  21
ENDBRANCH  19  20
ENDBRANCH  18  19
ENDBRANCH  17  18
ENDBRANCH  16  17
ENDBRANCH  15  16
ENDBRANCH  14  15
ENDBRANCH  13  14
ENDBRANCH   1  13
TORSDOF 20
ENDMDL
MODEL 3
REMARK VINA RESULT:    -2.262      1.524      3.858
REMARK INTER + INTRA:          -9.077
REMARK INTER:                  -5.624
REMARK INTRA:                  -3.453
REMARK UNBOUND:                -4.171
REMARK SMILES CCCCCCCCCCCCCCCCCCCCCC(=O)[O-]
REMARK SMILES IDX 12 1 11 2 10 3 9 4 8 5 7 6 6 7 5 8 4 9 3 10 2 11 1 12 13 13
REMARK SMILES IDX 14 14 15 15 16 16 17 17 18 18 19 19 20 20 21 21 22 22 23 23
REMARK SMILES IDX 24 24
REMARK H PARENT
REMARK Flexibility Score: inf
ROOT
ATOM      1  C   UNL     1      53.695 -32.380  25.365  1.00  0.00     0.000 C 
ENDROOT
BRANCH   1   2
ATOM      2  C   UNL     1      54.278 -32.413  23.938  1.00  0.00     0.000 C 
BRANCH   2   3
ATOM      3  C   UNL     1      55.802 -32.654  23.893  1.00  0.00     0.000 C 
BRANCH   3   4
ATOM      4  C   UNL     1      56.604 -31.347  23.802  1.00  0.00    -0.000 C 
BRANCH   4   5
ATOM      5  C   UNL     1      58.084 -31.586  24.122  1.00  0.00    -0.000 C 
BRANCH   5   6
ATOM      6  C   UNL     1      58.307 -33.008  24.660  1.00  0.00    -0.000 C 
BRANCH   6   7
ATOM      7  C   UNL     1      59.287 -33.820  23.799  1.00  0.00    -0.000 C 
BRANCH   7   8
ATOM      8  C   UNL     1      58.970 -35.326  23.797  1.00  0.00    -0.000 C 
BRANCH   8   9
ATOM      9  C   UNL     1      57.726 -35.663  24.643  1.00  0.00    -0.000 C 
BRANCH   9  10
ATOM     10  C   UNL     1      56.628 -36.418  23.870  1.00  0.00    -0.000 C 
BRANCH  10  11
ATOM     11  C   UNL     1      56.582 -36.097  22.362  1.00  0.00    -0.003 C 
ATOM     12  C   UNL     1      55.164 -35.822  21.858  1.00  0.00     0.004 C 
ENDBRANCH  10  11
ENDBRANCH   9  10
ENDBRANCH   8   9
ENDBRANCH   7   8
ENDBRANCH   6   7
ENDBRANCH   5   6
ENDBRANCH   4   5
ENDBRANCH   3   4
ENDBRANCH   2   3
ENDBRANCH   1   2
BRANCH   1  13
ATOM     13  C   UNL     1      52.997 -33.677  25.817  1.00  0.00     0.000 C 
BRANCH  13  14
ATOM     14  C   UNL     1      53.398 -34.942  25.036  1.00  0.00     0.000 C 
BRANCH  14  15
ATOM     15  C   UNL     1      52.197 -35.672  24.416  1.00  0.00     0.000 C 
BRANCH  15  16
ATOM     16  C   UNL     1      51.757 -34.992  23.114  1.00  0.00     0.000 C 
BRANCH  16  17
ATOM     17  C   UNL     1      50.245 -34.722  23.117  1.00  0.00     0.000 C 
BRANCH  17  18
ATOM     18  C   UNL     1      49.894 -33.323  23.648  1.00  0.00     0.000 C 
BRANCH  18  19
ATOM     19  C   UNL     1      50.708 -32.211  22.969  1.00  0.00     0.000 C 
BRANCH  19  20
ATOM     20  C   UNL     1      50.719 -30.939  23.831  1.00  0.00     0.006 C 
BRANCH  20  21
ATOM     21  C   UNL     1      51.536 -29.809  23.190  1.00  0.00     0.053 C 
BRANCH  21  22
ATOM     22  C   UNL     1      52.159 -28.917  24.221  1.00  0.00     0.041 C 
ATOM     23  O   UNL     1      51.439 -28.148  24.911  1.00  0.00    -0.550 OA
ATOM     24  O   UNL     1      53.531 -28.957  24.439  1.00  0.00    -0.550 OA
ENDBRANCH  21  22
ENDBRANCH  20  21
ENDBRANCH  19  20
ENDBRANCH  18  19
ENDBRANCH  17  18
ENDBRANCH  16  17
ENDBRANCH  15  16
ENDBRANCH  14  15
ENDBRANCH  13  14
ENDBRANCH   1  13
TORSDOF 20
ENDMDL
MODEL 4
REMARK VINA RESULT:    -2.257      1.880      5.486
REMARK INTER + INTRA:          -9.066
REMARK INTER:                  -5.230
REMARK INTRA:                  -3.836
REMARK UNBOUND:                -4.171
REMARK SMILES CCCCCCCCCCCCCCCCCCCCCC(=O)[O-]
REMARK SMILES IDX 12 1 11 2 10 3 9 4 8 5 7 6 6 7 5 8 4 9 3 10 2 11 1 12 13 13
REMARK SMILES IDX 14 14 15 15 16 16 17 17 18 18 19 19 20 20 21 21 22 22 23 23
REMARK SMILES IDX 24 24
REMARK H PARENT
REMARK Flexibility Score: inf
ROOT
ATOM      1  C   UNL     1      54.389 -34.853  22.969  1.00  0.00     0.000 C 
ENDROOT
BRANCH   1   2
ATOM      2  C   UNL     1      53.804 -35.256  24.338  1.00  0.00     0.000 C 
BRANCH   2   3
ATOM      3  C   UNL     1      52.262 -35.239  24.387  1.00  0.00     0.000 C 
BRANCH   3   4
ATOM      4  C   UNL     1      51.627 -35.172  22.990  1.00  0.00    -0.000 C 
BRANCH   4   5
ATOM      5  C   UNL     1      50.371 -34.293  22.998  1.00  0.00    -0.000 C 
BRANCH   5   6
ATOM      6  C   UNL     1      50.396 -33.309  24.177  1.00  0.00    -0.000 C 
BRANCH   6   7
ATOM      7  C   UNL     1      50.240 -31.847  23.731  1.00  0.00    -0.000 C 
BRANCH   7   8
ATOM      8  C   UNL     1      51.526 -31.273  23.110  1.00  0.00    -0.000 C 
BRANCH   8   9
ATOM      9  C   UNL     1      52.783 -31.645  23.920  1.00  0.00    -0.000 C 
BRANCH   9  10
ATOM     10  C   UNL     1      52.909 -30.896  25.261  1.00  0.00    -0.000 C 
BRANCH  10  11
ATOM     11  C   UNL     1      53.227 -31.805  26.465  1.00  0.00    -0.003 C 
ATOM     12  C   UNL     1      51.973 -32.252  27.219  1.00  0.00     0.004 C 
ENDBRANCH  10  11
ENDBRANCH   9  10
ENDBRANCH   8   9
ENDBRANCH   7   8
ENDBRANCH   6   7
ENDBRANCH   5   6
ENDBRANCH   4   5
ENDBRANCH   3   4
ENDBRANCH   2   3
ENDBRANCH   1   2
BRANCH   1  13
ATOM     13  C   UNL     1      55.115 -35.980  22.210  1.00  0.00     0.000 C 
BRANCH  13  14
ATOM     14  C   UNL     1      56.647 -35.993  22.367  1.00  0.00     0.000 C 
BRANCH  14  15
ATOM     15  C   UNL     1      57.126 -36.878  23.526  1.00  0.00     0.000 C 
BRANCH  15  16
ATOM     16  C   UNL     1      57.783 -36.034  24.624  1.00  0.00     0.000 C 
BRANCH  16  17
ATOM     17  C   UNL     1      57.973 -34.581  24.162  1.00  0.00     0.000 C 
BRANCH  17  18
ATOM     18  C   UNL     1      57.838 -33.570  25.312  1.00  0.00     0.000 C 
BRANCH  18  19
ATOM     19  C   UNL     1      56.525 -32.776  25.252  1.00  0.00     0.000 C 
BRANCH  19  20
ATOM     20  C   UNL     1      56.401 -32.027  23.916  1.00  0.00     0.006 C 
BRANCH  20  21
ATOM     21  C   UNL     1      57.264 -30.759  23.877  1.00  0.00     0.053 C 
BRANCH  21  22
ATOM     22  C   UNL     1      56.719 -29.685  24.770  1.00  0.00     0.041 C 
ATOM     23  O   UNL     1      57.264 -29.448  25.881  1.00  0.00    -0.550 OA
ATOM     24  O   UNL     1      55.629 -28.927  24.362  1.00  0.00    -0.550 OA
ENDBRANCH  21  22
ENDBRANCH  20  21
ENDBRANCH  19  20
ENDBRANCH  18  19
ENDBRANCH  17  18
ENDBRANCH  16  17
ENDBRANCH  15  16
ENDBRANCH  14  15
ENDBRANCH  13  14
ENDBRANCH   1  13
TORSDOF 20
ENDMDL
MODEL 5
REMARK VINA RESULT:    -2.152      2.055      5.793
REMARK INTER + INTRA:          -8.838
REMARK INTER:                  -5.165
REMARK INTRA:                  -3.673
REMARK UNBOUND:                -4.171
REMARK SMILES CCCCCCCCCCCCCCCCCCCCCC(=O)[O-]
REMARK SMILES IDX 12 1 11 2 10 3 9 4 8 5 7 6 6 7 5 8 4 9 3 10 2 11 1 12 13 13
REMARK SMILES IDX 14 14 15 15 16 16 17 17 18 18 19 19 20 20 21 21 22 22 23 23
REMARK SMILES IDX 24 24
REMARK H PARENT
REMARK Flexibility Score: inf
ROOT
ATOM      1  C   UNL     1      54.054 -34.909  25.108  1.00  0.00     0.000 C 
ENDROOT
BRANCH   1   2
ATOM      2  C   UNL     1      52.527 -34.823  25.301  1.00  0.00     0.000 C 
BRANCH   2   3
ATOM      3  C   UNL     1      51.720 -35.628  24.260  1.00  0.00     0.000 C 
BRANCH   3   4
ATOM      4  C   UNL     1      51.244 -34.762  23.085  1.00  0.00    -0.000 C 
BRANCH   4   5
ATOM      5  C   UNL     1      50.144 -33.790  23.528  1.00  0.00    -0.000 C 
BRANCH   5   6
ATOM      6  C   UNL     1      50.337 -32.410  22.881  1.00  0.00    -0.000 C 
BRANCH   6   7
ATOM      7  C   UNL     1      51.762 -31.864  23.065  1.00  0.00    -0.000 C 
BRANCH   7   8
ATOM      8  C   UNL     1      51.784 -30.366  23.417  1.00  0.00    -0.000 C 
BRANCH   8   9
ATOM      9  C   UNL     1      51.421 -30.107  24.893  1.00  0.00    -0.000 C 
BRANCH   9  10
ATOM     10  C   UNL     1      52.035 -31.121  25.877  1.00  0.00    -0.000 C 
BRANCH  10  11
ATOM     11  C   UNL     1      53.494 -30.816  26.272  1.00  0.00    -0.003 C 
ATOM     12  C   UNL     1      54.016 -31.741  27.372  1.00  0.00     0.004 C 
ENDBRANCH  10  11
ENDBRANCH   9  10
ENDBRANCH   8   9
ENDBRANCH   7   8
ENDBRANCH   6   7
ENDBRANCH   5   6
ENDBRANCH   4   5
ENDBRANCH   3   4
ENDBRANCH   2   3
ENDBRANCH   1   2
BRANCH   1  13
ATOM     13  C   UNL     1      54.680 -33.748  24.312  1.00  0.00     0.000 C 
BRANCH  13  14
ATOM     14  C   UNL     1      55.064 -34.083  22.858  1.00  0.00     0.000 C 
BRANCH  14  15
ATOM     15  C   UNL     1      55.072 -35.591  22.571  1.00  0.00     0.000 C 
BRANCH  15  16
ATOM     16  C   UNL     1      56.507 -36.113  22.426  1.00  0.00     0.000 C 
BRANCH  16  17
ATOM     17  C   UNL     1      57.009 -36.714  23.748  1.00  0.00     0.000 C 
BRANCH  17  18
ATOM     18  C   UNL     1      58.012 -35.801  24.471  1.00  0.00     0.000 C 
BRANCH  18  19
ATOM     19  C   UNL     1      58.834 -34.938  23.501  1.00  0.00     0.000 C 
BRANCH  19  20
ATOM     20  C   UNL     1      59.273 -33.629  24.174  1.00  0.00     0.006 C 
BRANCH  20  21
ATOM     21  C   UNL     1      58.079 -32.785  24.640  1.00  0.00     0.053 C 
BRANCH  21  22
ATOM     22  C   UNL     1      57.939 -31.526  23.839  1.00  0.00     0.041 C 
ATOM     23  O   UNL     1      56.860 -30.877  23.865  1.00  0.00    -0.550 OA
ATOM     24  O   UNL     1      59.009 -31.055  23.089  1.00  0.00    -0.550 OA
ENDBRANCH  21  22
ENDBRANCH  20  21
ENDBRANCH  19  20
ENDBRANCH  18  19
ENDBRANCH  17  18
ENDBRANCH  16  17
ENDBRANCH  15  16
ENDBRANCH  14  15
ENDBRANCH  13  14
ENDBRANCH   1  13
TORSDOF 20
ENDMDL
MODEL 6
REMARK VINA RESULT:    -2.126      2.051      4.153
REMARK INTER + INTRA:          -8.782
REMARK INTER:                  -5.169
REMARK INTRA:                  -3.613
REMARK UNBOUND:                -4.171
REMARK SMILES CCCCCCCCCCCCCCCCCCCCCC(=O)[O-]
REMARK SMILES IDX 12 1 11 2 10 3 9 4 8 5 7 6 6 7 5 8 4 9 3 10 2 11 1 12 13 13
REMARK SMILES IDX 14 14 15 15 16 16 17 17 18 18 19 19 20 20 21 21 22 22 23 23
REMARK SMILES IDX 24 24
REMARK H PARENT
REMARK Flexibility Score: inf
ROOT
ATOM      1  C   UNL     1      52.866 -31.461  27.068  1.00  0.00     0.000 C 
ENDROOT
BRANCH   1   2
ATOM      2  C   UNL     1      54.089 -31.060  26.219  1.00  0.00     0.000 C 
BRANCH   2   3
ATOM      3  C   UNL     1      54.823 -32.257  25.578  1.00  0.00     0.000 C 
BRANCH   3   4
ATOM      4  C   UNL     1      55.367 -31.935  24.178  1.00  0.00    -0.000 C 
BRANCH   4   5
ATOM      5  C   UNL     1      55.161 -33.117  23.223  1.00  0.00    -0.000 C 
BRANCH   5   6
ATOM      6  C   UNL     1      54.310 -34.213  23.881  1.00  0.00    -0.000 C 
BRANCH   6   7
ATOM      7  C   UNL     1      54.148 -35.453  22.988  1.00  0.00    -0.000 C 
BRANCH   7   8
ATOM      8  C   UNL     1      55.293 -35.608  21.971  1.00  0.00    -0.000 C 
BRANCH   8   9
ATOM      9  C   UNL     1      56.332 -36.656  22.415  1.00  0.00    -0.000 C 
BRANCH   9  10
ATOM     10  C   UNL     1      57.678 -36.055  22.863  1.00  0.00    -0.000 C 
BRANCH  10  11
ATOM     11  C   UNL     1      57.702 -35.581  24.329  1.00  0.00    -0.003 C 
ATOM     12  C   UNL     1      56.920 -36.505  25.264  1.00  0.00     0.004 C 
ENDBRANCH  10  11
ENDBRANCH   9  10
ENDBRANCH   8   9
ENDBRANCH   7   8
ENDBRANCH   6   7
ENDBRANCH   5   6
ENDBRANCH   4   5
ENDBRANCH   3   4
ENDBRANCH   2   3
ENDBRANCH   1   2
BRANCH   1  13
ATOM     13  C   UNL     1      52.156 -32.754  26.623  1.00  0.00     0.000 C 
BRANCH  13  14
ATOM     14  C   UNL     1      50.625 -32.750  26.790  1.00  0.00     0.000 C 
BRANCH  14  15
ATOM     15  C   UNL     1      49.875 -33.003  25.474  1.00  0.00     0.000 C 
BRANCH  15  16
ATOM     16  C   UNL     1      50.685 -33.920  24.551  1.00  0.00     0.000 C 
BRANCH  16  17
ATOM     17  C   UNL     1      50.966 -33.237  23.204  1.00  0.00     0.000 C 
BRANCH  17  18
ATOM     18  C   UNL     1      50.559 -31.755  23.195  1.00  0.00     0.000 C 
BRANCH  18  19
ATOM     19  C   UNL     1      51.769 -30.808  23.182  1.00  0.00     0.000 C 
BRANCH  19  20
ATOM     20  C   UNL     1      51.322 -29.349  23.363  1.00  0.00     0.006 C 
BRANCH  20  21
ATOM     21  C   UNL     1      51.519 -28.854  24.802  1.00  0.00     0.053 C 
BRANCH  21  22
ATOM     22  C   UNL     1      51.425 -27.362  24.897  1.00  0.00     0.041 C 
ATOM     23  O   UNL     1      50.864 -26.825  25.888  1.00  0.00    -0.550 OA
ATOM     24  O   UNL     1      51.984 -26.564  23.906  1.00  0.00    -0.550 OA
ENDBRANCH  21  22
ENDBRANCH  20  21
ENDBRANCH  19  20
ENDBRANCH  18  19
ENDBRANCH  17  18
ENDBRANCH  16  17
ENDBRANCH  15  16
ENDBRANCH  14  15
ENDBRANCH  13  14
ENDBRANCH   1  13
TORSDOF 20
ENDMDL
MODEL 7
REMARK VINA RESULT:    -2.086      3.093      6.064
REMARK INTER + INTRA:          -8.696
REMARK INTER:                  -4.651
REMARK INTRA:                  -4.045
REMARK UNBOUND:                -4.171
REMARK SMILES CCCCCCCCCCCCCCCCCCCCCC(=O)[O-]
REMARK SMILES IDX 12 1 11 2 10 3 9 4 8 5 7 6 6 7 5 8 4 9 3 10 2 11 1 12 13 13
REMARK SMILES IDX 14 14 15 15 16 16 17 17 18 18 19 19 20 20 21 21 22 22 23 23
REMARK SMILES IDX 24 24
REMARK H PARENT
REMARK Flexibility Score: inf
ROOT
ATOM      1  C   UNL     1      50.953 -32.452  23.799  1.00  0.00     0.000 C 
ENDROOT
BRANCH   1   2
ATOM      2  C   UNL     1      52.416 -32.085  23.477  1.00  0.00     0.000 C 
BRANCH   2   3
ATOM      3  C   UNL     1      53.336 -32.044  24.716  1.00  0.00     0.000 C 
BRANCH   3   4
ATOM      4  C   UNL     1      54.131 -30.735  24.817  1.00  0.00    -0.000 C 
BRANCH   4   5
ATOM      5  C   UNL     1      55.631 -30.986  24.621  1.00  0.00    -0.000 C 
BRANCH   5   6
ATOM      6  C   UNL     1      55.871 -32.247  23.778  1.00  0.00    -0.000 C 
BRANCH   6   7
ATOM      7  C   UNL     1      57.068 -33.073  24.275  1.00  0.00    -0.000 C 
BRANCH   7   8
ATOM      8  C   UNL     1      57.085 -33.233  25.806  1.00  0.00    -0.000 C 
BRANCH   8   9
ATOM      9  C   UNL     1      56.196 -34.398  26.282  1.00  0.00    -0.000 C 
BRANCH   9  10
ATOM     10  C   UNL     1      55.172 -34.004  27.365  1.00  0.00    -0.000 C 
BRANCH  10  11
ATOM     11  C   UNL     1      55.494 -32.680  28.087  1.00  0.00    -0.003 C 
ATOM     12  C   UNL     1      54.249 -31.833  28.353  1.00  0.00     0.004 C 
ENDBRANCH  10  11
ENDBRANCH   9  10
ENDBRANCH   8   9
ENDBRANCH   7   8
ENDBRANCH   6   7
ENDBRANCH   5   6
ENDBRANCH   4   5
ENDBRANCH   3   4
ENDBRANCH   2   3
ENDBRANCH   1   2
BRANCH   1  13
ATOM     13  C   UNL     1      50.637 -33.960  23.778  1.00  0.00     0.000 C 
BRANCH  13  14
ATOM     14  C   UNL     1      51.732 -34.850  23.160  1.00  0.00     0.000 C 
BRANCH  14  15
ATOM     15  C   UNL     1      52.552 -35.612  24.212  1.00  0.00     0.000 C 
BRANCH  15  16
ATOM     16  C   UNL     1      54.042 -35.610  23.849  1.00  0.00     0.000 C 
BRANCH  16  17
ATOM     17  C   UNL     1      54.248 -35.243  22.371  1.00  0.00     0.000 C 
BRANCH  17  18
ATOM     18  C   UNL     1      55.650 -35.610  21.860  1.00  0.00     0.000 C 
BRANCH  18  19
ATOM     19  C   UNL     1      56.323 -36.701  22.706  1.00  0.00     0.000 C 
BRANCH  19  20
ATOM     20  C   UNL     1      57.825 -36.419  22.867  1.00  0.00     0.006 C 
BRANCH  20  21
ATOM     21  C   UNL     1      58.335 -36.765  24.272  1.00  0.00     0.053 C 
BRANCH  21  22
ATOM     22  C   UNL     1      59.468 -35.877  24.688  1.00  0.00     0.041 C 
ATOM     23  O   UNL     1      60.085 -35.192  23.830  1.00  0.00    -0.550 OA
ATOM     24  O   UNL     1      59.825 -35.784  26.028  1.00  0.00    -0.550 OA
ENDBRANCH  21  22
ENDBRANCH  20  21
ENDBRANCH  19  20
ENDBRANCH  18  19
ENDBRANCH  17  18
ENDBRANCH  16  17
ENDBRANCH  15  16
ENDBRANCH  14  15
ENDBRANCH  13  14
ENDBRANCH   1  13
TORSDOF 20
ENDMDL
MODEL 8
REMARK VINA RESULT:    -2.082      1.617      2.179
REMARK INTER + INTRA:          -8.686
REMARK INTER:                  -4.303
REMARK INTRA:                  -4.384
REMARK UNBOUND:                -4.171
REMARK SMILES CCCCCCCCCCCCCCCCCCCCCC(=O)[O-]
REMARK SMILES IDX 12 1 11 2 10 3 9 4 8 5 7 6 6 7 5 8 4 9 3 10 2 11 1 12 13 13
REMARK SMILES IDX 14 14 15 15 16 16 17 17 18 18 19 19 20 20 21 21 22 22 23 23
REMARK SMILES IDX 24 24
REMARK H PARENT
REMARK Flexibility Score: inf
ROOT
ATOM      1  C   UNL     1      54.797 -36.219  26.926  1.00  0.00     0.000 C 
ENDROOT
BRANCH   1   2
ATOM      2  C   UNL     1      56.024 -36.850  26.239  1.00  0.00     0.000 C 
BRANCH   2   3
ATOM      3  C   UNL     1      57.065 -35.819  25.751  1.00  0.00     0.000 C 
BRANCH   3   4
ATOM      4  C   UNL     1      57.828 -36.295  24.507  1.00  0.00    -0.000 C 
BRANCH   4   5
ATOM      5  C   UNL     1      56.880 -36.953  23.498  1.00  0.00    -0.000 C 
BRANCH   5   6
ATOM      6  C   UNL     1      56.419 -35.942  22.437  1.00  0.00    -0.000 C 
BRANCH   6   7
ATOM      7  C   UNL     1      55.039 -35.342  22.752  1.00  0.00    -0.000 C 
BRANCH   7   8
ATOM      8  C   UNL     1      55.099 -33.831  23.038  1.00  0.00    -0.000 C 
BRANCH   8   9
ATOM      9  C   UNL     1      54.432 -33.462  24.378  1.00  0.00    -0.000 C 
BRANCH   9  10
ATOM     10  C   UNL     1      55.323 -32.619  25.311  1.00  0.00    -0.000 C 
BRANCH  10  11
ATOM     11  C   UNL     1      54.727 -32.385  26.713  1.00  0.00    -0.003 C 
ATOM     12  C   UNL     1      55.717 -32.696  27.837  1.00  0.00     0.004 C 
ENDBRANCH  10  11
ENDBRANCH   9  10
ENDBRANCH   8   9
ENDBRANCH   7   8
ENDBRANCH   6   7
ENDBRANCH   5   6
ENDBRANCH   4   5
ENDBRANCH   3   4
ENDBRANCH   2   3
ENDBRANCH   1   2
BRANCH   1  13
ATOM     13  C   UNL     1      53.457 -36.429  26.194  1.00  0.00     0.000 C 
BRANCH  13  14
ATOM     14  C   UNL     1      52.342 -35.436  26.574  1.00  0.00     0.000 C 
BRANCH  14  15
ATOM     15  C   UNL     1      51.169 -35.441  25.584  1.00  0.00     0.000 C 
BRANCH  15  16
ATOM     16  C   UNL     1      51.641 -35.833  24.179  1.00  0.00     0.000 C 
BRANCH  16  17
ATOM     17  C   UNL     1      51.178 -34.805  23.135  1.00  0.00     0.000 C 
BRANCH  17  18
ATOM     18  C   UNL     1      50.603 -33.530  23.774  1.00  0.00     0.000 C 
BRANCH  18  19
ATOM     19  C   UNL     1      51.175 -32.246  23.153  1.00  0.00     0.000 C 
BRANCH  19  20
ATOM     20  C   UNL     1      51.474 -31.202  24.239  1.00  0.00     0.006 C 
BRANCH  20  21
ATOM     21  C   UNL     1      51.205 -31.737  25.652  1.00  0.00     0.053 C 
BRANCH  21  22
ATOM     22  C   UNL     1      51.267 -30.650  26.682  1.00  0.00     0.041 C 
ATOM     23  O   UNL     1      50.786 -29.513  26.433  1.00  0.00    -0.550 OA
ATOM     24  O   UNL     1      51.830 -30.902  27.927  1.00  0.00    -0.550 OA
ENDBRANCH  21  22
ENDBRANCH  20  21
ENDBRANCH  19  20
ENDBRANCH  18  19
ENDBRANCH  17  18
ENDBRANCH  16  17
ENDBRANCH  15  16
ENDBRANCH  14  15
ENDBRANCH  13  14
ENDBRANCH   1  13
TORSDOF 20
ENDMDL
MODEL 9
REMARK VINA RESULT:    -2.071      1.732      3.599
REMARK INTER + INTRA:          -8.663
REMARK INTER:                  -5.404
REMARK INTRA:                  -3.259
REMARK UNBOUND:                -4.171
REMARK SMILES CCCCCCCCCCCCCCCCCCCCCC(=O)[O-]
REMARK SMILES IDX 12 1 11 2 10 3 9 4 8 5 7 6 6 7 5 8 4 9 3 10 2 11 1 12 13 13
REMARK SMILES IDX 14 14 15 15 16 16 17 17 18 18 19 19 20 20 21 21 22 22 23 23
REMARK SMILES IDX 24 24
REMARK H PARENT
REMARK Flexibility Score: inf
ROOT
ATOM      1  C   UNL     1      54.675 -34.790  22.733  1.00  0.00     0.000 C 
ENDROOT
BRANCH   1   2
ATOM      2  C   UNL     1      55.495 -35.637  21.739  1.00  0.00     0.000 C 
BRANCH   2   3
ATOM      3  C   UNL     1      56.433 -36.659  22.415  1.00  0.00     0.000 C 
BRANCH   3   4
ATOM      4  C   UNL     1      57.287 -36.032  23.527  1.00  0.00    -0.000 C 
BRANCH   4   5
ATOM      5  C   UNL     1      56.998 -36.692  24.880  1.00  0.00    -0.000 C 
BRANCH   5   6
ATOM      6  C   UNL     1      57.163 -35.684  26.028  1.00  0.00    -0.000 C 
BRANCH   6   7
ATOM      7  C   UNL     1      55.831 -35.052  26.458  1.00  0.00    -0.000 C 
BRANCH   7   8
ATOM      8  C   UNL     1      55.952 -33.544  26.744  1.00  0.00    -0.000 C 
BRANCH   8   9
ATOM      9  C   UNL     1      55.976 -32.704  25.451  1.00  0.00    -0.000 C 
BRANCH   9  10
ATOM     10  C   UNL     1      54.657 -31.962  25.161  1.00  0.00    -0.000 C 
BRANCH  10  11
ATOM     11  C   UNL     1      53.934 -31.442  26.419  1.00  0.00    -0.003 C 
ATOM     12  C   UNL     1      52.616 -32.171  26.688  1.00  0.00     0.004 C 
ENDBRANCH  10  11
ENDBRANCH   9  10
ENDBRANCH   8   9
ENDBRANCH   7   8
ENDBRANCH   6   7
ENDBRANCH   5   6
ENDBRANCH   4   5
ENDBRANCH   3   4
ENDBRANCH   2   3
ENDBRANCH   1   2
BRANCH   1  13
ATOM     13  C   UNL     1      53.640 -35.574  23.563  1.00  0.00     0.000 C 
BRANCH  13  14
ATOM     14  C   UNL     1      52.471 -34.735  24.112  1.00  0.00     0.000 C 
BRANCH  14  15
ATOM     15  C   UNL     1      51.097 -35.243  23.650  1.00  0.00     0.000 C 
BRANCH  15  16
ATOM     16  C   UNL     1      50.362 -34.169  22.838  1.00  0.00     0.000 C 
BRANCH  16  17
ATOM     17  C   UNL     1      50.184 -32.883  23.660  1.00  0.00     0.000 C 
BRANCH  17  18
ATOM     18  C   UNL     1      50.373 -31.611  22.818  1.00  0.00     0.000 C 
BRANCH  18  19
ATOM     19  C   UNL     1      51.723 -30.925  23.076  1.00  0.00     0.000 C 
BRANCH  19  20
ATOM     20  C   UNL     1      51.565 -29.768  24.075  1.00  0.00     0.006 C 
BRANCH  20  21
ATOM     21  C   UNL     1      52.053 -28.432  23.500  1.00  0.00     0.053 C 
BRANCH  21  22
ATOM     22  C   UNL     1      53.175 -27.853  24.307  1.00  0.00     0.041 C 
ATOM     23  O   UNL     1      53.007 -26.783  24.949  1.00  0.00    -0.550 OA
ATOM     24  O   UNL     1      54.397 -28.512  24.374  1.00  0.00    -0.550 OA
ENDBRANCH  21  22
ENDBRANCH  20  21
ENDBRANCH  19  20
ENDBRANCH  18  19
ENDBRANCH  17  18
ENDBRANCH  16  17
ENDBRANCH  15  16
ENDBRANCH  14  15
ENDBRANCH  13  14
ENDBRANCH   1  13
TORSDOF 20
ENDMDL
