MODEL 1
REMARK VINA RESULT:     5.151      0.000      0.000
REMARK INTER + INTRA:          13.121
REMARK INTER:                  12.980
REMARK INTRA:                   0.142
REMARK UNBOUND:                 0.142
REMARK SMILES CCCCCCCCCCCCCCCCCCCCCCCCCCCC(=O)[O-]
REMARK SMILES IDX 15 1 16 2 17 3 18 4 19 5 20 6 21 7 22 8 23 9 24 10 25 11
REMARK SMILES IDX 26 12 27 13 28 14 29 15 30 16 14 17 13 18 12 19 11 20 10 21
REMARK SMILES IDX 9 22 8 23 7 24 6 25 5 26 4 27 3 28 2 29 1 30
REMARK H PARENT
REMARK Flexibility Score: inf
ROOT
ATOM      1  C   UNL     1       5.117 -35.033  23.872  1.00  0.00     0.000 C 
ENDROOT
BRANCH   1   2
ATOM      2  C   UNL     1       6.080 -36.111  23.345  1.00  0.00     0.000 C 
BRANCH   2   3
ATOM      3  C   UNL     1       6.124 -36.177  21.812  1.00  0.00     0.000 C 
BRANCH   3   4
ATOM      4  C   UNL     1       5.360 -37.397  21.250  1.00  0.00     0.000 C 
BRANCH   4   5
ATOM      5  C   UNL     1       5.945 -38.745  21.704  1.00  0.00     0.000 C 
BRANCH   5   6
ATOM      6  C   UNL     1       5.057 -39.502  22.709  1.00  0.00     0.000 C 
BRANCH   6   7
ATOM      7  C   UNL     1       5.554 -39.391  24.169  1.00  0.00     0.000 C 
BRANCH   7   8
ATOM      8  C   UNL     1       4.933 -38.198  24.909  1.00  0.00     0.000 C 
BRANCH   8   9
ATOM      9  C   UNL     1       4.102 -38.623  26.131  1.00  0.00     0.000 C 
BRANCH   9  10
ATOM     10  C   UNL     1       3.459 -37.434  26.882  1.00  0.00     0.000 C 
BRANCH  10  11
ATOM     11  C   UNL     1       1.922 -37.508  26.941  1.00  0.00     0.000 C 
BRANCH  11  12
ATOM     12  C   UNL     1       1.296 -36.208  27.476  1.00  0.00     0.006 C 
BRANCH  12  13
ATOM     13  C   UNL     1       2.203 -35.505  28.496  1.00  0.00     0.053 C 
BRANCH  13  14
ATOM     14  C   UNL     1       1.456 -34.499  29.322  1.00  0.00     0.041 C 
ATOM     15  O   UNL     1       2.034 -33.903  30.269  1.00  0.00    -0.550 OA
ATOM     16  O   UNL     1       0.114 -34.238  29.062  1.00  0.00    -0.550 OA
ENDBRANCH  13  14
ENDBRANCH  12  13
ENDBRANCH  11  12
ENDBRANCH  10  11
ENDBRANCH   9  10
ENDBRANCH   8   9
ENDBRANCH   7   8
ENDBRANCH   6   7
ENDBRANCH   5   6
ENDBRANCH   4   5
ENDBRANCH   3   4
ENDBRANCH   2   3
ENDBRANCH   1   2
BRANCH   1  17
ATOM     17  C   UNL     1       4.736 -33.973  22.816  1.00  0.00     0.000 C 
BRANCH  17  18
ATOM     18  C   UNL     1       3.302 -34.156  22.292  1.00  0.00     0.000 C 
BRANCH  18  19
ATOM     19  C   UNL     1       3.242 -34.996  21.004  1.00  0.00     0.000 C 
BRANCH  19  20
ATOM     20  C   UNL     1       2.482 -36.329  21.132  1.00  0.00     0.000 C 
BRANCH  20  21
ATOM     21  C   UNL     1       2.506 -37.157  19.838  1.00  0.00     0.000 C 
BRANCH  21  22
ATOM     22  C   UNL     1       1.089 -37.422  19.317  1.00  0.00    -0.000 C 
BRANCH  22  23
ATOM     23  C   UNL     1       1.070 -37.450  17.786  1.00  0.00    -0.000 C 
BRANCH  23  24
ATOM     24  C   UNL     1       2.446 -37.832  17.219  1.00  0.00    -0.000 C 
BRANCH  24  25
ATOM     25  C   UNL     1       3.236 -36.603  16.748  1.00  0.00    -0.000 C 
BRANCH  25  26
ATOM     26  C   UNL     1       2.506 -35.808  15.641  1.00  0.00    -0.000 C 
BRANCH  26  27
ATOM     27  C   UNL     1       2.968 -36.198  14.227  1.00  0.00    -0.000 C 
BRANCH  27  28
ATOM     28  C   UNL     1       4.232 -37.072  14.250  1.00  0.00    -0.000 C 
BRANCH  28  29
ATOM     29  C   UNL     1       3.867 -38.560  14.293  1.00  0.00    -0.003 C 
ATOM     30  C   UNL     1       5.054 -39.429  13.882  1.00  0.00     0.004 C 
ENDBRANCH  28  29
ENDBRANCH  27  28
ENDBRANCH  26  27
ENDBRANCH  25  26
ENDBRANCH  24  25
ENDBRANCH  23  24
ENDBRANCH  22  23
ENDBRANCH  21  22
ENDBRANCH  20  21
ENDBRANCH  19  20
ENDBRANCH  18  19
ENDBRANCH  17  18
ENDBRANCH   1  17
TORSDOF 26
ENDMDL
MODEL 2
REMARK VINA RESULT:     5.415      3.006      9.280
REMARK INTER + INTRA:          13.787
REMARK INTER:                  14.961
REMARK INTRA:                  -1.174
REMARK UNBOUND:                 0.142
REMARK SMILES CCCCCCCCCCCCCCCCCCCCCCCCCCCC(=O)[O-]
REMARK SMILES IDX 15 1 16 2 17 3 18 4 19 5 20 6 21 7 22 8 23 9 24 10 25 11
REMARK SMILES IDX 26 12 27 13 28 14 29 15 30 16 14 17 13 18 12 19 11 20 10 21
REMARK SMILES IDX 9 22 8 23 7 24 6 25 5 26 4 27 3 28 2 29 1 30
REMARK H PARENT
REMARK Flexibility Score: inf
ROOT
ATOM      1  C   UNL     1       2.954 -36.395  21.344  1.00  0.00     0.000 C 
ENDROOT
BRANCH   1   2
ATOM      2  C   UNL     1       3.687 -37.020  20.144  1.00  0.00     0.000 C 
BRANCH   2   3
ATOM      3  C   UNL     1       5.206 -37.110  20.352  1.00  0.00     0.000 C 
BRANCH   3   4
ATOM      4  C   UNL     1       5.891 -35.725  20.316  1.00  0.00     0.000 C 
BRANCH   4   5
ATOM      5  C   UNL     1       6.030 -35.149  18.897  1.00  0.00     0.000 C 
BRANCH   5   6
ATOM      6  C   UNL     1       4.853 -34.251  18.472  1.00  0.00     0.000 C 
BRANCH   6   7
ATOM      7  C   UNL     1       4.095 -34.781  17.233  1.00  0.00     0.000 C 
BRANCH   7   8
ATOM      8  C   UNL     1       4.085 -36.316  17.165  1.00  0.00     0.000 C 
BRANCH   8   9
ATOM      9  C   UNL     1       4.089 -36.847  15.722  1.00  0.00     0.000 C 
BRANCH   9  10
ATOM     10  C   UNL     1       3.017 -36.190  14.822  1.00  0.00     0.000 C 
BRANCH  10  11
ATOM     11  C   UNL     1       1.580 -36.387  15.340  1.00  0.00     0.000 C 
BRANCH  11  12
ATOM     12  C   UNL     1       1.526 -37.307  16.573  1.00  0.00     0.006 C 
BRANCH  12  13
ATOM     13  C   UNL     1       0.608 -36.750  17.671  1.00  0.00     0.053 C 
BRANCH  13  14
ATOM     14  C   UNL     1       0.581 -37.628  18.887  1.00  0.00     0.041 C 
ATOM     15  O   UNL     1       0.282 -37.143  20.011  1.00  0.00    -0.550 OA
ATOM     16  O   UNL     1       0.912 -38.975  18.787  1.00  0.00    -0.550 OA
ENDBRANCH  13  14
ENDBRANCH  12  13
ENDBRANCH  11  12
ENDBRANCH  10  11
ENDBRANCH   9  10
ENDBRANCH   8   9
ENDBRANCH   7   8
ENDBRANCH   6   7
ENDBRANCH   5   6
ENDBRANCH   4   5
ENDBRANCH   3   4
ENDBRANCH   2   3
ENDBRANCH   1   2
BRANCH   1  17
ATOM     17  C   UNL     1       2.776 -34.866  21.233  1.00  0.00     0.000 C 
BRANCH  17  18
ATOM     18  C   UNL     1       3.390 -34.117  22.428  1.00  0.00     0.000 C 
BRANCH  18  19
ATOM     19  C   UNL     1       4.866 -33.745  22.203  1.00  0.00     0.000 C 
BRANCH  19  20
ATOM     20  C   UNL     1       5.708 -33.621  23.486  1.00  0.00     0.000 C 
BRANCH  20  21
ATOM     21  C   UNL     1       6.122 -34.984  24.063  1.00  0.00     0.000 C 
BRANCH  21  22
ATOM     22  C   UNL     1       6.102 -34.971  25.596  1.00  0.00    -0.000 C 
BRANCH  22  23
ATOM     23  C   UNL     1       6.058 -36.398  26.151  1.00  0.00    -0.000 C 
BRANCH  23  24
ATOM     24  C   UNL     1       5.565 -37.393  25.089  1.00  0.00    -0.000 C 
BRANCH  24  25
ATOM     25  C   UNL     1       4.223 -38.031  25.478  1.00  0.00    -0.000 C 
BRANCH  25  26
ATOM     26  C   UNL     1       3.610 -37.409  26.754  1.00  0.00    -0.000 C 
BRANCH  26  27
ATOM     27  C   UNL     1       2.170 -37.883  27.012  1.00  0.00    -0.000 C 
BRANCH  27  28
ATOM     28  C   UNL     1       1.327 -36.817  27.728  1.00  0.00    -0.000 C 
BRANCH  28  29
ATOM     29  C   UNL     1       2.155 -35.556  27.999  1.00  0.00    -0.003 C 
ATOM     30  C   UNL     1       1.570 -34.753  29.158  1.00  0.00     0.004 C 
ENDBRANCH  28  29
ENDBRANCH  27  28
ENDBRANCH  26  27
ENDBRANCH  25  26
ENDBRANCH  24  25
ENDBRANCH  23  24
ENDBRANCH  22  23
ENDBRANCH  21  22
ENDBRANCH  20  21
ENDBRANCH  19  20
ENDBRANCH  18  19
ENDBRANCH  17  18
ENDBRANCH   1  17
TORSDOF 26
ENDMDL
MODEL 3
REMARK VINA RESULT:     5.599      1.302      2.636
REMARK INTER + INTRA:          14.250
REMARK INTER:                  14.366
REMARK INTRA:                  -0.116
REMARK UNBOUND:                 0.142
REMARK SMILES CCCCCCCCCCCCCCCCCCCCCCCCCCCC(=O)[O-]
REMARK SMILES IDX 15 1 16 2 17 3 18 4 19 5 20 6 21 7 22 8 23 9 24 10 25 11
REMARK SMILES IDX 26 12 27 13 28 14 29 15 30 16 14 17 13 18 12 19 11 20 10 21
REMARK SMILES IDX 9 22 8 23 7 24 6 25 5 26 4 27 3 28 2 29 1 30
REMARK H PARENT
REMARK Flexibility Score: inf
ROOT
ATOM      1  C   UNL     1       5.288 -35.808  23.843  1.00  0.00     0.000 C 
ENDROOT
BRANCH   1   2
ATOM      2  C   UNL     1       6.125 -37.035  23.439  1.00  0.00     0.000 C 
BRANCH   2   3
ATOM      3  C   UNL     1       6.074 -37.325  21.932  1.00  0.00     0.000 C 
BRANCH   3   4
ATOM      4  C   UNL     1       5.282 -38.611  21.603  1.00  0.00     0.000 C 
BRANCH   4   5
ATOM      5  C   UNL     1       5.986 -39.897  22.067  1.00  0.00     0.000 C 
BRANCH   5   6
ATOM      6  C   UNL     1       5.204 -40.684  23.135  1.00  0.00     0.000 C 
BRANCH   6   7
ATOM      7  C   UNL     1       5.368 -40.110  24.561  1.00  0.00     0.000 C 
BRANCH   7   8
ATOM      8  C   UNL     1       4.135 -39.317  25.018  1.00  0.00     0.000 C 
BRANCH   8   9
ATOM      9  C   UNL     1       4.460 -38.297  26.123  1.00  0.00     0.000 C 
BRANCH   9  10
ATOM     10  C   UNL     1       3.390 -37.191  26.272  1.00  0.00     0.000 C 
BRANCH  10  11
ATOM     11  C   UNL     1       2.498 -37.367  27.515  1.00  0.00     0.000 C 
BRANCH  11  12
ATOM     12  C   UNL     1       1.532 -36.185  27.712  1.00  0.00     0.006 C 
BRANCH  12  13
ATOM     13  C   UNL     1       2.205 -34.998  28.417  1.00  0.00     0.053 C 
BRANCH  13  14
ATOM     14  C   UNL     1       1.352 -34.433  29.514  1.00  0.00     0.041 C 
ATOM     15  O   UNL     1       0.134 -34.186  29.306  1.00  0.00    -0.550 OA
ATOM     16  O   UNL     1       1.907 -34.152  30.759  1.00  0.00    -0.550 OA
ENDBRANCH  13  14
ENDBRANCH  12  13
ENDBRANCH  11  12
ENDBRANCH  10  11
ENDBRANCH   9  10
ENDBRANCH   8   9
ENDBRANCH   7   8
ENDBRANCH   6   7
ENDBRANCH   5   6
ENDBRANCH   4   5
ENDBRANCH   3   4
ENDBRANCH   2   3
ENDBRANCH   1   2
BRANCH   1  17
ATOM     17  C   UNL     1       5.356 -34.651  22.824  1.00  0.00     0.000 C 
BRANCH  17  18
ATOM     18  C   UNL     1       4.044 -34.483  22.039  1.00  0.00     0.000 C 
BRANCH  18  19
ATOM     19  C   UNL     1       4.245 -34.583  20.517  1.00  0.00     0.000 C 
BRANCH  19  20
ATOM     20  C   UNL     1       5.328 -35.582  20.069  1.00  0.00     0.000 C 
BRANCH  20  21
ATOM     21  C   UNL     1       5.955 -35.216  18.715  1.00  0.00     0.000 C 
BRANCH  21  22
ATOM     22  C   UNL     1       5.191 -34.074  18.036  1.00  0.00    -0.000 C 
BRANCH  22  23
ATOM     23  C   UNL     1       3.977 -34.611  17.272  1.00  0.00    -0.000 C 
BRANCH  23  24
ATOM     24  C   UNL     1       4.041 -36.140  17.130  1.00  0.00    -0.000 C 
BRANCH  24  25
ATOM     25  C   UNL     1       3.617 -36.605  15.729  1.00  0.00    -0.000 C 
BRANCH  25  26
ATOM     26  C   UNL     1       2.164 -36.211  15.379  1.00  0.00    -0.000 C 
BRANCH  26  27
ATOM     27  C   UNL     1       1.154 -36.656  16.449  1.00  0.00    -0.000 C 
BRANCH  27  28
ATOM     28  C   UNL     1       1.781 -37.610  17.479  1.00  0.00    -0.000 C 
BRANCH  28  29
ATOM     29  C   UNL     1       1.200 -37.365  18.876  1.00  0.00    -0.003 C 
ATOM     30  C   UNL     1       2.236 -37.654  19.960  1.00  0.00     0.004 C 
ENDBRANCH  28  29
ENDBRANCH  27  28
ENDBRANCH  26  27
ENDBRANCH  25  26
ENDBRANCH  24  25
ENDBRANCH  23  24
ENDBRANCH  22  23
ENDBRANCH  21  22
ENDBRANCH  20  21
ENDBRANCH  19  20
ENDBRANCH  18  19
ENDBRANCH  17  18
ENDBRANCH   1  17
TORSDOF 26
ENDMDL
MODEL 4
REMARK VINA RESULT:     5.605      4.765      8.326
REMARK INTER + INTRA:          14.266
REMARK INTER:                  15.099
REMARK INTRA:                  -0.833
REMARK UNBOUND:                 0.142
REMARK SMILES CCCCCCCCCCCCCCCCCCCCCCCCCCCC(=O)[O-]
REMARK SMILES IDX 15 1 16 2 17 3 18 4 19 5 20 6 21 7 22 8 23 9 24 10 25 11
REMARK SMILES IDX 26 12 27 13 28 14 29 15 30 16 14 17 13 18 12 19 11 20 10 21
REMARK SMILES IDX 9 22 8 23 7 24 6 25 5 26 4 27 3 28 2 29 1 30
REMARK H PARENT
REMARK Flexibility Score: inf
ROOT
ATOM      1  C   UNL     1       6.118 -36.339  24.484  1.00  0.00     0.000 C 
ENDROOT
BRANCH   1   2
ATOM      2  C   UNL     1       5.040 -35.282  24.181  1.00  0.00     0.000 C 
BRANCH   2   3
ATOM      3  C   UNL     1       5.616 -33.868  24.023  1.00  0.00     0.000 C 
BRANCH   3   4
ATOM      4  C   UNL     1       5.891 -33.502  22.547  1.00  0.00     0.000 C 
BRANCH   4   5
ATOM      5  C   UNL     1       5.941 -34.725  21.615  1.00  0.00     0.000 C 
BRANCH   5   6
ATOM      6  C   UNL     1       6.125 -34.367  20.129  1.00  0.00     0.000 C 
BRANCH   6   7
ATOM      7  C   UNL     1       5.562 -35.439  19.167  1.00  0.00     0.000 C 
BRANCH   7   8
ATOM      8  C   UNL     1       5.303 -34.884  17.758  1.00  0.00     0.000 C 
BRANCH   8   9
ATOM      9  C   UNL     1       3.989 -34.092  17.663  1.00  0.00     0.000 C 
BRANCH   9  10
ATOM     10  C   UNL     1       2.792 -34.942  17.178  1.00  0.00     0.000 C 
BRANCH  10  11
ATOM     11  C   UNL     1       2.754 -35.128  15.650  1.00  0.00     0.000 C 
BRANCH  11  12
ATOM     12  C   UNL     1       2.325 -36.550  15.247  1.00  0.00     0.006 C 
BRANCH  12  13
ATOM     13  C   UNL     1       2.914 -36.971  13.893  1.00  0.00     0.053 C 
BRANCH  13  14
ATOM     14  C   UNL     1       4.104 -37.872  14.047  1.00  0.00     0.041 C 
ATOM     15  O   UNL     1       3.943 -39.094  14.308  1.00  0.00    -0.550 OA
ATOM     16  O   UNL     1       5.392 -37.359  13.930  1.00  0.00    -0.550 OA
ENDBRANCH  13  14
ENDBRANCH  12  13
ENDBRANCH  11  12
ENDBRANCH  10  11
ENDBRANCH   9  10
ENDBRANCH   8   9
ENDBRANCH   7   8
ENDBRANCH   6   7
ENDBRANCH   5   6
ENDBRANCH   4   5
ENDBRANCH   3   4
ENDBRANCH   2   3
ENDBRANCH   1   2
BRANCH   1  17
ATOM     17  C   UNL     1       5.862 -37.127  25.786  1.00  0.00     0.000 C 
BRANCH  17  18
ATOM     18  C   UNL     1       4.897 -38.306  25.577  1.00  0.00     0.000 C 
BRANCH  18  19
ATOM     19  C   UNL     1       4.781 -38.726  24.101  1.00  0.00     0.000 C 
BRANCH  19  20
ATOM     20  C   UNL     1       5.817 -39.766  23.637  1.00  0.00     0.000 C 
BRANCH  20  21
ATOM     21  C   UNL     1       5.365 -40.547  22.394  1.00  0.00     0.000 C 
BRANCH  21  22
ATOM     22  C   UNL     1       5.874 -39.891  21.106  1.00  0.00    -0.000 C 
BRANCH  22  23
ATOM     23  C   UNL     1       5.974 -38.372  21.274  1.00  0.00    -0.000 C 
BRANCH  23  24
ATOM     24  C   UNL     1       4.752 -37.663  20.669  1.00  0.00    -0.000 C 
BRANCH  24  25
ATOM     25  C   UNL     1       4.544 -38.034  19.194  1.00  0.00    -0.000 C 
BRANCH  25  26
ATOM     26  C   UNL     1       3.054 -38.037  18.780  1.00  0.00    -0.000 C 
BRANCH  26  27
ATOM     27  C   UNL     1       2.208 -37.051  19.601  1.00  0.00    -0.000 C 
BRANCH  27  28
ATOM     28  C   UNL     1       0.771 -37.555  19.812  1.00  0.00    -0.000 C 
BRANCH  28  29
ATOM     29  C   UNL     1      -0.173 -36.977  18.752  1.00  0.00    -0.003 C 
ATOM     30  C   UNL     1       0.008 -37.684  17.411  1.00  0.00     0.004 C 
ENDBRANCH  28  29
ENDBRANCH  27  28
ENDBRANCH  26  27
ENDBRANCH  25  26
ENDBRANCH  24  25
ENDBRANCH  23  24
ENDBRANCH  22  23
ENDBRANCH  21  22
ENDBRANCH  20  21
ENDBRANCH  19  20
ENDBRANCH  18  19
ENDBRANCH  17  18
ENDBRANCH   1  17
TORSDOF 26
ENDMDL
MODEL 5
REMARK VINA RESULT:     5.637      3.232      8.175
REMARK INTER + INTRA:          14.346
REMARK INTER:                  14.119
REMARK INTRA:                   0.227
REMARK UNBOUND:                 0.142
REMARK SMILES CCCCCCCCCCCCCCCCCCCCCCCCCCCC(=O)[O-]
REMARK SMILES IDX 15 1 16 2 17 3 18 4 19 5 20 6 21 7 22 8 23 9 24 10 25 11
REMARK SMILES IDX 26 12 27 13 28 14 29 15 30 16 14 17 13 18 12 19 11 20 10 21
REMARK SMILES IDX 9 22 8 23 7 24 6 25 5 26 4 27 3 28 2 29 1 30
REMARK H PARENT
REMARK Flexibility Score: inf
ROOT
ATOM      1  C   UNL     1       3.598 -36.614  21.521  1.00  0.00     0.000 C 
ENDROOT
BRANCH   1   2
ATOM      2  C   UNL     1       4.821 -37.271  20.856  1.00  0.00     0.000 C 
BRANCH   2   3
ATOM      3  C   UNL     1       5.105 -36.722  19.451  1.00  0.00     0.000 C 
BRANCH   3   4
ATOM      4  C   UNL     1       6.088 -35.530  19.469  1.00  0.00     0.000 C 
BRANCH   4   5
ATOM      5  C   UNL     1       5.587 -34.314  18.671  1.00  0.00     0.000 C 
BRANCH   5   6
ATOM      6  C   UNL     1       4.200 -34.518  18.032  1.00  0.00     0.000 C 
BRANCH   6   7
ATOM      7  C   UNL     1       4.267 -35.013  16.569  1.00  0.00     0.000 C 
BRANCH   7   8
ATOM      8  C   UNL     1       4.130 -36.539  16.461  1.00  0.00     0.000 C 
BRANCH   8   9
ATOM      9  C   UNL     1       3.949 -37.018  15.011  1.00  0.00     0.000 C 
BRANCH   9  10
ATOM     10  C   UNL     1       2.532 -36.758  14.450  1.00  0.00     0.000 C 
BRANCH  10  11
ATOM     11  C   UNL     1       1.537 -36.253  15.511  1.00  0.00     0.000 C 
BRANCH  11  12
ATOM     12  C   UNL     1       1.295 -37.288  16.624  1.00  0.00     0.006 C 
BRANCH  12  13
ATOM     13  C   UNL     1       1.162 -36.633  18.006  1.00  0.00     0.053 C 
BRANCH  13  14
ATOM     14  C   UNL     1       1.051 -37.647  19.107  1.00  0.00     0.041 C 
ATOM     15  O   UNL     1       1.342 -38.853  18.887  1.00  0.00    -0.550 OA
ATOM     16  O   UNL     1       0.601 -37.266  20.367  1.00  0.00    -0.550 OA
ENDBRANCH  13  14
ENDBRANCH  12  13
ENDBRANCH  11  12
ENDBRANCH  10  11
ENDBRANCH   9  10
ENDBRANCH   8   9
ENDBRANCH   7   8
ENDBRANCH   6   7
ENDBRANCH   5   6
ENDBRANCH   4   5
ENDBRANCH   3   4
ENDBRANCH   2   3
ENDBRANCH   1   2
BRANCH   1  17
ATOM     17  C   UNL     1       3.406 -35.132  21.135  1.00  0.00     0.000 C 
BRANCH  17  18
ATOM     18  C   UNL     1       3.990 -34.172  22.185  1.00  0.00     0.000 C 
BRANCH  18  19
ATOM     19  C   UNL     1       5.516 -34.308  22.331  1.00  0.00     0.000 C 
BRANCH  19  20
ATOM     20  C   UNL     1       5.979 -35.310  23.405  1.00  0.00     0.000 C 
BRANCH  20  21
ATOM     21  C   UNL     1       5.910 -34.735  24.828  1.00  0.00     0.000 C 
BRANCH  21  22
ATOM     22  C   UNL     1       6.052 -35.838  25.884  1.00  0.00    -0.000 C 
BRANCH  22  23
ATOM     23  C   UNL     1       4.977 -36.913  25.694  1.00  0.00    -0.000 C 
BRANCH  23  24
ATOM     24  C   UNL     1       5.423 -37.973  24.675  1.00  0.00    -0.000 C 
BRANCH  24  25
ATOM     25  C   UNL     1       4.355 -39.056  24.468  1.00  0.00    -0.000 C 
BRANCH  25  26
ATOM     26  C   UNL     1       4.960 -40.454  24.205  1.00  0.00    -0.000 C 
BRANCH  26  27
ATOM     27  C   UNL     1       6.125 -40.418  23.201  1.00  0.00    -0.000 C 
BRANCH  27  28
ATOM     28  C   UNL     1       5.747 -39.695  21.899  1.00  0.00    -0.000 C 
BRANCH  28  29
ATOM     29  C   UNL     1       5.809 -40.653  20.704  1.00  0.00    -0.003 C 
ATOM     30  C   UNL     1       6.049 -42.089  21.163  1.00  0.00     0.004 C 
ENDBRANCH  28  29
ENDBRANCH  27  28
ENDBRANCH  26  27
ENDBRANCH  25  26
ENDBRANCH  24  25
ENDBRANCH  23  24
ENDBRANCH  22  23
ENDBRANCH  21  22
ENDBRANCH  20  21
ENDBRANCH  19  20
ENDBRANCH  18  19
ENDBRANCH  17  18
ENDBRANCH   1  17
TORSDOF 26
ENDMDL
MODEL 6
REMARK VINA RESULT:     5.847      1.991      5.759
REMARK INTER + INTRA:          14.875
REMARK INTER:                  16.782
REMARK INTRA:                  -1.906
REMARK UNBOUND:                 0.142
REMARK SMILES CCCCCCCCCCCCCCCCCCCCCCCCCCCC(=O)[O-]
REMARK SMILES IDX 15 1 16 2 17 3 18 4 19 5 20 6 21 7 22 8 23 9 24 10 25 11
REMARK SMILES IDX 26 12 27 13 28 14 29 15 30 16 14 17 13 18 12 19 11 20 10 21
REMARK SMILES IDX 9 22 8 23 7 24 6 25 5 26 4 27 3 28 2 29 1 30
REMARK H PARENT
REMARK Flexibility Score: inf
ROOT
ATOM      1  C   UNL     1       3.789 -34.341  16.863  1.00  0.00     0.000 C 
ENDROOT
BRANCH   1   2
ATOM      2  C   UNL     1       4.856 -35.103  17.668  1.00  0.00     0.000 C 
BRANCH   2   3
ATOM      3  C   UNL     1       6.069 -34.234  18.028  1.00  0.00     0.000 C 
BRANCH   3   4
ATOM      4  C   UNL     1       6.124 -33.889  19.534  1.00  0.00     0.000 C 
BRANCH   4   5
ATOM      5  C   UNL     1       4.739 -33.627  20.150  1.00  0.00     0.000 C 
BRANCH   5   6
ATOM      6  C   UNL     1       4.415 -34.526  21.358  1.00  0.00     0.000 C 
BRANCH   6   7
ATOM      7  C   UNL     1       5.067 -34.041  22.673  1.00  0.00     0.000 C 
BRANCH   7   8
ATOM      8  C   UNL     1       5.723 -35.186  23.458  1.00  0.00     0.000 C 
BRANCH   8   9
ATOM      9  C   UNL     1       5.824 -34.893  24.965  1.00  0.00     0.000 C 
BRANCH   9  10
ATOM     10  C   UNL     1       5.008 -35.873  25.838  1.00  0.00     0.000 C 
BRANCH  10  11
ATOM     11  C   UNL     1       5.303 -37.354  25.533  1.00  0.00     0.000 C 
BRANCH  11  12
ATOM     12  C   UNL     1       4.142 -38.276  25.944  1.00  0.00     0.006 C 
BRANCH  12  13
ATOM     13  C   UNL     1       3.616 -37.954  27.351  1.00  0.00     0.053 C 
BRANCH  13  14
ATOM     14  C   UNL     1       2.185 -37.503  27.332  1.00  0.00     0.041 C 
ATOM     15  O   UNL     1       1.274 -38.302  26.988  1.00  0.00    -0.550 OA
ATOM     16  O   UNL     1       1.860 -36.192  27.668  1.00  0.00    -0.550 OA
ENDBRANCH  13  14
ENDBRANCH  12  13
ENDBRANCH  11  12
ENDBRANCH  10  11
ENDBRANCH   9  10
ENDBRANCH   8   9
ENDBRANCH   7   8
ENDBRANCH   6   7
ENDBRANCH   5   6
ENDBRANCH   4   5
ENDBRANCH   3   4
ENDBRANCH   2   3
ENDBRANCH   1   2
BRANCH   1  17
ATOM     17  C   UNL     1       2.602 -35.222  16.418  1.00  0.00     0.000 C 
BRANCH  17  18
ATOM     18  C   UNL     1       2.984 -36.190  15.285  1.00  0.00     0.000 C 
BRANCH  18  19
ATOM     19  C   UNL     1       3.057 -37.654  15.754  1.00  0.00     0.000 C 
BRANCH  19  20
ATOM     20  C   UNL     1       3.448 -37.845  17.232  1.00  0.00     0.000 C 
BRANCH  20  21
ATOM     21  C   UNL     1       2.270 -38.295  18.109  1.00  0.00     0.000 C 
BRANCH  21  22
ATOM     22  C   UNL     1       2.562 -38.067  19.597  1.00  0.00    -0.000 C 
BRANCH  22  23
ATOM     23  C   UNL     1       3.680 -37.035  19.779  1.00  0.00    -0.000 C 
BRANCH  23  24
ATOM     24  C   UNL     1       4.840 -37.611  20.604  1.00  0.00    -0.000 C 
BRANCH  24  25
ATOM     25  C   UNL     1       5.385 -38.913  20.000  1.00  0.00    -0.000 C 
BRANCH  25  26
ATOM     26  C   UNL     1       5.784 -39.953  21.073  1.00  0.00    -0.000 C 
BRANCH  26  27
ATOM     27  C   UNL     1       5.701 -39.392  22.503  1.00  0.00    -0.000 C 
BRANCH  27  28
ATOM     28  C   UNL     1       5.705 -40.504  23.564  1.00  0.00    -0.000 C 
BRANCH  28  29
ATOM     29  C   UNL     1       6.115 -41.847  22.948  1.00  0.00    -0.003 C 
ATOM     30  C   UNL     1       6.114 -42.955  23.997  1.00  0.00     0.004 C 
ENDBRANCH  28  29
ENDBRANCH  27  28
ENDBRANCH  26  27
ENDBRANCH  25  26
ENDBRANCH  24  25
ENDBRANCH  23  24
ENDBRANCH  22  23
ENDBRANCH  21  22
ENDBRANCH  20  21
ENDBRANCH  19  20
ENDBRANCH  18  19
ENDBRANCH  17  18
ENDBRANCH   1  17
TORSDOF 26
ENDMDL
MODEL 7
REMARK VINA RESULT:     5.982      3.086      9.165
REMARK INTER + INTRA:          15.216
REMARK INTER:                  15.684
REMARK INTRA:                  -0.468
REMARK UNBOUND:                 0.142
REMARK SMILES CCCCCCCCCCCCCCCCCCCCCCCCCCCC(=O)[O-]
REMARK SMILES IDX 15 1 16 2 17 3 18 4 19 5 20 6 21 7 22 8 23 9 24 10 25 11
REMARK SMILES IDX 26 12 27 13 28 14 29 15 30 16 14 17 13 18 12 19 11 20 10 21
REMARK SMILES IDX 9 22 8 23 7 24 6 25 5 26 4 27 3 28 2 29 1 30
REMARK H PARENT
REMARK Flexibility Score: inf
ROOT
ATOM      1  C   UNL     1       5.994 -35.391  19.893  1.00  0.00     0.000 C 
ENDROOT
BRANCH   1   2
ATOM      2  C   UNL     1       5.883 -34.622  18.565  1.00  0.00     0.000 C 
BRANCH   2   3
ATOM      3  C   UNL     1       4.455 -34.606  18.000  1.00  0.00     0.000 C 
BRANCH   3   4
ATOM      4  C   UNL     1       4.191 -35.776  17.025  1.00  0.00     0.000 C 
BRANCH   4   5
ATOM      5  C   UNL     1       2.857 -35.651  16.270  1.00  0.00     0.000 C 
BRANCH   5   6
ATOM      6  C   UNL     1       1.708 -36.461  16.901  1.00  0.00     0.000 C 
BRANCH   6   7
ATOM      7  C   UNL     1       2.149 -37.854  17.407  1.00  0.00     0.000 C 
BRANCH   7   8
ATOM      8  C   UNL     1       1.470 -38.238  18.730  1.00  0.00     0.000 C 
BRANCH   8   9
ATOM      9  C   UNL     1       2.180 -37.643  19.957  1.00  0.00     0.000 C 
BRANCH   9  10
ATOM     10  C   UNL     1       3.721 -37.643  19.836  1.00  0.00     0.000 C 
BRANCH  10  11
ATOM     11  C   UNL     1       4.423 -38.416  20.968  1.00  0.00     0.000 C 
BRANCH  11  12
ATOM     12  C   UNL     1       5.833 -38.885  20.568  1.00  0.00     0.006 C 
BRANCH  12  13
ATOM     13  C   UNL     1       6.104 -40.336  20.993  1.00  0.00     0.053 C 
BRANCH  13  14
ATOM     14  C   UNL     1       5.587 -40.629  22.371  1.00  0.00     0.041 C 
ATOM     15  O   UNL     1       4.679 -39.913  22.872  1.00  0.00    -0.550 OA
ATOM     16  O   UNL     1       6.124 -41.676  23.112  1.00  0.00    -0.550 OA
ENDBRANCH  13  14
ENDBRANCH  12  13
ENDBRANCH  11  12
ENDBRANCH  10  11
ENDBRANCH   9  10
ENDBRANCH   8   9
ENDBRANCH   7   8
ENDBRANCH   6   7
ENDBRANCH   5   6
ENDBRANCH   4   5
ENDBRANCH   3   4
ENDBRANCH   2   3
ENDBRANCH   1   2
BRANCH   1  17
ATOM     17  C   UNL     1       4.772 -35.208  20.818  1.00  0.00     0.000 C 
BRANCH  17  18
ATOM     18  C   UNL     1       5.030 -34.180  21.933  1.00  0.00     0.000 C 
BRANCH  18  19
ATOM     19  C   UNL     1       5.334 -34.838  23.290  1.00  0.00     0.000 C 
BRANCH  19  20
ATOM     20  C   UNL     1       6.124 -36.158  23.211  1.00  0.00     0.000 C 
BRANCH  20  21
ATOM     21  C   UNL     1       5.958 -37.030  24.464  1.00  0.00     0.000 C 
BRANCH  21  22
ATOM     22  C   UNL     1       4.480 -37.203  24.833  1.00  0.00    -0.000 C 
BRANCH  22  23
ATOM     23  C   UNL     1       4.332 -37.640  26.293  1.00  0.00    -0.000 C 
BRANCH  23  24
ATOM     24  C   UNL     1       2.880 -38.025  26.615  1.00  0.00    -0.000 C 
BRANCH  24  25
ATOM     25  C   UNL     1       2.340 -37.265  27.834  1.00  0.00    -0.000 C 
BRANCH  25  26
ATOM     26  C   UNL     1       2.198 -35.746  27.581  1.00  0.00    -0.000 C 
BRANCH  26  27
ATOM     27  C   UNL     1       1.794 -34.968  28.844  1.00  0.00    -0.000 C 
BRANCH  27  28
ATOM     28  C   UNL     1       0.571 -34.069  28.606  1.00  0.00    -0.000 C 
BRANCH  28  29
ATOM     29  C   UNL     1      -0.348 -34.059  29.833  1.00  0.00    -0.003 C 
ATOM     30  C   UNL     1      -1.815 -34.142  29.422  1.00  0.00     0.004 C 
ENDBRANCH  28  29
ENDBRANCH  27  28
ENDBRANCH  26  27
ENDBRANCH  25  26
ENDBRANCH  24  25
ENDBRANCH  23  24
ENDBRANCH  22  23
ENDBRANCH  21  22
ENDBRANCH  20  21
ENDBRANCH  19  20
ENDBRANCH  18  19
ENDBRANCH  17  18
ENDBRANCH   1  17
TORSDOF 26
ENDMDL
MODEL 8
REMARK VINA RESULT:     6.022      2.969      9.336
REMARK INTER + INTRA:          15.317
REMARK INTER:                  14.632
REMARK INTRA:                   0.685
REMARK UNBOUND:                 0.142
REMARK SMILES CCCCCCCCCCCCCCCCCCCCCCCCCCCC(=O)[O-]
REMARK SMILES IDX 15 1 16 2 17 3 18 4 19 5 20 6 21 7 22 8 23 9 24 10 25 11
REMARK SMILES IDX 26 12 27 13 28 14 29 15 30 16 14 17 13 18 12 19 11 20 10 21
REMARK SMILES IDX 9 22 8 23 7 24 6 25 5 26 4 27 3 28 2 29 1 30
REMARK H PARENT
REMARK Flexibility Score: inf
ROOT
ATOM      1  C   UNL     1       4.810 -36.879  21.234  1.00  0.00     0.000 C 
ENDROOT
BRANCH   1   2
ATOM      2  C   UNL     1       6.119 -36.499  21.949  1.00  0.00     0.000 C 
BRANCH   2   3
ATOM      3  C   UNL     1       6.017 -35.176  22.722  1.00  0.00     0.000 C 
BRANCH   3   4
ATOM      4  C   UNL     1       4.556 -34.705  22.898  1.00  0.00     0.000 C 
BRANCH   4   5
ATOM      5  C   UNL     1       4.016 -33.927  21.686  1.00  0.00     0.000 C 
BRANCH   5   6
ATOM      6  C   UNL     1       4.071 -34.717  20.365  1.00  0.00     0.000 C 
BRANCH   6   7
ATOM      7  C   UNL     1       5.287 -34.350  19.484  1.00  0.00     0.000 C 
BRANCH   7   8
ATOM      8  C   UNL     1       5.055 -34.675  18.001  1.00  0.00     0.000 C 
BRANCH   8   9
ATOM      9  C   UNL     1       4.088 -35.853  17.795  1.00  0.00     0.000 C 
BRANCH   9  10
ATOM     10  C   UNL     1       3.531 -35.946  16.355  1.00  0.00     0.000 C 
BRANCH  10  11
ATOM     11  C   UNL     1       2.447 -37.028  16.189  1.00  0.00     0.000 C 
BRANCH  11  12
ATOM     12  C   UNL     1       1.108 -36.615  16.826  1.00  0.00     0.006 C 
BRANCH  12  13
ATOM     13  C   UNL     1       0.548 -37.704  17.752  1.00  0.00     0.053 C 
BRANCH  13  14
ATOM     14  C   UNL     1       1.152 -37.648  19.124  1.00  0.00     0.041 C 
ATOM     15  O   UNL     1       2.328 -38.059  19.315  1.00  0.00    -0.550 OA
ATOM     16  O   UNL     1       0.409 -37.169  20.198  1.00  0.00    -0.550 OA
ENDBRANCH  13  14
ENDBRANCH  12  13
ENDBRANCH  11  12
ENDBRANCH  10  11
ENDBRANCH   9  10
ENDBRANCH   8   9
ENDBRANCH   7   8
ENDBRANCH   6   7
ENDBRANCH   5   6
ENDBRANCH   4   5
ENDBRANCH   3   4
ENDBRANCH   2   3
ENDBRANCH   1   2
BRANCH   1  17
ATOM     17  C   UNL     1       4.609 -38.402  21.081  1.00  0.00     0.000 C 
BRANCH  17  18
ATOM     18  C   UNL     1       5.929 -39.143  20.810  1.00  0.00     0.000 C 
BRANCH  18  19
ATOM     19  C   UNL     1       5.950 -40.559  21.412  1.00  0.00     0.000 C 
BRANCH  19  20
ATOM     20  C   UNL     1       5.467 -40.652  22.871  1.00  0.00     0.000 C 
BRANCH  20  21
ATOM     21  C   UNL     1       6.041 -39.542  23.764  1.00  0.00     0.000 C 
BRANCH  21  22
ATOM     22  C   UNL     1       4.927 -38.752  24.460  1.00  0.00    -0.000 C 
BRANCH  22  23
ATOM     23  C   UNL     1       5.507 -37.568  25.241  1.00  0.00    -0.000 C 
BRANCH  23  24
ATOM     24  C   UNL     1       4.603 -37.185  26.423  1.00  0.00    -0.000 C 
BRANCH  24  25
ATOM     25  C   UNL     1       3.149 -37.624  26.201  1.00  0.00    -0.000 C 
BRANCH  25  26
ATOM     26  C   UNL     1       2.325 -37.657  27.509  1.00  0.00    -0.000 C 
BRANCH  26  27
ATOM     27  C   UNL     1       1.327 -36.492  27.612  1.00  0.00    -0.000 C 
BRANCH  27  28
ATOM     28  C   UNL     1       1.979 -35.216  28.167  1.00  0.00    -0.000 C 
BRANCH  28  29
ATOM     29  C   UNL     1       1.077 -34.551  29.212  1.00  0.00    -0.003 C 
ATOM     30  C   UNL     1       1.894 -34.040  30.397  1.00  0.00     0.004 C 
ENDBRANCH  28  29
ENDBRANCH  27  28
ENDBRANCH  26  27
ENDBRANCH  25  26
ENDBRANCH  24  25
ENDBRANCH  23  24
ENDBRANCH  22  23
ENDBRANCH  21  22
ENDBRANCH  20  21
ENDBRANCH  19  20
ENDBRANCH  18  19
ENDBRANCH  17  18
ENDBRANCH   1  17
TORSDOF 26
ENDMDL
MODEL 9
REMARK VINA RESULT:     6.182      4.658      9.419
REMARK INTER + INTRA:          15.719
REMARK INTER:                  14.312
REMARK INTRA:                   1.407
REMARK UNBOUND:                 0.142
REMARK SMILES CCCCCCCCCCCCCCCCCCCCCCCCCCCC(=O)[O-]
REMARK SMILES IDX 15 1 16 2 17 3 18 4 19 5 20 6 21 7 22 8 23 9 24 10 25 11
REMARK SMILES IDX 26 12 27 13 28 14 29 15 30 16 14 17 13 18 12 19 11 20 10 21
REMARK SMILES IDX 9 22 8 23 7 24 6 25 5 26 4 27 3 28 2 29 1 30
REMARK H PARENT
REMARK Flexibility Score: inf
ROOT
ATOM      1  C   UNL     1       5.778 -36.147  22.126  1.00  0.00     0.000 C 
ENDROOT
BRANCH   1   2
ATOM      2  C   UNL     1       6.088 -37.430  21.334  1.00  0.00     0.000 C 
BRANCH   2   3
ATOM      3  C   UNL     1       4.830 -38.100  20.764  1.00  0.00     0.000 C 
BRANCH   3   4
ATOM      4  C   UNL     1       4.614 -37.778  19.267  1.00  0.00     0.000 C 
BRANCH   4   5
ATOM      5  C   UNL     1       3.282 -37.063  18.983  1.00  0.00     0.000 C 
BRANCH   5   6
ATOM      6  C   UNL     1       2.055 -37.992  19.033  1.00  0.00     0.000 C 
BRANCH   6   7
ATOM      7  C   UNL     1       0.790 -37.369  18.398  1.00  0.00     0.000 C 
BRANCH   7   8
ATOM      8  C   UNL     1       1.012 -36.958  16.935  1.00  0.00     0.000 C 
BRANCH   8   9
ATOM      9  C   UNL     1       1.704 -35.591  16.799  1.00  0.00     0.000 C 
BRANCH   9  10
ATOM     10  C   UNL     1       2.879 -35.593  15.794  1.00  0.00     0.000 C 
BRANCH  10  11
ATOM     11  C   UNL     1       2.457 -35.965  14.361  1.00  0.00     0.000 C 
BRANCH  11  12
ATOM     12  C   UNL     1       2.311 -37.486  14.172  1.00  0.00     0.006 C 
BRANCH  12  13
ATOM     13  C   UNL     1       3.290 -38.276  15.053  1.00  0.00     0.053 C 
BRANCH  13  14
ATOM     14  C   UNL     1       4.533 -38.668  14.310  1.00  0.00     0.041 C 
ATOM     15  O   UNL     1       5.403 -37.801  14.029  1.00  0.00    -0.550 OA
ATOM     16  O   UNL     1       4.719 -39.985  13.903  1.00  0.00    -0.550 OA
ENDBRANCH  13  14
ENDBRANCH  12  13
ENDBRANCH  11  12
ENDBRANCH  10  11
ENDBRANCH   9  10
ENDBRANCH   8   9
ENDBRANCH   7   8
ENDBRANCH   6   7
ENDBRANCH   5   6
ENDBRANCH   4   5
ENDBRANCH   3   4
ENDBRANCH   2   3
ENDBRANCH   1   2
BRANCH   1  17
ATOM     17  C   UNL     1       5.936 -34.854  21.298  1.00  0.00     0.000 C 
BRANCH  17  18
ATOM     18  C   UNL     1       5.595 -33.593  22.110  1.00  0.00     0.000 C 
BRANCH  18  19
ATOM     19  C   UNL     1       4.935 -33.916  23.462  1.00  0.00     0.000 C 
BRANCH  19  20
ATOM     20  C   UNL     1       5.898 -34.432  24.548  1.00  0.00     0.000 C 
BRANCH  20  21
ATOM     21  C   UNL     1       5.643 -35.899  24.926  1.00  0.00     0.000 C 
BRANCH  21  22
ATOM     22  C   UNL     1       4.613 -36.014  26.056  1.00  0.00    -0.000 C 
BRANCH  22  23
ATOM     23  C   UNL     1       4.579 -37.439  26.617  1.00  0.00    -0.000 C 
BRANCH  23  24
ATOM     24  C   UNL     1       3.902 -38.407  25.635  1.00  0.00    -0.000 C 
BRANCH  24  25
ATOM     25  C   UNL     1       4.823 -38.774  24.462  1.00  0.00    -0.000 C 
BRANCH  25  26
ATOM     26  C   UNL     1       4.292 -39.965  23.631  1.00  0.00    -0.000 C 
BRANCH  26  27
ATOM     27  C   UNL     1       5.169 -40.272  22.406  1.00  0.00    -0.000 C 
BRANCH  27  28
ATOM     28  C   UNL     1       5.797 -41.672  22.477  1.00  0.00    -0.000 C 
BRANCH  28  29
ATOM     29  C   UNL     1       5.103 -42.530  23.541  1.00  0.00    -0.003 C 
ATOM     30  C   UNL     1       5.845 -42.458  24.873  1.00  0.00     0.004 C 
ENDBRANCH  28  29
ENDBRANCH  27  28
ENDBRANCH  26  27
ENDBRANCH  25  26
ENDBRANCH  24  25
ENDBRANCH  23  24
ENDBRANCH  22  23
ENDBRANCH  21  22
ENDBRANCH  20  21
ENDBRANCH  19  20
ENDBRANCH  18  19
ENDBRANCH  17  18
ENDBRANCH   1  17
TORSDOF 26
ENDMDL
