MODEL 1
REMARK VINA RESULT:    -7.151      0.000      0.000
REMARK INTER + INTRA:         -10.963
REMARK INTER:                  -9.450
REMARK INTRA:                  -1.513
REMARK UNBOUND:                -1.513
REMARK SMILES CC[C@@H](C=C[C@@H](C)[C@H]1CC[C@H]2[C@H]3CC=C4C[C@H](O)CC[C@]4(C)[C@@H]3CC[C@@]12C)C(C)C
REMARK SMILES IDX 6 1 7 2 5 3 4 4 3 5 2 6 1 7 28 8 29 9 30 10 8 11 9 12 26 13
REMARK SMILES IDX 10 14 11 15 25 16 27 17 12 18 24 19 23 20 13 21 21 22 14 23
REMARK SMILES IDX 15 24 20 25 22 26 16 27 19 28 17 29 18 30
REMARK H PARENT 18 31
REMARK Flexibility Score: inf
ROOT
ATOM      1  C   UNL     1     127.227 128.224 133.443  1.00  0.00     0.012 C 
ATOM      2  C   UNL     1     128.429 128.446 132.508  1.00  0.00     0.012 C 
ENDROOT
BRANCH   1   3
ATOM      3  C   UNL     1     127.167 129.321 134.493  1.00  0.00    -0.028 C 
ATOM      4  C   UNL     1     126.522 130.498 134.363  1.00  0.00    -0.027 C 
BRANCH   4   5
ATOM      5  C   UNL     1     125.642 130.906 133.192  1.00  0.00     0.014 C 
BRANCH   5   6
ATOM      6  C   UNL     1     126.074 132.284 132.624  1.00  0.00     0.004 C 
ATOM      7  C   UNL     1     125.334 132.771 131.376  1.00  0.00     0.004 C 
ENDBRANCH   5   6
BRANCH   5   8
ATOM      8  C   UNL     1     124.125 130.715 133.512  1.00  0.00    -0.011 C 
ATOM      9  C   UNL     1     123.636 129.255 133.542  1.00  0.00     0.008 C 
ATOM     10  C   UNL     1     123.701 131.454 134.791  1.00  0.00     0.008 C 
ENDBRANCH   5   8
ENDBRANCH   4   5
ENDBRANCH   1   3
BRANCH   1  11
ATOM     11  C   UNL     1     127.087 126.793 134.078  1.00  0.00     0.002 C 
ATOM     12  C   UNL     1     126.425 126.827 135.463  1.00  0.00     0.005 C 
ATOM     13  C   UNL     1     126.429 125.576 133.340  1.00  0.00    -0.026 C 
ATOM     14  C   UNL     1     125.905 125.417 135.728  1.00  0.00     0.005 C 
ATOM     15  C   UNL     1     126.299 124.565 134.508  1.00  0.00    -0.001 C 
ATOM     16  C   UNL     1     125.016 125.887 132.765  1.00  0.00     0.007 C 
ATOM     17  C   UNL     1     127.350 125.008 132.231  1.00  0.00     0.012 C 
ATOM     18  C   UNL     1     125.381 123.330 134.233  1.00  0.00     0.000 C 
ATOM     19  C   UNL     1     124.233 124.628 132.389  1.00  0.00     0.005 C 
ATOM     20  C   UNL     1     124.020 123.697 133.605  1.00  0.00     0.003 C 
ATOM     21  C   UNL     1     125.142 122.524 135.518  1.00  0.00     0.031 C 
ATOM     22  C   UNL     1     123.139 122.415 133.279  1.00  0.00    -0.008 C 
ATOM     23  C   UNL     1     124.308 121.314 135.249  1.00  0.00    -0.027 C 
ATOM     24  C   UNL     1     123.362 121.272 134.288  1.00  0.00    -0.065 C 
ATOM     25  C   UNL     1     123.463 121.834 131.863  1.00  0.00     0.014 C 
ATOM     26  C   UNL     1     121.650 122.845 133.333  1.00  0.00     0.016 C 
ATOM     27  C   UNL     1     122.649 119.956 134.041  1.00  0.00     0.063 C 
ATOM     28  C   UNL     1     122.764 120.493 131.549  1.00  0.00     0.033 C 
ATOM     29  C   UNL     1     122.981 119.424 132.637  1.00  0.00     0.118 C 
BRANCH  29  30
ATOM     30  O   UNL     1     124.284 118.896 132.577  1.00  0.00    -0.393 OA
ATOM     31  H   UNL     1     124.218 117.907 132.579  1.00  0.00     0.210 HD
ENDBRANCH  29  30
ENDBRANCH   1  11
TORSDOF 6
ENDMDL
MODEL 2
REMARK VINA RESULT:    -7.102      2.829      8.306
REMARK INTER + INTRA:         -10.898
REMARK INTER:                  -9.361
REMARK INTRA:                  -1.537
REMARK UNBOUND:                -1.513
REMARK SMILES CC[C@@H](C=C[C@@H](C)[C@H]1CC[C@H]2[C@H]3CC=C4C[C@H](O)CC[C@]4(C)[C@@H]3CC[C@@]12C)C(C)C
REMARK SMILES IDX 6 1 7 2 5 3 4 4 3 5 2 6 1 7 28 8 29 9 30 10 8 11 9 12 26 13
REMARK SMILES IDX 10 14 11 15 25 16 27 17 12 18 24 19 23 20 13 21 21 22 14 23
REMARK SMILES IDX 15 24 20 25 22 26 16 27 19 28 17 29 18 30
REMARK H PARENT 18 31
REMARK Flexibility Score: inf
ROOT
ATOM      1  C   UNL     1     125.786 123.924 135.669  1.00  0.00     0.012 C 
ATOM      2  C   UNL     1     127.152 123.695 134.997  1.00  0.00     0.012 C 
ENDROOT
BRANCH   1   3
ATOM      3  C   UNL     1     125.087 122.595 135.907  1.00  0.00    -0.028 C 
ATOM      4  C   UNL     1     124.234 121.993 135.054  1.00  0.00    -0.027 C 
BRANCH   4   5
ATOM      5  C   UNL     1     123.894 122.469 133.650  1.00  0.00     0.014 C 
BRANCH   5   6
ATOM      6  C   UNL     1     122.369 122.710 133.498  1.00  0.00     0.004 C 
ATOM      7  C   UNL     1     121.946 124.060 132.911  1.00  0.00     0.004 C 
ENDBRANCH   5   6
BRANCH   5   8
ATOM      8  C   UNL     1     124.587 121.593 132.557  1.00  0.00    -0.011 C 
ATOM      9  C   UNL     1     123.636 120.931 131.543  1.00  0.00     0.008 C 
ATOM     10  C   UNL     1     125.712 122.347 131.832  1.00  0.00     0.008 C 
ENDBRANCH   5   8
ENDBRANCH   4   5
ENDBRANCH   1   3
BRANCH   1  11
ATOM     11  C   UNL     1     124.836 124.974 134.986  1.00  0.00     0.002 C 
ATOM     12  C   UNL     1     123.708 125.438 135.917  1.00  0.00     0.005 C 
ATOM     13  C   UNL     1     125.348 126.279 134.282  1.00  0.00    -0.026 C 
ATOM     14  C   UNL     1     123.198 126.762 135.353  1.00  0.00     0.005 C 
ATOM     15  C   UNL     1     124.014 127.040 134.077  1.00  0.00    -0.001 C 
ATOM     16  C   UNL     1     126.300 127.133 135.171  1.00  0.00     0.007 C 
ATOM     17  C   UNL     1     126.014 125.974 132.916  1.00  0.00     0.012 C 
ATOM     18  C   UNL     1     124.149 128.548 133.687  1.00  0.00     0.000 C 
ATOM     19  C   UNL     1     126.491 128.556 134.644  1.00  0.00     0.005 C 
ATOM     20  C   UNL     1     125.153 129.326 134.564  1.00  0.00     0.003 C 
ATOM     21  C   UNL     1     122.786 129.253 133.736  1.00  0.00     0.031 C 
ATOM     22  C   UNL     1     125.315 130.838 134.101  1.00  0.00    -0.008 C 
ATOM     23  C   UNL     1     122.903 130.682 133.314  1.00  0.00    -0.027 C 
ATOM     24  C   UNL     1     124.009 131.424 133.528  1.00  0.00    -0.065 C 
ATOM     25  C   UNL     1     126.403 130.989 132.987  1.00  0.00     0.014 C 
ATOM     26  C   UNL     1     125.730 131.666 135.345  1.00  0.00     0.016 C 
ATOM     27  C   UNL     1     124.049 132.831 132.965  1.00  0.00     0.063 C 
ATOM     28  C   UNL     1     126.494 132.404 132.374  1.00  0.00     0.033 C 
ATOM     29  C   UNL     1     125.137 132.945 131.885  1.00  0.00     0.118 C 
BRANCH  29  30
ATOM     30  O   UNL     1     124.745 132.321 130.686  1.00  0.00    -0.393 OA
ATOM     31  H   UNL     1     124.337 131.446 130.911  1.00  0.00     0.210 HD
ENDBRANCH  29  30
ENDBRANCH   1  11
TORSDOF 6
ENDMDL
MODEL 3
REMARK VINA RESULT:    -6.837      2.833      8.543
REMARK INTER + INTRA:         -10.547
REMARK INTER:                  -9.229
REMARK INTRA:                  -1.318
REMARK UNBOUND:                -1.513
REMARK SMILES CC[C@@H](C=C[C@@H](C)[C@H]1CC[C@H]2[C@H]3CC=C4C[C@H](O)CC[C@]4(C)[C@@H]3CC[C@@]12C)C(C)C
REMARK SMILES IDX 6 1 7 2 5 3 4 4 3 5 2 6 1 7 28 8 29 9 30 10 8 11 9 12 26 13
REMARK SMILES IDX 10 14 11 15 25 16 27 17 12 18 24 19 23 20 13 21 21 22 14 23
REMARK SMILES IDX 15 24 20 25 22 26 16 27 19 28 17 29 18 30
REMARK H PARENT 18 31
REMARK Flexibility Score: inf
ROOT
ATOM      1  C   UNL     1     125.453 123.984 135.681  1.00  0.00     0.012 C 
ATOM      2  C   UNL     1     126.591 124.518 136.570  1.00  0.00     0.012 C 
ENDROOT
BRANCH   1   3
ATOM      3  C   UNL     1     125.994 122.967 134.689  1.00  0.00    -0.028 C 
ATOM      4  C   UNL     1     125.293 121.952 134.145  1.00  0.00    -0.027 C 
BRANCH   4   5
ATOM      5  C   UNL     1     123.806 121.696 134.332  1.00  0.00     0.014 C 
BRANCH   5   6
ATOM      6  C   UNL     1     123.548 120.246 134.822  1.00  0.00     0.004 C 
ATOM      7  C   UNL     1     123.861 119.956 136.292  1.00  0.00     0.004 C 
ENDBRANCH   5   6
BRANCH   5   8
ATOM      8  C   UNL     1     122.974 122.189 133.105  1.00  0.00    -0.011 C 
ATOM      9  C   UNL     1     121.882 123.227 133.424  1.00  0.00     0.008 C 
ATOM     10  C   UNL     1     123.866 122.678 131.954  1.00  0.00     0.008 C 
ENDBRANCH   5   8
ENDBRANCH   4   5
ENDBRANCH   1   3
BRANCH   1  11
ATOM     11  C   UNL     1     124.543 125.060 134.984  1.00  0.00     0.002 C 
ATOM     12  C   UNL     1     123.440 125.585 135.913  1.00  0.00     0.005 C 
ATOM     13  C   UNL     1     125.103 126.330 134.255  1.00  0.00    -0.026 C 
ATOM     14  C   UNL     1     122.981 126.918 135.328  1.00  0.00     0.005 C 
ATOM     15  C   UNL     1     123.799 127.141 134.044  1.00  0.00    -0.001 C 
ATOM     16  C   UNL     1     126.094 127.160 135.124  1.00  0.00     0.007 C 
ATOM     17  C   UNL     1     125.748 125.974 132.892  1.00  0.00     0.012 C 
ATOM     18  C   UNL     1     123.993 128.635 133.627  1.00  0.00     0.000 C 
ATOM     19  C   UNL     1     126.340 128.565 134.571  1.00  0.00     0.005 C 
ATOM     20  C   UNL     1     125.033 129.387 134.484  1.00  0.00     0.003 C 
ATOM     21  C   UNL     1     122.660 129.396 133.670  1.00  0.00     0.031 C 
ATOM     22  C   UNL     1     125.253 130.883 133.994  1.00  0.00    -0.008 C 
ATOM     23  C   UNL     1     122.833 130.811 133.222  1.00  0.00    -0.027 C 
ATOM     24  C   UNL     1     123.969 131.511 133.417  1.00  0.00    -0.065 C 
ATOM     25  C   UNL     1     126.340 130.971 132.872  1.00  0.00     0.014 C 
ATOM     26  C   UNL     1     125.708 131.715 135.221  1.00  0.00     0.016 C 
ATOM     27  C   UNL     1     124.062 132.906 132.829  1.00  0.00     0.063 C 
ATOM     28  C   UNL     1     126.485 132.370 132.234  1.00  0.00     0.033 C 
ATOM     29  C   UNL     1     125.148 132.956 131.742  1.00  0.00     0.118 C 
BRANCH  29  30
ATOM     30  O   UNL     1     124.724 132.328 130.556  1.00  0.00    -0.393 OA
ATOM     31  H   UNL     1     124.995 131.375 130.596  1.00  0.00     0.210 HD
ENDBRANCH  29  30
ENDBRANCH   1  11
TORSDOF 6
ENDMDL
MODEL 4
REMARK VINA RESULT:    -6.676      2.930      8.181
REMARK INTER + INTRA:         -10.335
REMARK INTER:                  -8.588
REMARK INTRA:                  -1.746
REMARK UNBOUND:                -1.513
REMARK SMILES CC[C@@H](C=C[C@@H](C)[C@H]1CC[C@H]2[C@H]3CC=C4C[C@H](O)CC[C@]4(C)[C@@H]3CC[C@@]12C)C(C)C
REMARK SMILES IDX 6 1 7 2 5 3 4 4 3 5 2 6 1 7 28 8 29 9 30 10 8 11 9 12 26 13
REMARK SMILES IDX 10 14 11 15 25 16 27 17 12 18 24 19 23 20 13 21 21 22 14 23
REMARK SMILES IDX 15 24 20 25 22 26 16 27 19 28 17 29 18 30
REMARK H PARENT 18 31
REMARK Flexibility Score: inf
ROOT
ATOM      1  C   UNL     1     124.904 122.448 134.124  1.00  0.00     0.012 C 
ATOM      2  C   UNL     1     124.850 121.562 135.381  1.00  0.00     0.012 C 
ENDROOT
BRANCH   1   3
ATOM      3  C   UNL     1     125.601 121.713 132.991  1.00  0.00    -0.028 C 
ATOM      4  C   UNL     1     125.016 121.294 131.851  1.00  0.00    -0.027 C 
BRANCH   4   5
ATOM      5  C   UNL     1     123.581 121.571 131.432  1.00  0.00     0.014 C 
BRANCH   5   6
ATOM      6  C   UNL     1     122.738 120.267 131.434  1.00  0.00     0.004 C 
ATOM      7  C   UNL     1     121.872 120.017 132.671  1.00  0.00     0.004 C 
ENDBRANCH   5   6
BRANCH   5   8
ATOM      8  C   UNL     1     123.513 122.458 130.148  1.00  0.00    -0.011 C 
ATOM      9  C   UNL     1     122.830 123.826 130.327  1.00  0.00     0.008 C 
ATOM     10  C   UNL     1     124.886 122.622 129.479  1.00  0.00     0.008 C 
ENDBRANCH   5   8
ENDBRANCH   4   5
ENDBRANCH   1   3
BRANCH   1  11
ATOM     11  C   UNL     1     125.467 123.904 134.316  1.00  0.00     0.002 C 
ATOM     12  C   UNL     1     126.348 124.351 133.142  1.00  0.00     0.005 C 
ATOM     13  C   UNL     1     124.568 125.145 134.649  1.00  0.00    -0.026 C 
ATOM     14  C   UNL     1     126.402 125.876 133.199  1.00  0.00     0.005 C 
ATOM     15  C   UNL     1     125.577 126.300 134.427  1.00  0.00    -0.001 C 
ATOM     16  C   UNL     1     123.362 125.318 133.681  1.00  0.00     0.007 C 
ATOM     17  C   UNL     1     124.081 125.126 136.120  1.00  0.00     0.012 C 
ATOM     18  C   UNL     1     124.957 127.733 134.351  1.00  0.00     0.000 C 
ATOM     19  C   UNL     1     122.720 126.704 133.767  1.00  0.00     0.005 C 
ATOM     20  C   UNL     1     123.726 127.827 133.424  1.00  0.00     0.003 C 
ATOM     21  C   UNL     1     126.004 128.763 133.903  1.00  0.00     0.031 C 
ATOM     22  C   UNL     1     123.082 129.280 133.419  1.00  0.00    -0.008 C 
ATOM     23  C   UNL     1     125.428 130.142 133.878  1.00  0.00    -0.027 C 
ATOM     24  C   UNL     1     124.132 130.393 133.601  1.00  0.00    -0.065 C 
ATOM     25  C   UNL     1     122.038 129.454 134.571  1.00  0.00     0.014 C 
ATOM     26  C   UNL     1     122.380 129.475 132.050  1.00  0.00     0.016 C 
ATOM     27  C   UNL     1     123.641 131.824 133.706  1.00  0.00     0.063 C 
ATOM     28  C   UNL     1     121.496 130.892 134.727  1.00  0.00     0.033 C 
ATOM     29  C   UNL     1     122.608 131.953 134.837  1.00  0.00     0.118 C 
BRANCH  29  30
ATOM     30  O   UNL     1     123.220 131.917 136.104  1.00  0.00    -0.393 OA
ATOM     31  H   UNL     1     122.509 131.818 136.789  1.00  0.00     0.210 HD
ENDBRANCH  29  30
ENDBRANCH   1  11
TORSDOF 6
ENDMDL
MODEL 5
REMARK VINA RESULT:    -6.602      3.250      8.450
REMARK INTER + INTRA:         -10.238
REMARK INTER:                  -8.946
REMARK INTRA:                  -1.291
REMARK UNBOUND:                -1.513
REMARK SMILES CC[C@@H](C=C[C@@H](C)[C@H]1CC[C@H]2[C@H]3CC=C4C[C@H](O)CC[C@]4(C)[C@@H]3CC[C@@]12C)C(C)C
REMARK SMILES IDX 6 1 7 2 5 3 4 4 3 5 2 6 1 7 28 8 29 9 30 10 8 11 9 12 26 13
REMARK SMILES IDX 10 14 11 15 25 16 27 17 12 18 24 19 23 20 13 21 21 22 14 23
REMARK SMILES IDX 15 24 20 25 22 26 16 27 19 28 17 29 18 30
REMARK H PARENT 18 31
REMARK Flexibility Score: inf
ROOT
ATOM      1  C   UNL     1     124.600 123.982 135.214  1.00  0.00     0.012 C 
ATOM      2  C   UNL     1     123.885 122.619 135.236  1.00  0.00     0.012 C 
ENDROOT
BRANCH   1   3
ATOM      3  C   UNL     1     125.133 124.319 136.597  1.00  0.00    -0.028 C 
ATOM      4  C   UNL     1     126.368 124.029 137.054  1.00  0.00    -0.027 C 
BRANCH   4   5
ATOM      5  C   UNL     1     127.496 123.413 136.242  1.00  0.00     0.014 C 
BRANCH   5   6
ATOM      6  C   UNL     1     127.426 123.865 134.758  1.00  0.00     0.004 C 
ATOM      7  C   UNL     1     128.534 124.805 134.278  1.00  0.00     0.004 C 
ENDBRANCH   5   6
BRANCH   5   8
ATOM      8  C   UNL     1     127.635 121.881 136.511  1.00  0.00    -0.011 C 
ATOM      9  C   UNL     1     126.987 121.379 137.815  1.00  0.00     0.008 C 
ATOM     10  C   UNL     1     127.170 121.034 135.316  1.00  0.00     0.008 C 
ENDBRANCH   5   8
ENDBRANCH   4   5
ENDBRANCH   1   3
BRANCH   1  11
ATOM     11  C   UNL     1     123.805 125.182 134.582  1.00  0.00     0.002 C 
ATOM     12  C   UNL     1     122.776 125.779 135.552  1.00  0.00     0.005 C 
ATOM     13  C   UNL     1     124.492 126.417 133.903  1.00  0.00    -0.026 C 
ATOM     14  C   UNL     1     122.458 127.180 135.035  1.00  0.00     0.005 C 
ATOM     15  C   UNL     1     123.281 127.373 133.749  1.00  0.00    -0.001 C 
ATOM     16  C   UNL     1     125.576 127.094 134.792  1.00  0.00     0.007 C 
ATOM     17  C   UNL     1     125.079 126.058 132.514  1.00  0.00     0.012 C 
ATOM     18  C   UNL     1     123.632 128.855 133.398  1.00  0.00     0.000 C 
ATOM     19  C   UNL     1     125.967 128.488 134.301  1.00  0.00     0.005 C 
ATOM     20  C   UNL     1     124.756 129.449 134.272  1.00  0.00     0.003 C 
ATOM     21  C   UNL     1     122.390 129.753 133.497  1.00  0.00     0.031 C 
ATOM     22  C   UNL     1     125.132 130.934 133.846  1.00  0.00    -0.008 C 
ATOM     23  C   UNL     1     122.710 131.161 133.112  1.00  0.00    -0.027 C 
ATOM     24  C   UNL     1     123.917 131.724 133.320  1.00  0.00    -0.065 C 
ATOM     25  C   UNL     1     126.209 130.957 132.713  1.00  0.00     0.014 C 
ATOM     26  C   UNL     1     125.688 131.654 135.103  1.00  0.00     0.016 C 
ATOM     27  C   UNL     1     124.155 133.126 132.795  1.00  0.00     0.063 C 
ATOM     28  C   UNL     1     126.498 132.360 132.136  1.00  0.00     0.033 C 
ATOM     29  C   UNL     1     125.228 133.111 131.693  1.00  0.00     0.118 C 
BRANCH  29  30
ATOM     30  O   UNL     1     124.725 132.588 130.487  1.00  0.00    -0.393 OA
ATOM     31  H   UNL     1     124.709 133.318 129.816  1.00  0.00     0.210 HD
ENDBRANCH  29  30
ENDBRANCH   1  11
TORSDOF 6
ENDMDL
MODEL 6
REMARK VINA RESULT:    -6.541      1.864      3.695
REMARK INTER + INTRA:         -10.157
REMARK INTER:                  -8.891
REMARK INTRA:                  -1.265
REMARK UNBOUND:                -1.513
REMARK SMILES CC[C@@H](C=C[C@@H](C)[C@H]1CC[C@H]2[C@H]3CC=C4C[C@H](O)CC[C@]4(C)[C@@H]3CC[C@@]12C)C(C)C
REMARK SMILES IDX 6 1 7 2 5 3 4 4 3 5 2 6 1 7 28 8 29 9 30 10 8 11 9 12 26 13
REMARK SMILES IDX 10 14 11 15 25 16 27 17 12 18 24 19 23 20 13 21 21 22 14 23
REMARK SMILES IDX 15 24 20 25 22 26 16 27 19 28 17 29 18 30
REMARK H PARENT 18 31
REMARK Flexibility Score: inf
ROOT
ATOM      1  C   UNL     1     122.362 128.123 135.035  1.00  0.00     0.012 C 
ATOM      2  C   UNL     1     121.339 128.974 135.811  1.00  0.00     0.012 C 
ENDROOT
BRANCH   1   3
ATOM      3  C   UNL     1     122.565 128.688 133.639  1.00  0.00    -0.028 C 
ATOM      4  C   UNL     1     123.552 129.529 133.269  1.00  0.00    -0.027 C 
BRANCH   4   5
ATOM      5  C   UNL     1     124.709 129.984 134.144  1.00  0.00     0.014 C 
BRANCH   5   6
ATOM      6  C   UNL     1     124.711 131.528 134.305  1.00  0.00     0.004 C 
ATOM      7  C   UNL     1     124.012 132.330 133.205  1.00  0.00     0.004 C 
ENDBRANCH   5   6
BRANCH   5   8
ATOM      8  C   UNL     1     126.054 129.313 133.721  1.00  0.00    -0.011 C 
ATOM      9  C   UNL     1     127.180 130.285 133.322  1.00  0.00     0.008 C 
ATOM     10  C   UNL     1     126.556 128.304 134.765  1.00  0.00     0.008 C 
ENDBRANCH   5   8
ENDBRANCH   4   5
ENDBRANCH   1   3
BRANCH   1  11
ATOM     11  C   UNL     1     122.109 126.572 135.012  1.00  0.00     0.002 C 
ATOM     12  C   UNL     1     120.746 126.209 134.407  1.00  0.00     0.005 C 
ATOM     13  C   UNL     1     123.117 125.537 134.400  1.00  0.00    -0.026 C 
ATOM     14  C   UNL     1     120.836 124.743 133.987  1.00  0.00     0.005 C 
ATOM     15  C   UNL     1     122.242 124.258 134.382  1.00  0.00    -0.001 C 
ATOM     16  C   UNL     1     123.558 125.883 132.947  1.00  0.00     0.007 C 
ATOM     17  C   UNL     1     124.356 125.334 135.307  1.00  0.00     0.012 C 
ATOM     18  C   UNL     1     122.800 123.070 133.532  1.00  0.00     0.000 C 
ATOM     19  C   UNL     1     124.223 124.707 132.230  1.00  0.00     0.005 C 
ATOM     20  C   UNL     1     123.280 123.487 132.126  1.00  0.00     0.003 C 
ATOM     21  C   UNL     1     121.757 121.951 133.397  1.00  0.00     0.031 C 
ATOM     22  C   UNL     1     123.900 122.269 131.313  1.00  0.00    -0.008 C 
ATOM     23  C   UNL     1     122.305 120.792 132.629  1.00  0.00    -0.027 C 
ATOM     24  C   UNL     1     123.221 120.927 131.649  1.00  0.00    -0.065 C 
ATOM     25  C   UNL     1     125.425 122.090 131.614  1.00  0.00     0.014 C 
ATOM     26  C   UNL     1     123.702 122.566 129.804  1.00  0.00     0.016 C 
ATOM     27  C   UNL     1     123.778 119.670 131.010  1.00  0.00     0.063 C 
ATOM     28  C   UNL     1     126.053 120.825 130.987  1.00  0.00     0.033 C 
ATOM     29  C   UNL     1     125.279 119.534 131.315  1.00  0.00     0.118 C 
BRANCH  29  30
ATOM     30  O   UNL     1     125.503 119.132 132.645  1.00  0.00    -0.393 OA
ATOM     31  H   UNL     1     125.186 118.197 132.743  1.00  0.00     0.210 HD
ENDBRANCH  29  30
ENDBRANCH   1  11
TORSDOF 6
ENDMDL
MODEL 7
REMARK VINA RESULT:    -6.500      2.796      7.943
REMARK INTER + INTRA:         -10.102
REMARK INTER:                  -8.249
REMARK INTRA:                  -1.853
REMARK UNBOUND:                -1.513
REMARK SMILES CC[C@@H](C=C[C@@H](C)[C@H]1CC[C@H]2[C@H]3CC=C4C[C@H](O)CC[C@]4(C)[C@@H]3CC[C@@]12C)C(C)C
REMARK SMILES IDX 6 1 7 2 5 3 4 4 3 5 2 6 1 7 28 8 29 9 30 10 8 11 9 12 26 13
REMARK SMILES IDX 10 14 11 15 25 16 27 17 12 18 24 19 23 20 13 21 21 22 14 23
REMARK SMILES IDX 15 24 20 25 22 26 16 27 19 28 17 29 18 30
REMARK H PARENT 18 31
REMARK Flexibility Score: inf
ROOT
ATOM      1  C   UNL     1     126.634 122.163 135.351  1.00  0.00     0.012 C 
ATOM      2  C   UNL     1     127.563 121.343 136.265  1.00  0.00     0.012 C 
ENDROOT
BRANCH   1   3
ATOM      3  C   UNL     1     126.611 121.566 133.953  1.00  0.00    -0.028 C 
ATOM      4  C   UNL     1     125.525 121.060 133.334  1.00  0.00    -0.027 C 
BRANCH   4   5
ATOM      5  C   UNL     1     124.102 121.089 133.868  1.00  0.00     0.014 C 
BRANCH   5   6
ATOM      6  C   UNL     1     123.779 119.796 134.665  1.00  0.00     0.004 C 
ATOM      7  C   UNL     1     123.902 119.886 136.188  1.00  0.00     0.004 C 
ENDBRANCH   5   6
BRANCH   5   8
ATOM      8  C   UNL     1     123.079 121.517 132.767  1.00  0.00    -0.011 C 
ATOM      9  C   UNL     1     122.691 120.416 131.763  1.00  0.00     0.008 C 
ATOM     10  C   UNL     1     121.824 122.174 133.361  1.00  0.00     0.008 C 
ENDBRANCH   5   8
ENDBRANCH   4   5
ENDBRANCH   1   3
BRANCH   1  11
ATOM     11  C   UNL     1     126.870 123.717 135.324  1.00  0.00     0.002 C 
ATOM     12  C   UNL     1     127.667 124.167 134.092  1.00  0.00     0.005 C 
ATOM     13  C   UNL     1     125.720 124.772 135.477  1.00  0.00    -0.026 C 
ATOM     14  C   UNL     1     127.394 125.660 133.924  1.00  0.00     0.005 C 
ATOM     15  C   UNL     1     126.466 126.072 135.081  1.00  0.00    -0.001 C 
ATOM     16  C   UNL     1     124.530 124.541 134.500  1.00  0.00     0.007 C 
ATOM     17  C   UNL     1     125.211 124.862 136.938  1.00  0.00     0.012 C 
ATOM     18  C   UNL     1     125.558 127.312 134.799  1.00  0.00     0.000 C 
ATOM     19  C   UNL     1     123.607 125.755 134.386  1.00  0.00     0.005 C 
ATOM     20  C   UNL     1     124.360 127.006 133.876  1.00  0.00     0.003 C 
ATOM     21  C   UNL     1     126.374 128.467 134.199  1.00  0.00     0.031 C 
ATOM     22  C   UNL     1     123.422 128.271 133.662  1.00  0.00    -0.008 C 
ATOM     23  C   UNL     1     125.519 129.672 133.975  1.00  0.00    -0.027 C 
ATOM     24  C   UNL     1     124.207 129.597 133.672  1.00  0.00    -0.065 C 
ATOM     25  C   UNL     1     122.336 128.383 134.781  1.00  0.00     0.014 C 
ATOM     26  C   UNL     1     122.730 128.112 132.283  1.00  0.00     0.016 C 
ATOM     27  C   UNL     1     123.421 130.890 133.568  1.00  0.00     0.063 C 
ATOM     28  C   UNL     1     121.497 129.679 134.728  1.00  0.00     0.033 C 
ATOM     29  C   UNL     1     122.355 130.957 134.674  1.00  0.00     0.118 C 
BRANCH  29  30
ATOM     30  O   UNL     1     122.927 131.237 135.929  1.00  0.00    -0.393 OA
ATOM     31  H   UNL     1     123.269 130.388 136.310  1.00  0.00     0.210 HD
ENDBRANCH  29  30
ENDBRANCH   1  11
TORSDOF 6
ENDMDL
MODEL 8
REMARK VINA RESULT:    -6.499      1.698      3.072
REMARK INTER + INTRA:         -10.101
REMARK INTER:                  -8.748
REMARK INTRA:                  -1.352
REMARK UNBOUND:                -1.513
REMARK SMILES CC[C@@H](C=C[C@@H](C)[C@H]1CC[C@H]2[C@H]3CC=C4C[C@H](O)CC[C@]4(C)[C@@H]3CC[C@@]12C)C(C)C
REMARK SMILES IDX 6 1 7 2 5 3 4 4 3 5 2 6 1 7 28 8 29 9 30 10 8 11 9 12 26 13
REMARK SMILES IDX 10 14 11 15 25 16 27 17 12 18 24 19 23 20 13 21 21 22 14 23
REMARK SMILES IDX 15 24 20 25 22 26 16 27 19 28 17 29 18 30
REMARK H PARENT 18 31
REMARK Flexibility Score: inf
ROOT
ATOM      1  C   UNL     1     122.194 128.224 134.726  1.00  0.00     0.012 C 
ATOM      2  C   UNL     1     120.674 128.025 134.866  1.00  0.00     0.012 C 
ENDROOT
BRANCH   1   3
ATOM      3  C   UNL     1     122.519 128.879 133.394  1.00  0.00    -0.028 C 
ATOM      4  C   UNL     1     123.562 129.700 133.157  1.00  0.00    -0.027 C 
BRANCH   4   5
ATOM      5  C   UNL     1     124.670 130.039 134.141  1.00  0.00     0.014 C 
BRANCH   5   6
ATOM      6  C   UNL     1     124.719 131.565 134.422  1.00  0.00     0.004 C 
ATOM      7  C   UNL     1     124.208 132.480 133.306  1.00  0.00     0.004 C 
ENDBRANCH   5   6
BRANCH   5   8
ATOM      8  C   UNL     1     126.017 129.344 133.760  1.00  0.00    -0.011 C 
ATOM      9  C   UNL     1     127.163 130.297 133.373  1.00  0.00     0.008 C 
ATOM     10  C   UNL     1     126.482 128.346 134.831  1.00  0.00     0.008 C 
ENDBRANCH   5   8
ENDBRANCH   4   5
ENDBRANCH   1   3
BRANCH   1  11
ATOM     11  C   UNL     1     123.094 126.964 134.998  1.00  0.00     0.002 C 
ATOM     12  C   UNL     1     122.781 126.300 136.346  1.00  0.00     0.005 C 
ATOM     13  C   UNL     1     123.255 125.778 133.985  1.00  0.00    -0.026 C 
ATOM     14  C   UNL     1     123.323 124.875 136.262  1.00  0.00     0.005 C 
ATOM     15  C   UNL     1     123.976 124.734 134.875  1.00  0.00    -0.001 C 
ATOM     16  C   UNL     1     121.900 125.190 133.494  1.00  0.00     0.007 C 
ATOM     17  C   UNL     1     124.145 126.168 132.778  1.00  0.00     0.012 C 
ATOM     18  C   UNL     1     124.024 123.279 134.306  1.00  0.00     0.000 C 
ATOM     19  C   UNL     1     122.049 123.825 132.821  1.00  0.00     0.005 C 
ATOM     20  C   UNL     1     122.664 122.776 133.776  1.00  0.00     0.003 C 
ATOM     21  C   UNL     1     124.550 122.292 135.358  1.00  0.00     0.031 C 
ATOM     22  C   UNL     1     122.761 121.320 133.146  1.00  0.00    -0.008 C 
ATOM     23  C   UNL     1     124.645 120.909 134.801  1.00  0.00    -0.027 C 
ATOM     24  C   UNL     1     123.809 120.438 133.853  1.00  0.00    -0.065 C 
ATOM     25  C   UNL     1     123.160 121.368 131.634  1.00  0.00     0.014 C 
ATOM     26  C   UNL     1     121.368 120.654 133.293  1.00  0.00     0.016 C 
ATOM     27  C   UNL     1     124.067 119.053 133.293  1.00  0.00     0.063 C 
ATOM     28  C   UNL     1     123.434 119.986 131.003  1.00  0.00     0.033 C 
ATOM     29  C   UNL     1     124.442 119.140 131.804  1.00  0.00     0.118 C 
BRANCH  29  30
ATOM     30  O   UNL     1     125.756 119.614 131.627  1.00  0.00    -0.393 OA
ATOM     31  H   UNL     1     126.218 119.014 130.988  1.00  0.00     0.210 HD
ENDBRANCH  29  30
ENDBRANCH   1  11
TORSDOF 6
ENDMDL
MODEL 9
REMARK VINA RESULT:    -6.412      3.573      9.232
REMARK INTER + INTRA:          -9.986
REMARK INTER:                  -8.905
REMARK INTRA:                  -1.081
REMARK UNBOUND:                -1.513
REMARK SMILES CC[C@@H](C=C[C@@H](C)[C@H]1CC[C@H]2[C@H]3CC=C4C[C@H](O)CC[C@]4(C)[C@@H]3CC[C@@]12C)C(C)C
REMARK SMILES IDX 6 1 7 2 5 3 4 4 3 5 2 6 1 7 28 8 29 9 30 10 8 11 9 12 26 13
REMARK SMILES IDX 10 14 11 15 25 16 27 17 12 18 24 19 23 20 13 21 21 22 14 23
REMARK SMILES IDX 15 24 20 25 22 26 16 27 19 28 17 29 18 30
REMARK H PARENT 18 31
REMARK Flexibility Score: inf
ROOT
ATOM      1  C   UNL     1     122.777 124.431 133.283  1.00  0.00     0.012 C 
ATOM      2  C   UNL     1     121.368 124.037 133.761  1.00  0.00     0.012 C 
ENDROOT
BRANCH   1   3
ATOM      3  C   UNL     1     123.754 123.292 133.530  1.00  0.00    -0.028 C 
ATOM      4  C   UNL     1     123.872 122.182 132.773  1.00  0.00    -0.027 C 
BRANCH   4   5
ATOM      5  C   UNL     1     123.133 121.908 131.473  1.00  0.00     0.014 C 
BRANCH   5   6
ATOM      6  C   UNL     1     122.701 120.420 131.380  1.00  0.00     0.004 C 
ATOM      7  C   UNL     1     121.896 119.868 132.559  1.00  0.00     0.004 C 
ENDBRANCH   5   6
BRANCH   5   8
ATOM      8  C   UNL     1     123.886 122.506 130.242  1.00  0.00    -0.011 C 
ATOM      9  C   UNL     1     124.618 121.482 129.355  1.00  0.00     0.008 C 
ATOM     10  C   UNL     1     122.984 123.412 129.390  1.00  0.00     0.008 C 
ENDBRANCH   5   8
ENDBRANCH   4   5
ENDBRANCH   1   3
BRANCH   1  11
ATOM     11  C   UNL     1     123.335 125.806 133.800  1.00  0.00     0.002 C 
ATOM     12  C   UNL     1     124.756 126.090 133.296  1.00  0.00     0.005 C 
ATOM     13  C   UNL     1     122.567 127.166 133.649  1.00  0.00    -0.026 C 
ATOM     14  C   UNL     1     124.969 127.596 133.430  1.00  0.00     0.005 C 
ATOM     15  C   UNL     1     123.680 128.171 134.043  1.00  0.00    -0.001 C 
ATOM     16  C   UNL     1     122.099 127.457 132.193  1.00  0.00     0.007 C 
ATOM     17  C   UNL     1     121.373 127.266 134.631  1.00  0.00     0.012 C 
ATOM     18  C   UNL     1     123.389 129.668 133.701  1.00  0.00     0.000 C 
ATOM     19  C   UNL     1     121.697 128.917 131.976  1.00  0.00     0.005 C 
ATOM     20  C   UNL     1     122.867 129.886 132.265  1.00  0.00     0.003 C 
ATOM     21  C   UNL     1     124.637 130.536 133.920  1.00  0.00     0.031 C 
ATOM     22  C   UNL     1     122.520 131.409 131.972  1.00  0.00    -0.008 C 
ATOM     23  C   UNL     1     124.348 131.976 133.644  1.00  0.00    -0.027 C 
ATOM     24  C   UNL     1     123.446 132.382 132.727  1.00  0.00    -0.065 C 
ATOM     25  C   UNL     1     121.056 131.761 132.394  1.00  0.00     0.014 C 
ATOM     26  C   UNL     1     122.689 131.641 130.447  1.00  0.00     0.016 C 
ATOM     27  C   UNL     1     123.165 133.868 132.607  1.00  0.00     0.063 C 
ATOM     28  C   UNL     1     120.707 133.262 132.291  1.00  0.00     0.033 C 
ATOM     29  C   UNL     1     121.715 134.173 133.017  1.00  0.00     0.118 C 
BRANCH  29  30
ATOM     30  O   UNL     1     121.546 134.107 134.412  1.00  0.00    -0.393 OA
ATOM     31  H   UNL     1     121.162 134.968 134.719  1.00  0.00     0.210 HD
ENDBRANCH  29  30
ENDBRANCH   1  11
TORSDOF 6
ENDMDL
