MODEL 1
REMARK VINA RESULT:    -4.962      0.000      0.000
REMARK INTER + INTRA:         -12.594
REMARK INTER:                 -10.763
REMARK INTRA:                  -1.831
REMARK UNBOUND:                -1.831
REMARK SMILES CCCCCCCCCCCCCCCCCCCCCC(=O)[O-]
REMARK SMILES IDX 12 1 11 2 10 3 9 4 8 5 7 6 6 7 5 8 4 9 3 10 2 11 1 12 13 13
REMARK SMILES IDX 14 14 15 15 16 16 17 17 18 18 19 19 20 20 21 21 22 22 23 23
REMARK SMILES IDX 24 24
REMARK H PARENT
REMARK Flexibility Score: inf
ROOT
ATOM      1  C   UNL     1      -4.701  -4.549  28.975  1.00  0.00     0.000 C 
ENDROOT
BRANCH   1   2
ATOM      2  C   UNL     1      -5.227  -3.190  29.467  1.00  0.00     0.000 C 
BRANCH   2   3
ATOM      3  C   UNL     1      -5.622  -2.261  28.309  1.00  0.00     0.000 C 
BRANCH   3   4
ATOM      4  C   UNL     1      -4.515  -1.246  27.966  1.00  0.00    -0.000 C 
BRANCH   4   5
ATOM      5  C   UNL     1      -3.651  -0.885  29.185  1.00  0.00    -0.000 C 
BRANCH   5   6
ATOM      6  C   UNL     1      -2.339  -0.181  28.790  1.00  0.00    -0.000 C 
BRANCH   6   7
ATOM      7  C   UNL     1      -2.095  -0.237  27.265  1.00  0.00    -0.000 C 
BRANCH   7   8
ATOM      8  C   UNL     1      -0.608  -0.409  26.872  1.00  0.00    -0.000 C 
BRANCH   8   9
ATOM      9  C   UNL     1      -0.039  -1.828  27.070  1.00  0.00    -0.000 C 
BRANCH   9  10
ATOM     10  C   UNL     1       0.824  -1.969  28.342  1.00  0.00    -0.000 C 
BRANCH  10  11
ATOM     11  C   UNL     1       0.342  -3.098  29.269  1.00  0.00    -0.003 C 
ATOM     12  C   UNL     1      -1.045  -3.611  28.878  1.00  0.00     0.004 C 
ENDBRANCH  10  11
ENDBRANCH   9  10
ENDBRANCH   8   9
ENDBRANCH   7   8
ENDBRANCH   6   7
ENDBRANCH   5   6
ENDBRANCH   4   5
ENDBRANCH   3   4
ENDBRANCH   2   3
ENDBRANCH   1   2
BRANCH   1  13
ATOM     13  C   UNL     1      -5.684  -5.264  28.024  1.00  0.00     0.000 C 
BRANCH  13  14
ATOM     14  C   UNL     1      -5.747  -6.795  28.224  1.00  0.00     0.000 C 
BRANCH  14  15
ATOM     15  C   UNL     1      -5.966  -7.252  29.678  1.00  0.00     0.000 C 
BRANCH  15  16
ATOM     16  C   UNL     1      -6.139  -8.777  29.866  1.00  0.00     0.000 C 
BRANCH  16  17
ATOM     17  C   UNL     1      -5.688  -9.602  28.643  1.00  0.00     0.000 C 
BRANCH  17  18
ATOM     18  C   UNL     1      -4.688 -10.710  29.021  1.00  0.00     0.000 C 
BRANCH  18  19
ATOM     19  C   UNL     1      -3.950 -11.287  27.808  1.00  0.00     0.000 C 
BRANCH  19  20
ATOM     20  C   UNL     1      -4.883 -11.573  26.615  1.00  0.00     0.006 C 
BRANCH  20  21
ATOM     21  C   UNL     1      -4.118 -11.759  25.298  1.00  0.00     0.053 C 
BRANCH  21  22
ATOM     22  C   UNL     1      -2.987 -12.737  25.431  1.00  0.00     0.041 C 
ATOM     23  O   UNL     1      -1.798 -12.356  25.246  1.00  0.00    -0.550 OA
ATOM     24  O   UNL     1      -3.243 -14.062  25.764  1.00  0.00    -0.550 OA
ENDBRANCH  21  22
ENDBRANCH  20  21
ENDBRANCH  19  20
ENDBRANCH  18  19
ENDBRANCH  17  18
ENDBRANCH  16  17
ENDBRANCH  15  16
ENDBRANCH  14  15
ENDBRANCH  13  14
ENDBRANCH   1  13
TORSDOF 20
ENDMDL
MODEL 2
REMARK VINA RESULT:    -4.852      3.481      9.410
REMARK INTER + INTRA:         -12.356
REMARK INTER:                 -11.126
REMARK INTRA:                  -1.230
REMARK UNBOUND:                -1.831
REMARK SMILES CCCCCCCCCCCCCCCCCCCCCC(=O)[O-]
REMARK SMILES IDX 12 1 11 2 10 3 9 4 8 5 7 6 6 7 5 8 4 9 3 10 2 11 1 12 13 13
REMARK SMILES IDX 14 14 15 15 16 16 17 17 18 18 19 19 20 20 21 21 22 22 23 23
REMARK SMILES IDX 24 24
REMARK H PARENT
REMARK Flexibility Score: inf
ROOT
ATOM      1  C   UNL     1      -5.854  -7.341  29.412  1.00  0.00     0.000 C 
ENDROOT
BRANCH   1   2
ATOM      2  C   UNL     1      -6.198  -8.823  29.189  1.00  0.00     0.000 C 
BRANCH   2   3
ATOM      3  C   UNL     1      -5.298  -9.763  30.007  1.00  0.00     0.000 C 
BRANCH   3   4
ATOM      4  C   UNL     1      -4.605 -10.824  29.130  1.00  0.00    -0.000 C 
BRANCH   4   5
ATOM      5  C   UNL     1      -4.913 -10.642  27.635  1.00  0.00    -0.000 C 
BRANCH   5   6
ATOM      6  C   UNL     1      -4.381 -11.806  26.778  1.00  0.00    -0.000 C 
BRANCH   6   7
ATOM      7  C   UNL     1      -4.276 -11.417  25.285  1.00  0.00    -0.000 C 
BRANCH   7   8
ATOM      8  C   UNL     1      -3.464 -12.419  24.431  1.00  0.00    -0.000 C 
BRANCH   8   9
ATOM      9  C   UNL     1      -2.315 -13.132  25.171  1.00  0.00    -0.000 C 
BRANCH   9  10
ATOM     10  C   UNL     1      -1.015 -12.303  25.227  1.00  0.00    -0.000 C 
BRANCH  10  11
ATOM     11  C   UNL     1      -0.655 -11.851  26.653  1.00  0.00    -0.003 C 
ATOM     12  C   UNL     1       0.615 -10.999  26.684  1.00  0.00     0.004 C 
ENDBRANCH  10  11
ENDBRANCH   9  10
ENDBRANCH   8   9
ENDBRANCH   7   8
ENDBRANCH   6   7
ENDBRANCH   5   6
ENDBRANCH   4   5
ENDBRANCH   3   4
ENDBRANCH   2   3
ENDBRANCH   1   2
BRANCH   1  13
ATOM     13  C   UNL     1      -5.954  -6.501  28.121  1.00  0.00     0.000 C 
BRANCH  13  14
ATOM     14  C   UNL     1      -5.326  -5.095  28.240  1.00  0.00     0.000 C 
BRANCH  14  15
ATOM     15  C   UNL     1      -5.448  -4.442  29.628  1.00  0.00     0.000 C 
BRANCH  15  16
ATOM     16  C   UNL     1      -5.118  -2.933  29.675  1.00  0.00     0.000 C 
BRANCH  16  17
ATOM     17  C   UNL     1      -5.401  -2.200  28.346  1.00  0.00     0.000 C 
BRANCH  17  18
ATOM     18  C   UNL     1      -4.618  -0.880  28.227  1.00  0.00     0.000 C 
BRANCH  18  19
ATOM     19  C   UNL     1      -3.126  -1.041  28.536  1.00  0.00     0.000 C 
BRANCH  19  20
ATOM     20  C   UNL     1      -2.217  -0.481  27.424  1.00  0.00     0.006 C 
BRANCH  20  21
ATOM     21  C   UNL     1      -0.755  -0.344  27.870  1.00  0.00     0.053 C 
BRANCH  21  22
ATOM     22  C   UNL     1      -0.009  -1.644  27.784  1.00  0.00     0.041 C 
ATOM     23  O   UNL     1       0.551  -1.980  26.704  1.00  0.00    -0.550 OA
ATOM     24  O   UNL     1       0.074  -2.478  28.892  1.00  0.00    -0.550 OA
ENDBRANCH  21  22
ENDBRANCH  20  21
ENDBRANCH  19  20
ENDBRANCH  18  19
ENDBRANCH  17  18
ENDBRANCH  16  17
ENDBRANCH  15  16
ENDBRANCH  14  15
ENDBRANCH  13  14
ENDBRANCH   1  13
TORSDOF 20
ENDMDL
MODEL 3
REMARK VINA RESULT:    -4.815      1.000      2.117
REMARK INTER + INTRA:         -12.276
REMARK INTER:                 -10.752
REMARK INTRA:                  -1.524
REMARK UNBOUND:                -1.831
REMARK SMILES CCCCCCCCCCCCCCCCCCCCCC(=O)[O-]
REMARK SMILES IDX 12 1 11 2 10 3 9 4 8 5 7 6 6 7 5 8 4 9 3 10 2 11 1 12 13 13
REMARK SMILES IDX 14 14 15 15 16 16 17 17 18 18 19 19 20 20 21 21 22 22 23 23
REMARK SMILES IDX 24 24
REMARK H PARENT
REMARK Flexibility Score: inf
ROOT
ATOM      1  C   UNL     1      -5.746  -6.277  27.973  1.00  0.00     0.000 C 
ENDROOT
BRANCH   1   2
ATOM      2  C   UNL     1      -5.754  -4.748  28.138  1.00  0.00     0.000 C 
BRANCH   2   3
ATOM      3  C   UNL     1      -5.395  -4.311  29.567  1.00  0.00     0.000 C 
BRANCH   3   4
ATOM      4  C   UNL     1      -5.023  -2.819  29.649  1.00  0.00    -0.000 C 
BRANCH   4   5
ATOM      5  C   UNL     1      -5.183  -2.098  28.301  1.00  0.00    -0.000 C 
BRANCH   5   6
ATOM      6  C   UNL     1      -4.757  -0.619  28.369  1.00  0.00    -0.000 C 
BRANCH   6   7
ATOM      7  C   UNL     1      -3.434  -0.438  29.148  1.00  0.00    -0.000 C 
BRANCH   7   8
ATOM      8  C   UNL     1      -2.269   0.107  28.290  1.00  0.00    -0.000 C 
BRANCH   8   9
ATOM      9  C   UNL     1      -1.681  -0.892  27.273  1.00  0.00    -0.000 C 
BRANCH   9  10
ATOM     10  C   UNL     1      -0.257  -1.365  27.632  1.00  0.00    -0.000 C 
BRANCH  10  11
ATOM     11  C   UNL     1      -0.243  -2.436  28.736  1.00  0.00    -0.003 C 
ATOM     12  C   UNL     1      -1.415  -3.411  28.607  1.00  0.00     0.004 C 
ENDBRANCH  10  11
ENDBRANCH   9  10
ENDBRANCH   8   9
ENDBRANCH   7   8
ENDBRANCH   6   7
ENDBRANCH   5   6
ENDBRANCH   4   5
ENDBRANCH   3   4
ENDBRANCH   2   3
ENDBRANCH   1   2
BRANCH   1  13
ATOM     13  C   UNL     1      -5.770  -7.026  29.322  1.00  0.00     0.000 C 
BRANCH  13  14
ATOM     14  C   UNL     1      -6.258  -8.489  29.217  1.00  0.00     0.000 C 
BRANCH  14  15
ATOM     15  C   UNL     1      -5.519  -9.488  30.125  1.00  0.00     0.000 C 
BRANCH  15  16
ATOM     16  C   UNL     1      -4.688 -10.559  29.381  1.00  0.00     0.000 C 
BRANCH  16  17
ATOM     17  C   UNL     1      -4.962 -10.605  27.863  1.00  0.00     0.000 C 
BRANCH  17  18
ATOM     18  C   UNL     1      -4.044 -11.603  27.133  1.00  0.00     0.000 C 
BRANCH  18  19
ATOM     19  C   UNL     1      -4.361 -11.721  25.638  1.00  0.00     0.000 C 
BRANCH  19  20
ATOM     20  C   UNL     1      -3.649 -12.910  24.964  1.00  0.00     0.006 C 
BRANCH  20  21
ATOM     21  C   UNL     1      -2.648 -12.466  23.888  1.00  0.00     0.053 C 
BRANCH  21  22
ATOM     22  C   UNL     1      -1.224 -12.672  24.317  1.00  0.00     0.041 C 
ATOM     23  O   UNL     1      -0.282 -12.423  23.515  1.00  0.00    -0.550 OA
ATOM     24  O   UNL     1      -0.937 -13.130  25.597  1.00  0.00    -0.550 OA
ENDBRANCH  21  22
ENDBRANCH  20  21
ENDBRANCH  19  20
ENDBRANCH  18  19
ENDBRANCH  17  18
ENDBRANCH  16  17
ENDBRANCH  15  16
ENDBRANCH  14  15
ENDBRANCH  13  14
ENDBRANCH   1  13
TORSDOF 20
ENDMDL
MODEL 4
REMARK VINA RESULT:    -4.745      3.532      9.572
REMARK INTER + INTRA:         -12.123
REMARK INTER:                 -10.747
REMARK INTRA:                  -1.376
REMARK UNBOUND:                -1.831
REMARK SMILES CCCCCCCCCCCCCCCCCCCCCC(=O)[O-]
REMARK SMILES IDX 12 1 11 2 10 3 9 4 8 5 7 6 6 7 5 8 4 9 3 10 2 11 1 12 13 13
REMARK SMILES IDX 14 14 15 15 16 16 17 17 18 18 19 19 20 20 21 21 22 22 23 23
REMARK SMILES IDX 24 24
REMARK H PARENT
REMARK Flexibility Score: inf
ROOT
ATOM      1  C   UNL     1      -6.221  -8.301  29.019  1.00  0.00     0.000 C 
ENDROOT
BRANCH   1   2
ATOM      2  C   UNL     1      -5.679  -9.278  30.075  1.00  0.00     0.000 C 
BRANCH   2   3
ATOM      3  C   UNL     1      -4.928 -10.462  29.447  1.00  0.00     0.000 C 
BRANCH   3   4
ATOM      4  C   UNL     1      -5.018 -10.467  27.909  1.00  0.00    -0.000 C 
BRANCH   4   5
ATOM      5  C   UNL     1      -4.032 -11.455  27.266  1.00  0.00    -0.000 C 
BRANCH   5   6
ATOM      6  C   UNL     1      -4.344 -11.717  25.781  1.00  0.00    -0.000 C 
BRANCH   6   7
ATOM      7  C   UNL     1      -3.410 -12.792  25.180  1.00  0.00    -0.000 C 
BRANCH   7   8
ATOM      8  C   UNL     1      -2.628 -12.319  23.932  1.00  0.00    -0.000 C 
BRANCH   8   9
ATOM      9  C   UNL     1      -1.221 -12.928  23.770  1.00  0.00    -0.000 C 
BRANCH   9  10
ATOM     10  C   UNL     1      -0.478 -13.117  25.108  1.00  0.00    -0.000 C 
BRANCH  10  11
ATOM     11  C   UNL     1       0.166 -11.819  25.624  1.00  0.00    -0.003 C 
ATOM     12  C   UNL     1      -0.334 -11.443  27.020  1.00  0.00     0.004 C 
ENDBRANCH  10  11
ENDBRANCH   9  10
ENDBRANCH   8   9
ENDBRANCH   7   8
ENDBRANCH   6   7
ENDBRANCH   5   6
ENDBRANCH   4   5
ENDBRANCH   3   4
ENDBRANCH   2   3
ENDBRANCH   1   2
BRANCH   1  13
ATOM     13  C   UNL     1      -5.750  -6.848  29.248  1.00  0.00     0.000 C 
BRANCH  13  14
ATOM     14  C   UNL     1      -5.797  -5.968  27.980  1.00  0.00     0.000 C 
BRANCH  14  15
ATOM     15  C   UNL     1      -5.679  -4.454  28.233  1.00  0.00     0.000 C 
BRANCH  15  16
ATOM     16  C   UNL     1      -4.474  -4.027  29.102  1.00  0.00     0.000 C 
BRANCH  16  17
ATOM     17  C   UNL     1      -4.655  -2.648  29.770  1.00  0.00     0.000 C 
BRANCH  17  18
ATOM     18  C   UNL     1      -5.355  -1.637  28.843  1.00  0.00     0.000 C 
BRANCH  18  19
ATOM     19  C   UNL     1      -4.387  -0.933  27.887  1.00  0.00     0.000 C 
BRANCH  19  20
ATOM     20  C   UNL     1      -2.967  -0.784  28.470  1.00  0.00     0.006 C 
BRANCH  20  21
ATOM     21  C   UNL     1      -1.908  -0.530  27.388  1.00  0.00     0.053 C 
BRANCH  21  22
ATOM     22  C   UNL     1      -0.638  -1.286  27.647  1.00  0.00     0.041 C 
ATOM     23  O   UNL     1      -0.634  -2.255  28.454  1.00  0.00    -0.550 OA
ATOM     24  O   UNL     1       0.536  -0.927  26.994  1.00  0.00    -0.550 OA
ENDBRANCH  21  22
ENDBRANCH  20  21
ENDBRANCH  19  20
ENDBRANCH  18  19
ENDBRANCH  17  18
ENDBRANCH  16  17
ENDBRANCH  15  16
ENDBRANCH  14  15
ENDBRANCH  13  14
ENDBRANCH   1  13
TORSDOF 20
ENDMDL
MODEL 5
REMARK VINA RESULT:    -4.729      3.934      9.709
REMARK INTER + INTRA:         -12.090
REMARK INTER:                 -10.689
REMARK INTRA:                  -1.401
REMARK UNBOUND:                -1.831
REMARK SMILES CCCCCCCCCCCCCCCCCCCCCC(=O)[O-]
REMARK SMILES IDX 12 1 11 2 10 3 9 4 8 5 7 6 6 7 5 8 4 9 3 10 2 11 1 12 13 13
REMARK SMILES IDX 14 14 15 15 16 16 17 17 18 18 19 19 20 20 21 21 22 22 23 23
REMARK SMILES IDX 24 24
REMARK H PARENT
REMARK Flexibility Score: inf
ROOT
ATOM      1  C   UNL     1      -5.451  -9.513  28.560  1.00  0.00     0.000 C 
ENDROOT
BRANCH   1   2
ATOM      2  C   UNL     1      -4.714 -10.704  29.192  1.00  0.00     0.000 C 
BRANCH   2   3
ATOM      3  C   UNL     1      -4.121 -11.653  28.138  1.00  0.00     0.000 C 
BRANCH   3   4
ATOM      4  C   UNL     1      -4.598 -11.320  26.712  1.00  0.00    -0.000 C 
BRANCH   4   5
ATOM      5  C   UNL     1      -4.328 -12.462  25.720  1.00  0.00    -0.000 C 
BRANCH   5   6
ATOM      6  C   UNL     1      -3.506 -12.003  24.501  1.00  0.00    -0.000 C 
BRANCH   6   7
ATOM      7  C   UNL     1      -2.612 -13.138  23.951  1.00  0.00    -0.000 C 
BRANCH   7   8
ATOM      8  C   UNL     1      -1.344 -12.640  23.218  1.00  0.00    -0.000 C 
BRANCH   8   9
ATOM      9  C   UNL     1      -0.422 -11.726  24.050  1.00  0.00    -0.000 C 
BRANCH   9  10
ATOM     10  C   UNL     1      -0.042 -12.324  25.420  1.00  0.00    -0.000 C 
BRANCH  10  11
ATOM     11  C   UNL     1      -0.002 -11.271  26.541  1.00  0.00    -0.003 C 
ATOM     12  C   UNL     1      -0.567 -11.810  27.857  1.00  0.00     0.004 C 
ENDBRANCH  10  11
ENDBRANCH   9  10
ENDBRANCH   8   9
ENDBRANCH   7   8
ENDBRANCH   6   7
ENDBRANCH   5   6
ENDBRANCH   4   5
ENDBRANCH   3   4
ENDBRANCH   2   3
ENDBRANCH   1   2
BRANCH   1  13
ATOM     13  C   UNL     1      -6.234  -8.675  29.593  1.00  0.00     0.000 C 
BRANCH  13  14
ATOM     14  C   UNL     1      -5.841  -7.180  29.613  1.00  0.00     0.000 C 
BRANCH  14  15
ATOM     15  C   UNL     1      -5.839  -6.490  28.237  1.00  0.00     0.000 C 
BRANCH  15  16
ATOM     16  C   UNL     1      -5.603  -4.963  28.271  1.00  0.00     0.000 C 
BRANCH  16  17
ATOM     17  C   UNL     1      -5.573  -4.376  29.698  1.00  0.00     0.000 C 
BRANCH  17  18
ATOM     18  C   UNL     1      -4.887  -2.999  29.750  1.00  0.00     0.000 C 
BRANCH  18  19
ATOM     19  C   UNL     1      -5.414  -2.029  28.687  1.00  0.00     0.000 C 
BRANCH  19  20
ATOM     20  C   UNL     1      -4.596  -0.725  28.603  1.00  0.00     0.006 C 
BRANCH  20  21
ATOM     21  C   UNL     1      -3.362  -0.859  27.700  1.00  0.00     0.053 C 
BRANCH  21  22
ATOM     22  C   UNL     1      -2.090  -0.521  28.420  1.00  0.00     0.041 C 
ATOM     23  O   UNL     1      -1.960   0.604  28.977  1.00  0.00    -0.550 OA
ATOM     24  O   UNL     1      -1.055  -1.446  28.484  1.00  0.00    -0.550 OA
ENDBRANCH  21  22
ENDBRANCH  20  21
ENDBRANCH  19  20
ENDBRANCH  18  19
ENDBRANCH  17  18
ENDBRANCH  16  17
ENDBRANCH  15  16
ENDBRANCH  14  15
ENDBRANCH  13  14
ENDBRANCH   1  13
TORSDOF 20
ENDMDL
MODEL 6
REMARK VINA RESULT:    -4.691      3.807     10.335
REMARK INTER + INTRA:         -12.008
REMARK INTER:                 -10.945
REMARK INTRA:                  -1.063
REMARK UNBOUND:                -1.831
REMARK SMILES CCCCCCCCCCCCCCCCCCCCCC(=O)[O-]
REMARK SMILES IDX 12 1 11 2 10 3 9 4 8 5 7 6 6 7 5 8 4 9 3 10 2 11 1 12 13 13
REMARK SMILES IDX 14 14 15 15 16 16 17 17 18 18 19 19 20 20 21 21 22 22 23 23
REMARK SMILES IDX 24 24
REMARK H PARENT
REMARK Flexibility Score: inf
ROOT
ATOM      1  C   UNL     1      -6.288  -8.719  29.579  1.00  0.00     0.000 C 
ENDROOT
BRANCH   1   2
ATOM      2  C   UNL     1      -5.466  -9.608  28.632  1.00  0.00     0.000 C 
BRANCH   2   3
ATOM      3  C   UNL     1      -4.573 -10.603  29.390  1.00  0.00     0.000 C 
BRANCH   3   4
ATOM      4  C   UNL     1      -3.952 -11.662  28.459  1.00  0.00    -0.000 C 
BRANCH   4   5
ATOM      5  C   UNL     1      -4.293 -11.417  26.981  1.00  0.00    -0.000 C 
BRANCH   5   6
ATOM      6  C   UNL     1      -4.975 -12.632  26.323  1.00  0.00    -0.000 C 
BRANCH   6   7
ATOM      7  C   UNL     1      -4.021 -13.374  25.360  1.00  0.00    -0.000 C 
BRANCH   7   8
ATOM      8  C   UNL     1      -2.823 -12.520  24.880  1.00  0.00    -0.000 C 
BRANCH   8   9
ATOM      9  C   UNL     1      -2.310 -12.848  23.464  1.00  0.00    -0.000 C 
BRANCH   9  10
ATOM     10  C   UNL     1      -3.429 -13.276  22.491  1.00  0.00    -0.000 C 
BRANCH  10  11
ATOM     11  C   UNL     1      -2.901 -14.077  21.289  1.00  0.00    -0.003 C 
ATOM     12  C   UNL     1      -3.999 -14.370  20.265  1.00  0.00     0.004 C 
ENDBRANCH  10  11
ENDBRANCH   9  10
ENDBRANCH   8   9
ENDBRANCH   7   8
ENDBRANCH   6   7
ENDBRANCH   5   6
ENDBRANCH   4   5
ENDBRANCH   3   4
ENDBRANCH   2   3
ENDBRANCH   1   2
BRANCH   1  13
ATOM     13  C   UNL     1      -5.790  -7.258  29.616  1.00  0.00     0.000 C 
BRANCH  13  14
ATOM     14  C   UNL     1      -5.857  -6.541  28.249  1.00  0.00     0.000 C 
BRANCH  14  15
ATOM     15  C   UNL     1      -5.321  -5.097  28.245  1.00  0.00     0.000 C 
BRANCH  15  16
ATOM     16  C   UNL     1      -5.573  -4.301  29.546  1.00  0.00     0.000 C 
BRANCH  16  17
ATOM     17  C   UNL     1      -4.813  -2.960  29.604  1.00  0.00     0.000 C 
BRANCH  17  18
ATOM     18  C   UNL     1      -5.434  -1.895  28.681  1.00  0.00     0.000 C 
BRANCH  18  19
ATOM     19  C   UNL     1      -4.412  -0.870  28.179  1.00  0.00     0.000 C 
BRANCH  19  20
ATOM     20  C   UNL     1      -2.962  -1.394  28.224  1.00  0.00     0.006 C 
BRANCH  20  21
ATOM     21  C   UNL     1      -1.985  -0.493  27.456  1.00  0.00     0.053 C 
BRANCH  21  22
ATOM     22  C   UNL     1      -0.559  -0.935  27.614  1.00  0.00     0.041 C 
ATOM     23  O   UNL     1      -0.093  -1.840  26.870  1.00  0.00    -0.550 OA
ATOM     24  O   UNL     1       0.253  -0.344  28.574  1.00  0.00    -0.550 OA
ENDBRANCH  21  22
ENDBRANCH  20  21
ENDBRANCH  19  20
ENDBRANCH  18  19
ENDBRANCH  17  18
ENDBRANCH  16  17
ENDBRANCH  15  16
ENDBRANCH  14  15
ENDBRANCH  13  14
ENDBRANCH   1  13
TORSDOF 20
ENDMDL
MODEL 7
REMARK VINA RESULT:    -4.645      1.244      1.759
REMARK INTER + INTRA:         -11.907
REMARK INTER:                 -10.423
REMARK INTRA:                  -1.484
REMARK UNBOUND:                -1.831
REMARK SMILES CCCCCCCCCCCCCCCCCCCCCC(=O)[O-]
REMARK SMILES IDX 12 1 11 2 10 3 9 4 8 5 7 6 6 7 5 8 4 9 3 10 2 11 1 12 13 13
REMARK SMILES IDX 14 14 15 15 16 16 17 17 18 18 19 19 20 20 21 21 22 22 23 23
REMARK SMILES IDX 24 24
REMARK H PARENT
REMARK Flexibility Score: inf
ROOT
ATOM      1  C   UNL     1      -4.127  -3.385  29.161  1.00  0.00     0.000 C 
ENDROOT
BRANCH   1   2
ATOM      2  C   UNL     1      -5.258  -2.457  28.689  1.00  0.00     0.000 C 
BRANCH   2   3
ATOM      3  C   UNL     1      -4.744  -1.068  28.280  1.00  0.00     0.000 C 
BRANCH   3   4
ATOM      4  C   UNL     1      -5.412   0.066  29.081  1.00  0.00    -0.000 C 
BRANCH   4   5
ATOM      5  C   UNL     1      -4.388   0.958  29.801  1.00  0.00    -0.000 C 
BRANCH   5   6
ATOM      6  C   UNL     1      -2.945   0.701  29.327  1.00  0.00    -0.000 C 
BRANCH   6   7
ATOM      7  C   UNL     1      -2.122   2.008  29.263  1.00  0.00    -0.000 C 
BRANCH   7   8
ATOM      8  C   UNL     1      -1.111   2.057  28.093  1.00  0.00    -0.000 C 
BRANCH   8   9
ATOM      9  C   UNL     1      -1.078   0.799  27.202  1.00  0.00    -0.000 C 
BRANCH   9  10
ATOM     10  C   UNL     1       0.171  -0.078  27.428  1.00  0.00    -0.000 C 
BRANCH  10  11
ATOM     11  C   UNL     1      -0.087  -1.568  27.148  1.00  0.00    -0.003 C 
ATOM     12  C   UNL     1      -0.765  -2.267  28.329  1.00  0.00     0.004 C 
ENDBRANCH  10  11
ENDBRANCH   9  10
ENDBRANCH   8   9
ENDBRANCH   7   8
ENDBRANCH   6   7
ENDBRANCH   5   6
ENDBRANCH   4   5
ENDBRANCH   3   4
ENDBRANCH   2   3
ENDBRANCH   1   2
BRANCH   1  13
ATOM     13  C   UNL     1      -4.267  -4.825  28.621  1.00  0.00     0.000 C 
BRANCH  13  14
ATOM     14  C   UNL     1      -5.688  -5.412  28.768  1.00  0.00     0.000 C 
BRANCH  14  15
ATOM     15  C   UNL     1      -5.843  -6.868  28.292  1.00  0.00     0.000 C 
BRANCH  15  16
ATOM     16  C   UNL     1      -5.971  -7.917  29.421  1.00  0.00     0.000 C 
BRANCH  16  17
ATOM     17  C   UNL     1      -6.015  -9.371  28.907  1.00  0.00     0.000 C 
BRANCH  17  18
ATOM     18  C   UNL     1      -4.954 -10.261  29.580  1.00  0.00     0.000 C 
BRANCH  18  19
ATOM     19  C   UNL     1      -4.177 -11.124  28.580  1.00  0.00     0.000 C 
BRANCH  19  20
ATOM     20  C   UNL     1      -4.687 -10.974  27.132  1.00  0.00     0.006 C 
BRANCH  20  21
ATOM     21  C   UNL     1      -4.728 -12.311  26.379  1.00  0.00     0.053 C 
BRANCH  21  22
ATOM     22  C   UNL     1      -3.492 -12.541  25.559  1.00  0.00     0.041 C 
ATOM     23  O   UNL     1      -3.591 -12.962  24.374  1.00  0.00    -0.550 OA
ATOM     24  O   UNL     1      -2.237 -12.283  26.098  1.00  0.00    -0.550 OA
ENDBRANCH  21  22
ENDBRANCH  20  21
ENDBRANCH  19  20
ENDBRANCH  18  19
ENDBRANCH  17  18
ENDBRANCH  16  17
ENDBRANCH  15  16
ENDBRANCH  14  15
ENDBRANCH  13  14
ENDBRANCH   1  13
TORSDOF 20
ENDMDL
MODEL 8
REMARK VINA RESULT:    -4.583      1.720      3.497
REMARK INTER + INTRA:         -11.774
REMARK INTER:                 -10.619
REMARK INTRA:                  -1.154
REMARK UNBOUND:                -1.831
REMARK SMILES CCCCCCCCCCCCCCCCCCCCCC(=O)[O-]
REMARK SMILES IDX 12 1 11 2 10 3 9 4 8 5 7 6 6 7 5 8 4 9 3 10 2 11 1 12 13 13
REMARK SMILES IDX 14 14 15 15 16 16 17 17 18 18 19 19 20 20 21 21 22 22 23 23
REMARK SMILES IDX 24 24
REMARK H PARENT
REMARK Flexibility Score: inf
ROOT
ATOM      1  C   UNL     1      -5.771  -7.064  29.306  1.00  0.00     0.000 C 
ENDROOT
BRANCH   1   2
ATOM      2  C   UNL     1      -5.777  -6.247  28.003  1.00  0.00     0.000 C 
BRANCH   2   3
ATOM      3  C   UNL     1      -5.676  -4.735  28.258  1.00  0.00     0.000 C 
BRANCH   3   4
ATOM      4  C   UNL     1      -4.360  -4.343  28.954  1.00  0.00    -0.000 C 
BRANCH   4   5
ATOM      5  C   UNL     1      -4.472  -3.012  29.715  1.00  0.00    -0.000 C 
BRANCH   5   6
ATOM      6  C   UNL     1      -5.358  -1.987  28.982  1.00  0.00    -0.000 C 
BRANCH   6   7
ATOM      7  C   UNL     1      -4.570  -1.218  27.897  1.00  0.00    -0.000 C 
BRANCH   7   8
ATOM      8  C   UNL     1      -3.265  -0.566  28.412  1.00  0.00    -0.000 C 
BRANCH   8   9
ATOM      9  C   UNL     1      -2.093  -0.565  27.411  1.00  0.00    -0.000 C 
BRANCH   9  10
ATOM     10  C   UNL     1      -0.890   0.281  27.876  1.00  0.00    -0.000 C 
BRANCH  10  11
ATOM     11  C   UNL     1      -0.849   1.672  27.222  1.00  0.00    -0.003 C 
ATOM     12  C   UNL     1      -0.841   2.797  28.259  1.00  0.00     0.004 C 
ENDBRANCH  10  11
ENDBRANCH   9  10
ENDBRANCH   8   9
ENDBRANCH   7   8
ENDBRANCH   6   7
ENDBRANCH   5   6
ENDBRANCH   4   5
ENDBRANCH   3   4
ENDBRANCH   2   3
ENDBRANCH   1   2
BRANCH   1  13
ATOM     13  C   UNL     1      -6.191  -8.534  29.095  1.00  0.00     0.000 C 
BRANCH  13  14
ATOM     14  C   UNL     1      -5.432  -9.536  29.993  1.00  0.00     0.000 C 
BRANCH  14  15
ATOM     15  C   UNL     1      -4.656 -10.631  29.237  1.00  0.00     0.000 C 
BRANCH  15  16
ATOM     16  C   UNL     1      -4.878 -10.653  27.707  1.00  0.00     0.000 C 
BRANCH  16  17
ATOM     17  C   UNL     1      -4.183 -11.836  27.002  1.00  0.00     0.000 C 
BRANCH  17  18
ATOM     18  C   UNL     1      -4.253 -11.726  25.468  1.00  0.00     0.000 C 
BRANCH  18  19
ATOM     19  C   UNL     1      -3.393 -12.774  24.755  1.00  0.00     0.000 C 
BRANCH  19  20
ATOM     20  C   UNL     1      -2.065 -12.202  24.221  1.00  0.00     0.006 C 
BRANCH  20  21
ATOM     21  C   UNL     1      -0.842 -12.756  24.965  1.00  0.00     0.053 C 
BRANCH  21  22
ATOM     22  C   UNL     1      -0.247 -11.751  25.909  1.00  0.00     0.041 C 
ATOM     23  O   UNL     1       0.665 -10.976  25.511  1.00  0.00    -0.550 OA
ATOM     24  O   UNL     1      -0.703 -11.666  27.219  1.00  0.00    -0.550 OA
ENDBRANCH  21  22
ENDBRANCH  20  21
ENDBRANCH  19  20
ENDBRANCH  18  19
ENDBRANCH  17  18
ENDBRANCH  16  17
ENDBRANCH  15  16
ENDBRANCH  14  15
ENDBRANCH  13  14
ENDBRANCH   1  13
TORSDOF 20
ENDMDL
MODEL 9
REMARK VINA RESULT:    -4.582      3.567     10.199
REMARK INTER + INTRA:         -11.770
REMARK INTER:                 -10.858
REMARK INTRA:                  -0.911
REMARK UNBOUND:                -1.831
REMARK SMILES CCCCCCCCCCCCCCCCCCCCCC(=O)[O-]
REMARK SMILES IDX 12 1 11 2 10 3 9 4 8 5 7 6 6 7 5 8 4 9 3 10 2 11 1 12 13 13
REMARK SMILES IDX 14 14 15 15 16 16 17 17 18 18 19 19 20 20 21 21 22 22 23 23
REMARK SMILES IDX 24 24
REMARK H PARENT
REMARK Flexibility Score: inf
ROOT
ATOM      1  C   UNL     1      -5.379  -5.801  29.337  1.00  0.00     0.000 C 
ENDROOT
BRANCH   1   2
ATOM      2  C   UNL     1      -6.072  -6.963  28.608  1.00  0.00     0.000 C 
BRANCH   2   3
ATOM      3  C   UNL     1      -6.091  -8.252  29.444  1.00  0.00     0.000 C 
BRANCH   3   4
ATOM      4  C   UNL     1      -5.764  -9.502  28.606  1.00  0.00    -0.000 C 
BRANCH   4   5
ATOM      5  C   UNL     1      -4.679 -10.377  29.253  1.00  0.00    -0.000 C 
BRANCH   5   6
ATOM      6  C   UNL     1      -4.077 -11.396  28.267  1.00  0.00    -0.000 C 
BRANCH   6   7
ATOM      7  C   UNL     1      -4.622 -11.199  26.834  1.00  0.00    -0.000 C 
BRANCH   7   8
ATOM      8  C   UNL     1      -4.619 -12.486  25.977  1.00  0.00    -0.000 C 
BRANCH   8   9
ATOM      9  C   UNL     1      -3.287 -12.800  25.269  1.00  0.00    -0.000 C 
BRANCH   9  10
ATOM     10  C   UNL     1      -3.297 -12.459  23.764  1.00  0.00    -0.000 C 
BRANCH  10  11
ATOM     11  C   UNL     1      -2.675 -13.565  22.896  1.00  0.00    -0.003 C 
ATOM     12  C   UNL     1      -3.514 -13.860  21.651  1.00  0.00     0.004 C 
ENDBRANCH  10  11
ENDBRANCH   9  10
ENDBRANCH   8   9
ENDBRANCH   7   8
ENDBRANCH   6   7
ENDBRANCH   5   6
ENDBRANCH   4   5
ENDBRANCH   3   4
ENDBRANCH   2   3
ENDBRANCH   1   2
BRANCH   1  13
ATOM     13  C   UNL     1      -4.880  -4.701  28.375  1.00  0.00     0.000 C 
BRANCH  13  14
ATOM     14  C   UNL     1      -5.806  -3.466  28.304  1.00  0.00     0.000 C 
BRANCH  14  15
ATOM     15  C   UNL     1      -5.310  -2.236  29.086  1.00  0.00     0.000 C 
BRANCH  15  16
ATOM     16  C   UNL     1      -4.677  -1.122  28.221  1.00  0.00     0.000 C 
BRANCH  16  17
ATOM     17  C   UNL     1      -3.176  -0.902  28.504  1.00  0.00     0.000 C 
BRANCH  17  18
ATOM     18  C   UNL     1      -2.910   0.410  29.266  1.00  0.00     0.000 C 
BRANCH  18  19
ATOM     19  C   UNL     1      -1.791   1.248  28.640  1.00  0.00     0.000 C 
BRANCH  19  20
ATOM     20  C   UNL     1      -1.143   0.569  27.417  1.00  0.00     0.006 C 
BRANCH  20  21
ATOM     21  C   UNL     1       0.355   0.298  27.616  1.00  0.00     0.053 C 
BRANCH  21  22
ATOM     22  C   UNL     1       0.689  -1.161  27.504  1.00  0.00     0.041 C 
ATOM     23  O   UNL     1      -0.040  -1.923  26.812  1.00  0.00    -0.550 OA
ATOM     24  O   UNL     1       1.804  -1.676  28.154  1.00  0.00    -0.550 OA
ENDBRANCH  21  22
ENDBRANCH  20  21
ENDBRANCH  19  20
ENDBRANCH  18  19
ENDBRANCH  17  18
ENDBRANCH  16  17
ENDBRANCH  15  16
ENDBRANCH  14  15
ENDBRANCH  13  14
ENDBRANCH   1  13
TORSDOF 20
ENDMDL
