MODEL 1
REMARK VINA RESULT:    -5.110      0.000      0.000
REMARK INTER + INTRA:         -14.567
REMARK INTER:                 -11.085
REMARK INTRA:                  -3.481
REMARK UNBOUND:                -3.481
REMARK SMILES CCCCCCCCCCCCCCCCCCCCCC(=O)[O-]
REMARK SMILES IDX 12 1 11 2 10 3 9 4 8 5 7 6 6 7 5 8 4 9 3 10 2 11 1 12 13 13
REMARK SMILES IDX 14 14 15 15 16 16 17 17 18 18 19 19 20 20 21 21 22 22 23 23
REMARK SMILES IDX 24 24
REMARK H PARENT
REMARK Flexibility Score: inf
ROOT
ATOM      1  C   UNL     1      19.952  52.600  19.372  1.00  0.00     0.000 C 
ENDROOT
BRANCH   1   2
ATOM      2  C   UNL     1      20.034  53.412  18.067  1.00  0.00     0.000 C 
BRANCH   2   3
ATOM      3  C   UNL     1      19.878  52.534  16.815  1.00  0.00     0.000 C 
BRANCH   3   4
ATOM      4  C   UNL     1      18.727  53.002  15.907  1.00  0.00    -0.000 C 
BRANCH   4   5
ATOM      5  C   UNL     1      19.221  53.641  14.596  1.00  0.00    -0.000 C 
BRANCH   5   6
ATOM      6  C   UNL     1      18.592  55.006  14.243  1.00  0.00    -0.000 C 
BRANCH   6   7
ATOM      7  C   UNL     1      17.631  55.001  13.037  1.00  0.00    -0.000 C 
BRANCH   7   8
ATOM      8  C   UNL     1      16.148  54.775  13.408  1.00  0.00    -0.000 C 
BRANCH   8   9
ATOM      9  C   UNL     1      15.793  55.213  14.842  1.00  0.00    -0.000 C 
BRANCH   9  10
ATOM     10  C   UNL     1      14.306  55.534  15.067  1.00  0.00    -0.000 C 
BRANCH  10  11
ATOM     11  C   UNL     1      14.053  56.305  16.370  1.00  0.00    -0.003 C 
ATOM     12  C   UNL     1      14.686  57.692  16.316  1.00  0.00     0.004 C 
ENDBRANCH  10  11
ENDBRANCH   9  10
ENDBRANCH   8   9
ENDBRANCH   7   8
ENDBRANCH   6   7
ENDBRANCH   5   6
ENDBRANCH   4   5
ENDBRANCH   3   4
ENDBRANCH   2   3
ENDBRANCH   1   2
BRANCH   1  13
ATOM     13  C   UNL     1      18.709  52.951  20.205  1.00  0.00     0.000 C 
BRANCH  13  14
ATOM     14  C   UNL     1      17.394  52.611  19.481  1.00  0.00     0.000 C 
BRANCH  14  15
ATOM     15  C   UNL     1      16.370  53.756  19.557  1.00  0.00     0.000 C 
BRANCH  15  16
ATOM     16  C   UNL     1      16.388  54.644  18.301  1.00  0.00     0.000 C 
BRANCH  16  17
ATOM     17  C   UNL     1      17.071  55.999  18.545  1.00  0.00     0.000 C 
BRANCH  17  18
ATOM     18  C   UNL     1      18.203  56.278  17.544  1.00  0.00     0.000 C 
BRANCH  18  19
ATOM     19  C   UNL     1      19.180  57.325  18.099  1.00  0.00     0.000 C 
BRANCH  19  20
ATOM     20  C   UNL     1      20.644  57.014  17.745  1.00  0.00     0.006 C 
BRANCH  20  21
ATOM     21  C   UNL     1      20.828  56.632  16.272  1.00  0.00     0.053 C 
BRANCH  21  22
ATOM     22  C   UNL     1      22.214  56.124  16.035  1.00  0.00     0.041 C 
ATOM     23  O   UNL     1      22.509  54.931  16.312  1.00  0.00    -0.550 OA
ATOM     24  O   UNL     1      23.169  56.953  15.459  1.00  0.00    -0.550 OA
ENDBRANCH  21  22
ENDBRANCH  20  21
ENDBRANCH  19  20
ENDBRANCH  18  19
ENDBRANCH  17  18
ENDBRANCH  16  17
ENDBRANCH  15  16
ENDBRANCH  14  15
ENDBRANCH  13  14
ENDBRANCH   1  13
TORSDOF 20
ENDMDL
MODEL 2
REMARK VINA RESULT:    -5.097      2.909      5.414
REMARK INTER + INTRA:         -14.537
REMARK INTER:                 -11.273
REMARK INTRA:                  -3.264
REMARK UNBOUND:                -3.481
REMARK SMILES CCCCCCCCCCCCCCCCCCCCCC(=O)[O-]
REMARK SMILES IDX 12 1 11 2 10 3 9 4 8 5 7 6 6 7 5 8 4 9 3 10 2 11 1 12 13 13
REMARK SMILES IDX 14 14 15 15 16 16 17 17 18 18 19 19 20 20 21 21 22 22 23 23
REMARK SMILES IDX 24 24
REMARK H PARENT
REMARK Flexibility Score: inf
ROOT
ATOM      1  C   UNL     1      18.215  56.801  15.888  1.00  0.00     0.000 C 
ENDROOT
BRANCH   1   2
ATOM      2  C   UNL     1      16.980  55.894  15.736  1.00  0.00     0.000 C 
BRANCH   2   3
ATOM      3  C   UNL     1      17.219  54.730  14.761  1.00  0.00     0.000 C 
BRANCH   3   4
ATOM      4  C   UNL     1      18.409  54.986  13.820  1.00  0.00    -0.000 C 
BRANCH   4   5
ATOM      5  C   UNL     1      19.509  53.916  13.940  1.00  0.00    -0.000 C 
BRANCH   5   6
ATOM      6  C   UNL     1      19.352  52.931  15.118  1.00  0.00    -0.000 C 
BRANCH   6   7
ATOM      7  C   UNL     1      20.522  52.907  16.123  1.00  0.00    -0.000 C 
BRANCH   7   8
ATOM      8  C   UNL     1      20.084  52.905  17.606  1.00  0.00    -0.000 C 
BRANCH   8   9
ATOM      9  C   UNL     1      18.561  52.780  17.803  1.00  0.00    -0.000 C 
BRANCH   9  10
ATOM     10  C   UNL     1      17.973  53.716  18.872  1.00  0.00    -0.000 C 
BRANCH  10  11
ATOM     11  C   UNL     1      16.448  53.856  18.766  1.00  0.00    -0.003 C 
ATOM     12  C   UNL     1      15.991  55.234  19.234  1.00  0.00     0.004 C 
ENDBRANCH  10  11
ENDBRANCH   9  10
ENDBRANCH   8   9
ENDBRANCH   7   8
ENDBRANCH   6   7
ENDBRANCH   5   6
ENDBRANCH   4   5
ENDBRANCH   3   4
ENDBRANCH   2   3
ENDBRANCH   1   2
BRANCH   1  13
ATOM     13  C   UNL     1      18.698  56.896  17.344  1.00  0.00     0.000 C 
BRANCH  13  14
ATOM     14  C   UNL     1      20.218  56.693  17.480  1.00  0.00     0.000 C 
BRANCH  14  15
ATOM     15  C   UNL     1      20.937  56.715  16.121  1.00  0.00     0.000 C 
BRANCH  15  16
ATOM     16  C   UNL     1      22.193  55.827  16.107  1.00  0.00     0.000 C 
BRANCH  16  17
ATOM     17  C   UNL     1      23.495  56.644  16.108  1.00  0.00     0.000 C 
BRANCH  17  18
ATOM     18  C   UNL     1      24.619  55.959  16.899  1.00  0.00     0.000 C 
BRANCH  18  19
ATOM     19  C   UNL     1      25.922  55.927  16.085  1.00  0.00     0.000 C 
BRANCH  19  20
ATOM     20  C   UNL     1      26.952  54.938  16.654  1.00  0.00     0.006 C 
BRANCH  20  21
ATOM     21  C   UNL     1      26.546  54.388  18.027  1.00  0.00     0.053 C 
BRANCH  21  22
ATOM     22  C   UNL     1      27.257  55.127  19.115  1.00  0.00     0.041 C 
ATOM     23  O   UNL     1      26.680  55.352  20.212  1.00  0.00    -0.550 OA
ATOM     24  O   UNL     1      28.578  55.524  18.939  1.00  0.00    -0.550 OA
ENDBRANCH  21  22
ENDBRANCH  20  21
ENDBRANCH  19  20
ENDBRANCH  18  19
ENDBRANCH  17  18
ENDBRANCH  16  17
ENDBRANCH  15  16
ENDBRANCH  14  15
ENDBRANCH  13  14
ENDBRANCH   1  13
TORSDOF 20
ENDMDL
MODEL 3
REMARK VINA RESULT:    -4.995      2.940      6.902
REMARK INTER + INTRA:         -14.316
REMARK INTER:                 -10.911
REMARK INTRA:                  -3.405
REMARK UNBOUND:                -3.481
REMARK SMILES CCCCCCCCCCCCCCCCCCCCCC(=O)[O-]
REMARK SMILES IDX 12 1 11 2 10 3 9 4 8 5 7 6 6 7 5 8 4 9 3 10 2 11 1 12 13 13
REMARK SMILES IDX 14 14 15 15 16 16 17 17 18 18 19 19 20 20 21 21 22 22 23 23
REMARK SMILES IDX 24 24
REMARK H PARENT
REMARK Flexibility Score: inf
ROOT
ATOM      1  C   UNL     1      18.563  55.103  13.959  1.00  0.00     0.000 C 
ENDROOT
BRANCH   1   2
ATOM      2  C   UNL     1      17.785  55.339  15.266  1.00  0.00     0.000 C 
BRANCH   2   3
ATOM      3  C   UNL     1      18.088  56.708  15.895  1.00  0.00     0.000 C 
BRANCH   3   4
ATOM      4  C   UNL     1      18.538  56.596  17.362  1.00  0.00    -0.000 C 
BRANCH   4   5
ATOM      5  C   UNL     1      20.061  56.739  17.533  1.00  0.00    -0.000 C 
BRANCH   5   6
ATOM      6  C   UNL     1      20.853  57.025  16.239  1.00  0.00    -0.000 C 
BRANCH   6   7
ATOM      7  C   UNL     1      21.972  56.016  15.909  1.00  0.00    -0.000 C 
BRANCH   7   8
ATOM      8  C   UNL     1      23.254  56.194  16.754  1.00  0.00    -0.000 C 
BRANCH   8   9
ATOM      9  C   UNL     1      24.462  56.711  15.949  1.00  0.00    -0.000 C 
BRANCH   9  10
ATOM     10  C   UNL     1      25.779  55.963  16.215  1.00  0.00    -0.000 C 
BRANCH  10  11
ATOM     11  C   UNL     1      25.558  54.549  16.772  1.00  0.00    -0.003 C 
ATOM     12  C   UNL     1      26.547  54.242  17.891  1.00  0.00     0.004 C 
ENDBRANCH  10  11
ENDBRANCH   9  10
ENDBRANCH   8   9
ENDBRANCH   7   8
ENDBRANCH   6   7
ENDBRANCH   5   6
ENDBRANCH   4   5
ENDBRANCH   3   4
ENDBRANCH   2   3
ENDBRANCH   1   2
BRANCH   1  13
ATOM     13  C   UNL     1      19.506  53.892  14.047  1.00  0.00     0.000 C 
BRANCH  13  14
ATOM     14  C   UNL     1      19.248  53.027  15.293  1.00  0.00     0.000 C 
BRANCH  14  15
ATOM     15  C   UNL     1      20.486  52.914  16.197  1.00  0.00     0.000 C 
BRANCH  15  16
ATOM     16  C   UNL     1      20.142  53.072  17.688  1.00  0.00     0.000 C 
BRANCH  16  17
ATOM     17  C   UNL     1      18.632  52.985  17.958  1.00  0.00     0.000 C 
BRANCH  17  18
ATOM     18  C   UNL     1      18.276  53.296  19.420  1.00  0.00     0.000 C 
BRANCH  18  19
ATOM     19  C   UNL     1      16.753  53.364  19.612  1.00  0.00     0.000 C 
BRANCH  19  20
ATOM     20  C   UNL     1      16.162  54.716  19.181  1.00  0.00     0.006 C 
BRANCH  20  21
ATOM     21  C   UNL     1      14.970  54.563  18.230  1.00  0.00     0.053 C 
BRANCH  21  22
ATOM     22  C   UNL     1      14.740  55.833  17.473  1.00  0.00     0.041 C 
ATOM     23  O   UNL     1      14.913  56.947  18.036  1.00  0.00    -0.550 OA
ATOM     24  O   UNL     1      14.384  55.789  16.131  1.00  0.00    -0.550 OA
ENDBRANCH  21  22
ENDBRANCH  20  21
ENDBRANCH  19  20
ENDBRANCH  18  19
ENDBRANCH  17  18
ENDBRANCH  16  17
ENDBRANCH  15  16
ENDBRANCH  14  15
ENDBRANCH  13  14
ENDBRANCH   1  13
TORSDOF 20
ENDMDL
MODEL 4
REMARK VINA RESULT:    -4.758      2.728      6.254
REMARK INTER + INTRA:         -13.802
REMARK INTER:                 -10.481
REMARK INTRA:                  -3.321
REMARK UNBOUND:                -3.481
REMARK SMILES CCCCCCCCCCCCCCCCCCCCCC(=O)[O-]
REMARK SMILES IDX 12 1 11 2 10 3 9 4 8 5 7 6 6 7 5 8 4 9 3 10 2 11 1 12 13 13
REMARK SMILES IDX 14 14 15 15 16 16 17 17 18 18 19 19 20 20 21 21 22 22 23 23
REMARK SMILES IDX 24 24
REMARK H PARENT
REMARK Flexibility Score: inf
ROOT
ATOM      1  C   UNL     1      20.207  54.117  14.346  1.00  0.00     0.000 C 
ENDROOT
BRANCH   1   2
ATOM      2  C   UNL     1      18.753  53.958  13.866  1.00  0.00     0.000 C 
BRANCH   2   3
ATOM      3  C   UNL     1      18.014  55.302  13.768  1.00  0.00     0.000 C 
BRANCH   3   4
ATOM      4  C   UNL     1      17.622  55.861  15.147  1.00  0.00    -0.000 C 
BRANCH   4   5
ATOM      5  C   UNL     1      18.619  56.908  15.675  1.00  0.00    -0.000 C 
BRANCH   5   6
ATOM      6  C   UNL     1      18.861  56.888  17.199  1.00  0.00    -0.000 C 
BRANCH   6   7
ATOM      7  C   UNL     1      20.340  56.896  17.636  1.00  0.00    -0.000 C 
BRANCH   7   8
ATOM      8  C   UNL     1      21.346  56.785  16.468  1.00  0.00    -0.000 C 
BRANCH   8   9
ATOM      9  C   UNL     1      22.537  55.852  16.760  1.00  0.00    -0.000 C 
BRANCH   9  10
ATOM     10  C   UNL     1      23.904  56.394  16.308  1.00  0.00    -0.000 C 
BRANCH  10  11
ATOM     11  C   UNL     1      23.786  57.474  15.223  1.00  0.00    -0.003 C 
ATOM     12  C   UNL     1      25.157  57.835  14.660  1.00  0.00     0.004 C 
ENDBRANCH  10  11
ENDBRANCH   9  10
ENDBRANCH   8   9
ENDBRANCH   7   8
ENDBRANCH   6   7
ENDBRANCH   5   6
ENDBRANCH   4   5
ENDBRANCH   3   4
ENDBRANCH   2   3
ENDBRANCH   1   2
BRANCH   1  13
ATOM     13  C   UNL     1      20.564  53.138  15.476  1.00  0.00     0.000 C 
BRANCH  13  14
ATOM     14  C   UNL     1      19.614  53.251  16.681  1.00  0.00     0.000 C 
BRANCH  14  15
ATOM     15  C   UNL     1      20.353  53.136  18.024  1.00  0.00     0.000 C 
BRANCH  15  16
ATOM     16  C   UNL     1      19.461  53.511  19.220  1.00  0.00     0.000 C 
BRANCH  16  17
ATOM     17  C   UNL     1      18.004  53.777  18.810  1.00  0.00     0.000 C 
BRANCH  17  18
ATOM     18  C   UNL     1      17.012  52.850  19.528  1.00  0.00     0.000 C 
BRANCH  18  19
ATOM     19  C   UNL     1      15.562  53.224  19.181  1.00  0.00     0.000 C 
BRANCH  19  20
ATOM     20  C   UNL     1      15.430  53.844  17.781  1.00  0.00     0.006 C 
BRANCH  20  21
ATOM     21  C   UNL     1      14.181  54.722  17.638  1.00  0.00     0.053 C 
BRANCH  21  22
ATOM     22  C   UNL     1      14.551  56.071  17.108  1.00  0.00     0.041 C 
ATOM     23  O   UNL     1      15.337  56.814  17.755  1.00  0.00    -0.550 OA
ATOM     24  O   UNL     1      14.068  56.490  15.874  1.00  0.00    -0.550 OA
ENDBRANCH  21  22
ENDBRANCH  20  21
ENDBRANCH  19  20
ENDBRANCH  18  19
ENDBRANCH  17  18
ENDBRANCH  16  17
ENDBRANCH  15  16
ENDBRANCH  14  15
ENDBRANCH  13  14
ENDBRANCH   1  13
TORSDOF 20
ENDMDL
MODEL 5
REMARK VINA RESULT:    -4.689      2.947      6.011
REMARK INTER + INTRA:         -13.653
REMARK INTER:                  -9.997
REMARK INTRA:                  -3.656
REMARK UNBOUND:                -3.481
REMARK SMILES CCCCCCCCCCCCCCCCCCCCCC(=O)[O-]
REMARK SMILES IDX 12 1 11 2 10 3 9 4 8 5 7 6 6 7 5 8 4 9 3 10 2 11 1 12 13 13
REMARK SMILES IDX 14 14 15 15 16 16 17 17 18 18 19 19 20 20 21 21 22 22 23 23
REMARK SMILES IDX 24 24
REMARK H PARENT
REMARK Flexibility Score: inf
ROOT
ATOM      1  C   UNL     1      19.024  56.898  17.644  1.00  0.00     0.000 C 
ENDROOT
BRANCH   1   2
ATOM      2  C   UNL     1      18.108  56.973  16.408  1.00  0.00     0.000 C 
BRANCH   2   3
ATOM      3  C   UNL     1      18.830  56.566  15.113  1.00  0.00     0.000 C 
BRANCH   3   4
ATOM      4  C   UNL     1      17.986  55.619  14.243  1.00  0.00    -0.000 C 
BRANCH   4   5
ATOM      5  C   UNL     1      18.371  54.139  14.420  1.00  0.00    -0.000 C 
BRANCH   5   6
ATOM      6  C   UNL     1      19.883  53.834  14.364  1.00  0.00    -0.000 C 
BRANCH   6   7
ATOM      7  C   UNL     1      20.445  53.044  15.564  1.00  0.00    -0.000 C 
BRANCH   7   8
ATOM      8  C   UNL     1      21.647  53.722  16.262  1.00  0.00    -0.000 C 
BRANCH   8   9
ATOM      9  C   UNL     1      21.913  55.161  15.781  1.00  0.00    -0.000 C 
BRANCH   9  10
ATOM     10  C   UNL     1      22.670  56.045  16.787  1.00  0.00    -0.000 C 
BRANCH  10  11
ATOM     11  C   UNL     1      24.194  55.957  16.626  1.00  0.00    -0.003 C 
ATOM     12  C   UNL     1      24.695  56.974  15.605  1.00  0.00     0.004 C 
ENDBRANCH  10  11
ENDBRANCH   9  10
ENDBRANCH   8   9
ENDBRANCH   7   8
ENDBRANCH   6   7
ENDBRANCH   5   6
ENDBRANCH   4   5
ENDBRANCH   3   4
ENDBRANCH   2   3
ENDBRANCH   1   2
BRANCH   1  13
ATOM     13  C   UNL     1      19.170  55.466  18.181  1.00  0.00     0.000 C 
BRANCH  13  14
ATOM     14  C   UNL     1      17.847  54.680  18.145  1.00  0.00     0.000 C 
BRANCH  14  15
ATOM     15  C   UNL     1      18.058  53.167  18.320  1.00  0.00     0.000 C 
BRANCH  15  16
ATOM     16  C   UNL     1      17.230  52.340  17.322  1.00  0.00     0.000 C 
BRANCH  16  17
ATOM     17  C   UNL     1      15.874  51.901  17.900  1.00  0.00     0.000 C 
BRANCH  17  18
ATOM     18  C   UNL     1      14.698  52.258  16.978  1.00  0.00     0.000 C 
BRANCH  18  19
ATOM     19  C   UNL     1      15.056  53.440  16.063  1.00  0.00     0.000 C 
BRANCH  19  20
ATOM     20  C   UNL     1      13.954  54.511  16.022  1.00  0.00     0.006 C 
BRANCH  20  21
ATOM     21  C   UNL     1      14.473  55.874  15.550  1.00  0.00     0.053 C 
BRANCH  21  22
ATOM     22  C   UNL     1      14.421  56.866  16.668  1.00  0.00     0.041 C 
ATOM     23  O   UNL     1      14.120  56.495  17.834  1.00  0.00    -0.550 OA
ATOM     24  O   UNL     1      14.756  58.195  16.435  1.00  0.00    -0.550 OA
ENDBRANCH  21  22
ENDBRANCH  20  21
ENDBRANCH  19  20
ENDBRANCH  18  19
ENDBRANCH  17  18
ENDBRANCH  16  17
ENDBRANCH  15  16
ENDBRANCH  14  15
ENDBRANCH  13  14
ENDBRANCH   1  13
TORSDOF 20
ENDMDL
MODEL 6
REMARK VINA RESULT:    -4.689      2.819      4.561
REMARK INTER + INTRA:         -13.652
REMARK INTER:                 -10.479
REMARK INTRA:                  -3.173
REMARK UNBOUND:                -3.481
REMARK SMILES CCCCCCCCCCCCCCCCCCCCCC(=O)[O-]
REMARK SMILES IDX 12 1 11 2 10 3 9 4 8 5 7 6 6 7 5 8 4 9 3 10 2 11 1 12 13 13
REMARK SMILES IDX 14 14 15 15 16 16 17 17 18 18 19 19 20 20 21 21 22 22 23 23
REMARK SMILES IDX 24 24
REMARK H PARENT
REMARK Flexibility Score: inf
ROOT
ATOM      1  C   UNL     1      18.474  54.891  18.151  1.00  0.00     0.000 C 
ENDROOT
BRANCH   1   2
ATOM      2  C   UNL     1      19.567  53.813  18.029  1.00  0.00     0.000 C 
BRANCH   2   3
ATOM      3  C   UNL     1      19.052  52.522  17.372  1.00  0.00     0.000 C 
BRANCH   3   4
ATOM      4  C   UNL     1      19.078  52.593  15.836  1.00  0.00    -0.000 C 
BRANCH   4   5
ATOM      5  C   UNL     1      20.382  53.197  15.286  1.00  0.00    -0.000 C 
BRANCH   5   6
ATOM      6  C   UNL     1      20.211  54.224  14.146  1.00  0.00    -0.000 C 
BRANCH   6   7
ATOM      7  C   UNL     1      18.880  54.138  13.370  1.00  0.00    -0.000 C 
BRANCH   7   8
ATOM      8  C   UNL     1      17.936  55.341  13.596  1.00  0.00    -0.000 C 
BRANCH   8   9
ATOM      9  C   UNL     1      16.486  54.940  13.927  1.00  0.00    -0.000 C 
BRANCH   9  10
ATOM     10  C   UNL     1      16.127  55.006  15.421  1.00  0.00    -0.000 C 
BRANCH  10  11
ATOM     11  C   UNL     1      14.968  54.072  15.796  1.00  0.00    -0.003 C 
ATOM     12  C   UNL     1      15.433  52.981  16.756  1.00  0.00     0.004 C 
ENDBRANCH  10  11
ENDBRANCH   9  10
ENDBRANCH   8   9
ENDBRANCH   7   8
ENDBRANCH   6   7
ENDBRANCH   5   6
ENDBRANCH   4   5
ENDBRANCH   3   4
ENDBRANCH   2   3
ENDBRANCH   1   2
BRANCH   1  13
ATOM     13  C   UNL     1      18.901  56.233  17.536  1.00  0.00     0.000 C 
BRANCH  13  14
ATOM     14  C   UNL     1      20.429  56.387  17.448  1.00  0.00     0.000 C 
BRANCH  14  15
ATOM     15  C   UNL     1      20.882  56.994  16.110  1.00  0.00     0.000 C 
BRANCH  15  16
ATOM     16  C   UNL     1      22.381  56.777  15.844  1.00  0.00     0.000 C 
BRANCH  16  17
ATOM     17  C   UNL     1      22.884  55.422  16.366  1.00  0.00     0.000 C 
BRANCH  17  18
ATOM     18  C   UNL     1      24.283  55.515  16.994  1.00  0.00     0.000 C 
BRANCH  18  19
ATOM     19  C   UNL     1      25.236  56.319  16.095  1.00  0.00     0.000 C 
BRANCH  19  20
ATOM     20  C   UNL     1      26.689  55.826  16.183  1.00  0.00     0.006 C 
BRANCH  20  21
ATOM     21  C   UNL     1      26.882  54.742  17.250  1.00  0.00     0.053 C 
BRANCH  21  22
ATOM     22  C   UNL     1      27.646  55.287  18.414  1.00  0.00     0.041 C 
ATOM     23  O   UNL     1      27.526  54.763  19.554  1.00  0.00    -0.550 OA
ATOM     24  O   UNL     1      28.531  56.343  18.233  1.00  0.00    -0.550 OA
ENDBRANCH  21  22
ENDBRANCH  20  21
ENDBRANCH  19  20
ENDBRANCH  18  19
ENDBRANCH  17  18
ENDBRANCH  16  17
ENDBRANCH  15  16
ENDBRANCH  14  15
ENDBRANCH  13  14
ENDBRANCH   1  13
TORSDOF 20
ENDMDL
MODEL 7
REMARK VINA RESULT:    -4.632      2.259      6.249
REMARK INTER + INTRA:         -13.529
REMARK INTER:                 -10.985
REMARK INTRA:                  -2.544
REMARK UNBOUND:                -3.481
REMARK SMILES CCCCCCCCCCCCCCCCCCCCCC(=O)[O-]
REMARK SMILES IDX 12 1 11 2 10 3 9 4 8 5 7 6 6 7 5 8 4 9 3 10 2 11 1 12 13 13
REMARK SMILES IDX 14 14 15 15 16 16 17 17 18 18 19 19 20 20 21 21 22 22 23 23
REMARK SMILES IDX 24 24
REMARK H PARENT
REMARK Flexibility Score: inf
ROOT
ATOM      1  C   UNL     1      18.492  55.105  13.950  1.00  0.00     0.000 C 
ENDROOT
BRANCH   1   2
ATOM      2  C   UNL     1      19.509  53.990  13.648  1.00  0.00     0.000 C 
BRANCH   2   3
ATOM      3  C   UNL     1      19.620  52.967  14.791  1.00  0.00     0.000 C 
BRANCH   3   4
ATOM      4  C   UNL     1      19.427  53.610  16.175  1.00  0.00    -0.000 C 
BRANCH   4   5
ATOM      5  C   UNL     1      20.635  53.401  17.107  1.00  0.00    -0.000 C 
BRANCH   5   6
ATOM      6  C   UNL     1      21.997  53.862  16.543  1.00  0.00    -0.000 C 
BRANCH   6   7
ATOM      7  C   UNL     1      22.064  55.337  16.096  1.00  0.00    -0.000 C 
BRANCH   7   8
ATOM      8  C   UNL     1      23.132  56.175  16.837  1.00  0.00    -0.000 C 
BRANCH   8   9
ATOM      9  C   UNL     1      24.182  56.807  15.904  1.00  0.00    -0.000 C 
BRANCH   9  10
ATOM     10  C   UNL     1      25.572  56.153  15.964  1.00  0.00    -0.000 C 
BRANCH  10  11
ATOM     11  C   UNL     1      25.775  55.302  17.226  1.00  0.00    -0.003 C 
ATOM     12  C   UNL     1      25.854  53.819  16.880  1.00  0.00     0.004 C 
ENDBRANCH  10  11
ENDBRANCH   9  10
ENDBRANCH   8   9
ENDBRANCH   7   8
ENDBRANCH   6   7
ENDBRANCH   5   6
ENDBRANCH   4   5
ENDBRANCH   3   4
ENDBRANCH   2   3
ENDBRANCH   1   2
BRANCH   1  13
ATOM     13  C   UNL     1      17.244  55.021  13.056  1.00  0.00     0.000 C 
BRANCH  13  14
ATOM     14  C   UNL     1      15.943  54.872  13.864  1.00  0.00     0.000 C 
BRANCH  14  15
ATOM     15  C   UNL     1      16.199  54.424  15.312  1.00  0.00     0.000 C 
BRANCH  15  16
ATOM     16  C   UNL     1      15.207  53.345  15.777  1.00  0.00     0.000 C 
BRANCH  16  17
ATOM     17  C   UNL     1      14.401  53.776  17.012  1.00  0.00     0.000 C 
BRANCH  17  18
ATOM     18  C   UNL     1      15.280  53.942  18.261  1.00  0.00     0.000 C 
BRANCH  18  19
ATOM     19  C   UNL     1      15.106  55.342  18.872  1.00  0.00     0.000 C 
BRANCH  19  20
ATOM     20  C   UNL     1      16.072  56.374  18.269  1.00  0.00     0.006 C 
BRANCH  20  21
ATOM     21  C   UNL     1      17.538  55.936  18.362  1.00  0.00     0.053 C 
BRANCH  21  22
ATOM     22  C   UNL     1      18.409  56.860  17.571  1.00  0.00     0.041 C 
ATOM     23  O   UNL     1      17.980  57.383  16.508  1.00  0.00    -0.550 OA
ATOM     24  O   UNL     1      19.679  57.185  18.033  1.00  0.00    -0.550 OA
ENDBRANCH  21  22
ENDBRANCH  20  21
ENDBRANCH  19  20
ENDBRANCH  18  19
ENDBRANCH  17  18
ENDBRANCH  16  17
ENDBRANCH  15  16
ENDBRANCH  14  15
ENDBRANCH  13  14
ENDBRANCH   1  13
TORSDOF 20
ENDMDL
MODEL 8
REMARK VINA RESULT:    -4.564      3.662      7.654
REMARK INTER + INTRA:         -13.381
REMARK INTER:                 -10.460
REMARK INTRA:                  -2.921
REMARK UNBOUND:                -3.481
REMARK SMILES CCCCCCCCCCCCCCCCCCCCCC(=O)[O-]
REMARK SMILES IDX 12 1 11 2 10 3 9 4 8 5 7 6 6 7 5 8 4 9 3 10 2 11 1 12 13 13
REMARK SMILES IDX 14 14 15 15 16 16 17 17 18 18 19 19 20 20 21 21 22 22 23 23
REMARK SMILES IDX 24 24
REMARK H PARENT
REMARK Flexibility Score: inf
ROOT
ATOM      1  C   UNL     1      19.056  56.549  17.808  1.00  0.00     0.000 C 
ENDROOT
BRANCH   1   2
ATOM      2  C   UNL     1      20.570  56.751  17.611  1.00  0.00     0.000 C 
BRANCH   2   3
ATOM      3  C   UNL     1      20.934  57.101  16.159  1.00  0.00     0.000 C 
BRANCH   3   4
ATOM      4  C   UNL     1      22.405  56.792  15.831  1.00  0.00    -0.000 C 
BRANCH   4   5
ATOM      5  C   UNL     1      23.112  55.994  16.942  1.00  0.00    -0.000 C 
BRANCH   5   6
ATOM      6  C   UNL     1      24.329  55.158  16.490  1.00  0.00    -0.000 C 
BRANCH   6   7
ATOM      7  C   UNL     1      25.680  55.902  16.486  1.00  0.00    -0.000 C 
BRANCH   7   8
ATOM      8  C   UNL     1      26.868  55.060  17.005  1.00  0.00    -0.000 C 
BRANCH   8   9
ATOM      9  C   UNL     1      26.458  53.947  17.988  1.00  0.00    -0.000 C 
BRANCH   9  10
ATOM     10  C   UNL     1      26.972  54.138  19.425  1.00  0.00    -0.000 C 
BRANCH  10  11
ATOM     11  C   UNL     1      27.769  55.438  19.604  1.00  0.00    -0.003 C 
ATOM     12  C   UNL     1      29.269  55.167  19.589  1.00  0.00     0.004 C 
ENDBRANCH  10  11
ENDBRANCH   9  10
ENDBRANCH   8   9
ENDBRANCH   7   8
ENDBRANCH   6   7
ENDBRANCH   5   6
ENDBRANCH   4   5
ENDBRANCH   3   4
ENDBRANCH   2   3
ENDBRANCH   1   2
BRANCH   1  13
ATOM     13  C   UNL     1      18.694  55.087  18.119  1.00  0.00     0.000 C 
BRANCH  13  14
ATOM     14  C   UNL     1      19.922  54.160  18.126  1.00  0.00     0.000 C 
BRANCH  14  15
ATOM     15  C   UNL     1      19.596  52.750  17.606  1.00  0.00     0.000 C 
BRANCH  15  16
ATOM     16  C   UNL     1      19.619  52.671  16.070  1.00  0.00     0.000 C 
BRANCH  16  17
ATOM     17  C   UNL     1      20.800  53.439  15.456  1.00  0.00     0.000 C 
BRANCH  17  18
ATOM     18  C   UNL     1      20.386  54.284  14.242  1.00  0.00     0.000 C 
BRANCH  18  19
ATOM     19  C   UNL     1      19.071  53.768  13.636  1.00  0.00     0.000 C 
BRANCH  19  20
ATOM     20  C   UNL     1      18.085  54.902  13.311  1.00  0.00     0.006 C 
BRANCH  20  21
ATOM     21  C   UNL     1      17.808  55.808  14.515  1.00  0.00     0.053 C 
BRANCH  21  22
ATOM     22  C   UNL     1      16.486  55.469  15.128  1.00  0.00     0.041 C 
ATOM     23  O   UNL     1      16.014  56.183  16.053  1.00  0.00    -0.550 OA
ATOM     24  O   UNL     1      15.750  54.394  14.645  1.00  0.00    -0.550 OA
ENDBRANCH  21  22
ENDBRANCH  20  21
ENDBRANCH  19  20
ENDBRANCH  18  19
ENDBRANCH  17  18
ENDBRANCH  16  17
ENDBRANCH  15  16
ENDBRANCH  14  15
ENDBRANCH  13  14
ENDBRANCH   1  13
TORSDOF 20
ENDMDL
MODEL 9
REMARK VINA RESULT:    -4.487      2.873      5.365
REMARK INTER + INTRA:         -13.214
REMARK INTER:                 -10.363
REMARK INTRA:                  -2.851
REMARK UNBOUND:                -3.481
REMARK SMILES CCCCCCCCCCCCCCCCCCCCCC(=O)[O-]
REMARK SMILES IDX 12 1 11 2 10 3 9 4 8 5 7 6 6 7 5 8 4 9 3 10 2 11 1 12 13 13
REMARK SMILES IDX 14 14 15 15 16 16 17 17 18 18 19 19 20 20 21 21 22 22 23 23
REMARK SMILES IDX 24 24
REMARK H PARENT
REMARK Flexibility Score: inf
ROOT
ATOM      1  C   UNL     1      17.125  56.209  17.438  1.00  0.00     0.000 C 
ENDROOT
BRANCH   1   2
ATOM      2  C   UNL     1      15.959  55.880  18.389  1.00  0.00     0.000 C 
BRANCH   2   3
ATOM      3  C   UNL     1      15.105  54.703  17.890  1.00  0.00     0.000 C 
BRANCH   3   4
ATOM      4  C   UNL     1      15.387  54.354  16.418  1.00  0.00    -0.000 C 
BRANCH   4   5
ATOM      5  C   UNL     1      15.780  52.879  16.216  1.00  0.00    -0.000 C 
BRANCH   5   6
ATOM      6  C   UNL     1      16.731  52.293  17.282  1.00  0.00    -0.000 C 
BRANCH   6   7
ATOM      7  C   UNL     1      18.163  51.990  16.797  1.00  0.00    -0.000 C 
BRANCH   7   8
ATOM      8  C   UNL     1      18.943  53.233  16.309  1.00  0.00    -0.000 C 
BRANCH   8   9
ATOM      9  C   UNL     1      19.795  52.977  15.051  1.00  0.00    -0.000 C 
BRANCH   9  10
ATOM     10  C   UNL     1      19.609  54.012  13.928  1.00  0.00    -0.000 C 
BRANCH  10  11
ATOM     11  C   UNL     1      18.386  54.914  14.147  1.00  0.00    -0.003 C 
ATOM     12  C   UNL     1      17.601  55.093  12.852  1.00  0.00     0.004 C 
ENDBRANCH  10  11
ENDBRANCH   9  10
ENDBRANCH   8   9
ENDBRANCH   7   8
ENDBRANCH   6   7
ENDBRANCH   5   6
ENDBRANCH   4   5
ENDBRANCH   3   4
ENDBRANCH   2   3
ENDBRANCH   1   2
BRANCH   1  13
ATOM     13  C   UNL     1      18.477  56.274  18.166  1.00  0.00     0.000 C 
BRANCH  13  14
ATOM     14  C   UNL     1      19.362  57.432  17.673  1.00  0.00     0.000 C 
BRANCH  14  15
ATOM     15  C   UNL     1      20.326  56.999  16.556  1.00  0.00     0.000 C 
BRANCH  15  16
ATOM     16  C   UNL     1      21.581  56.297  17.103  1.00  0.00     0.000 C 
BRANCH  16  17
ATOM     17  C   UNL     1      22.379  55.573  16.007  1.00  0.00     0.000 C 
BRANCH  17  18
ATOM     18  C   UNL     1      23.517  54.714  16.577  1.00  0.00     0.000 C 
BRANCH  18  19
ATOM     19  C   UNL     1      24.862  55.452  16.482  1.00  0.00     0.000 C 
BRANCH  19  20
ATOM     20  C   UNL     1      26.036  54.612  17.011  1.00  0.00     0.006 C 
BRANCH  20  21
ATOM     21  C   UNL     1      27.342  55.410  17.099  1.00  0.00     0.053 C 
BRANCH  21  22
ATOM     22  C   UNL     1      27.810  55.489  18.517  1.00  0.00     0.041 C 
ATOM     23  O   UNL     1      28.868  56.110  18.803  1.00  0.00    -0.550 OA
ATOM     24  O   UNL     1      27.052  54.919  19.533  1.00  0.00    -0.550 OA
ENDBRANCH  21  22
ENDBRANCH  20  21
ENDBRANCH  19  20
ENDBRANCH  18  19
ENDBRANCH  17  18
ENDBRANCH  16  17
ENDBRANCH  15  16
ENDBRANCH  14  15
ENDBRANCH  13  14
ENDBRANCH   1  13
TORSDOF 20
ENDMDL
