MODEL 1
REMARK VINA RESULT:    -5.203      0.000      0.000
REMARK INTER + INTRA:          -5.636
REMARK INTER:                  -5.660
REMARK INTRA:                   0.023
REMARK UNBOUND:                 0.023
REMARK SMILES COc1cc2ccc(=O)oc2cc1O
REMARK SMILES IDX 3 1 13 2 12 3 11 4 5 5 4 6 6 7 7 8 8 9 9 10 10 11 2 12 1 13
REMARK SMILES IDX 14 14
REMARK H PARENT 14 15
REMARK Flexibility Score: inf
ROOT
ATOM      1  C   UNL     1       9.732 -17.155   7.758  1.00  0.00     0.161 A 
ATOM      2  C   UNL     1       9.434 -15.877   7.260  1.00  0.00     0.161 A 
ATOM      3  C   UNL     1      10.445 -14.913   7.132  1.00  0.00     0.098 A 
ATOM      4  C   UNL     1      11.758 -15.217   7.500  1.00  0.00     0.142 A 
ATOM      5  C   UNL     1      12.066 -16.499   8.002  1.00  0.00     0.022 A 
ATOM      6  C   UNL     1      11.058 -17.463   8.130  1.00  0.00     0.062 A 
ATOM      7  C   UNL     1      13.391 -16.772   8.361  1.00  0.00     0.019 A 
ATOM      8  C   UNL     1      14.360 -15.780   8.214  1.00  0.00     0.094 A 
ATOM      9  C   UNL     1      13.979 -14.531   7.710  1.00  0.00     0.336 A 
ATOM     10  O   UNL     1      14.838 -13.622   7.570  1.00  0.00    -0.246 OA
ATOM     11  O   UNL     1      12.713 -14.297   7.376  1.00  0.00    -0.423 OA
ENDROOT
BRANCH   1  12
ATOM     12  O   UNL     1       8.690 -18.088   7.870  1.00  0.00    -0.493 OA
ATOM     13  C   UNL     1       7.752 -18.125   8.941  1.00  0.00     0.278 C 
ENDBRANCH   1  12
BRANCH   2  14
ATOM     14  O   UNL     1       8.125 -15.572   6.893  1.00  0.00    -0.504 OA
ATOM     15  H   UNL     1       7.431 -15.299   7.579  1.00  0.00     0.293 HD
ENDBRANCH   2  14
TORSDOF 2
ENDMDL
MODEL 2
REMARK VINA RESULT:    -5.138      1.363      5.420
REMARK INTER + INTRA:          -5.565
REMARK INTER:                  -5.586
REMARK INTRA:                   0.021
REMARK UNBOUND:                 0.023
REMARK SMILES COc1cc2ccc(=O)oc2cc1O
REMARK SMILES IDX 3 1 13 2 12 3 11 4 5 5 4 6 6 7 7 8 8 9 9 10 10 11 2 12 1 13
REMARK SMILES IDX 14 14
REMARK H PARENT 14 15
REMARK Flexibility Score: inf
ROOT
ATOM      1  C   UNL     1      12.195 -14.830   7.958  1.00  0.00     0.161 A 
ATOM      2  C   UNL     1      12.221 -15.784   8.987  1.00  0.00     0.161 A 
ATOM      3  C   UNL     1      11.129 -16.641   9.187  1.00  0.00     0.098 A 
ATOM      4  C   UNL     1      10.004 -16.551   8.363  1.00  0.00     0.142 A 
ATOM      5  C   UNL     1       9.970 -15.595   7.326  1.00  0.00     0.022 A 
ATOM      6  C   UNL     1      11.060 -14.739   7.125  1.00  0.00     0.062 A 
ATOM      7  C   UNL     1       8.829 -15.531   6.518  1.00  0.00     0.019 A 
ATOM      8  C   UNL     1       7.770 -16.405   6.757  1.00  0.00     0.094 A 
ATOM      9  C   UNL     1       7.875 -17.327   7.804  1.00  0.00     0.336 A 
ATOM     10  O   UNL     1       6.930 -18.125   8.036  1.00  0.00    -0.246 OA
ATOM     11  O   UNL     1       8.971 -17.368   8.558  1.00  0.00    -0.423 OA
ENDROOT
BRANCH   1  12
ATOM     12  O   UNL     1      13.310 -13.993   7.795  1.00  0.00    -0.493 OA
ATOM     13  C   UNL     1      14.505 -14.366   7.115  1.00  0.00     0.278 C 
ENDBRANCH   1  12
BRANCH   2  14
ATOM     14  O   UNL     1      13.342 -15.874   9.811  1.00  0.00    -0.504 OA
ATOM     15  H   UNL     1      14.146 -15.271   9.681  1.00  0.00     0.293 HD
ENDBRANCH   2  14
TORSDOF 2
ENDMDL
MODEL 3
REMARK VINA RESULT:    -5.091      1.686      5.330
REMARK INTER + INTRA:          -5.514
REMARK INTER:                  -5.460
REMARK INTRA:                  -0.055
REMARK UNBOUND:                 0.023
REMARK SMILES COc1cc2ccc(=O)oc2cc1O
REMARK SMILES IDX 3 1 13 2 12 3 11 4 5 5 4 6 6 7 7 8 8 9 9 10 10 11 2 12 1 13
REMARK SMILES IDX 14 14
REMARK H PARENT 14 15
REMARK Flexibility Score: inf
ROOT
ATOM      1  C   UNL     1      12.986 -16.083   7.542  1.00  0.00     0.161 A 
ATOM      2  C   UNL     1      12.921 -17.340   6.919  1.00  0.00     0.161 A 
ATOM      3  C   UNL     1      11.688 -17.989   6.759  1.00  0.00     0.098 A 
ATOM      4  C   UNL     1      10.512 -17.391   7.220  1.00  0.00     0.142 A 
ATOM      5  C   UNL     1      10.568 -16.128   7.847  1.00  0.00     0.022 A 
ATOM      6  C   UNL     1      11.799 -15.478   8.007  1.00  0.00     0.062 A 
ATOM      7  C   UNL     1       9.374 -15.555   8.297  1.00  0.00     0.019 A 
ATOM      8  C   UNL     1       8.173 -16.240   8.115  1.00  0.00     0.094 A 
ATOM      9  C   UNL     1       8.196 -17.489   7.485  1.00  0.00     0.336 A 
ATOM     10  O   UNL     1       7.123 -18.124   7.310  1.00  0.00    -0.246 OA
ATOM     11  O   UNL     1       9.345 -18.012   7.066  1.00  0.00    -0.423 OA
ENDROOT
BRANCH   1  12
ATOM     12  O   UNL     1      14.241 -15.471   7.680  1.00  0.00    -0.493 OA
ATOM     13  C   UNL     1      14.526 -14.126   7.309  1.00  0.00     0.278 C 
ENDBRANCH   1  12
BRANCH   2  14
ATOM     14  O   UNL     1      14.092 -17.939   6.459  1.00  0.00    -0.504 OA
ATOM     15  H   UNL     1      15.002 -17.532   6.639  1.00  0.00     0.293 HD
ENDBRANCH   2  14
TORSDOF 2
ENDMDL
MODEL 4
REMARK VINA RESULT:    -5.020      1.226      1.229
REMARK INTER + INTRA:          -5.437
REMARK INTER:                  -5.515
REMARK INTRA:                   0.079
REMARK UNBOUND:                 0.023
REMARK SMILES COc1cc2ccc(=O)oc2cc1O
REMARK SMILES IDX 3 1 13 2 12 3 11 4 5 5 4 6 6 7 7 8 8 9 9 10 10 11 2 12 1 13
REMARK SMILES IDX 14 14
REMARK H PARENT 14 15
REMARK Flexibility Score: inf
ROOT
ATOM      1  C   UNL     1       9.408 -17.313   7.795  1.00  0.00     0.161 A 
ATOM      2  C   UNL     1       9.328 -15.996   8.274  1.00  0.00     0.161 A 
ATOM      3  C   UNL     1      10.444 -15.149   8.210  1.00  0.00     0.098 A 
ATOM      4  C   UNL     1      11.647 -15.610   7.670  1.00  0.00     0.142 A 
ATOM      5  C   UNL     1      11.736 -16.932   7.186  1.00  0.00     0.022 A 
ATOM      6  C   UNL     1      10.622 -17.779   7.248  1.00  0.00     0.062 A 
ATOM      7  C   UNL     1      12.955 -17.364   6.650  1.00  0.00     0.019 A 
ATOM      8  C   UNL     1      14.036 -16.484   6.609  1.00  0.00     0.094 A 
ATOM      9  C   UNL     1      13.872 -15.186   7.108  1.00  0.00     0.336 A 
ATOM     10  O   UNL     1      14.835 -14.377   7.080  1.00  0.00    -0.246 OA
ATOM     11  O   UNL     1      12.703 -14.802   7.612  1.00  0.00    -0.423 OA
ENDROOT
BRANCH   1  12
ATOM     12  O   UNL     1       8.266 -18.125   7.879  1.00  0.00    -0.493 OA
ATOM     13  C   UNL     1       7.129 -18.007   7.029  1.00  0.00     0.278 C 
ENDBRANCH   1  12
BRANCH   2  14
ATOM     14  O   UNL     1       8.129 -15.535   8.814  1.00  0.00    -0.504 OA
ATOM     15  H   UNL     1       7.245 -15.666   8.335  1.00  0.00     0.293 HD
ENDBRANCH   2  14
TORSDOF 2
ENDMDL
MODEL 5
REMARK VINA RESULT:    -4.935      1.506      4.901
REMARK INTER + INTRA:          -5.345
REMARK INTER:                  -5.295
REMARK INTRA:                  -0.050
REMARK UNBOUND:                 0.023
REMARK SMILES COc1cc2ccc(=O)oc2cc1O
REMARK SMILES IDX 3 1 13 2 12 3 11 4 5 5 4 6 6 7 7 8 8 9 9 10 10 11 2 12 1 13
REMARK SMILES IDX 14 14
REMARK H PARENT 14 15
REMARK Flexibility Score: inf
ROOT
ATOM      1  C   UNL     1      12.521 -16.579   7.130  1.00  0.00     0.161 A 
ATOM      2  C   UNL     1      12.241 -15.254   7.498  1.00  0.00     0.161 A 
ATOM      3  C   UNL     1      10.946 -14.887   7.895  1.00  0.00     0.098 A 
ATOM      4  C   UNL     1       9.924 -15.838   7.925  1.00  0.00     0.142 A 
ATOM      5  C   UNL     1      10.196 -17.172   7.557  1.00  0.00     0.022 A 
ATOM      6  C   UNL     1      11.489 -17.540   7.161  1.00  0.00     0.062 A 
ATOM      7  C   UNL     1       9.151 -18.101   7.599  1.00  0.00     0.019 A 
ATOM      8  C   UNL     1       7.881 -17.687   8.000  1.00  0.00     0.094 A 
ATOM      9  C   UNL     1       7.686 -16.346   8.352  1.00  0.00     0.336 A 
ATOM     10  O   UNL     1       6.548 -15.952   8.717  1.00  0.00    -0.246 OA
ATOM     11  O   UNL     1       8.697 -15.483   8.303  1.00  0.00    -0.423 OA
ENDROOT
BRANCH   1  12
ATOM     12  O   UNL     1      13.830 -16.901   6.740  1.00  0.00    -0.493 OA
ATOM     13  C   UNL     1      14.487 -18.125   7.054  1.00  0.00     0.278 C 
ENDBRANCH   1  12
BRANCH   2  14
ATOM     14  O   UNL     1      13.259 -14.303   7.467  1.00  0.00    -0.504 OA
ATOM     15  H   UNL     1      13.744 -14.017   8.310  1.00  0.00     0.293 HD
ENDBRANCH   2  14
TORSDOF 2
ENDMDL
MODEL 6
REMARK VINA RESULT:    -4.684      1.873      2.399
REMARK INTER + INTRA:          -5.072
REMARK INTER:                  -5.029
REMARK INTRA:                  -0.043
REMARK UNBOUND:                 0.023
REMARK SMILES COc1cc2ccc(=O)oc2cc1O
REMARK SMILES IDX 3 1 13 2 12 3 11 4 5 5 4 6 6 7 7 8 8 9 9 10 10 11 2 12 1 13
REMARK SMILES IDX 14 14
REMARK H PARENT 14 15
REMARK Flexibility Score: inf
ROOT
ATOM      1  C   UNL     1       8.822 -16.326   7.729  1.00  0.00     0.161 A 
ATOM      2  C   UNL     1       9.029 -17.472   6.944  1.00  0.00     0.161 A 
ATOM      3  C   UNL     1      10.327 -17.958   6.729  1.00  0.00     0.098 A 
ATOM      4  C   UNL     1      11.426 -17.305   7.292  1.00  0.00     0.142 A 
ATOM      5  C   UNL     1      11.227 -16.152   8.082  1.00  0.00     0.022 A 
ATOM      6  C   UNL     1       9.931 -15.666   8.298  1.00  0.00     0.062 A 
ATOM      7  C   UNL     1      12.348 -15.521   8.633  1.00  0.00     0.019 A 
ATOM      8  C   UNL     1      13.617 -16.044   8.389  1.00  0.00     0.094 A 
ATOM      9  C   UNL     1      13.737 -17.190   7.596  1.00  0.00     0.336 A 
ATOM     10  O   UNL     1      14.874 -17.677   7.365  1.00  0.00    -0.246 OA
ATOM     11  O   UNL     1      12.655 -17.771   7.084  1.00  0.00    -0.423 OA
ENDROOT
BRANCH   1  12
ATOM     12  O   UNL     1       7.506 -15.875   7.917  1.00  0.00    -0.493 OA
ATOM     13  C   UNL     1       6.667 -16.270   8.997  1.00  0.00     0.278 C 
ENDBRANCH   1  12
BRANCH   2  14
ATOM     14  O   UNL     1       7.935 -18.125   6.381  1.00  0.00    -0.504 OA
ATOM     15  H   UNL     1       7.208 -18.534   6.955  1.00  0.00     0.293 HD
ENDBRANCH   2  14
TORSDOF 2
ENDMDL
MODEL 7
REMARK VINA RESULT:    -4.080      1.578      1.874
REMARK INTER + INTRA:          -4.415
REMARK INTER:                  -5.056
REMARK INTRA:                   0.641
REMARK UNBOUND:                 0.023
REMARK SMILES COc1cc2ccc(=O)oc2cc1O
REMARK SMILES IDX 3 1 13 2 12 3 11 4 5 5 4 6 6 7 7 8 8 9 9 10 10 11 2 12 1 13
REMARK SMILES IDX 14 14
REMARK H PARENT 14 15
REMARK Flexibility Score: inf
ROOT
ATOM      1  C   UNL     1       8.347 -17.470   7.489  1.00  0.00     0.161 A 
ATOM      2  C   UNL     1       8.334 -16.294   8.255  1.00  0.00     0.161 A 
ATOM      3  C   UNL     1       9.537 -15.668   8.614  1.00  0.00     0.098 A 
ATOM      4  C   UNL     1      10.760 -16.212   8.214  1.00  0.00     0.142 A 
ATOM      5  C   UNL     1      10.782 -17.394   7.444  1.00  0.00     0.022 A 
ATOM      6  C   UNL     1       9.582 -18.019   7.084  1.00  0.00     0.062 A 
ATOM      7  C   UNL     1      12.023 -17.913   7.057  1.00  0.00     0.019 A 
ATOM      8  C   UNL     1      13.191 -17.254   7.440  1.00  0.00     0.094 A 
ATOM      9  C   UNL     1      13.090 -16.086   8.204  1.00  0.00     0.336 A 
ATOM     10  O   UNL     1      14.132 -15.476   8.559  1.00  0.00    -0.246 OA
ATOM     11  O   UNL     1      11.898 -15.614   8.558  1.00  0.00    -0.423 OA
ENDROOT
BRANCH   1  12
ATOM     12  O   UNL     1       7.120 -18.062   7.153  1.00  0.00    -0.493 OA
ATOM     13  C   UNL     1       5.992 -18.125   8.019  1.00  0.00     0.278 C 
ENDBRANCH   1  12
BRANCH   2  14
ATOM     14  O   UNL     1       7.115 -15.750   8.657  1.00  0.00    -0.504 OA
ATOM     15  H   UNL     1       6.672 -16.025   9.526  1.00  0.00     0.293 HD
ENDBRANCH   2  14
TORSDOF 2
ENDMDL
MODEL 8
REMARK VINA RESULT:    -4.061      1.214      4.971
REMARK INTER + INTRA:          -4.394
REMARK INTER:                  -4.376
REMARK INTRA:                  -0.018
REMARK UNBOUND:                 0.023
REMARK SMILES COc1cc2ccc(=O)oc2cc1O
REMARK SMILES IDX 3 1 13 2 12 3 11 4 5 5 4 6 6 7 7 8 8 9 9 10 10 11 2 12 1 13
REMARK SMILES IDX 14 14
REMARK H PARENT 14 15
REMARK Flexibility Score: inf
ROOT
ATOM      1  C   UNL     1      12.300 -14.681   7.888  1.00  0.00     0.161 A 
ATOM      2  C   UNL     1      11.358 -13.980   7.118  1.00  0.00     0.161 A 
ATOM      3  C   UNL     1      10.069 -14.499   6.930  1.00  0.00     0.098 A 
ATOM      4  C   UNL     1       9.711 -15.721   7.507  1.00  0.00     0.142 A 
ATOM      5  C   UNL     1      10.651 -16.432   8.282  1.00  0.00     0.022 A 
ATOM      6  C   UNL     1      11.939 -15.914   8.471  1.00  0.00     0.062 A 
ATOM      7  C   UNL     1      10.262 -17.651   8.847  1.00  0.00     0.019 A 
ATOM      8  C   UNL     1       8.968 -18.125   8.630  1.00  0.00     0.094 A 
ATOM      9  C   UNL     1       8.090 -17.365   7.850  1.00  0.00     0.336 A 
ATOM     10  O   UNL     1       6.919 -17.774   7.643  1.00  0.00    -0.246 OA
ATOM     11  O   UNL     1       8.486 -16.208   7.325  1.00  0.00    -0.423 OA
ENDROOT
BRANCH   1  12
ATOM     12  O   UNL     1      13.578 -14.124   8.049  1.00  0.00    -0.493 OA
ATOM     13  C   UNL     1      14.658 -14.309   7.140  1.00  0.00     0.278 C 
ENDBRANCH   1  12
BRANCH   2  14
ATOM     14  O   UNL     1      11.713 -12.762   6.541  1.00  0.00    -0.504 OA
ATOM     15  H   UNL     1      11.680 -12.620   5.539  1.00  0.00     0.293 HD
ENDBRANCH   2  14
TORSDOF 2
ENDMDL
