MODEL 1
REMARK VINA RESULT:    -1.245      0.000      0.000
REMARK INTER + INTRA:          -4.298
REMARK INTER:                  -2.846
REMARK INTRA:                  -1.452
REMARK UNBOUND:                -1.452
REMARK SMILES CCCCCCCCCCCCCCCCCCCCCCCC(=O)[O-]
REMARK SMILES IDX 13 1 14 2 15 3 16 4 17 5 18 6 19 7 20 8 21 9 22 10 23 11
REMARK SMILES IDX 24 12 25 13 26 14 12 15 11 16 10 17 9 18 8 19 7 20 6 21 5 22
REMARK SMILES IDX 4 23 3 24 2 25 1 26
REMARK H PARENT
REMARK Flexibility Score: inf
ROOT
ATOM      1  C   UNL     1      -5.026   8.293  -3.072  1.00  0.00     0.000 C 
ENDROOT
BRANCH   1   2
ATOM      2  C   UNL     1      -4.753   9.782  -2.795  1.00  0.00     0.000 C 
BRANCH   2   3
ATOM      3  C   UNL     1      -3.617   9.988  -1.772  1.00  0.00     0.000 C 
BRANCH   3   4
ATOM      4  C   UNL     1      -3.083   8.677  -1.162  1.00  0.00     0.000 C 
BRANCH   4   5
ATOM      5  C   UNL     1      -2.829   8.726   0.354  1.00  0.00     0.000 C 
BRANCH   5   6
ATOM      6  C   UNL     1      -1.335   8.696   0.707  1.00  0.00     0.000 C 
BRANCH   6   7
ATOM      7  C   UNL     1      -1.006   9.737   1.786  1.00  0.00     0.000 C 
BRANCH   7   8
ATOM      8  C   UNL     1      -1.991  10.921   1.803  1.00  0.00     0.000 C 
BRANCH   8   9
ATOM      9  C   UNL     1      -2.795  11.083   3.105  1.00  0.00     0.000 C 
BRANCH   9  10
ATOM     10  C   UNL     1      -4.316  11.122   2.871  1.00  0.00     0.006 C 
BRANCH  10  11
ATOM     11  C   UNL     1      -5.007   9.836   3.343  1.00  0.00     0.053 C 
BRANCH  11  12
ATOM     12  C   UNL     1      -6.194  10.127   4.210  1.00  0.00     0.041 C 
ATOM     13  O   UNL     1      -6.089  10.927   5.178  1.00  0.00    -0.550 OA
ATOM     14  O   UNL     1      -7.417   9.525   3.942  1.00  0.00    -0.550 OA
ENDBRANCH  11  12
ENDBRANCH  10  11
ENDBRANCH   9  10
ENDBRANCH   8   9
ENDBRANCH   7   8
ENDBRANCH   6   7
ENDBRANCH   5   6
ENDBRANCH   4   5
ENDBRANCH   3   4
ENDBRANCH   2   3
ENDBRANCH   1   2
BRANCH   1  15
ATOM     15  C   UNL     1      -3.979   7.664  -4.004  1.00  0.00     0.000 C 
BRANCH  15  16
ATOM     16  C   UNL     1      -3.313   8.696  -4.928  1.00  0.00     0.000 C 
BRANCH  16  17
ATOM     17  C   UNL     1      -1.918   8.229  -5.357  1.00  0.00     0.000 C 
BRANCH  17  18
ATOM     18  C   UNL     1      -0.878   9.344  -5.166  1.00  0.00    -0.000 C 
BRANCH  18  19
ATOM     19  C   UNL     1      -0.877  10.347  -6.337  1.00  0.00    -0.000 C 
BRANCH  19  20
ATOM     20  C   UNL     1      -1.046   9.687  -7.716  1.00  0.00    -0.000 C 
BRANCH  20  21
ATOM     21  C   UNL     1      -2.033  10.442  -8.621  1.00  0.00    -0.000 C 
BRANCH  21  22
ATOM     22  C   UNL     1      -1.341  11.086  -9.835  1.00  0.00    -0.000 C 
BRANCH  22  23
ATOM     23  C   UNL     1      -0.939  10.051 -10.899  1.00  0.00    -0.000 C 
BRANCH  23  24
ATOM     24  C   UNL     1      -2.080   9.821 -11.900  1.00  0.00    -0.000 C 
BRANCH  24  25
ATOM     25  C   UNL     1      -2.591   8.371 -11.890  1.00  0.00    -0.003 C 
ATOM     26  C   UNL     1      -3.778   8.155 -12.829  1.00  0.00     0.004 C 
ENDBRANCH  24  25
ENDBRANCH  23  24
ENDBRANCH  22  23
ENDBRANCH  21  22
ENDBRANCH  20  21
ENDBRANCH  19  20
ENDBRANCH  18  19
ENDBRANCH  17  18
ENDBRANCH  16  17
ENDBRANCH  15  16
ENDBRANCH   1  15
TORSDOF 22
ENDMDL
MODEL 2
REMARK VINA RESULT:    -1.012      4.914     11.348
REMARK INTER + INTRA:          -3.767
REMARK INTER:                  -4.310
REMARK INTRA:                   0.543
REMARK UNBOUND:                -1.452
REMARK SMILES CCCCCCCCCCCCCCCCCCCCCCCC(=O)[O-]
REMARK SMILES IDX 13 1 14 2 15 3 16 4 17 5 18 6 19 7 20 8 21 9 22 10 23 11
REMARK SMILES IDX 24 12 25 13 26 14 12 15 11 16 10 17 9 18 8 19 7 20 6 21 5 22
REMARK SMILES IDX 4 23 3 24 2 25 1 26
REMARK H PARENT
REMARK Flexibility Score: inf
ROOT
ATOM      1  C   UNL     1      -4.755   7.181  -4.059  1.00  0.00     0.000 C 
ENDROOT
BRANCH   1   2
ATOM      2  C   UNL     1      -3.737   8.124  -4.726  1.00  0.00     0.000 C 
BRANCH   2   3
ATOM      3  C   UNL     1      -2.283   7.653  -4.522  1.00  0.00     0.000 C 
BRANCH   3   4
ATOM      4  C   UNL     1      -1.613   7.131  -5.808  1.00  0.00     0.000 C 
BRANCH   4   5
ATOM      5  C   UNL     1      -0.886   8.203  -6.639  1.00  0.00     0.000 C 
BRANCH   5   6
ATOM      6  C   UNL     1      -1.724   9.475  -6.830  1.00  0.00     0.000 C 
BRANCH   6   7
ATOM      7  C   UNL     1      -1.188  10.314  -7.998  1.00  0.00     0.000 C 
BRANCH   7   8
ATOM      8  C   UNL     1      -0.887   9.475  -9.255  1.00  0.00     0.000 C 
BRANCH   8   9
ATOM      9  C   UNL     1      -1.053  10.220 -10.592  1.00  0.00     0.000 C 
BRANCH   9  10
ATOM     10  C   UNL     1      -1.060   9.276 -11.808  1.00  0.00     0.006 C 
BRANCH  10  11
ATOM     11  C   UNL     1      -2.007   9.761 -12.912  1.00  0.00     0.053 C 
BRANCH  11  12
ATOM     12  C   UNL     1      -3.387   9.199 -12.750  1.00  0.00     0.041 C 
ATOM     13  O   UNL     1      -4.349   9.958 -12.458  1.00  0.00    -0.550 OA
ATOM     14  O   UNL     1      -3.611   7.840 -12.934  1.00  0.00    -0.550 OA
ENDBRANCH  11  12
ENDBRANCH  10  11
ENDBRANCH   9  10
ENDBRANCH   8   9
ENDBRANCH   7   8
ENDBRANCH   6   7
ENDBRANCH   5   6
ENDBRANCH   4   5
ENDBRANCH   3   4
ENDBRANCH   2   3
ENDBRANCH   1   2
BRANCH   1  15
ATOM     15  C   UNL     1      -5.111   7.612  -2.628  1.00  0.00     0.000 C 
BRANCH  15  16
ATOM     16  C   UNL     1      -4.082   8.584  -2.030  1.00  0.00     0.000 C 
BRANCH  16  17
ATOM     17  C   UNL     1      -2.738   7.887  -1.800  1.00  0.00     0.000 C 
BRANCH  17  18
ATOM     18  C   UNL     1      -2.099   8.336  -0.477  1.00  0.00    -0.000 C 
BRANCH  18  19
ATOM     19  C   UNL     1      -1.251   9.614  -0.644  1.00  0.00    -0.000 C 
BRANCH  19  20
ATOM     20  C   UNL     1      -1.831  10.840   0.082  1.00  0.00    -0.000 C 
BRANCH  20  21
ATOM     21  C   UNL     1      -3.358  10.947  -0.056  1.00  0.00    -0.000 C 
BRANCH  21  22
ATOM     22  C   UNL     1      -4.090  10.621   1.258  1.00  0.00    -0.000 C 
BRANCH  22  23
ATOM     23  C   UNL     1      -3.232  10.923   2.498  1.00  0.00    -0.000 C 
BRANCH  23  24
ATOM     24  C   UNL     1      -4.114  11.125   3.739  1.00  0.00    -0.000 C 
BRANCH  24  25
ATOM     25  C   UNL     1      -5.264  10.108   3.817  1.00  0.00    -0.003 C 
ATOM     26  C   UNL     1      -6.524  10.687   4.460  1.00  0.00     0.004 C 
ENDBRANCH  24  25
ENDBRANCH  23  24
ENDBRANCH  22  23
ENDBRANCH  21  22
ENDBRANCH  20  21
ENDBRANCH  19  20
ENDBRANCH  18  19
ENDBRANCH  17  18
ENDBRANCH  16  17
ENDBRANCH  15  16
ENDBRANCH   1  15
TORSDOF 22
ENDMDL
MODEL 3
REMARK VINA RESULT:    -0.348      2.971      3.850
REMARK INTER + INTRA:          -2.248
REMARK INTER:                  -0.456
REMARK INTRA:                  -1.792
REMARK UNBOUND:                -1.452
REMARK SMILES CCCCCCCCCCCCCCCCCCCCCCCC(=O)[O-]
REMARK SMILES IDX 13 1 14 2 15 3 16 4 17 5 18 6 19 7 20 8 21 9 22 10 23 11
REMARK SMILES IDX 24 12 25 13 26 14 12 15 11 16 10 17 9 18 8 19 7 20 6 21 5 22
REMARK SMILES IDX 4 23 3 24 2 25 1 26
REMARK H PARENT
REMARK Flexibility Score: inf
ROOT
ATOM      1  C   UNL     1      -5.283   7.913  -1.314  1.00  0.00     0.000 C 
ENDROOT
BRANCH   1   2
ATOM      2  C   UNL     1      -4.113   8.561  -0.553  1.00  0.00     0.000 C 
BRANCH   2   3
ATOM      3  C   UNL     1      -2.764   7.881  -0.864  1.00  0.00     0.000 C 
BRANCH   3   4
ATOM      4  C   UNL     1      -1.754   8.800  -1.578  1.00  0.00     0.000 C 
BRANCH   4   5
ATOM      5  C   UNL     1      -1.389  10.080  -0.805  1.00  0.00     0.000 C 
BRANCH   5   6
ATOM      6  C   UNL     1      -1.323   9.859   0.713  1.00  0.00     0.000 C 
BRANCH   6   7
ATOM      7  C   UNL     1      -2.415  10.663   1.432  1.00  0.00     0.000 C 
BRANCH   7   8
ATOM      8  C   UNL     1      -2.070  10.967   2.902  1.00  0.00     0.000 C 
BRANCH   8   9
ATOM      9  C   UNL     1      -3.136  10.535   3.925  1.00  0.00     0.000 C 
BRANCH   9  10
ATOM     10  C   UNL     1      -4.528  11.118   3.624  1.00  0.00     0.006 C 
BRANCH  10  11
ATOM     11  C   UNL     1      -5.531  10.035   3.203  1.00  0.00     0.053 C 
BRANCH  11  12
ATOM     12  C   UNL     1      -6.526   9.746   4.286  1.00  0.00     0.041 C 
ATOM     13  O   UNL     1      -6.703  10.572   5.220  1.00  0.00    -0.550 OA
ATOM     14  O   UNL     1      -7.266   8.570   4.254  1.00  0.00    -0.550 OA
ENDBRANCH  11  12
ENDBRANCH  10  11
ENDBRANCH   9  10
ENDBRANCH   8   9
ENDBRANCH   7   8
ENDBRANCH   6   7
ENDBRANCH   5   6
ENDBRANCH   4   5
ENDBRANCH   3   4
ENDBRANCH   2   3
ENDBRANCH   1   2
BRANCH   1  15
ATOM     15  C   UNL     1      -4.822   7.134  -2.556  1.00  0.00     0.000 C 
BRANCH  15  16
ATOM     16  C   UNL     1      -4.908   7.970  -3.843  1.00  0.00     0.000 C 
BRANCH  16  17
ATOM     17  C   UNL     1      -5.053   9.461  -3.519  1.00  0.00     0.000 C 
BRANCH  17  18
ATOM     18  C   UNL     1      -3.716  10.198  -3.694  1.00  0.00    -0.000 C 
BRANCH  18  19
ATOM     19  C   UNL     1      -3.117   9.993  -5.101  1.00  0.00    -0.000 C 
BRANCH  19  20
ATOM     20  C   UNL     1      -1.584  10.111  -5.142  1.00  0.00    -0.000 C 
BRANCH  20  21
ATOM     21  C   UNL     1      -0.897   8.808  -5.583  1.00  0.00    -0.000 C 
BRANCH  21  22
ATOM     22  C   UNL     1      -1.544   7.562  -4.952  1.00  0.00    -0.000 C 
BRANCH  22  23
ATOM     23  C   UNL     1      -1.598   6.373  -5.925  1.00  0.00    -0.000 C 
BRANCH  23  24
ATOM     24  C   UNL     1      -1.349   5.049  -5.187  1.00  0.00    -0.000 C 
BRANCH  24  25
ATOM     25  C   UNL     1      -1.655   3.821  -6.060  1.00  0.00    -0.003 C 
ATOM     26  C   UNL     1      -1.610   2.510  -5.275  1.00  0.00     0.004 C 
ENDBRANCH  24  25
ENDBRANCH  23  24
ENDBRANCH  22  23
ENDBRANCH  21  22
ENDBRANCH  20  21
ENDBRANCH  19  20
ENDBRANCH  18  19
ENDBRANCH  17  18
ENDBRANCH  16  17
ENDBRANCH  15  16
ENDBRANCH   1  15
TORSDOF 22
ENDMDL
MODEL 4
REMARK VINA RESULT:    -0.130      4.914     11.534
REMARK INTER + INTRA:          -1.750
REMARK INTER:                  -1.048
REMARK INTRA:                  -0.702
REMARK UNBOUND:                -1.452
REMARK SMILES CCCCCCCCCCCCCCCCCCCCCCCC(=O)[O-]
REMARK SMILES IDX 13 1 14 2 15 3 16 4 17 5 18 6 19 7 20 8 21 9 22 10 23 11
REMARK SMILES IDX 24 12 25 13 26 14 12 15 11 16 10 17 9 18 8 19 7 20 6 21 5 22
REMARK SMILES IDX 4 23 3 24 2 25 1 26
REMARK H PARENT
REMARK Flexibility Score: inf
ROOT
ATOM      1  C   UNL     1      -4.049   8.150  -0.712  1.00  0.00     0.000 C 
ENDROOT
BRANCH   1   2
ATOM      2  C   UNL     1      -4.904   9.180  -1.472  1.00  0.00     0.000 C 
BRANCH   2   3
ATOM      3  C   UNL     1      -4.768   9.039  -3.002  1.00  0.00     0.000 C 
BRANCH   3   4
ATOM      4  C   UNL     1      -3.490   8.299  -3.446  1.00  0.00     0.000 C 
BRANCH   4   5
ATOM      5  C   UNL     1      -3.049   8.586  -4.892  1.00  0.00     0.000 C 
BRANCH   5   6
ATOM      6  C   UNL     1      -1.525   8.522  -5.071  1.00  0.00     0.000 C 
BRANCH   6   7
ATOM      7  C   UNL     1      -1.121   8.950  -6.489  1.00  0.00     0.000 C 
BRANCH   7   8
ATOM      8  C   UNL     1      -1.327  10.455  -6.745  1.00  0.00     0.000 C 
BRANCH   8   9
ATOM      9  C   UNL     1      -0.883  10.947  -8.134  1.00  0.00     0.000 C 
BRANCH   9  10
ATOM     10  C   UNL     1      -1.069   9.887  -9.235  1.00  0.00     0.006 C 
BRANCH  10  11
ATOM     11  C   UNL     1      -1.661  10.484 -10.518  1.00  0.00     0.053 C 
BRANCH  11  12
ATOM     12  C   UNL     1      -1.712   9.478 -11.628  1.00  0.00     0.041 C 
ATOM     13  O   UNL     1      -1.163   9.728 -12.734  1.00  0.00    -0.550 OA
ATOM     14  O   UNL     1      -2.354   8.261 -11.435  1.00  0.00    -0.550 OA
ENDBRANCH  11  12
ENDBRANCH  10  11
ENDBRANCH   9  10
ENDBRANCH   8   9
ENDBRANCH   7   8
ENDBRANCH   6   7
ENDBRANCH   5   6
ENDBRANCH   4   5
ENDBRANCH   3   4
ENDBRANCH   2   3
ENDBRANCH   1   2
BRANCH   1  15
ATOM     15  C   UNL     1      -2.802   8.778  -0.068  1.00  0.00     0.000 C 
BRANCH  15  16
ATOM     16  C   UNL     1      -2.390  10.096  -0.741  1.00  0.00     0.000 C 
BRANCH  16  17
ATOM     17  C   UNL     1      -1.149  10.691  -0.066  1.00  0.00     0.000 C 
BRANCH  17  18
ATOM     18  C   UNL     1      -1.457  11.125   1.375  1.00  0.00    -0.000 C 
BRANCH  18  19
ATOM     19  C   UNL     1      -2.970  11.119   1.675  1.00  0.00    -0.000 C 
BRANCH  19  20
ATOM     20  C   UNL     1      -3.311  10.727   3.123  1.00  0.00    -0.000 C 
BRANCH  20  21
ATOM     21  C   UNL     1      -4.778  10.301   3.295  1.00  0.00    -0.000 C 
BRANCH  21  22
ATOM     22  C   UNL     1      -5.505  11.125   4.373  1.00  0.00    -0.000 C 
BRANCH  22  23
ATOM     23  C   UNL     1      -6.845  10.495   4.788  1.00  0.00    -0.000 C 
BRANCH  23  24
ATOM     24  C   UNL     1      -6.764   8.962   4.757  1.00  0.00    -0.000 C 
BRANCH  24  25
ATOM     25  C   UNL     1      -7.928   8.326   3.980  1.00  0.00    -0.003 C 
ATOM     26  C   UNL     1      -8.255   6.911   4.458  1.00  0.00     0.004 C 
ENDBRANCH  24  25
ENDBRANCH  23  24
ENDBRANCH  22  23
ENDBRANCH  21  22
ENDBRANCH  20  21
ENDBRANCH  19  20
ENDBRANCH  18  19
ENDBRANCH  17  18
ENDBRANCH  16  17
ENDBRANCH  15  16
ENDBRANCH   1  15
TORSDOF 22
ENDMDL
MODEL 5
REMARK VINA RESULT:    -0.063      4.874     11.481
REMARK INTER + INTRA:          -1.596
REMARK INTER:                  -1.949
REMARK INTRA:                   0.353
REMARK UNBOUND:                -1.452
REMARK SMILES CCCCCCCCCCCCCCCCCCCCCCCC(=O)[O-]
REMARK SMILES IDX 13 1 14 2 15 3 16 4 17 5 18 6 19 7 20 8 21 9 22 10 23 11
REMARK SMILES IDX 24 12 25 13 26 14 12 15 11 16 10 17 9 18 8 19 7 20 6 21 5 22
REMARK SMILES IDX 4 23 3 24 2 25 1 26
REMARK H PARENT
REMARK Flexibility Score: inf
ROOT
ATOM      1  C   UNL     1      -4.632   7.363  -1.500  1.00  0.00     0.000 C 
ENDROOT
BRANCH   1   2
ATOM      2  C   UNL     1      -4.280   7.431  -2.997  1.00  0.00     0.000 C 
BRANCH   2   3
ATOM      3  C   UNL     1      -3.844   8.844  -3.433  1.00  0.00     0.000 C 
BRANCH   3   4
ATOM      4  C   UNL     1      -2.805   8.852  -4.571  1.00  0.00     0.000 C 
BRANCH   4   5
ATOM      5  C   UNL     1      -2.089  10.197  -4.783  1.00  0.00     0.000 C 
BRANCH   5   6
ATOM      6  C   UNL     1      -2.233  10.726  -6.217  1.00  0.00     0.000 C 
BRANCH   6   7
ATOM      7  C   UNL     1      -1.150  10.135  -7.131  1.00  0.00     0.000 C 
BRANCH   7   8
ATOM      8  C   UNL     1      -1.168  10.731  -8.551  1.00  0.00     0.000 C 
BRANCH   8   9
ATOM      9  C   UNL     1      -1.345   9.707  -9.686  1.00  0.00     0.000 C 
BRANCH   9  10
ATOM     10  C   UNL     1      -1.070  10.302 -11.079  1.00  0.00     0.006 C 
BRANCH  10  11
ATOM     11  C   UNL     1      -1.419   9.322 -12.207  1.00  0.00     0.053 C 
BRANCH  11  12
ATOM     12  C   UNL     1      -2.891   9.056 -12.279  1.00  0.00     0.041 C 
ATOM     13  O   UNL     1      -3.337   7.898 -12.063  1.00  0.00    -0.550 OA
ATOM     14  O   UNL     1      -3.771  10.091 -12.571  1.00  0.00    -0.550 OA
ENDBRANCH  11  12
ENDBRANCH  10  11
ENDBRANCH   9  10
ENDBRANCH   8   9
ENDBRANCH   7   8
ENDBRANCH   6   7
ENDBRANCH   5   6
ENDBRANCH   4   5
ENDBRANCH   3   4
ENDBRANCH   2   3
ENDBRANCH   1   2
BRANCH   1  15
ATOM     15  C   UNL     1      -3.608   8.095  -0.618  1.00  0.00     0.000 C 
BRANCH  15  16
ATOM     16  C   UNL     1      -2.443   8.684  -1.430  1.00  0.00     0.000 C 
BRANCH  16  17
ATOM     17  C   UNL     1      -1.191   8.839  -0.559  1.00  0.00     0.000 C 
BRANCH  17  18
ATOM     18  C   UNL     1      -0.881  10.320  -0.294  1.00  0.00    -0.000 C 
BRANCH  18  19
ATOM     19  C   UNL     1      -1.734  10.897   0.855  1.00  0.00    -0.000 C 
BRANCH  19  20
ATOM     20  C   UNL     1      -1.813   9.978   2.087  1.00  0.00    -0.000 C 
BRANCH  20  21
ATOM     21  C   UNL     1      -1.875  10.759   3.410  1.00  0.00    -0.000 C 
BRANCH  21  22
ATOM     22  C   UNL     1      -3.316  11.124   3.808  1.00  0.00    -0.000 C 
BRANCH  22  23
ATOM     23  C   UNL     1      -4.360  10.235   3.114  1.00  0.00    -0.000 C 
BRANCH  23  24
ATOM     24  C   UNL     1      -5.785  10.695   3.453  1.00  0.00    -0.000 C 
BRANCH  24  25
ATOM     25  C   UNL     1      -6.330  10.035   4.730  1.00  0.00    -0.003 C 
ATOM     26  C   UNL     1      -7.274   8.868   4.437  1.00  0.00     0.004 C 
ENDBRANCH  24  25
ENDBRANCH  23  24
ENDBRANCH  22  23
ENDBRANCH  21  22
ENDBRANCH  20  21
ENDBRANCH  19  20
ENDBRANCH  18  19
ENDBRANCH  17  18
ENDBRANCH  16  17
ENDBRANCH  15  16
ENDBRANCH   1  15
TORSDOF 22
ENDMDL
MODEL 6
REMARK VINA RESULT:     0.148      4.916      8.780
REMARK INTER + INTRA:          -1.114
REMARK INTER:                   1.526
REMARK INTRA:                  -2.639
REMARK UNBOUND:                -1.452
REMARK SMILES CCCCCCCCCCCCCCCCCCCCCCCC(=O)[O-]
REMARK SMILES IDX 13 1 14 2 15 3 16 4 17 5 18 6 19 7 20 8 21 9 22 10 23 11
REMARK SMILES IDX 24 12 25 13 26 14 12 15 11 16 10 17 9 18 8 19 7 20 6 21 5 22
REMARK SMILES IDX 4 23 3 24 2 25 1 26
REMARK H PARENT
REMARK Flexibility Score: inf
ROOT
ATOM      1  C   UNL     1      -5.366   8.893  -0.284  1.00  0.00     0.000 C 
ENDROOT
BRANCH   1   2
ATOM      2  C   UNL     1      -4.599   8.561  -1.577  1.00  0.00     0.000 C 
BRANCH   2   3
ATOM      3  C   UNL     1      -5.239   9.212  -2.820  1.00  0.00     0.000 C 
BRANCH   3   4
ATOM      4  C   UNL     1      -5.336   8.268  -4.036  1.00  0.00     0.000 C 
BRANCH   4   5
ATOM      5  C   UNL     1      -3.990   7.939  -4.705  1.00  0.00     0.000 C 
BRANCH   5   6
ATOM      6  C   UNL     1      -3.589   8.969  -5.771  1.00  0.00     0.000 C 
BRANCH   6   7
ATOM      7  C   UNL     1      -2.930  10.197  -5.127  1.00  0.00     0.000 C 
BRANCH   7   8
ATOM      8  C   UNL     1      -2.225  11.108  -6.148  1.00  0.00     0.000 C 
BRANCH   8   9
ATOM      9  C   UNL     1      -1.045  10.460  -6.896  1.00  0.00     0.000 C 
BRANCH   9  10
ATOM     10  C   UNL     1      -0.877  10.994  -8.330  1.00  0.00     0.006 C 
BRANCH  10  11
ATOM     11  C   UNL     1      -2.057  10.610  -9.232  1.00  0.00     0.053 C 
BRANCH  11  12
ATOM     12  C   UNL     1      -1.601  10.178 -10.592  1.00  0.00     0.041 C 
ATOM     13  O   UNL     1      -1.646   8.962 -10.918  1.00  0.00    -0.550 OA
ATOM     14  O   UNL     1      -1.139  11.120 -11.503  1.00  0.00    -0.550 OA
ENDBRANCH  11  12
ENDBRANCH  10  11
ENDBRANCH   9  10
ENDBRANCH   8   9
ENDBRANCH   7   8
ENDBRANCH   6   7
ENDBRANCH   5   6
ENDBRANCH   4   5
ENDBRANCH   3   4
ENDBRANCH   2   3
ENDBRANCH   1   2
BRANCH   1  15
ATOM     15  C   UNL     1      -5.009  10.279   0.276  1.00  0.00     0.000 C 
BRANCH  15  16
ATOM     16  C   UNL     1      -4.074  10.202   1.492  1.00  0.00     0.000 C 
BRANCH  16  17
ATOM     17  C   UNL     1      -2.612  10.396   1.073  1.00  0.00     0.000 C 
BRANCH  17  18
ATOM     18  C   UNL     1      -2.516  11.052  -0.312  1.00  0.00    -0.000 C 
BRANCH  18  19
ATOM     19  C   UNL     1      -1.074  11.050  -0.860  1.00  0.00    -0.000 C 
BRANCH  19  20
ATOM     20  C   UNL     1      -0.888  10.169  -2.107  1.00  0.00    -0.000 C 
BRANCH  20  21
ATOM     21  C   UNL     1      -0.974   8.666  -1.793  1.00  0.00    -0.000 C 
BRANCH  21  22
ATOM     22  C   UNL     1      -1.222   7.818  -3.053  1.00  0.00    -0.000 C 
BRANCH  22  23
ATOM     23  C   UNL     1      -0.994   6.318  -2.805  1.00  0.00    -0.000 C 
BRANCH  23  24
ATOM     24  C   UNL     1      -1.123   5.520  -4.111  1.00  0.00    -0.000 C 
BRANCH  24  25
ATOM     25  C   UNL     1      -1.075   6.418  -5.358  1.00  0.00    -0.003 C 
ATOM     26  C   UNL     1      -1.426   5.667  -6.642  1.00  0.00     0.004 C 
ENDBRANCH  24  25
ENDBRANCH  23  24
ENDBRANCH  22  23
ENDBRANCH  21  22
ENDBRANCH  20  21
ENDBRANCH  19  20
ENDBRANCH  18  19
ENDBRANCH  17  18
ENDBRANCH  16  17
ENDBRANCH  15  16
ENDBRANCH   1  15
TORSDOF 22
ENDMDL
MODEL 7
REMARK VINA RESULT:     0.276      4.654      9.842
REMARK INTER + INTRA:          -0.822
REMARK INTER:                  -1.553
REMARK INTRA:                   0.730
REMARK UNBOUND:                -1.452
REMARK SMILES CCCCCCCCCCCCCCCCCCCCCCCC(=O)[O-]
REMARK SMILES IDX 13 1 14 2 15 3 16 4 17 5 18 6 19 7 20 8 21 9 22 10 23 11
REMARK SMILES IDX 24 12 25 13 26 14 12 15 11 16 10 17 9 18 8 19 7 20 6 21 5 22
REMARK SMILES IDX 4 23 3 24 2 25 1 26
REMARK H PARENT
REMARK Flexibility Score: inf
ROOT
ATOM      1  C   UNL     1      -5.760   8.688  -2.887  1.00  0.00     0.000 C 
ENDROOT
BRANCH   1   2
ATOM      2  C   UNL     1      -5.001   7.938  -3.996  1.00  0.00     0.000 C 
BRANCH   2   3
ATOM      3  C   UNL     1      -3.480   8.186  -3.936  1.00  0.00     0.000 C 
BRANCH   3   4
ATOM      4  C   UNL     1      -2.703   7.100  -3.166  1.00  0.00     0.000 C 
BRANCH   4   5
ATOM      5  C   UNL     1      -1.473   6.542  -3.902  1.00  0.00     0.000 C 
BRANCH   5   6
ATOM      6  C   UNL     1      -1.844   5.540  -5.004  1.00  0.00     0.000 C 
BRANCH   6   7
ATOM      7  C   UNL     1      -0.880   5.650  -6.193  1.00  0.00     0.000 C 
BRANCH   7   8
ATOM      8  C   UNL     1      -1.229   6.807  -7.147  1.00  0.00     0.000 C 
BRANCH   8   9
ATOM      9  C   UNL     1      -0.879   8.212  -6.625  1.00  0.00     0.000 C 
BRANCH   9  10
ATOM     10  C   UNL     1      -1.722   9.323  -7.277  1.00  0.00     0.006 C 
BRANCH  10  11
ATOM     11  C   UNL     1      -0.897  10.186  -8.240  1.00  0.00     0.053 C 
BRANCH  11  12
ATOM     12  C   UNL     1      -1.088   9.766  -9.666  1.00  0.00     0.041 C 
ATOM     13  O   UNL     1      -1.214   8.547  -9.956  1.00  0.00    -0.550 OA
ATOM     14  O   UNL     1      -1.138  10.724 -10.672  1.00  0.00    -0.550 OA
ENDBRANCH  11  12
ENDBRANCH  10  11
ENDBRANCH   9  10
ENDBRANCH   8   9
ENDBRANCH   7   8
ENDBRANCH   6   7
ENDBRANCH   5   6
ENDBRANCH   4   5
ENDBRANCH   3   4
ENDBRANCH   2   3
ENDBRANCH   1   2
BRANCH   1  15
ATOM     15  C   UNL     1      -4.851   9.630  -2.082  1.00  0.00     0.000 C 
BRANCH  15  16
ATOM     16  C   UNL     1      -4.820  11.055  -2.656  1.00  0.00     0.000 C 
BRANCH  16  17
ATOM     17  C   UNL     1      -3.939  11.123  -3.908  1.00  0.00     0.000 C 
BRANCH  17  18
ATOM     18  C   UNL     1      -2.483  10.756  -3.581  1.00  0.00    -0.000 C 
BRANCH  18  19
ATOM     19  C   UNL     1      -2.115  11.079  -2.118  1.00  0.00    -0.000 C 
BRANCH  19  20
ATOM     20  C   UNL     1      -2.215   9.869  -1.174  1.00  0.00    -0.000 C 
BRANCH  20  21
ATOM     21  C   UNL     1      -1.086   9.830  -0.132  1.00  0.00    -0.000 C 
BRANCH  21  22
ATOM     22  C   UNL     1      -1.104  11.056   0.798  1.00  0.00    -0.000 C 
BRANCH  22  23
ATOM     23  C   UNL     1      -1.244  10.667   2.279  1.00  0.00    -0.000 C 
BRANCH  23  24
ATOM     24  C   UNL     1      -2.514   9.835   2.509  1.00  0.00    -0.000 C 
BRANCH  24  25
ATOM     25  C   UNL     1      -3.796  10.603   2.146  1.00  0.00    -0.003 C 
ATOM     26  C   UNL     1      -4.617  10.999   3.373  1.00  0.00     0.004 C 
ENDBRANCH  24  25
ENDBRANCH  23  24
ENDBRANCH  22  23
ENDBRANCH  21  22
ENDBRANCH  20  21
ENDBRANCH  19  20
ENDBRANCH  18  19
ENDBRANCH  17  18
ENDBRANCH  16  17
ENDBRANCH  15  16
ENDBRANCH   1  15
TORSDOF 22
ENDMDL
MODEL 8
REMARK VINA RESULT:     0.304      3.390      4.972
REMARK INTER + INTRA:          -0.758
REMARK INTER:                  -0.150
REMARK INTRA:                  -0.608
REMARK UNBOUND:                -1.452
REMARK SMILES CCCCCCCCCCCCCCCCCCCCCCCC(=O)[O-]
REMARK SMILES IDX 13 1 14 2 15 3 16 4 17 5 18 6 19 7 20 8 21 9 22 10 23 11
REMARK SMILES IDX 24 12 25 13 26 14 12 15 11 16 10 17 9 18 8 19 7 20 6 21 5 22
REMARK SMILES IDX 4 23 3 24 2 25 1 26
REMARK H PARENT
REMARK Flexibility Score: inf
ROOT
ATOM      1  C   UNL     1      -2.076   8.691  -2.037  1.00  0.00     0.000 C 
ENDROOT
BRANCH   1   2
ATOM      2  C   UNL     1      -3.285   8.441  -1.116  1.00  0.00     0.000 C 
BRANCH   2   3
ATOM      3  C   UNL     1      -3.467   9.561  -0.072  1.00  0.00     0.000 C 
BRANCH   3   4
ATOM      4  C   UNL     1      -2.538   9.427   1.151  1.00  0.00     0.000 C 
BRANCH   4   5
ATOM      5  C   UNL     1      -2.207  10.753   1.858  1.00  0.00     0.000 C 
BRANCH   5   6
ATOM      6  C   UNL     1      -2.937  10.910   3.200  1.00  0.00     0.000 C 
BRANCH   6   7
ATOM      7  C   UNL     1      -4.432  10.592   3.051  1.00  0.00     0.000 C 
BRANCH   7   8
ATOM      8  C   UNL     1      -5.238  10.877   4.332  1.00  0.00     0.000 C 
BRANCH   8   9
ATOM      9  C   UNL     1      -6.686  10.353   4.322  1.00  0.00     0.000 C 
BRANCH   9  10
ATOM     10  C   UNL     1      -6.771   8.821   4.438  1.00  0.00     0.006 C 
BRANCH  10  11
ATOM     11  C   UNL     1      -8.217   8.315   4.375  1.00  0.00     0.053 C 
BRANCH  11  12
ATOM     12  C   UNL     1      -8.282   6.820   4.288  1.00  0.00     0.041 C 
ATOM     13  O   UNL     1      -8.814   6.267   3.290  1.00  0.00    -0.550 OA
ATOM     14  O   UNL     1      -7.743   6.040   5.304  1.00  0.00    -0.550 OA
ENDBRANCH  11  12
ENDBRANCH  10  11
ENDBRANCH   9  10
ENDBRANCH   8   9
ENDBRANCH   7   8
ENDBRANCH   6   7
ENDBRANCH   5   6
ENDBRANCH   4   5
ENDBRANCH   3   4
ENDBRANCH   2   3
ENDBRANCH   1   2
BRANCH   1  15
ATOM     15  C   UNL     1      -1.688  10.176  -2.112  1.00  0.00     0.000 C 
BRANCH  15  16
ATOM     16  C   UNL     1      -2.392  10.913  -3.263  1.00  0.00     0.000 C 
BRANCH  16  17
ATOM     17  C   UNL     1      -2.482  10.025  -4.509  1.00  0.00     0.000 C 
BRANCH  17  18
ATOM     18  C   UNL     1      -1.086   9.589  -4.980  1.00  0.00    -0.000 C 
BRANCH  18  19
ATOM     19  C   UNL     1      -1.028   8.085  -5.315  1.00  0.00    -0.000 C 
BRANCH  19  20
ATOM     20  C   UNL     1      -2.093   7.248  -4.587  1.00  0.00    -0.000 C 
BRANCH  20  21
ATOM     21  C   UNL     1      -2.340   5.885  -5.255  1.00  0.00    -0.000 C 
BRANCH  21  22
ATOM     22  C   UNL     1      -1.327   5.590  -6.375  1.00  0.00    -0.000 C 
BRANCH  22  23
ATOM     23  C   UNL     1      -1.097   4.083  -6.575  1.00  0.00    -0.000 C 
BRANCH  23  24
ATOM     24  C   UNL     1      -0.877   3.378  -5.229  1.00  0.00    -0.000 C 
BRANCH  24  25
ATOM     25  C   UNL     1      -1.558   2.001  -5.166  1.00  0.00    -0.003 C 
ATOM     26  C   UNL     1      -0.939   0.989  -6.129  1.00  0.00     0.004 C 
ENDBRANCH  24  25
ENDBRANCH  23  24
ENDBRANCH  22  23
ENDBRANCH  21  22
ENDBRANCH  20  21
ENDBRANCH  19  20
ENDBRANCH  18  19
ENDBRANCH  17  18
ENDBRANCH  16  17
ENDBRANCH  15  16
ENDBRANCH   1  15
TORSDOF 22
ENDMDL
