MODEL 1
REMARK VINA RESULT:    -5.310      0.000      0.000
REMARK INTER + INTRA:          -5.621
REMARK INTER:                  -5.621
REMARK INTRA:                   0.000
REMARK UNBOUND:                 0.000
REMARK SMILES O=c1ccc2cc(O)c(O)cc2o1
REMARK SMILES IDX 4 1 3 2 2 3 1 4 13 5 12 6 11 7 9 8 7 9 6 10 5 11 8 12 10 14
REMARK H PARENT 8 13 10 15
REMARK Flexibility Score: inf
ROOT
ATOM      1  C   UNL     1      10.103  -7.357  -9.876  1.00  0.00     0.019 A 
ATOM      2  C   UNL     1       9.320  -8.121 -10.742  1.00  0.00     0.094 A 
ATOM      3  C   UNL     1       7.975  -8.338 -10.427  1.00  0.00     0.336 A 
ATOM      4  O   UNL     1       7.252  -9.025 -11.195  1.00  0.00    -0.246 OA
ATOM      5  O   UNL     1       7.451  -7.823  -9.317  1.00  0.00    -0.423 OA
ATOM      6  C   UNL     1       8.162  -7.090  -8.464  1.00  0.00     0.142 A 
ATOM      7  C   UNL     1       7.557  -6.574  -7.313  1.00  0.00     0.098 A 
ATOM      8  C   UNL     1       8.303  -5.800  -6.411  1.00  0.00     0.161 A 
ATOM      9  C   UNL     1       9.657  -5.540  -6.662  1.00  0.00     0.158 A 
ATOM     10  C   UNL     1      10.269  -6.055  -7.814  1.00  0.00     0.062 A 
ATOM     11  C   UNL     1       9.526  -6.828  -8.717  1.00  0.00     0.022 A 
ENDROOT
BRANCH   9  12
ATOM     12  O   UNL     1      10.391  -4.770  -5.760  1.00  0.00    -0.504 OA
ATOM     13  H   UNL     1      10.030  -4.543  -4.841  1.00  0.00     0.293 HD
ENDBRANCH   9  12
BRANCH   8  14
ATOM     14  O   UNL     1       7.703  -5.285  -5.263  1.00  0.00    -0.504 OA
ATOM     15  H   UNL     1       7.642  -5.826  -4.408  1.00  0.00     0.293 HD
ENDBRANCH   8  14
TORSDOF 2
ENDMDL
MODEL 2
REMARK VINA RESULT:    -5.233      1.280      2.306
REMARK INTER + INTRA:          -5.539
REMARK INTER:                  -5.539
REMARK INTRA:                   0.000
REMARK UNBOUND:                 0.000
REMARK SMILES O=c1ccc2cc(O)c(O)cc2o1
REMARK SMILES IDX 4 1 3 2 2 3 1 4 13 5 12 6 11 7 9 8 7 9 6 10 5 11 8 12 10 14
REMARK H PARENT 8 13 10 15
REMARK Flexibility Score: inf
ROOT
ATOM      1  C   UNL     1       7.634  -7.893  -9.582  1.00  0.00     0.019 A 
ATOM      2  C   UNL     1       8.322  -8.273 -10.736  1.00  0.00     0.094 A 
ATOM      3  C   UNL     1       9.652  -7.869 -10.895  1.00  0.00     0.336 A 
ATOM      4  O   UNL     1      10.289  -8.201 -11.928  1.00  0.00    -0.246 OA
ATOM      5  O   UNL     1      10.250  -7.134  -9.961  1.00  0.00    -0.423 OA
ATOM      6  C   UNL     1       9.631  -6.750  -8.848  1.00  0.00     0.142 A 
ATOM      7  C   UNL     1      10.311  -5.978  -7.900  1.00  0.00     0.098 A 
ATOM      8  C   UNL     1       9.662  -5.571  -6.725  1.00  0.00     0.161 A 
ATOM      9  C   UNL     1       8.329  -5.939  -6.495  1.00  0.00     0.158 A 
ATOM     10  C   UNL     1       7.642  -6.713  -7.442  1.00  0.00     0.062 A 
ATOM     11  C   UNL     1       8.288  -7.120  -8.617  1.00  0.00     0.022 A 
ENDROOT
BRANCH   9  12
ATOM     12  O   UNL     1       7.692  -5.529  -5.325  1.00  0.00    -0.504 OA
ATOM     13  H   UNL     1       6.786  -5.074  -5.345  1.00  0.00     0.293 HD
ENDBRANCH   9  12
BRANCH   8  14
ATOM     14  O   UNL     1      10.337  -4.801  -5.779  1.00  0.00    -0.504 OA
ATOM     15  H   UNL     1      11.349  -4.801  -5.719  1.00  0.00     0.293 HD
ENDBRANCH   8  14
TORSDOF 2
ENDMDL
MODEL 3
REMARK VINA RESULT:    -5.186     17.033     18.208
REMARK INTER + INTRA:          -5.489
REMARK INTER:                  -5.489
REMARK INTRA:                   0.000
REMARK UNBOUND:                 0.000
REMARK SMILES O=c1ccc2cc(O)c(O)cc2o1
REMARK SMILES IDX 4 1 3 2 2 3 1 4 13 5 12 6 11 7 9 8 7 9 6 10 5 11 8 12 10 14
REMARK H PARENT 8 13 10 15
REMARK Flexibility Score: inf
ROOT
ATOM      1  C   UNL     1      20.451  -1.117 -21.990  1.00  0.00     0.019 A 
ATOM      2  C   UNL     1      21.152  -0.277 -22.856  1.00  0.00     0.094 A 
ATOM      3  C   UNL     1      21.683   0.918 -22.359  1.00  0.00     0.336 A 
ATOM      4  O   UNL     1      22.318   1.689 -23.125  1.00  0.00    -0.246 OA
ATOM      5  O   UNL     1      21.521   1.247 -21.080  1.00  0.00    -0.423 OA
ATOM      6  C   UNL     1      20.859   0.476 -20.221  1.00  0.00     0.142 A 
ATOM      7  C   UNL     1      20.721   0.874 -18.888  1.00  0.00     0.098 A 
ATOM      8  C   UNL     1      20.024   0.064 -17.978  1.00  0.00     0.161 A 
ATOM      9  C   UNL     1      19.465  -1.150 -18.405  1.00  0.00     0.158 A 
ATOM     10  C   UNL     1      19.600  -1.553 -19.741  1.00  0.00     0.062 A 
ATOM     11  C   UNL     1      20.296  -0.745 -20.651  1.00  0.00     0.022 A 
ENDROOT
BRANCH   9  12
ATOM     12  O   UNL     1      18.774  -1.948 -17.495  1.00  0.00    -0.504 OA
ATOM     13  H   UNL     1      18.405  -1.569 -16.630  1.00  0.00     0.293 HD
ENDBRANCH   9  12
BRANCH   8  14
ATOM     14  O   UNL     1      19.884   0.457 -16.649  1.00  0.00    -0.504 OA
ATOM     15  H   UNL     1      19.207   1.159 -16.372  1.00  0.00     0.293 HD
ENDBRANCH   8  14
TORSDOF 2
ENDMDL
MODEL 4
REMARK VINA RESULT:    -5.131     16.424     17.931
REMARK INTER + INTRA:          -5.431
REMARK INTER:                  -5.431
REMARK INTRA:                   0.000
REMARK UNBOUND:                 0.000
REMARK SMILES O=c1ccc2cc(O)c(O)cc2o1
REMARK SMILES IDX 4 1 3 2 2 3 1 4 13 5 12 6 11 7 9 8 7 9 6 10 5 11 8 12 10 14
REMARK H PARENT 8 13 10 15
REMARK Flexibility Score: inf
ROOT
ATOM      1  C   UNL     1      19.248  -2.111 -18.945  1.00  0.00     0.019 A 
ATOM      2  C   UNL     1      18.875  -1.776 -17.643  1.00  0.00     0.094 A 
ATOM      3  C   UNL     1      19.166  -0.494 -17.164  1.00  0.00     0.336 A 
ATOM      4  O   UNL     1      18.838  -0.173 -15.992  1.00  0.00    -0.246 OA
ATOM      5  O   UNL     1      19.788   0.390 -17.940  1.00  0.00    -0.423 OA
ATOM      6  C   UNL     1      20.161   0.112 -19.186  1.00  0.00     0.142 A 
ATOM      7  C   UNL     1      20.811   1.083 -19.954  1.00  0.00     0.098 A 
ATOM      8  C   UNL     1      21.206   0.794 -21.269  1.00  0.00     0.161 A 
ATOM      9  C   UNL     1      20.948  -0.471 -21.818  1.00  0.00     0.158 A 
ATOM     10  C   UNL     1      20.296  -1.448 -21.052  1.00  0.00     0.062 A 
ATOM     11  C   UNL     1      19.900  -1.161 -19.738  1.00  0.00     0.022 A 
ENDROOT
BRANCH   9  12
ATOM     12  O   UNL     1      21.344  -0.750 -23.125  1.00  0.00    -0.504 OA
ATOM     13  H   UNL     1      22.321  -0.758 -23.392  1.00  0.00     0.293 HD
ENDBRANCH   9  12
BRANCH   8  14
ATOM     14  O   UNL     1      21.855   1.758 -22.037  1.00  0.00    -0.504 OA
ATOM     15  H   UNL     1      22.295   2.567 -21.612  1.00  0.00     0.293 HD
ENDBRANCH   8  14
TORSDOF 2
ENDMDL
MODEL 5
REMARK VINA RESULT:    -4.911      1.819      2.226
REMARK INTER + INTRA:          -5.198
REMARK INTER:                  -5.198
REMARK INTRA:                   0.000
REMARK UNBOUND:                 0.000
REMARK SMILES O=c1ccc2cc(O)c(O)cc2o1
REMARK SMILES IDX 4 1 3 2 2 3 1 4 13 5 12 6 11 7 9 8 7 9 6 10 5 11 8 12 10 14
REMARK H PARENT 8 13 10 15
REMARK Flexibility Score: inf
ROOT
ATOM      1  C   UNL     1      11.746  -7.840 -10.519  1.00  0.00     0.019 A 
ATOM      2  C   UNL     1      11.369  -8.338 -11.766  1.00  0.00     0.094 A 
ATOM      3  C   UNL     1      10.079  -8.075 -12.239  1.00  0.00     0.336 A 
ATOM      4  O   UNL     1       9.720  -8.516 -13.362  1.00  0.00    -0.246 OA
ATOM      5  O   UNL     1       9.226  -7.361 -11.509  1.00  0.00    -0.423 OA
ATOM      6  C   UNL     1       9.544  -6.869 -10.315  1.00  0.00     0.142 A 
ATOM      7  C   UNL     1       8.606  -6.125  -9.592  1.00  0.00     0.098 A 
ATOM      8  C   UNL     1       8.937  -5.604  -8.333  1.00  0.00     0.161 A 
ATOM      9  C   UNL     1      10.213  -5.826  -7.795  1.00  0.00     0.158 A 
ATOM     10  C   UNL     1      11.158  -6.571  -8.514  1.00  0.00     0.062 A 
ATOM     11  C   UNL     1      10.829  -7.092  -9.773  1.00  0.00     0.022 A 
ENDROOT
BRANCH   9  12
ATOM     12  O   UNL     1      10.534  -5.304  -6.542  1.00  0.00    -0.504 OA
ATOM     13  H   UNL     1      10.609  -4.305  -6.387  1.00  0.00     0.293 HD
ENDBRANCH   9  12
BRANCH   8  14
ATOM     14  O   UNL     1       8.004  -4.863  -7.610  1.00  0.00    -0.504 OA
ATOM     15  H   UNL     1       7.996  -3.849  -7.635  1.00  0.00     0.293 HD
ENDBRANCH   8  14
TORSDOF 2
ENDMDL
MODEL 6
REMARK VINA RESULT:    -4.894      2.173      3.022
REMARK INTER + INTRA:          -5.181
REMARK INTER:                  -5.181
REMARK INTRA:                   0.000
REMARK UNBOUND:                 0.000
REMARK SMILES O=c1ccc2cc(O)c(O)cc2o1
REMARK SMILES IDX 4 1 3 2 2 3 1 4 13 5 12 6 11 7 9 8 7 9 6 10 5 11 8 12 10 14
REMARK H PARENT 8 13 10 15
REMARK Flexibility Score: inf
ROOT
ATOM      1  C   UNL     1       8.215  -7.053 -11.819  1.00  0.00     0.019 A 
ATOM      2  C   UNL     1       8.969  -7.791 -12.732  1.00  0.00     0.094 A 
ATOM      3  C   UNL     1      10.292  -8.113 -12.415  1.00  0.00     0.336 A 
ATOM      4  O   UNL     1      10.989  -8.778 -13.225  1.00  0.00    -0.246 OA
ATOM      5  O   UNL     1      10.823  -7.720 -11.259  1.00  0.00    -0.423 OA
ATOM      6  C   UNL     1      10.140  -7.015 -10.361  1.00  0.00     0.142 A 
ATOM      7  C   UNL     1      10.750  -6.631  -9.163  1.00  0.00     0.098 A 
ATOM      8  C   UNL     1      10.034  -5.887  -8.213  1.00  0.00     0.161 A 
ATOM      9  C   UNL     1       8.702  -5.528  -8.462  1.00  0.00     0.158 A 
ATOM     10  C   UNL     1       8.084  -5.911  -9.662  1.00  0.00     0.062 A 
ATOM     11  C   UNL     1       8.799  -6.654 -10.612  1.00  0.00     0.022 A 
ENDROOT
BRANCH   9  12
ATOM     12  O   UNL     1       7.997  -4.789  -7.513  1.00  0.00    -0.504 OA
ATOM     13  H   UNL     1       7.632  -5.218  -6.671  1.00  0.00     0.293 HD
ENDBRANCH   9  12
BRANCH   8  14
ATOM     14  O   UNL     1      10.640  -5.502  -7.019  1.00  0.00    -0.504 OA
ATOM     15  H   UNL     1      11.417  -6.021  -6.626  1.00  0.00     0.293 HD
ENDBRANCH   8  14
TORSDOF 2
ENDMDL
MODEL 7
REMARK VINA RESULT:    -4.882      3.249      4.532
REMARK INTER + INTRA:          -5.167
REMARK INTER:                  -5.167
REMARK INTRA:                   0.000
REMARK UNBOUND:                 0.000
REMARK SMILES O=c1ccc2cc(O)c(O)cc2o1
REMARK SMILES IDX 4 1 3 2 2 3 1 4 13 5 12 6 11 7 9 8 7 9 6 10 5 11 8 12 10 14
REMARK H PARENT 8 13 10 15
REMARK Flexibility Score: inf
ROOT
ATOM      1  C   UNL     1       7.900  -5.782  -7.240  1.00  0.00     0.019 A 
ATOM      2  C   UNL     1       8.972  -6.651  -7.034  1.00  0.00     0.094 A 
ATOM      3  C   UNL     1       9.852  -6.903  -8.092  1.00  0.00     0.336 A 
ATOM      4  O   UNL     1      10.825  -7.685  -7.926  1.00  0.00    -0.246 OA
ATOM      5  O   UNL     1       9.668  -6.323  -9.275  1.00  0.00    -0.423 OA
ATOM      6  C   UNL     1       8.660  -5.489  -9.514  1.00  0.00     0.142 A 
ATOM      7  C   UNL     1       8.517  -4.909 -10.778  1.00  0.00     0.098 A 
ATOM      8  C   UNL     1       7.456  -4.028 -11.035  1.00  0.00     0.161 A 
ATOM      9  C   UNL     1       6.534  -3.727 -10.023  1.00  0.00     0.158 A 
ATOM     10  C   UNL     1       6.671  -4.306  -8.753  1.00  0.00     0.062 A 
ATOM     11  C   UNL     1       7.732  -5.186  -8.495  1.00  0.00     0.022 A 
ENDROOT
BRANCH   9  12
ATOM     12  O   UNL     1       5.481  -2.851 -10.286  1.00  0.00    -0.504 OA
ATOM     13  H   UNL     1       5.631  -1.972 -10.768  1.00  0.00     0.293 HD
ENDBRANCH   9  12
BRANCH   8  14
ATOM     14  O   UNL     1       7.311  -3.448 -12.294  1.00  0.00    -0.504 OA
ATOM     15  H   UNL     1       6.689  -2.662 -12.448  1.00  0.00     0.293 HD
ENDBRANCH   8  14
TORSDOF 2
ENDMDL
MODEL 8
REMARK VINA RESULT:    -4.818      2.481      3.196
REMARK INTER + INTRA:          -5.099
REMARK INTER:                  -5.099
REMARK INTRA:                   0.000
REMARK UNBOUND:                 0.000
REMARK SMILES O=c1ccc2cc(O)c(O)cc2o1
REMARK SMILES IDX 4 1 3 2 2 3 1 4 13 5 12 6 11 7 9 8 7 9 6 10 5 11 8 12 10 14
REMARK H PARENT 8 13 10 15
REMARK Flexibility Score: inf
ROOT
ATOM      1  C   UNL     1      10.420  -8.570  -8.796  1.00  0.00     0.019 A 
ATOM      2  C   UNL     1      11.416  -7.940  -9.543  1.00  0.00     0.094 A 
ATOM      3  C   UNL     1      11.667  -6.580  -9.328  1.00  0.00     0.336 A 
ATOM      4  O   UNL     1      12.561  -5.994  -9.992  1.00  0.00    -0.246 OA
ATOM      5  O   UNL     1      10.965  -5.900  -8.425  1.00  0.00    -0.423 OA
ATOM      6  C   UNL     1      10.007  -6.461  -7.692  1.00  0.00     0.142 A 
ATOM      7  C   UNL     1       9.302  -5.696  -6.758  1.00  0.00     0.098 A 
ATOM      8  C   UNL     1       8.291  -6.284  -5.983  1.00  0.00     0.161 A 
ATOM      9  C   UNL     1       7.985  -7.643  -6.142  1.00  0.00     0.158 A 
ATOM     10  C   UNL     1       8.688  -8.415  -7.078  1.00  0.00     0.062 A 
ATOM     11  C   UNL     1       9.699  -7.830  -7.853  1.00  0.00     0.022 A 
ENDROOT
BRANCH   9  12
ATOM     12  O   UNL     1       6.978  -8.219  -5.368  1.00  0.00    -0.504 OA
ATOM     13  H   UNL     1       6.347  -8.914  -5.751  1.00  0.00     0.293 HD
ENDBRANCH   9  12
BRANCH   8  14
ATOM     14  O   UNL     1       7.587  -5.524  -5.051  1.00  0.00    -0.504 OA
ATOM     15  H   UNL     1       6.849  -5.928  -4.485  1.00  0.00     0.293 HD
ENDBRANCH   8  14
TORSDOF 2
ENDMDL
MODEL 9
REMARK VINA RESULT:    -4.794      1.749      2.176
REMARK INTER + INTRA:          -5.074
REMARK INTER:                  -5.074
REMARK INTRA:                   0.000
REMARK UNBOUND:                 0.000
REMARK SMILES O=c1ccc2cc(O)c(O)cc2o1
REMARK SMILES IDX 4 1 3 2 2 3 1 4 13 5 12 6 11 7 9 8 7 9 6 10 5 11 8 12 10 14
REMARK H PARENT 8 13 10 15
REMARK Flexibility Score: inf
ROOT
ATOM      1  C   UNL     1       8.216  -5.032 -10.161  1.00  0.00     0.019 A 
ATOM      2  C   UNL     1       8.282  -5.658 -11.406  1.00  0.00     0.094 A 
ATOM      3  C   UNL     1       8.173  -7.051 -11.471  1.00  0.00     0.336 A 
ATOM      4  O   UNL     1       8.230  -7.635 -12.585  1.00  0.00    -0.246 OA
ATOM      5  O   UNL     1       8.010  -7.767 -10.360  1.00  0.00    -0.423 OA
ATOM      6  C   UNL     1       7.943  -7.211  -9.154  1.00  0.00     0.142 A 
ATOM      7  C   UNL     1       7.770  -8.014  -8.023  1.00  0.00     0.098 A 
ATOM      8  C   UNL     1       7.698  -7.432  -6.748  1.00  0.00     0.161 A 
ATOM      9  C   UNL     1       7.798  -6.041  -6.605  1.00  0.00     0.158 A 
ATOM     10  C   UNL     1       7.972  -5.230  -7.737  1.00  0.00     0.062 A 
ATOM     11  C   UNL     1       8.043  -5.810  -9.011  1.00  0.00     0.022 A 
ENDROOT
BRANCH   9  12
ATOM     12  O   UNL     1       7.727  -5.471  -5.335  1.00  0.00    -0.504 OA
ATOM     13  H   UNL     1       7.988  -4.505  -5.172  1.00  0.00     0.293 HD
ENDBRANCH   9  12
BRANCH   8  14
ATOM     14  O   UNL     1       7.527  -8.230  -5.618  1.00  0.00    -0.504 OA
ATOM     15  H   UNL     1       7.444  -7.827  -4.692  1.00  0.00     0.293 HD
ENDBRANCH   8  14
TORSDOF 2
ENDMDL
