MODEL 1
REMARK VINA RESULT:    -5.640      0.000      0.000
REMARK INTER + INTRA:         -17.135
REMARK INTER:                 -14.212
REMARK INTRA:                  -2.923
REMARK UNBOUND:                -2.923
REMARK SMILES CCCCCCCCCCCCCCCCCCCCCCCCCCCC(=O)[O-]
REMARK SMILES IDX 15 1 16 2 17 3 18 4 19 5 20 6 21 7 22 8 23 9 24 10 25 11
REMARK SMILES IDX 26 12 27 13 28 14 29 15 30 16 14 17 13 18 12 19 11 20 10 21
REMARK SMILES IDX 9 22 8 23 7 24 6 25 5 26 4 27 3 28 2 29 1 30
REMARK H PARENT
REMARK Flexibility Score: inf
ROOT
ATOM      1  C   UNL     1       4.339 -29.695   2.468  1.00  0.00     0.000 C 
ENDROOT
BRANCH   1   2
ATOM      2  C   UNL     1       3.211 -29.116   3.338  1.00  0.00     0.000 C 
BRANCH   2   3
ATOM      3  C   UNL     1       3.282 -29.594   4.799  1.00  0.00     0.000 C 
BRANCH   3   4
ATOM      4  C   UNL     1       2.586 -30.939   5.073  1.00  0.00     0.000 C 
BRANCH   4   5
ATOM      5  C   UNL     1       3.275 -31.752   6.177  1.00  0.00     0.000 C 
BRANCH   5   6
ATOM      6  C   UNL     1       3.850 -33.062   5.617  1.00  0.00     0.000 C 
BRANCH   6   7
ATOM      7  C   UNL     1       5.146 -32.855   4.814  1.00  0.00     0.000 C 
BRANCH   7   8
ATOM      8  C   UNL     1       6.447 -33.131   5.595  1.00  0.00     0.000 C 
BRANCH   8   9
ATOM      9  C   UNL     1       7.054 -31.906   6.309  1.00  0.00     0.000 C 
BRANCH   9  10
ATOM     10  C   UNL     1       6.885 -30.572   5.563  1.00  0.00     0.000 C 
BRANCH  10  11
ATOM     11  C   UNL     1       7.703 -29.431   6.189  1.00  0.00     0.000 C 
BRANCH  11  12
ATOM     12  C   UNL     1       8.796 -28.945   5.230  1.00  0.00     0.006 C 
BRANCH  12  13
ATOM     13  C   UNL     1       8.743 -29.711   3.905  1.00  0.00     0.053 C 
BRANCH  13  14
ATOM     14  C   UNL     1       8.696 -28.771   2.739  1.00  0.00     0.041 C 
ATOM     15  O   UNL     1       9.463 -27.770   2.701  1.00  0.00    -0.550 OA
ATOM     16  O   UNL     1       7.773 -28.966   1.720  1.00  0.00    -0.550 OA
ENDBRANCH  13  14
ENDBRANCH  12  13
ENDBRANCH  11  12
ENDBRANCH  10  11
ENDBRANCH   9  10
ENDBRANCH   8   9
ENDBRANCH   7   8
ENDBRANCH   6   7
ENDBRANCH   5   6
ENDBRANCH   4   5
ENDBRANCH   3   4
ENDBRANCH   2   3
ENDBRANCH   1   2
BRANCH   1  17
ATOM     17  C   UNL     1       4.250 -29.242   1.003  1.00  0.00     0.000 C 
BRANCH  17  18
ATOM     18  C   UNL     1       2.888 -28.613   0.660  1.00  0.00     0.000 C 
BRANCH  18  19
ATOM     19  C   UNL     1       2.876 -27.940  -0.722  1.00  0.00     0.000 C 
BRANCH  19  20
ATOM     20  C   UNL     1       1.662 -27.029  -0.990  1.00  0.00     0.000 C 
BRANCH  20  21
ATOM     21  C   UNL     1       0.811 -26.727   0.265  1.00  0.00     0.000 C 
BRANCH  21  22
ATOM     22  C   UNL     1      -0.674 -26.416  -0.016  1.00  0.00    -0.000 C 
BRANCH  22  23
ATOM     23  C   UNL     1      -0.965 -25.695  -1.347  1.00  0.00    -0.000 C 
BRANCH  23  24
ATOM     24  C   UNL     1      -1.704 -24.348  -1.223  1.00  0.00    -0.000 C 
BRANCH  24  25
ATOM     25  C   UNL     1      -1.783 -23.806   0.220  1.00  0.00    -0.000 C 
BRANCH  25  26
ATOM     26  C   UNL     1      -3.225 -23.531   0.671  1.00  0.00    -0.000 C 
BRANCH  26  27
ATOM     27  C   UNL     1      -3.946 -24.837   1.038  1.00  0.00    -0.000 C 
BRANCH  27  28
ATOM     28  C   UNL     1      -5.109 -25.167   0.087  1.00  0.00    -0.000 C 
BRANCH  28  29
ATOM     29  C   UNL     1      -5.126 -26.634  -0.387  1.00  0.00    -0.003 C 
ATOM     30  C   UNL     1      -4.088 -27.493   0.338  1.00  0.00     0.004 C 
ENDBRANCH  28  29
ENDBRANCH  27  28
ENDBRANCH  26  27
ENDBRANCH  25  26
ENDBRANCH  24  25
ENDBRANCH  23  24
ENDBRANCH  22  23
ENDBRANCH  21  22
ENDBRANCH  20  21
ENDBRANCH  19  20
ENDBRANCH  18  19
ENDBRANCH  17  18
ENDBRANCH   1  17
TORSDOF 26
ENDMDL
MODEL 2
REMARK VINA RESULT:    -5.595      4.113     11.688
REMARK INTER + INTRA:         -17.023
REMARK INTER:                 -13.843
REMARK INTRA:                  -3.181
REMARK UNBOUND:                -2.923
REMARK SMILES CCCCCCCCCCCCCCCCCCCCCCCCCCCC(=O)[O-]
REMARK SMILES IDX 15 1 16 2 17 3 18 4 19 5 20 6 21 7 22 8 23 9 24 10 25 11
REMARK SMILES IDX 26 12 27 13 28 14 29 15 30 16 14 17 13 18 12 19 11 20 10 21
REMARK SMILES IDX 9 22 8 23 7 24 6 25 5 26 4 27 3 28 2 29 1 30
REMARK H PARENT
REMARK Flexibility Score: inf
ROOT
ATOM      1  C   UNL     1       3.456 -29.191   1.805  1.00  0.00     0.000 C 
ENDROOT
BRANCH   1   2
ATOM      2  C   UNL     1       2.396 -28.257   1.199  1.00  0.00     0.000 C 
BRANCH   2   3
ATOM      3  C   UNL     1       2.495 -28.160  -0.334  1.00  0.00     0.000 C 
BRANCH   3   4
ATOM      4  C   UNL     1       1.568 -27.111  -0.974  1.00  0.00     0.000 C 
BRANCH   4   5
ATOM      5  C   UNL     1       0.789 -26.292   0.064  1.00  0.00     0.000 C 
BRANCH   5   6
ATOM      6  C   UNL     1      -0.715 -26.293  -0.253  1.00  0.00     0.000 C 
BRANCH   6   7
ATOM      7  C   UNL     1      -1.055 -25.557  -1.559  1.00  0.00     0.000 C 
BRANCH   7   8
ATOM      8  C   UNL     1      -1.973 -24.328  -1.394  1.00  0.00     0.000 C 
BRANCH   8   9
ATOM      9  C   UNL     1      -1.943 -23.671   0.001  1.00  0.00     0.000 C 
BRANCH   9  10
ATOM     10  C   UNL     1      -3.306 -23.598   0.711  1.00  0.00     0.000 C 
BRANCH  10  11
ATOM     11  C   UNL     1      -3.874 -24.984   1.054  1.00  0.00     0.000 C 
BRANCH  11  12
ATOM     12  C   UNL     1      -5.153 -25.270   0.259  1.00  0.00     0.006 C 
BRANCH  12  13
ATOM     13  C   UNL     1      -5.081 -26.643  -0.417  1.00  0.00     0.053 C 
BRANCH  13  14
ATOM     14  C   UNL     1      -6.232 -26.843  -1.356  1.00  0.00     0.041 C 
ATOM     15  O   UNL     1      -7.228 -26.071  -1.311  1.00  0.00    -0.550 OA
ATOM     16  O   UNL     1      -6.232 -27.910  -2.245  1.00  0.00    -0.550 OA
ENDBRANCH  13  14
ENDBRANCH  12  13
ENDBRANCH  11  12
ENDBRANCH  10  11
ENDBRANCH   9  10
ENDBRANCH   8   9
ENDBRANCH   7   8
ENDBRANCH   6   7
ENDBRANCH   5   6
ENDBRANCH   4   5
ENDBRANCH   3   4
ENDBRANCH   2   3
ENDBRANCH   1   2
BRANCH   1  17
ATOM     17  C   UNL     1       3.439 -29.190   3.341  1.00  0.00     0.000 C 
BRANCH  17  18
ATOM     18  C   UNL     1       3.173 -30.586   3.931  1.00  0.00     0.000 C 
BRANCH  18  19
ATOM     19  C   UNL     1       2.670 -30.531   5.383  1.00  0.00     0.000 C 
BRANCH  19  20
ATOM     20  C   UNL     1       3.411 -31.462   6.362  1.00  0.00     0.000 C 
BRANCH  20  21
ATOM     21  C   UNL     1       3.561 -32.915   5.858  1.00  0.00     0.000 C 
BRANCH  21  22
ATOM     22  C   UNL     1       5.012 -33.359   5.576  1.00  0.00    -0.000 C 
BRANCH  22  23
ATOM     23  C   UNL     1       5.397 -33.474   4.088  1.00  0.00    -0.000 C 
BRANCH  23  24
ATOM     24  C   UNL     1       6.697 -32.751   3.683  1.00  0.00    -0.000 C 
BRANCH  24  25
ATOM     25  C   UNL     1       6.496 -31.640   2.631  1.00  0.00    -0.000 C 
BRANCH  25  26
ATOM     26  C   UNL     1       6.968 -30.264   3.126  1.00  0.00    -0.000 C 
BRANCH  26  27
ATOM     27  C   UNL     1       6.928 -30.187   4.660  1.00  0.00    -0.000 C 
BRANCH  27  28
ATOM     28  C   UNL     1       8.214 -29.600   5.264  1.00  0.00    -0.000 C 
BRANCH  28  29
ATOM     29  C   UNL     1       8.774 -30.416   6.446  1.00  0.00    -0.003 C 
ATOM     30  C   UNL     1       7.717 -31.322   7.081  1.00  0.00     0.004 C 
ENDBRANCH  28  29
ENDBRANCH  27  28
ENDBRANCH  26  27
ENDBRANCH  25  26
ENDBRANCH  24  25
ENDBRANCH  23  24
ENDBRANCH  22  23
ENDBRANCH  21  22
ENDBRANCH  20  21
ENDBRANCH  19  20
ENDBRANCH  18  19
ENDBRANCH  17  18
ENDBRANCH   1  17
TORSDOF 26
ENDMDL
MODEL 3
REMARK VINA RESULT:    -5.454      3.728     11.209
REMARK INTER + INTRA:         -16.667
REMARK INTER:                 -13.708
REMARK INTRA:                  -2.960
REMARK UNBOUND:                -2.923
REMARK SMILES CCCCCCCCCCCCCCCCCCCCCCCCCCCC(=O)[O-]
REMARK SMILES IDX 15 1 16 2 17 3 18 4 19 5 20 6 21 7 22 8 23 9 24 10 25 11
REMARK SMILES IDX 26 12 27 13 28 14 29 15 30 16 14 17 13 18 12 19 11 20 10 21
REMARK SMILES IDX 9 22 8 23 7 24 6 25 5 26 4 27 3 28 2 29 1 30
REMARK H PARENT
REMARK Flexibility Score: inf
ROOT
ATOM      1  C   UNL     1       4.678 -29.655   2.650  1.00  0.00     0.000 C 
ENDROOT
BRANCH   1   2
ATOM      2  C   UNL     1       4.553 -29.458   1.131  1.00  0.00     0.000 C 
BRANCH   2   3
ATOM      3  C   UNL     1       3.183 -28.891   0.715  1.00  0.00     0.000 C 
BRANCH   3   4
ATOM      4  C   UNL     1       3.198 -28.048  -0.573  1.00  0.00     0.000 C 
BRANCH   4   5
ATOM      5  C   UNL     1       1.823 -27.459  -0.915  1.00  0.00     0.000 C 
BRANCH   5   6
ATOM      6  C   UNL     1       0.854 -27.604   0.269  1.00  0.00     0.000 C 
BRANCH   6   7
ATOM      7  C   UNL     1      -0.475 -26.861   0.051  1.00  0.00     0.000 C 
BRANCH   7   8
ATOM      8  C   UNL     1      -0.369 -25.564  -0.775  1.00  0.00     0.000 C 
BRANCH   8   9
ATOM      9  C   UNL     1      -1.716 -24.931  -1.178  1.00  0.00     0.000 C 
BRANCH   9  10
ATOM     10  C   UNL     1      -2.316 -23.968  -0.140  1.00  0.00     0.000 C 
BRANCH  10  11
ATOM     11  C   UNL     1      -3.799 -24.249   0.148  1.00  0.00     0.000 C 
BRANCH  11  12
ATOM     12  C   UNL     1      -3.959 -25.389   1.161  1.00  0.00     0.006 C 
BRANCH  12  13
ATOM     13  C   UNL     1      -4.400 -26.681   0.464  1.00  0.00     0.053 C 
BRANCH  13  14
ATOM     14  C   UNL     1      -5.237 -26.385  -0.742  1.00  0.00     0.041 C 
ATOM     15  O   UNL     1      -4.780 -26.596  -1.899  1.00  0.00    -0.550 OA
ATOM     16  O   UNL     1      -6.501 -25.828  -0.596  1.00  0.00    -0.550 OA
ENDBRANCH  13  14
ENDBRANCH  12  13
ENDBRANCH  11  12
ENDBRANCH  10  11
ENDBRANCH   9  10
ENDBRANCH   8   9
ENDBRANCH   7   8
ENDBRANCH   6   7
ENDBRANCH   5   6
ENDBRANCH   4   5
ENDBRANCH   3   4
ENDBRANCH   2   3
ENDBRANCH   1   2
BRANCH   1  17
ATOM     17  C   UNL     1       3.331 -29.521   3.378  1.00  0.00     0.000 C 
BRANCH  17  18
ATOM     18  C   UNL     1       3.497 -29.286   4.890  1.00  0.00     0.000 C 
BRANCH  18  19
ATOM     19  C   UNL     1       2.475 -30.071   5.728  1.00  0.00     0.000 C 
BRANCH  19  20
ATOM     20  C   UNL     1       2.372 -31.571   5.388  1.00  0.00     0.000 C 
BRANCH  20  21
ATOM     21  C   UNL     1       3.452 -32.446   6.063  1.00  0.00     0.000 C 
BRANCH  21  22
ATOM     22  C   UNL     1       4.498 -33.047   5.101  1.00  0.00    -0.000 C 
BRANCH  22  23
ATOM     23  C   UNL     1       5.971 -32.876   5.524  1.00  0.00    -0.000 C 
BRANCH  23  24
ATOM     24  C   UNL     1       6.749 -31.772   4.780  1.00  0.00    -0.000 C 
BRANCH  24  25
ATOM     25  C   UNL     1       6.905 -30.463   5.584  1.00  0.00    -0.000 C 
BRANCH  25  26
ATOM     26  C   UNL     1       8.375 -30.084   5.817  1.00  0.00    -0.000 C 
BRANCH  26  27
ATOM     27  C   UNL     1       8.755 -28.831   5.013  1.00  0.00    -0.000 C 
BRANCH  27  28
ATOM     28  C   UNL     1       9.343 -29.162   3.631  1.00  0.00    -0.000 C 
BRANCH  28  29
ATOM     29  C   UNL     1       8.360 -28.929   2.466  1.00  0.00    -0.003 C 
ATOM     30  C   UNL     1       8.249 -30.146   1.545  1.00  0.00     0.004 C 
ENDBRANCH  28  29
ENDBRANCH  27  28
ENDBRANCH  26  27
ENDBRANCH  25  26
ENDBRANCH  24  25
ENDBRANCH  23  24
ENDBRANCH  22  23
ENDBRANCH  21  22
ENDBRANCH  20  21
ENDBRANCH  19  20
ENDBRANCH  18  19
ENDBRANCH  17  18
ENDBRANCH   1  17
TORSDOF 26
ENDMDL
MODEL 4
REMARK VINA RESULT:    -5.431      2.162      4.090
REMARK INTER + INTRA:         -16.608
REMARK INTER:                 -13.674
REMARK INTRA:                  -2.934
REMARK UNBOUND:                -2.923
REMARK SMILES CCCCCCCCCCCCCCCCCCCCCCCCCCCC(=O)[O-]
REMARK SMILES IDX 15 1 16 2 17 3 18 4 19 5 20 6 21 7 22 8 23 9 24 10 25 11
REMARK SMILES IDX 26 12 27 13 28 14 29 15 30 16 14 17 13 18 12 19 11 20 10 21
REMARK SMILES IDX 9 22 8 23 7 24 6 25 5 26 4 27 3 28 2 29 1 30
REMARK H PARENT
REMARK Flexibility Score: inf
ROOT
ATOM      1  C   UNL     1       3.110 -28.512   1.645  1.00  0.00     0.000 C 
ENDROOT
BRANCH   1   2
ATOM      2  C   UNL     1       3.860 -28.932   0.371  1.00  0.00     0.000 C 
BRANCH   2   3
ATOM      3  C   UNL     1       5.338 -29.270   0.634  1.00  0.00     0.000 C 
BRANCH   3   4
ATOM      4  C   UNL     1       5.641 -29.770   2.058  1.00  0.00     0.000 C 
BRANCH   4   5
ATOM      5  C   UNL     1       7.052 -30.360   2.194  1.00  0.00     0.000 C 
BRANCH   5   6
ATOM      6  C   UNL     1       8.032 -29.317   2.753  1.00  0.00     0.000 C 
BRANCH   6   7
ATOM      7  C   UNL     1       8.833 -29.832   3.960  1.00  0.00     0.000 C 
BRANCH   7   8
ATOM      8  C   UNL     1       8.348 -29.316   5.331  1.00  0.00     0.000 C 
BRANCH   8   9
ATOM      9  C   UNL     1       7.621 -30.360   6.203  1.00  0.00     0.000 C 
BRANCH   9  10
ATOM     10  C   UNL     1       7.485 -31.754   5.566  1.00  0.00     0.000 C 
BRANCH  10  11
ATOM     11  C   UNL     1       6.022 -32.191   5.396  1.00  0.00     0.000 C 
BRANCH  11  12
ATOM     12  C   UNL     1       5.066 -31.007   5.584  1.00  0.00     0.006 C 
BRANCH  12  13
ATOM     13  C   UNL     1       3.747 -31.464   6.217  1.00  0.00     0.053 C 
BRANCH  13  14
ATOM     14  C   UNL     1       2.612 -30.583   5.793  1.00  0.00     0.041 C 
ATOM     15  O   UNL     1       2.413 -30.350   4.569  1.00  0.00    -0.550 OA
ATOM     16  O   UNL     1       1.803 -29.977   6.745  1.00  0.00    -0.550 OA
ENDBRANCH  13  14
ENDBRANCH  12  13
ENDBRANCH  11  12
ENDBRANCH  10  11
ENDBRANCH   9  10
ENDBRANCH   8   9
ENDBRANCH   7   8
ENDBRANCH   6   7
ENDBRANCH   5   6
ENDBRANCH   4   5
ENDBRANCH   3   4
ENDBRANCH   2   3
ENDBRANCH   1   2
BRANCH   1  17
ATOM     17  C   UNL     1       1.623 -28.224   1.391  1.00  0.00     0.000 C 
BRANCH  17  18
ATOM     18  C   UNL     1       1.296 -28.077  -0.106  1.00  0.00     0.000 C 
BRANCH  18  19
ATOM     19  C   UNL     1       1.201 -26.609  -0.551  1.00  0.00     0.000 C 
BRANCH  19  20
ATOM     20  C   UNL     1      -0.173 -25.949  -0.323  1.00  0.00     0.000 C 
BRANCH  20  21
ATOM     21  C   UNL     1      -0.865 -25.470  -1.620  1.00  0.00     0.000 C 
BRANCH  21  22
ATOM     22  C   UNL     1      -1.925 -24.365  -1.422  1.00  0.00    -0.000 C 
BRANCH  22  23
ATOM     23  C   UNL     1      -2.094 -23.854   0.023  1.00  0.00    -0.000 C 
BRANCH  23  24
ATOM     24  C   UNL     1      -3.550 -23.658   0.489  1.00  0.00    -0.000 C 
BRANCH  24  25
ATOM     25  C   UNL     1      -4.053 -24.754   1.453  1.00  0.00    -0.000 C 
BRANCH  25  26
ATOM     26  C   UNL     1      -3.538 -26.152   1.080  1.00  0.00    -0.000 C 
BRANCH  26  27
ATOM     27  C   UNL     1      -4.628 -26.970   0.371  1.00  0.00    -0.000 C 
BRANCH  27  28
ATOM     28  C   UNL     1      -4.706 -26.680  -1.138  1.00  0.00    -0.000 C 
BRANCH  28  29
ATOM     29  C   UNL     1      -5.923 -25.825  -1.543  1.00  0.00    -0.003 C 
ATOM     30  C   UNL     1      -5.680 -25.041  -2.835  1.00  0.00     0.004 C 
ENDBRANCH  28  29
ENDBRANCH  27  28
ENDBRANCH  26  27
ENDBRANCH  25  26
ENDBRANCH  24  25
ENDBRANCH  23  24
ENDBRANCH  22  23
ENDBRANCH  21  22
ENDBRANCH  20  21
ENDBRANCH  19  20
ENDBRANCH  18  19
ENDBRANCH  17  18
ENDBRANCH   1  17
TORSDOF 26
ENDMDL
MODEL 5
REMARK VINA RESULT:    -5.421      3.962     11.461
REMARK INTER + INTRA:         -16.584
REMARK INTER:                 -13.641
REMARK INTRA:                  -2.944
REMARK UNBOUND:                -2.923
REMARK SMILES CCCCCCCCCCCCCCCCCCCCCCCCCCCC(=O)[O-]
REMARK SMILES IDX 15 1 16 2 17 3 18 4 19 5 20 6 21 7 22 8 23 9 24 10 25 11
REMARK SMILES IDX 26 12 27 13 28 14 29 15 30 16 14 17 13 18 12 19 11 20 10 21
REMARK SMILES IDX 9 22 8 23 7 24 6 25 5 26 4 27 3 28 2 29 1 30
REMARK H PARENT
REMARK Flexibility Score: inf
ROOT
ATOM      1  C   UNL     1       3.167 -29.871   3.948  1.00  0.00     0.000 C 
ENDROOT
BRANCH   1   2
ATOM      2  C   UNL     1       4.330 -29.564   2.990  1.00  0.00     0.000 C 
BRANCH   2   3
ATOM      3  C   UNL     1       3.855 -29.252   1.560  1.00  0.00     0.000 C 
BRANCH   3   4
ATOM      4  C   UNL     1       2.330 -29.309   1.359  1.00  0.00     0.000 C 
BRANCH   4   5
ATOM      5  C   UNL     1       1.741 -27.974   0.884  1.00  0.00     0.000 C 
BRANCH   5   6
ATOM      6  C   UNL     1       2.089 -27.714  -0.589  1.00  0.00     0.000 C 
BRANCH   6   7
ATOM      7  C   UNL     1       1.187 -26.652  -1.241  1.00  0.00     0.000 C 
BRANCH   7   8
ATOM      8  C   UNL     1       0.037 -26.139  -0.350  1.00  0.00     0.000 C 
BRANCH   8   9
ATOM      9  C   UNL     1      -1.078 -25.376  -1.095  1.00  0.00     0.000 C 
BRANCH   9  10
ATOM     10  C   UNL     1      -1.523 -24.064  -0.426  1.00  0.00     0.000 C 
BRANCH  10  11
ATOM     11  C   UNL     1      -2.929 -24.155   0.186  1.00  0.00     0.000 C 
BRANCH  11  12
ATOM     12  C   UNL     1      -3.587 -25.502  -0.136  1.00  0.00     0.006 C 
BRANCH  12  13
ATOM     13  C   UNL     1      -5.101 -25.440   0.091  1.00  0.00     0.053 C 
BRANCH  13  14
ATOM     14  C   UNL     1      -5.844 -26.040  -1.064  1.00  0.00     0.041 C 
ATOM     15  O   UNL     1      -7.105 -26.008  -1.092  1.00  0.00    -0.550 OA
ATOM     16  O   UNL     1      -5.152 -26.679  -2.084  1.00  0.00    -0.550 OA
ENDBRANCH  13  14
ENDBRANCH  12  13
ENDBRANCH  11  12
ENDBRANCH  10  11
ENDBRANCH   9  10
ENDBRANCH   8   9
ENDBRANCH   7   8
ENDBRANCH   6   7
ENDBRANCH   5   6
ENDBRANCH   4   5
ENDBRANCH   3   4
ENDBRANCH   2   3
ENDBRANCH   1   2
BRANCH   1  17
ATOM     17  C   UNL     1       3.534 -29.634   5.421  1.00  0.00     0.000 C 
BRANCH  17  18
ATOM     18  C   UNL     1       2.768 -30.564   6.379  1.00  0.00     0.000 C 
BRANCH  18  19
ATOM     19  C   UNL     1       2.278 -31.849   5.693  1.00  0.00     0.000 C 
BRANCH  19  20
ATOM     20  C   UNL     1       3.119 -33.106   5.991  1.00  0.00     0.000 C 
BRANCH  20  21
ATOM     21  C   UNL     1       4.599 -32.990   5.561  1.00  0.00     0.000 C 
BRANCH  21  22
ATOM     22  C   UNL     1       4.848 -33.126   4.044  1.00  0.00    -0.000 C 
BRANCH  22  23
ATOM     23  C   UNL     1       6.326 -33.237   3.618  1.00  0.00    -0.000 C 
BRANCH  23  24
ATOM     24  C   UNL     1       6.977 -31.925   3.139  1.00  0.00    -0.000 C 
BRANCH  24  25
ATOM     25  C   UNL     1       8.065 -31.380   4.088  1.00  0.00    -0.000 C 
BRANCH  25  26
ATOM     26  C   UNL     1       7.674 -30.040   4.730  1.00  0.00    -0.000 C 
BRANCH  26  27
ATOM     27  C   UNL     1       7.160 -30.245   6.163  1.00  0.00    -0.000 C 
BRANCH  27  28
ATOM     28  C   UNL     1       7.611 -31.582   6.775  1.00  0.00    -0.000 C 
BRANCH  28  29
ATOM     29  C   UNL     1       8.788 -31.448   7.761  1.00  0.00    -0.003 C 
ATOM     30  C   UNL     1       8.590 -30.298   8.751  1.00  0.00     0.004 C 
ENDBRANCH  28  29
ENDBRANCH  27  28
ENDBRANCH  26  27
ENDBRANCH  25  26
ENDBRANCH  24  25
ENDBRANCH  23  24
ENDBRANCH  22  23
ENDBRANCH  21  22
ENDBRANCH  20  21
ENDBRANCH  19  20
ENDBRANCH  18  19
ENDBRANCH  17  18
ENDBRANCH   1  17
TORSDOF 26
ENDMDL
MODEL 6
REMARK VINA RESULT:    -5.418      2.980      5.346
REMARK INTER + INTRA:         -16.576
REMARK INTER:                 -13.786
REMARK INTRA:                  -2.790
REMARK UNBOUND:                -2.923
REMARK SMILES CCCCCCCCCCCCCCCCCCCCCCCCCCCC(=O)[O-]
REMARK SMILES IDX 15 1 16 2 17 3 18 4 19 5 20 6 21 7 22 8 23 9 24 10 25 11
REMARK SMILES IDX 26 12 27 13 28 14 29 15 30 16 14 17 13 18 12 19 11 20 10 21
REMARK SMILES IDX 9 22 8 23 7 24 6 25 5 26 4 27 3 28 2 29 1 30
REMARK H PARENT
REMARK Flexibility Score: inf
ROOT
ATOM      1  C   UNL     1       4.183 -29.618   2.481  1.00  0.00     0.000 C 
ENDROOT
BRANCH   1   2
ATOM      2  C   UNL     1       5.432 -29.635   1.586  1.00  0.00     0.000 C 
BRANCH   2   3
ATOM      3  C   UNL     1       6.731 -29.862   2.381  1.00  0.00     0.000 C 
BRANCH   3   4
ATOM      4  C   UNL     1       8.025 -29.650   1.576  1.00  0.00     0.000 C 
BRANCH   4   5
ATOM      5  C   UNL     1       9.066 -28.813   2.333  1.00  0.00     0.000 C 
BRANCH   5   6
ATOM      6  C   UNL     1       9.799 -27.856   1.380  1.00  0.00     0.000 C 
BRANCH   6   7
ATOM      7  C   UNL     1      11.303 -28.153   1.270  1.00  0.00     0.000 C 
BRANCH   7   8
ATOM      8  C   UNL     1      11.743 -28.804  -0.058  1.00  0.00     0.000 C 
BRANCH   8   9
ATOM      9  C   UNL     1      10.749 -28.645  -1.226  1.00  0.00     0.000 C 
BRANCH   9  10
ATOM     10  C   UNL     1      10.985 -27.411  -2.113  1.00  0.00     0.000 C 
BRANCH  10  11
ATOM     11  C   UNL     1       9.677 -26.771  -2.605  1.00  0.00     0.000 C 
BRANCH  11  12
ATOM     12  C   UNL     1       8.532 -27.791  -2.612  1.00  0.00     0.006 C 
BRANCH  12  13
ATOM     13  C   UNL     1       7.393 -27.341  -1.690  1.00  0.00     0.053 C 
BRANCH  13  14
ATOM     14  C   UNL     1       6.255 -26.770  -2.478  1.00  0.00     0.041 C 
ATOM     15  O   UNL     1       5.064 -26.989  -2.124  1.00  0.00    -0.550 OA
ATOM     16  O   UNL     1       6.502 -26.038  -3.633  1.00  0.00    -0.550 OA
ENDBRANCH  13  14
ENDBRANCH  12  13
ENDBRANCH  11  12
ENDBRANCH  10  11
ENDBRANCH   9  10
ENDBRANCH   8   9
ENDBRANCH   7   8
ENDBRANCH   6   7
ENDBRANCH   5   6
ENDBRANCH   4   5
ENDBRANCH   3   4
ENDBRANCH   2   3
ENDBRANCH   1   2
BRANCH   1  17
ATOM     17  C   UNL     1       3.043 -28.774   1.891  1.00  0.00     0.000 C 
BRANCH  17  18
ATOM     18  C   UNL     1       3.173 -28.585   0.369  1.00  0.00     0.000 C 
BRANCH  18  19
ATOM     19  C   UNL     1       1.905 -27.991  -0.266  1.00  0.00     0.000 C 
BRANCH  19  20
ATOM     20  C   UNL     1       0.825 -27.543   0.737  1.00  0.00     0.000 C 
BRANCH  20  21
ATOM     21  C   UNL     1      -0.480 -27.042   0.077  1.00  0.00     0.000 C 
BRANCH  21  22
ATOM     22  C   UNL     1      -0.320 -25.789  -0.810  1.00  0.00    -0.000 C 
BRANCH  22  23
ATOM     23  C   UNL     1      -1.592 -25.328  -1.549  1.00  0.00    -0.000 C 
BRANCH  23  24
ATOM     24  C   UNL     1      -2.066 -23.898  -1.222  1.00  0.00    -0.000 C 
BRANCH  24  25
ATOM     25  C   UNL     1      -2.400 -23.673   0.268  1.00  0.00    -0.000 C 
BRANCH  25  26
ATOM     26  C   UNL     1      -3.844 -24.067   0.617  1.00  0.00    -0.000 C 
BRANCH  26  27
ATOM     27  C   UNL     1      -3.882 -25.393   1.391  1.00  0.00    -0.000 C 
BRANCH  27  28
ATOM     28  C   UNL     1      -4.337 -26.579   0.524  1.00  0.00    -0.000 C 
BRANCH  28  29
ATOM     29  C   UNL     1      -5.453 -26.223  -0.479  1.00  0.00    -0.003 C 
ATOM     30  C   UNL     1      -5.074 -26.570  -1.920  1.00  0.00     0.004 C 
ENDBRANCH  28  29
ENDBRANCH  27  28
ENDBRANCH  26  27
ENDBRANCH  25  26
ENDBRANCH  24  25
ENDBRANCH  23  24
ENDBRANCH  22  23
ENDBRANCH  21  22
ENDBRANCH  20  21
ENDBRANCH  19  20
ENDBRANCH  18  19
ENDBRANCH  17  18
ENDBRANCH   1  17
TORSDOF 26
ENDMDL
MODEL 7
REMARK VINA RESULT:    -5.411      2.931      5.689
REMARK INTER + INTRA:         -16.557
REMARK INTER:                 -13.846
REMARK INTRA:                  -2.712
REMARK UNBOUND:                -2.923
REMARK SMILES CCCCCCCCCCCCCCCCCCCCCCCCCCCC(=O)[O-]
REMARK SMILES IDX 15 1 16 2 17 3 18 4 19 5 20 6 21 7 22 8 23 9 24 10 25 11
REMARK SMILES IDX 26 12 27 13 28 14 29 15 30 16 14 17 13 18 12 19 11 20 10 21
REMARK SMILES IDX 9 22 8 23 7 24 6 25 5 26 4 27 3 28 2 29 1 30
REMARK H PARENT
REMARK Flexibility Score: inf
ROOT
ATOM      1  C   UNL     1       8.432 -27.874  -3.014  1.00  0.00     0.000 C 
ENDROOT
BRANCH   1   2
ATOM      2  C   UNL     1       9.896 -28.138  -2.628  1.00  0.00     0.000 C 
BRANCH   2   3
ATOM      3  C   UNL     1      10.278 -27.507  -1.277  1.00  0.00     0.000 C 
BRANCH   3   4
ATOM      4  C   UNL     1      11.252 -28.343  -0.427  1.00  0.00     0.000 C 
BRANCH   4   5
ATOM      5  C   UNL     1      10.653 -28.767   0.921  1.00  0.00     0.000 C 
BRANCH   5   6
ATOM      6  C   UNL     1       9.221 -28.233   1.077  1.00  0.00     0.000 C 
BRANCH   6   7
ATOM      7  C   UNL     1       8.452 -28.904   2.228  1.00  0.00     0.000 C 
BRANCH   7   8
ATOM      8  C   UNL     1       7.390 -29.933   1.788  1.00  0.00     0.000 C 
BRANCH   8   9
ATOM      9  C   UNL     1       6.017 -29.791   2.477  1.00  0.00     0.000 C 
BRANCH   9  10
ATOM     10  C   UNL     1       4.843 -29.499   1.527  1.00  0.00     0.000 C 
BRANCH  10  11
ATOM     11  C   UNL     1       3.485 -29.481   2.246  1.00  0.00     0.000 C 
BRANCH  11  12
ATOM     12  C   UNL     1       3.666 -29.440   3.768  1.00  0.00     0.006 C 
BRANCH  12  13
ATOM     13  C   UNL     1       2.878 -30.569   4.443  1.00  0.00     0.053 C 
BRANCH  13  14
ATOM     14  C   UNL     1       3.766 -31.735   4.751  1.00  0.00     0.041 C 
ATOM     15  O   UNL     1       4.109 -31.974   5.941  1.00  0.00    -0.550 OA
ATOM     16  O   UNL     1       4.257 -32.530   3.724  1.00  0.00    -0.550 OA
ENDBRANCH  13  14
ENDBRANCH  12  13
ENDBRANCH  11  12
ENDBRANCH  10  11
ENDBRANCH   9  10
ENDBRANCH   8   9
ENDBRANCH   7   8
ENDBRANCH   6   7
ENDBRANCH   5   6
ENDBRANCH   4   5
ENDBRANCH   3   4
ENDBRANCH   2   3
ENDBRANCH   1   2
BRANCH   1  17
ATOM     17  C   UNL     1       7.483 -28.982  -2.533  1.00  0.00     0.000 C 
BRANCH  17  18
ATOM     18  C   UNL     1       6.393 -28.456  -1.582  1.00  0.00     0.000 C 
BRANCH  18  19
ATOM     19  C   UNL     1       5.839 -27.088  -2.013  1.00  0.00     0.000 C 
BRANCH  19  20
ATOM     20  C   UNL     1       4.359 -27.093  -2.442  1.00  0.00     0.000 C 
BRANCH  20  21
ATOM     21  C   UNL     1       3.418 -27.818  -1.453  1.00  0.00     0.000 C 
BRANCH  21  22
ATOM     22  C   UNL     1       2.055 -27.130  -1.228  1.00  0.00    -0.000 C 
BRANCH  22  23
ATOM     23  C   UNL     1       1.253 -27.622  -0.006  1.00  0.00    -0.000 C 
BRANCH  23  24
ATOM     24  C   UNL     1      -0.131 -26.971   0.182  1.00  0.00    -0.000 C 
BRANCH  24  25
ATOM     25  C   UNL     1      -0.469 -25.897  -0.873  1.00  0.00    -0.000 C 
BRANCH  25  26
ATOM     26  C   UNL     1      -1.856 -25.271  -0.658  1.00  0.00    -0.000 C 
BRANCH  26  27
ATOM     27  C   UNL     1      -2.806 -26.262   0.032  1.00  0.00    -0.000 C 
BRANCH  27  28
ATOM     28  C   UNL     1      -3.705 -25.593   1.085  1.00  0.00    -0.000 C 
BRANCH  28  29
ATOM     29  C   UNL     1      -4.084 -24.138   0.744  1.00  0.00    -0.003 C 
ATOM     30  C   UNL     1      -4.831 -23.447   1.887  1.00  0.00     0.004 C 
ENDBRANCH  28  29
ENDBRANCH  27  28
ENDBRANCH  26  27
ENDBRANCH  25  26
ENDBRANCH  24  25
ENDBRANCH  23  24
ENDBRANCH  22  23
ENDBRANCH  21  22
ENDBRANCH  20  21
ENDBRANCH  19  20
ENDBRANCH  18  19
ENDBRANCH  17  18
ENDBRANCH   1  17
TORSDOF 26
ENDMDL
MODEL 8
REMARK VINA RESULT:    -5.389      3.920     11.381
REMARK INTER + INTRA:         -16.502
REMARK INTER:                 -13.468
REMARK INTRA:                  -3.034
REMARK UNBOUND:                -2.923
REMARK SMILES CCCCCCCCCCCCCCCCCCCCCCCCCCCC(=O)[O-]
REMARK SMILES IDX 15 1 16 2 17 3 18 4 19 5 20 6 21 7 22 8 23 9 24 10 25 11
REMARK SMILES IDX 26 12 27 13 28 14 29 15 30 16 14 17 13 18 12 19 11 20 10 21
REMARK SMILES IDX 9 22 8 23 7 24 6 25 5 26 4 27 3 28 2 29 1 30
REMARK H PARENT
REMARK Flexibility Score: inf
ROOT
ATOM      1  C   UNL     1       3.924 -29.647   2.967  1.00  0.00     0.000 C 
ENDROOT
BRANCH   1   2
ATOM      2  C   UNL     1       2.972 -28.716   2.199  1.00  0.00     0.000 C 
BRANCH   2   3
ATOM      3  C   UNL     1       3.153 -28.807   0.673  1.00  0.00     0.000 C 
BRANCH   3   4
ATOM      4  C   UNL     1       2.036 -28.141  -0.150  1.00  0.00     0.000 C 
BRANCH   4   5
ATOM      5  C   UNL     1       1.045 -27.354   0.719  1.00  0.00     0.000 C 
BRANCH   5   6
ATOM      6  C   UNL     1      -0.299 -27.176  -0.005  1.00  0.00     0.000 C 
BRANCH   6   7
ATOM      7  C   UNL     1      -0.379 -25.868  -0.810  1.00  0.00     0.000 C 
BRANCH   7   8
ATOM      8  C   UNL     1      -1.089 -24.703  -0.090  1.00  0.00     0.000 C 
BRANCH   8   9
ATOM      9  C   UNL     1      -2.378 -24.201  -0.771  1.00  0.00     0.000 C 
BRANCH   9  10
ATOM     10  C   UNL     1      -3.657 -24.356   0.069  1.00  0.00     0.000 C 
BRANCH  10  11
ATOM     11  C   UNL     1      -3.595 -25.550   1.034  1.00  0.00     0.000 C 
BRANCH  11  12
ATOM     12  C   UNL     1      -4.241 -26.795   0.415  1.00  0.00     0.006 C 
BRANCH  12  13
ATOM     13  C   UNL     1      -5.490 -26.420  -0.390  1.00  0.00     0.053 C 
BRANCH  13  14
ATOM     14  C   UNL     1      -5.409 -26.950  -1.789  1.00  0.00     0.041 C 
ATOM     15  O   UNL     1      -4.699 -26.362  -2.650  1.00  0.00    -0.550 OA
ATOM     16  O   UNL     1      -6.154 -28.062  -2.160  1.00  0.00    -0.550 OA
ENDBRANCH  13  14
ENDBRANCH  12  13
ENDBRANCH  11  12
ENDBRANCH  10  11
ENDBRANCH   9  10
ENDBRANCH   8   9
ENDBRANCH   7   8
ENDBRANCH   6   7
ENDBRANCH   5   6
ENDBRANCH   4   5
ENDBRANCH   3   4
ENDBRANCH   2   3
ENDBRANCH   1   2
BRANCH   1  17
ATOM     17  C   UNL     1       5.352 -29.634   2.399  1.00  0.00     0.000 C 
BRANCH  17  18
ATOM     18  C   UNL     1       6.108 -30.947   2.668  1.00  0.00     0.000 C 
BRANCH  18  19
ATOM     19  C   UNL     1       5.288 -31.944   3.503  1.00  0.00     0.000 C 
BRANCH  19  20
ATOM     20  C   UNL     1       5.930 -32.349   4.845  1.00  0.00     0.000 C 
BRANCH  20  21
ATOM     21  C   UNL     1       6.006 -31.203   5.879  1.00  0.00     0.000 C 
BRANCH  21  22
ATOM     22  C   UNL     1       7.419 -30.917   6.430  1.00  0.00    -0.000 C 
BRANCH  22  23
ATOM     23  C   UNL     1       8.285 -29.963   5.583  1.00  0.00    -0.000 C 
BRANCH  23  24
ATOM     24  C   UNL     1       9.311 -30.646   4.657  1.00  0.00    -0.000 C 
BRANCH  24  25
ATOM     25  C   UNL     1       9.682 -29.814   3.410  1.00  0.00    -0.000 C 
BRANCH  25  26
ATOM     26  C   UNL     1       8.910 -28.489   3.332  1.00  0.00    -0.000 C 
BRANCH  26  27
ATOM     27  C   UNL     1       9.350 -27.666   2.112  1.00  0.00    -0.000 C 
BRANCH  27  28
ATOM     28  C   UNL     1       9.409 -28.497   0.819  1.00  0.00    -0.000 C 
BRANCH  28  29
ATOM     29  C   UNL     1       8.024 -28.792   0.208  1.00  0.00    -0.003 C 
ATOM     30  C   UNL     1       7.715 -27.896  -0.994  1.00  0.00     0.004 C 
ENDBRANCH  28  29
ENDBRANCH  27  28
ENDBRANCH  26  27
ENDBRANCH  25  26
ENDBRANCH  24  25
ENDBRANCH  23  24
ENDBRANCH  22  23
ENDBRANCH  21  22
ENDBRANCH  20  21
ENDBRANCH  19  20
ENDBRANCH  18  19
ENDBRANCH  17  18
ENDBRANCH   1  17
TORSDOF 26
ENDMDL
MODEL 9
REMARK VINA RESULT:    -5.387      1.796      3.098
REMARK INTER + INTRA:         -16.497
REMARK INTER:                 -13.979
REMARK INTRA:                  -2.518
REMARK UNBOUND:                -2.923
REMARK SMILES CCCCCCCCCCCCCCCCCCCCCCCCCCCC(=O)[O-]
REMARK SMILES IDX 15 1 16 2 17 3 18 4 19 5 20 6 21 7 22 8 23 9 24 10 25 11
REMARK SMILES IDX 26 12 27 13 28 14 29 15 30 16 14 17 13 18 12 19 11 20 10 21
REMARK SMILES IDX 9 22 8 23 7 24 6 25 5 26 4 27 3 28 2 29 1 30
REMARK H PARENT
REMARK Flexibility Score: inf
ROOT
ATOM      1  C   UNL     1       3.655 -28.866   1.044  1.00  0.00     0.000 C 
ENDROOT
BRANCH   1   2
ATOM      2  C   UNL     1       4.375 -29.483   2.254  1.00  0.00     0.000 C 
BRANCH   2   3
ATOM      3  C   UNL     1       3.538 -29.414   3.544  1.00  0.00     0.000 C 
BRANCH   3   4
ATOM      4  C   UNL     1       4.257 -29.919   4.807  1.00  0.00     0.000 C 
BRANCH   4   5
ATOM      5  C   UNL     1       4.643 -31.402   4.720  1.00  0.00     0.000 C 
BRANCH   5   6
ATOM      6  C   UNL     1       5.914 -31.688   5.535  1.00  0.00     0.000 C 
BRANCH   6   7
ATOM      7  C   UNL     1       6.825 -30.457   5.677  1.00  0.00     0.000 C 
BRANCH   7   8
ATOM      8  C   UNL     1       7.958 -30.362   4.635  1.00  0.00     0.000 C 
BRANCH   8   9
ATOM      9  C   UNL     1       8.817 -29.084   4.717  1.00  0.00     0.000 C 
BRANCH   9  10
ATOM     10  C   UNL     1       9.145 -28.436   3.361  1.00  0.00     0.000 C 
BRANCH  10  11
ATOM     11  C   UNL     1       8.285 -28.989   2.213  1.00  0.00     0.000 C 
BRANCH  11  12
ATOM     12  C   UNL     1       8.620 -28.295   0.888  1.00  0.00     0.006 C 
BRANCH  12  13
ATOM     13  C   UNL     1       7.947 -29.009  -0.289  1.00  0.00     0.053 C 
BRANCH  13  14
ATOM     14  C   UNL     1       7.289 -28.028  -1.210  1.00  0.00     0.041 C 
ATOM     15  O   UNL     1       6.031 -27.936  -1.245  1.00  0.00    -0.550 OA
ATOM     16  O   UNL     1       8.057 -27.251  -2.067  1.00  0.00    -0.550 OA
ENDBRANCH  13  14
ENDBRANCH  12  13
ENDBRANCH  11  12
ENDBRANCH  10  11
ENDBRANCH   9  10
ENDBRANCH   8   9
ENDBRANCH   7   8
ENDBRANCH   6   7
ENDBRANCH   5   6
ENDBRANCH   4   5
ENDBRANCH   3   4
ENDBRANCH   2   3
ENDBRANCH   1   2
BRANCH   1  17
ATOM     17  C   UNL     1       2.213 -28.442   1.366  1.00  0.00     0.000 C 
BRANCH  17  18
ATOM     18  C   UNL     1       1.331 -28.346   0.109  1.00  0.00     0.000 C 
BRANCH  18  19
ATOM     19  C   UNL     1       1.231 -26.913  -0.438  1.00  0.00     0.000 C 
BRANCH  19  20
ATOM     20  C   UNL     1      -0.177 -26.288  -0.368  1.00  0.00     0.000 C 
BRANCH  20  21
ATOM     21  C   UNL     1      -0.559 -25.455  -1.613  1.00  0.00     0.000 C 
BRANCH  21  22
ATOM     22  C   UNL     1      -1.853 -24.627  -1.470  1.00  0.00    -0.000 C 
BRANCH  22  23
ATOM     23  C   UNL     1      -2.073 -23.966  -0.094  1.00  0.00    -0.000 C 
BRANCH  23  24
ATOM     24  C   UNL     1      -3.538 -23.896   0.380  1.00  0.00    -0.000 C 
BRANCH  24  25
ATOM     25  C   UNL     1      -3.999 -25.135   1.177  1.00  0.00    -0.000 C 
BRANCH  25  26
ATOM     26  C   UNL     1      -4.538 -26.254   0.273  1.00  0.00    -0.000 C 
BRANCH  26  27
ATOM     27  C   UNL     1      -5.810 -25.804  -0.461  1.00  0.00    -0.000 C 
BRANCH  27  28
ATOM     28  C   UNL     1      -5.955 -26.442  -1.853  1.00  0.00    -0.000 C 
BRANCH  28  29
ATOM     29  C   UNL     1      -5.011 -25.839  -2.913  1.00  0.00    -0.003 C 
ATOM     30  C   UNL     1      -5.158 -24.320  -3.028  1.00  0.00     0.004 C 
ENDBRANCH  28  29
ENDBRANCH  27  28
ENDBRANCH  26  27
ENDBRANCH  25  26
ENDBRANCH  24  25
ENDBRANCH  23  24
ENDBRANCH  22  23
ENDBRANCH  21  22
ENDBRANCH  20  21
ENDBRANCH  19  20
ENDBRANCH  18  19
ENDBRANCH  17  18
ENDBRANCH   1  17
TORSDOF 26
ENDMDL
