MODEL 1
REMARK VINA RESULT:    -7.114      0.000      0.000
REMARK INTER + INTRA:         -13.234
REMARK INTER:                 -12.104
REMARK INTRA:                  -1.130
REMARK UNBOUND:                -1.130
REMARK SMILES CCCCCCCCCCCCCC(=O)[O-]
REMARK SMILES IDX 8 1 9 2 10 3 11 4 12 5 13 6 14 7 15 8 16 9 7 10 6 11 5 12
REMARK SMILES IDX 4 13 3 14 2 15 1 16
REMARK H PARENT
REMARK Flexibility Score: inf
ROOT
ATOM      1  C   UNL     1      29.042  -3.715  19.739  1.00  0.00     0.000 C 
ENDROOT
BRANCH   1   2
ATOM      2  C   UNL     1      28.733  -4.534  18.476  1.00  0.00     0.000 C 
BRANCH   2   3
ATOM      3  C   UNL     1      27.227  -4.809  18.357  1.00  0.00     0.000 C 
BRANCH   3   4
ATOM      4  C   UNL     1      26.589  -5.246  19.687  1.00  0.00     0.000 C 
BRANCH   4   5
ATOM      5  C   UNL     1      25.046  -5.264  19.697  1.00  0.00     0.006 C 
BRANCH   5   6
ATOM      6  C   UNL     1      24.423  -6.645  19.447  1.00  0.00     0.053 C 
BRANCH   6   7
ATOM      7  C   UNL     1      24.660  -7.583  20.592  1.00  0.00     0.041 C 
ATOM      8  O   UNL     1      23.868  -7.598  21.572  1.00  0.00    -0.550 OA
ATOM      9  O   UNL     1      25.732  -8.463  20.560  1.00  0.00    -0.550 OA
ENDBRANCH   6   7
ENDBRANCH   5   6
ENDBRANCH   4   5
ENDBRANCH   3   4
ENDBRANCH   2   3
ENDBRANCH   1   2
BRANCH   1  10
ATOM     10  C   UNL     1      29.480  -2.275  19.423  1.00  0.00     0.000 C 
BRANCH  10  11
ATOM     11  C   UNL     1      28.612  -1.224  20.136  1.00  0.00    -0.000 C 
BRANCH  11  12
ATOM     12  C   UNL     1      27.279  -0.973  19.415  1.00  0.00    -0.000 C 
BRANCH  12  13
ATOM     13  C   UNL     1      26.099  -1.707  20.078  1.00  0.00    -0.000 C 
BRANCH  13  14
ATOM     14  C   UNL     1      24.764  -0.966  19.892  1.00  0.00    -0.000 C 
BRANCH  14  15
ATOM     15  C   UNL     1      24.943   0.556  19.796  1.00  0.00    -0.003 C 
ATOM     16  C   UNL     1      23.930   1.167  18.832  1.00  0.00     0.004 C 
ENDBRANCH  14  15
ENDBRANCH  13  14
ENDBRANCH  12  13
ENDBRANCH  11  12
ENDBRANCH  10  11
ENDBRANCH   1  10
TORSDOF 12
ENDMDL
MODEL 2
REMARK VINA RESULT:    -6.966      0.888      1.329
REMARK INTER + INTRA:         -12.983
REMARK INTER:                 -11.927
REMARK INTRA:                  -1.057
REMARK UNBOUND:                -1.130
REMARK SMILES CCCCCCCCCCCCCC(=O)[O-]
REMARK SMILES IDX 8 1 9 2 10 3 11 4 12 5 13 6 14 7 15 8 16 9 7 10 6 11 5 12
REMARK SMILES IDX 4 13 3 14 2 15 1 16
REMARK H PARENT
REMARK Flexibility Score: inf
ROOT
ATOM      1  C   UNL     1      28.814  -4.428  18.535  1.00  0.00     0.000 C 
ENDROOT
BRANCH   1   2
ATOM      2  C   UNL     1      27.523  -5.234  18.327  1.00  0.00     0.000 C 
BRANCH   2   3
ATOM      3  C   UNL     1      26.710  -5.311  19.627  1.00  0.00     0.000 C 
BRANCH   3   4
ATOM      4  C   UNL     1      25.205  -5.076  19.410  1.00  0.00     0.000 C 
BRANCH   4   5
ATOM      5  C   UNL     1      24.317  -6.327  19.573  1.00  0.00     0.006 C 
BRANCH   5   6
ATOM      6  C   UNL     1      24.909  -7.414  20.482  1.00  0.00     0.053 C 
BRANCH   6   7
ATOM      7  C   UNL     1      23.853  -8.112  21.283  1.00  0.00     0.041 C 
ATOM      8  O   UNL     1      22.828  -8.573  20.714  1.00  0.00    -0.550 OA
ATOM      9  O   UNL     1      24.017  -8.285  22.651  1.00  0.00    -0.550 OA
ENDBRANCH   6   7
ENDBRANCH   5   6
ENDBRANCH   4   5
ENDBRANCH   3   4
ENDBRANCH   2   3
ENDBRANCH   1   2
BRANCH   1  10
ATOM     10  C   UNL     1      28.747  -3.502  19.762  1.00  0.00     0.000 C 
BRANCH  10  11
ATOM     11  C   UNL     1      29.031  -2.032  19.409  1.00  0.00    -0.000 C 
BRANCH  11  12
ATOM     12  C   UNL     1      27.790  -1.139  19.566  1.00  0.00    -0.000 C 
BRANCH  12  13
ATOM     13  C   UNL     1      26.647  -1.838  20.322  1.00  0.00    -0.000 C 
BRANCH  13  14
ATOM     14  C   UNL     1      25.273  -1.215  20.022  1.00  0.00    -0.000 C 
BRANCH  14  15
ATOM     15  C   UNL     1      25.360   0.288  19.723  1.00  0.00    -0.003 C 
ATOM     16  C   UNL     1      24.036   0.817  19.178  1.00  0.00     0.004 C 
ENDBRANCH  14  15
ENDBRANCH  13  14
ENDBRANCH  12  13
ENDBRANCH  11  12
ENDBRANCH  10  11
ENDBRANCH   1  10
TORSDOF 12
ENDMDL
MODEL 3
REMARK VINA RESULT:    -6.923      0.778      1.524
REMARK INTER + INTRA:         -12.910
REMARK INTER:                 -11.938
REMARK INTRA:                  -0.972
REMARK UNBOUND:                -1.130
REMARK SMILES CCCCCCCCCCCCCC(=O)[O-]
REMARK SMILES IDX 8 1 9 2 10 3 11 4 12 5 13 6 14 7 15 8 16 9 7 10 6 11 5 12
REMARK SMILES IDX 4 13 3 14 2 15 1 16
REMARK H PARENT
REMARK Flexibility Score: inf
ROOT
ATOM      1  C   UNL     1      28.929  -2.329  19.882  1.00  0.00     0.000 C 
ENDROOT
BRANCH   1   2
ATOM      2  C   UNL     1      29.677  -3.166  18.834  1.00  0.00     0.000 C 
BRANCH   2   3
ATOM      3  C   UNL     1      28.967  -4.506  18.594  1.00  0.00     0.000 C 
BRANCH   3   4
ATOM      4  C   UNL     1      27.436  -4.405  18.720  1.00  0.00     0.000 C 
BRANCH   4   5
ATOM      5  C   UNL     1      26.797  -5.389  19.722  1.00  0.00     0.006 C 
BRANCH   5   6
ATOM      6  C   UNL     1      25.266  -5.476  19.642  1.00  0.00     0.053 C 
BRANCH   6   7
ATOM      7  C   UNL     1      24.762  -6.840  20.004  1.00  0.00     0.041 C 
ATOM      8  O   UNL     1      23.527  -7.037  20.160  1.00  0.00    -0.550 OA
ATOM      9  O   UNL     1      25.650  -7.899  20.134  1.00  0.00    -0.550 OA
ENDBRANCH   6   7
ENDBRANCH   5   6
ENDBRANCH   4   5
ENDBRANCH   3   4
ENDBRANCH   2   3
ENDBRANCH   1   2
BRANCH   1  10
ATOM     10  C   UNL     1      28.577  -0.920  19.378  1.00  0.00     0.000 C 
BRANCH  10  11
ATOM     11  C   UNL     1      27.296  -0.364  20.023  1.00  0.00    -0.000 C 
BRANCH  11  12
ATOM     12  C   UNL     1      26.183  -1.418  20.126  1.00  0.00    -0.000 C 
BRANCH  12  13
ATOM     13  C   UNL     1      24.797  -0.854  19.766  1.00  0.00    -0.000 C 
BRANCH  13  14
ATOM     14  C   UNL     1      24.782   0.681  19.703  1.00  0.00    -0.000 C 
BRANCH  14  15
ATOM     15  C   UNL     1      23.672   1.224  18.791  1.00  0.00    -0.003 C 
ATOM     16  C   UNL     1      24.110   2.512  18.099  1.00  0.00     0.004 C 
ENDBRANCH  14  15
ENDBRANCH  13  14
ENDBRANCH  12  13
ENDBRANCH  11  12
ENDBRANCH  10  11
ENDBRANCH   1  10
TORSDOF 12
ENDMDL
MODEL 4
REMARK VINA RESULT:    -6.896      3.826      6.573
REMARK INTER + INTRA:         -12.864
REMARK INTER:                 -11.824
REMARK INTRA:                  -1.040
REMARK UNBOUND:                -1.130
REMARK SMILES CCCCCCCCCCCCCC(=O)[O-]
REMARK SMILES IDX 8 1 9 2 10 3 11 4 12 5 13 6 14 7 15 8 16 9 7 10 6 11 5 12
REMARK SMILES IDX 4 13 3 14 2 15 1 16
REMARK H PARENT
REMARK Flexibility Score: inf
ROOT
ATOM      1  C   UNL     1      29.614  -2.293  19.353  1.00  0.00     0.000 C 
ENDROOT
BRANCH   1   2
ATOM      2  C   UNL     1      28.665  -1.119  19.640  1.00  0.00     0.000 C 
BRANCH   2   3
ATOM      3  C   UNL     1      27.569  -1.533  20.633  1.00  0.00     0.000 C 
BRANCH   3   4
ATOM      4  C   UNL     1      26.148  -1.348  20.070  1.00  0.00     0.000 C 
BRANCH   4   5
ATOM      5  C   UNL     1      25.727   0.116  19.826  1.00  0.00     0.006 C 
BRANCH   5   6
ATOM      6  C   UNL     1      24.242   0.304  19.486  1.00  0.00     0.053 C 
BRANCH   6   7
ATOM      7  C   UNL     1      23.993   1.582  18.744  1.00  0.00     0.041 C 
ATOM      8  O   UNL     1      22.823   1.897  18.401  1.00  0.00    -0.550 OA
ATOM      9  O   UNL     1      25.047   2.441  18.465  1.00  0.00    -0.550 OA
ENDBRANCH   6   7
ENDBRANCH   5   6
ENDBRANCH   4   5
ENDBRANCH   3   4
ENDBRANCH   2   3
ENDBRANCH   1   2
BRANCH   1  10
ATOM     10  C   UNL     1      29.007  -3.655  19.726  1.00  0.00     0.000 C 
BRANCH  10  11
ATOM     11  C   UNL     1      28.579  -4.470  18.494  1.00  0.00    -0.000 C 
BRANCH  11  12
ATOM     12  C   UNL     1      27.057  -4.663  18.414  1.00  0.00    -0.000 C 
BRANCH  12  13
ATOM     13  C   UNL     1      26.450  -5.146  19.744  1.00  0.00    -0.000 C 
BRANCH  13  14
ATOM     14  C   UNL     1      25.768  -6.518  19.618  1.00  0.00    -0.000 C 
BRANCH  14  15
ATOM     15  C   UNL     1      26.777  -7.669  19.496  1.00  0.00    -0.003 C 
ATOM     16  C   UNL     1      26.440  -8.799  20.465  1.00  0.00     0.004 C 
ENDBRANCH  14  15
ENDBRANCH  13  14
ENDBRANCH  12  13
ENDBRANCH  11  12
ENDBRANCH  10  11
ENDBRANCH   1  10
TORSDOF 12
ENDMDL
MODEL 5
REMARK VINA RESULT:    -6.823      2.687      6.134
REMARK INTER + INTRA:         -12.739
REMARK INTER:                 -11.780
REMARK INTRA:                  -0.959
REMARK UNBOUND:                -1.130
REMARK SMILES CCCCCCCCCCCCCC(=O)[O-]
REMARK SMILES IDX 8 1 9 2 10 3 11 4 12 5 13 6 14 7 15 8 16 9 7 10 6 11 5 12
REMARK SMILES IDX 4 13 3 14 2 15 1 16
REMARK H PARENT
REMARK Flexibility Score: inf
ROOT
ATOM      1  C   UNL     1      24.763  -1.153  19.747  1.00  0.00     0.000 C 
ENDROOT
BRANCH   1   2
ATOM      2  C   UNL     1      25.576   0.150  19.791  1.00  0.00     0.000 C 
BRANCH   2   3
ATOM      3  C   UNL     1      26.958  -0.087  20.416  1.00  0.00     0.000 C 
BRANCH   3   4
ATOM      4  C   UNL     1      28.093  -0.101  19.377  1.00  0.00     0.000 C 
BRANCH   4   5
ATOM      5  C   UNL     1      29.302  -0.987  19.742  1.00  0.00     0.006 C 
BRANCH   5   6
ATOM      6  C   UNL     1      29.000  -2.492  19.782  1.00  0.00     0.053 C 
BRANCH   6   7
ATOM      7  C   UNL     1      30.041  -3.293  19.059  1.00  0.00     0.041 C 
ATOM      8  O   UNL     1      31.260  -2.996  19.174  1.00  0.00    -0.550 OA
ATOM      9  O   UNL     1      29.668  -4.386  18.289  1.00  0.00    -0.550 OA
ENDBRANCH   6   7
ENDBRANCH   5   6
ENDBRANCH   4   5
ENDBRANCH   3   4
ENDBRANCH   2   3
ENDBRANCH   1   2
BRANCH   1  10
ATOM     10  C   UNL     1      25.594  -2.387  20.137  1.00  0.00     0.000 C 
BRANCH  10  11
ATOM     11  C   UNL     1      25.075  -3.679  19.484  1.00  0.00    -0.000 C 
BRANCH  11  12
ATOM     12  C   UNL     1      26.201  -4.518  18.860  1.00  0.00    -0.000 C 
BRANCH  12  13
ATOM     13  C   UNL     1      26.792  -5.543  19.844  1.00  0.00    -0.000 C 
BRANCH  13  14
ATOM     14  C   UNL     1      26.516  -6.995  19.420  1.00  0.00    -0.000 C 
BRANCH  14  15
ATOM     15  C   UNL     1      25.549  -7.714  20.371  1.00  0.00    -0.003 C 
ATOM     16  C   UNL     1      24.116  -7.228  20.167  1.00  0.00     0.004 C 
ENDBRANCH  14  15
ENDBRANCH  13  14
ENDBRANCH  12  13
ENDBRANCH  11  12
ENDBRANCH  10  11
ENDBRANCH   1  10
TORSDOF 12
ENDMDL
MODEL 6
REMARK VINA RESULT:    -6.822      3.037      6.237
REMARK INTER + INTRA:         -12.738
REMARK INTER:                 -11.619
REMARK INTRA:                  -1.119
REMARK UNBOUND:                -1.130
REMARK SMILES CCCCCCCCCCCCCC(=O)[O-]
REMARK SMILES IDX 8 1 9 2 10 3 11 4 12 5 13 6 14 7 15 8 16 9 7 10 6 11 5 12
REMARK SMILES IDX 4 13 3 14 2 15 1 16
REMARK H PARENT
REMARK Flexibility Score: inf
ROOT
ATOM      1  C   UNL     1      28.584  -4.505  18.555  1.00  0.00     0.000 C 
ENDROOT
BRANCH   1   2
ATOM      2  C   UNL     1      28.797  -3.590  19.771  1.00  0.00     0.000 C 
BRANCH   2   3
ATOM      3  C   UNL     1      29.424  -2.255  19.348  1.00  0.00     0.000 C 
BRANCH   3   4
ATOM      4  C   UNL     1      28.700  -1.034  19.945  1.00  0.00     0.000 C 
BRANCH   4   5
ATOM      5  C   UNL     1      27.169  -1.027  19.758  1.00  0.00     0.006 C 
BRANCH   5   6
ATOM      6  C   UNL     1      26.528   0.367  19.802  1.00  0.00     0.053 C 
BRANCH   6   7
ATOM      7  C   UNL     1      25.039   0.305  19.645  1.00  0.00     0.041 C 
ATOM      8  O   UNL     1      24.412  -0.739  19.965  1.00  0.00    -0.550 OA
ATOM      9  O   UNL     1      24.341   1.412  19.180  1.00  0.00    -0.550 OA
ENDBRANCH   6   7
ENDBRANCH   5   6
ENDBRANCH   4   5
ENDBRANCH   3   4
ENDBRANCH   2   3
ENDBRANCH   1   2
BRANCH   1  10
ATOM     10  C   UNL     1      27.109  -4.890  18.351  1.00  0.00     0.000 C 
BRANCH  10  11
ATOM     11  C   UNL     1      26.229  -4.517  19.556  1.00  0.00    -0.000 C 
BRANCH  11  12
ATOM     12  C   UNL     1      24.747  -4.855  19.330  1.00  0.00    -0.000 C 
BRANCH  12  13
ATOM     13  C   UNL     1      24.468  -6.367  19.385  1.00  0.00    -0.000 C 
BRANCH  13  14
ATOM     14  C   UNL     1      24.673  -6.955  20.791  1.00  0.00    -0.000 C 
BRANCH  14  15
ATOM     15  C   UNL     1      25.337  -8.339  20.760  1.00  0.00    -0.003 C 
ATOM     16  C   UNL     1      26.732  -8.265  20.145  1.00  0.00     0.004 C 
ENDBRANCH  14  15
ENDBRANCH  13  14
ENDBRANCH  12  13
ENDBRANCH  11  12
ENDBRANCH  10  11
ENDBRANCH   1  10
TORSDOF 12
ENDMDL
MODEL 7
REMARK VINA RESULT:    -6.683      2.860      6.442
REMARK INTER + INTRA:         -12.502
REMARK INTER:                 -11.535
REMARK INTRA:                  -0.967
REMARK UNBOUND:                -1.130
REMARK SMILES CCCCCCCCCCCCCC(=O)[O-]
REMARK SMILES IDX 8 1 9 2 10 3 11 4 12 5 13 6 14 7 15 8 16 9 7 10 6 11 5 12
REMARK SMILES IDX 4 13 3 14 2 15 1 16
REMARK H PARENT
REMARK Flexibility Score: inf
ROOT
ATOM      1  C   UNL     1      25.192  -3.420  19.551  1.00  0.00     0.000 C 
ENDROOT
BRANCH   1   2
ATOM      2  C   UNL     1      25.871  -2.393  20.469  1.00  0.00     0.000 C 
BRANCH   2   3
ATOM      3  C   UNL     1      26.054  -1.050  19.747  1.00  0.00     0.000 C 
BRANCH   3   4
ATOM      4  C   UNL     1      27.465  -0.460  19.923  1.00  0.00     0.000 C 
BRANCH   4   5
ATOM      5  C   UNL     1      28.577  -1.182  19.134  1.00  0.00     0.006 C 
BRANCH   5   6
ATOM      6  C   UNL     1      29.351  -2.235  19.940  1.00  0.00     0.053 C 
BRANCH   6   7
ATOM      7  C   UNL     1      30.156  -3.138  19.056  1.00  0.00     0.041 C 
ATOM      8  O   UNL     1      29.582  -3.852  18.191  1.00  0.00    -0.550 OA
ATOM      9  O   UNL     1      31.540  -3.167  19.165  1.00  0.00    -0.550 OA
ENDBRANCH   6   7
ENDBRANCH   5   6
ENDBRANCH   4   5
ENDBRANCH   3   4
ENDBRANCH   2   3
ENDBRANCH   1   2
BRANCH   1  10
ATOM     10  C   UNL     1      26.201  -4.290  18.782  1.00  0.00     0.000 C 
BRANCH  10  11
ATOM     11  C   UNL     1      26.892  -5.328  19.681  1.00  0.00    -0.000 C 
BRANCH  11  12
ATOM     12  C   UNL     1      26.549  -6.773  19.284  1.00  0.00    -0.000 C 
BRANCH  12  13
ATOM     13  C   UNL     1      25.905  -7.567  20.435  1.00  0.00    -0.000 C 
BRANCH  13  14
ATOM     14  C   UNL     1      24.390  -7.332  20.540  1.00  0.00    -0.000 C 
BRANCH  14  15
ATOM     15  C   UNL     1      23.623  -8.599  20.947  1.00  0.00    -0.003 C 
ATOM     16  C   UNL     1      23.571  -8.745  22.465  1.00  0.00     0.004 C 
ENDBRANCH  14  15
ENDBRANCH  13  14
ENDBRANCH  12  13
ENDBRANCH  11  12
ENDBRANCH  10  11
ENDBRANCH   1  10
TORSDOF 12
ENDMDL
MODEL 8
REMARK VINA RESULT:    -6.501      3.174      6.365
REMARK INTER + INTRA:         -12.191
REMARK INTER:                 -11.104
REMARK INTRA:                  -1.088
REMARK UNBOUND:                -1.130
REMARK SMILES CCCCCCCCCCCCCC(=O)[O-]
REMARK SMILES IDX 8 1 9 2 10 3 11 4 12 5 13 6 14 7 15 8 16 9 7 10 6 11 5 12
REMARK SMILES IDX 4 13 3 14 2 15 1 16
REMARK H PARENT
REMARK Flexibility Score: inf
ROOT
ATOM      1  C   UNL     1      28.853  -4.461  18.464  1.00  0.00     0.000 C 
ENDROOT
BRANCH   1   2
ATOM      2  C   UNL     1      29.119  -3.670  19.754  1.00  0.00     0.000 C 
BRANCH   2   3
ATOM      3  C   UNL     1      29.670  -2.272  19.435  1.00  0.00     0.000 C 
BRANCH   3   4
ATOM      4  C   UNL     1      28.892  -1.145  20.138  1.00  0.00     0.000 C 
BRANCH   4   5
ATOM      5  C   UNL     1      27.672  -0.610  19.361  1.00  0.00     0.006 C 
BRANCH   5   6
ATOM      6  C   UNL     1      26.318  -0.893  20.026  1.00  0.00     0.053 C 
BRANCH   6   7
ATOM      7  C   UNL     1      25.289   0.135  19.665  1.00  0.00     0.041 C 
ATOM      8  O   UNL     1      24.064  -0.154  19.706  1.00  0.00    -0.550 OA
ATOM      9  O   UNL     1      25.682   1.421  19.318  1.00  0.00    -0.550 OA
ENDBRANCH   6   7
ENDBRANCH   5   6
ENDBRANCH   4   5
ENDBRANCH   3   4
ENDBRANCH   2   3
ENDBRANCH   1   2
BRANCH   1  10
ATOM     10  C   UNL     1      27.357  -4.730  18.229  1.00  0.00     0.000 C 
BRANCH  10  11
ATOM     11  C   UNL     1      26.520  -4.571  19.508  1.00  0.00    -0.000 C 
BRANCH  11  12
ATOM     12  C   UNL     1      25.732  -5.843  19.859  1.00  0.00    -0.000 C 
BRANCH  12  13
ATOM     13  C   UNL     1      26.610  -7.107  19.847  1.00  0.00    -0.000 C 
BRANCH  13  14
ATOM     14  C   UNL     1      25.922  -8.310  20.512  1.00  0.00    -0.000 C 
BRANCH  14  15
ATOM     15  C   UNL     1      24.628  -7.921  21.242  1.00  0.00    -0.003 C 
ATOM     16  C   UNL     1      23.588  -9.033  21.146  1.00  0.00     0.004 C 
ENDBRANCH  14  15
ENDBRANCH  13  14
ENDBRANCH  12  13
ENDBRANCH  11  12
ENDBRANCH  10  11
ENDBRANCH   1  10
TORSDOF 12
ENDMDL
MODEL 9
REMARK VINA RESULT:    -6.464      1.670      3.350
REMARK INTER + INTRA:         -12.130
REMARK INTER:                 -10.913
REMARK INTRA:                  -1.217
REMARK UNBOUND:                -1.130
REMARK SMILES CCCCCCCCCCCCCC(=O)[O-]
REMARK SMILES IDX 8 1 9 2 10 3 11 4 12 5 13 6 14 7 15 8 16 9 7 10 6 11 5 12
REMARK SMILES IDX 4 13 3 14 2 15 1 16
REMARK H PARENT
REMARK Flexibility Score: inf
ROOT
ATOM      1  C   UNL     1      26.274  -4.240  19.702  1.00  0.00     0.000 C 
ENDROOT
BRANCH   1   2
ATOM      2  C   UNL     1      26.911  -4.770  18.408  1.00  0.00     0.000 C 
BRANCH   2   3
ATOM      3  C   UNL     1      27.638  -6.099  18.660  1.00  0.00     0.000 C 
BRANCH   3   4
ATOM      4  C   UNL     1      26.674  -7.280  18.871  1.00  0.00     0.000 C 
BRANCH   4   5
ATOM      5  C   UNL     1      26.499  -7.728  20.337  1.00  0.00     0.006 C 
BRANCH   5   6
ATOM      6  C   UNL     1      25.302  -8.658  20.581  1.00  0.00     0.053 C 
BRANCH   6   7
ATOM      7  C   UNL     1      24.110  -7.914  21.101  1.00  0.00     0.041 C 
ATOM      8  O   UNL     1      23.299  -7.379  20.299  1.00  0.00    -0.550 OA
ATOM      9  O   UNL     1      23.876  -7.840  22.467  1.00  0.00    -0.550 OA
ENDBRANCH   6   7
ENDBRANCH   5   6
ENDBRANCH   4   5
ENDBRANCH   3   4
ENDBRANCH   2   3
ENDBRANCH   1   2
BRANCH   1  10
ATOM     10  C   UNL     1      25.054  -3.341  19.440  1.00  0.00     0.000 C 
BRANCH  10  11
ATOM     11  C   UNL     1      25.234  -1.922  20.006  1.00  0.00    -0.000 C 
BRANCH  11  12
ATOM     12  C   UNL     1      26.654  -1.675  20.538  1.00  0.00    -0.000 C 
BRANCH  12  13
ATOM     13  C   UNL     1      27.371  -0.528  19.804  1.00  0.00    -0.000 C 
BRANCH  13  14
ATOM     14  C   UNL     1      28.740  -0.949  19.245  1.00  0.00    -0.000 C 
BRANCH  14  15
ATOM     15  C   UNL     1      29.274  -2.232  19.898  1.00  0.00    -0.003 C 
ATOM     16  C   UNL     1      30.130  -3.031  18.919  1.00  0.00     0.004 C 
ENDBRANCH  14  15
ENDBRANCH  13  14
ENDBRANCH  12  13
ENDBRANCH  11  12
ENDBRANCH  10  11
ENDBRANCH   1  10
TORSDOF 12
ENDMDL
