MODEL 1
REMARK VINA RESULT:    -3.938      0.000      0.000
REMARK INTER + INTRA:          -7.222
REMARK INTER:                  -6.240
REMARK INTRA:                  -0.981
REMARK UNBOUND:                -0.981
REMARK SMILES CCCCCCCCCCCC(=O)[O-]
REMARK SMILES IDX 7 1 8 2 9 3 10 4 11 5 12 6 13 7 14 8 6 9 5 10 4 11 3 12 2 13
REMARK SMILES IDX 1 14
REMARK H PARENT
REMARK Flexibility Score: inf
ROOT
ATOM      1  C   UNL     1      -1.065  -6.110   6.666  1.00  0.00     0.000 C 
ENDROOT
BRANCH   1   2
ATOM      2  C   UNL     1      -2.483  -5.618   7.014  1.00  0.00     0.000 C 
BRANCH   2   3
ATOM      3  C   UNL     1      -2.915  -4.329   6.290  1.00  0.00     0.000 C 
BRANCH   3   4
ATOM      4  C   UNL     1      -3.496  -3.252   7.231  1.00  0.00     0.006 C 
BRANCH   4   5
ATOM      5  C   UNL     1      -4.648  -2.469   6.589  1.00  0.00     0.053 C 
BRANCH   5   6
ATOM      6  C   UNL     1      -5.872  -3.321   6.493  1.00  0.00     0.041 C 
ATOM      7  O   UNL     1      -6.172  -4.107   7.430  1.00  0.00    -0.550 OA
ATOM      8  O   UNL     1      -6.711  -3.212   5.391  1.00  0.00    -0.550 OA
ENDBRANCH   5   6
ENDBRANCH   4   5
ENDBRANCH   3   4
ENDBRANCH   2   3
ENDBRANCH   1   2
BRANCH   1   9
ATOM      9  C   UNL     1      -0.918  -7.641   6.547  1.00  0.00     0.000 C 
BRANCH   9  10
ATOM     10  C   UNL     1      -0.394  -8.146   5.188  1.00  0.00    -0.000 C 
BRANCH  10  11
ATOM     11  C   UNL     1      -1.279  -7.808   3.976  1.00  0.00    -0.000 C 
BRANCH  11  12
ATOM     12  C   UNL     1      -0.637  -6.771   3.038  1.00  0.00    -0.000 C 
BRANCH  12  13
ATOM     13  C   UNL     1      -1.568  -5.585   2.745  1.00  0.00    -0.003 C 
ATOM     14  C   UNL     1      -3.040  -5.910   2.998  1.00  0.00     0.004 C 
ENDBRANCH  12  13
ENDBRANCH  11  12
ENDBRANCH  10  11
ENDBRANCH   9  10
ENDBRANCH   1   9
TORSDOF 10
ENDMDL
MODEL 2
REMARK VINA RESULT:    -3.930      3.550      5.067
REMARK INTER + INTRA:          -7.209
REMARK INTER:                  -6.739
REMARK INTRA:                  -0.470
REMARK UNBOUND:                -0.981
REMARK SMILES CCCCCCCCCCCC(=O)[O-]
REMARK SMILES IDX 7 1 8 2 9 3 10 4 11 5 12 6 13 7 14 8 6 9 5 10 4 11 3 12 2 13
REMARK SMILES IDX 1 14
REMARK H PARENT
REMARK Flexibility Score: inf
ROOT
ATOM      1  C   UNL     1      -2.588  -4.573   1.394  1.00  0.00     0.000 C 
ENDROOT
BRANCH   1   2
ATOM      2  C   UNL     1      -2.843  -5.601   2.513  1.00  0.00     0.000 C 
BRANCH   2   3
ATOM      3  C   UNL     1      -3.007  -4.997   3.920  1.00  0.00     0.000 C 
BRANCH   3   4
ATOM      4  C   UNL     1      -4.379  -4.328   4.153  1.00  0.00     0.006 C 
BRANCH   4   5
ATOM      5  C   UNL     1      -4.549  -3.820   5.591  1.00  0.00     0.053 C 
BRANCH   5   6
ATOM      6  C   UNL     1      -5.977  -3.465   5.856  1.00  0.00     0.041 C 
ATOM      7  O   UNL     1      -6.778  -3.304   4.898  1.00  0.00    -0.550 OA
ATOM      8  O   UNL     1      -6.437  -3.363   7.163  1.00  0.00    -0.550 OA
ENDBRANCH   5   6
ENDBRANCH   4   5
ENDBRANCH   3   4
ENDBRANCH   2   3
ENDBRANCH   1   2
BRANCH   1   9
ATOM      9  C   UNL     1      -3.181  -4.948   0.019  1.00  0.00     0.000 C 
BRANCH   9  10
ATOM     10  C   UNL     1      -2.146  -5.308  -1.066  1.00  0.00    -0.000 C 
BRANCH  10  11
ATOM     11  C   UNL     1      -2.714  -6.026  -2.302  1.00  0.00    -0.000 C 
BRANCH  11  12
ATOM     12  C   UNL     1      -4.100  -6.644  -2.049  1.00  0.00    -0.000 C 
BRANCH  12  13
ATOM     13  C   UNL     1      -5.146  -6.185  -3.076  1.00  0.00    -0.003 C 
ATOM     14  C   UNL     1      -6.255  -5.337  -2.454  1.00  0.00     0.004 C 
ENDBRANCH  12  13
ENDBRANCH  11  12
ENDBRANCH  10  11
ENDBRANCH   9  10
ENDBRANCH   1   9
TORSDOF 10
ENDMDL
MODEL 3
REMARK VINA RESULT:    -3.909      4.543      6.598
REMARK INTER + INTRA:          -7.176
REMARK INTER:                  -6.642
REMARK INTRA:                  -0.533
REMARK UNBOUND:                -0.981
REMARK SMILES CCCCCCCCCCCC(=O)[O-]
REMARK SMILES IDX 7 1 8 2 9 3 10 4 11 5 12 6 13 7 14 8 6 9 5 10 4 11 3 12 2 13
REMARK SMILES IDX 1 14
REMARK H PARENT
REMARK Flexibility Score: inf
ROOT
ATOM      1  C   UNL     1      -2.156  -4.885   1.150  1.00  0.00     0.000 C 
ENDROOT
BRANCH   1   2
ATOM      2  C   UNL     1      -3.068  -4.833   2.390  1.00  0.00     0.000 C 
BRANCH   2   3
ATOM      3  C   UNL     1      -2.780  -5.913   3.450  1.00  0.00     0.000 C 
BRANCH   3   4
ATOM      4  C   UNL     1      -1.345  -6.479   3.387  1.00  0.00     0.006 C 
BRANCH   4   5
ATOM      5  C   UNL     1      -1.260  -7.923   3.896  1.00  0.00     0.053 C 
BRANCH   5   6
ATOM      6  C   UNL     1      -0.387  -8.001   5.108  1.00  0.00     0.041 C 
ATOM      7  O   UNL     1      -0.797  -7.561   6.214  1.00  0.00    -0.550 OA
ATOM      8  O   UNL     1       0.862  -8.605   5.028  1.00  0.00    -0.550 OA
ENDBRANCH   5   6
ENDBRANCH   4   5
ENDBRANCH   3   4
ENDBRANCH   2   3
ENDBRANCH   1   2
BRANCH   1   9
ATOM      9  C   UNL     1      -2.896  -4.862  -0.204  1.00  0.00     0.000 C 
BRANCH   9  10
ATOM     10  C   UNL     1      -2.115  -5.463  -1.390  1.00  0.00    -0.000 C 
BRANCH  10  11
ATOM     11  C   UNL     1      -2.927  -6.394  -2.306  1.00  0.00    -0.000 C 
BRANCH  11  12
ATOM     12  C   UNL     1      -4.381  -6.577  -1.835  1.00  0.00    -0.000 C 
BRANCH  12  13
ATOM     13  C   UNL     1      -5.402  -6.262  -2.938  1.00  0.00    -0.003 C 
ATOM     14  C   UNL     1      -6.556  -5.388  -2.448  1.00  0.00     0.004 C 
ENDBRANCH  12  13
ENDBRANCH  11  12
ENDBRANCH  10  11
ENDBRANCH   9  10
ENDBRANCH   1   9
TORSDOF 10
ENDMDL
MODEL 4
REMARK VINA RESULT:    -3.907      5.238      7.813
REMARK INTER + INTRA:          -7.172
REMARK INTER:                  -6.488
REMARK INTRA:                  -0.684
REMARK UNBOUND:                -0.981
REMARK SMILES CCCCCCCCCCCC(=O)[O-]
REMARK SMILES IDX 7 1 8 2 9 3 10 4 11 5 12 6 13 7 14 8 6 9 5 10 4 11 3 12 2 13
REMARK SMILES IDX 1 14
REMARK H PARENT
REMARK Flexibility Score: inf
ROOT
ATOM      1  C   UNL     1      -2.537  -4.612  -0.896  1.00  0.00     0.000 C 
ENDROOT
BRANCH   1   2
ATOM      2  C   UNL     1      -2.146  -5.466  -2.117  1.00  0.00     0.000 C 
BRANCH   2   3
ATOM      3  C   UNL     1      -3.162  -6.562  -2.491  1.00  0.00     0.000 C 
BRANCH   3   4
ATOM      4  C   UNL     1      -4.514  -6.434  -1.757  1.00  0.00     0.006 C 
BRANCH   4   5
ATOM      5  C   UNL     1      -5.707  -6.417  -2.721  1.00  0.00     0.053 C 
BRANCH   5   6
ATOM      6  C   UNL     1      -5.608  -5.256  -3.658  1.00  0.00     0.041 C 
ATOM      7  O   UNL     1      -5.727  -5.431  -4.899  1.00  0.00    -0.550 OA
ATOM      8  O   UNL     1      -5.436  -3.972  -3.158  1.00  0.00    -0.550 OA
ENDBRANCH   5   6
ENDBRANCH   4   5
ENDBRANCH   3   4
ENDBRANCH   2   3
ENDBRANCH   1   2
BRANCH   1   9
ATOM      9  C   UNL     1      -1.950  -5.091   0.447  1.00  0.00     0.000 C 
BRANCH   9  10
ATOM     10  C   UNL     1      -2.938  -5.093   1.632  1.00  0.00    -0.000 C 
BRANCH  10  11
ATOM     11  C   UNL     1      -2.391  -5.688   2.941  1.00  0.00    -0.000 C 
BRANCH  11  12
ATOM     12  C   UNL     1      -1.149  -6.571   2.722  1.00  0.00    -0.000 C 
BRANCH  12  13
ATOM     13  C   UNL     1      -1.011  -7.667   3.790  1.00  0.00    -0.003 C 
ATOM     14  C   UNL     1      -1.226  -7.142   5.210  1.00  0.00     0.004 C 
ENDBRANCH  12  13
ENDBRANCH  11  12
ENDBRANCH  10  11
ENDBRANCH   9  10
ENDBRANCH   1   9
TORSDOF 10
ENDMDL
MODEL 5
REMARK VINA RESULT:    -3.907      1.038      3.186
REMARK INTER + INTRA:          -7.172
REMARK INTER:                  -6.334
REMARK INTRA:                  -0.838
REMARK UNBOUND:                -0.981
REMARK SMILES CCCCCCCCCCCC(=O)[O-]
REMARK SMILES IDX 7 1 8 2 9 3 10 4 11 5 12 6 13 7 14 8 6 9 5 10 4 11 3 12 2 13
REMARK SMILES IDX 1 14
REMARK H PARENT
REMARK Flexibility Score: inf
ROOT
ATOM      1  C   UNL     1      -1.943  -5.191   2.953  1.00  0.00     0.000 C 
ENDROOT
BRANCH   1   2
ATOM      2  C   UNL     1      -3.377  -5.506   3.419  1.00  0.00     0.000 C 
BRANCH   2   3
ATOM      3  C   UNL     1      -4.043  -4.396   4.255  1.00  0.00     0.000 C 
BRANCH   3   4
ATOM      4  C   UNL     1      -3.607  -4.386   5.735  1.00  0.00     0.006 C 
BRANCH   4   5
ATOM      5  C   UNL     1      -4.244  -3.237   6.528  1.00  0.00     0.053 C 
BRANCH   5   6
ATOM      6  C   UNL     1      -5.674  -3.546   6.840  1.00  0.00     0.041 C 
ATOM      7  O   UNL     1      -5.962  -4.477   7.637  1.00  0.00    -0.550 OA
ATOM      8  O   UNL     1      -6.688  -2.773   6.290  1.00  0.00    -0.550 OA
ENDBRANCH   5   6
ENDBRANCH   4   5
ENDBRANCH   3   4
ENDBRANCH   2   3
ENDBRANCH   1   2
BRANCH   1   9
ATOM      9  C   UNL     1      -0.979  -6.396   2.957  1.00  0.00     0.000 C 
BRANCH   9  10
ATOM     10  C   UNL     1      -1.357  -7.536   3.923  1.00  0.00    -0.000 C 
BRANCH  10  11
ATOM     11  C   UNL     1      -0.561  -7.571   5.239  1.00  0.00    -0.000 C 
BRANCH  11  12
ATOM     12  C   UNL     1      -1.395  -7.126   6.454  1.00  0.00    -0.000 C 
BRANCH  12  13
ATOM     13  C   UNL     1      -0.756  -7.538   7.789  1.00  0.00    -0.003 C 
ATOM     14  C   UNL     1       0.299  -8.632   7.629  1.00  0.00     0.004 C 
ENDBRANCH  12  13
ENDBRANCH  11  12
ENDBRANCH  10  11
ENDBRANCH   9  10
ENDBRANCH   1   9
TORSDOF 10
ENDMDL
MODEL 6
REMARK VINA RESULT:    -3.894     13.629     15.355
REMARK INTER + INTRA:          -7.151
REMARK INTER:                  -6.420
REMARK INTRA:                  -0.731
REMARK UNBOUND:                -0.981
REMARK SMILES CCCCCCCCCCCC(=O)[O-]
REMARK SMILES IDX 7 1 8 2 9 3 10 4 11 5 12 6 13 7 14 8 6 9 5 10 4 11 3 12 2 13
REMARK SMILES IDX 1 14
REMARK H PARENT
REMARK Flexibility Score: inf
ROOT
ATOM      1  C   UNL     1       1.495   4.865  -1.170  1.00  0.00     0.000 C 
ENDROOT
BRANCH   1   2
ATOM      2  C   UNL     1       2.375   5.181  -2.394  1.00  0.00     0.000 C 
BRANCH   2   3
ATOM      3  C   UNL     1       2.946   6.611  -2.429  1.00  0.00     0.000 C 
BRANCH   3   4
ATOM      4  C   UNL     1       4.476   6.666  -2.621  1.00  0.00     0.006 C 
BRANCH   4   5
ATOM      5  C   UNL     1       5.185   5.432  -2.048  1.00  0.00     0.053 C 
BRANCH   5   6
ATOM      6  C   UNL     1       6.633   5.438  -2.422  1.00  0.00     0.041 C 
ATOM      7  O   UNL     1       7.467   4.787  -1.739  1.00  0.00    -0.550 OA
ATOM      8  O   UNL     1       7.056   6.122  -3.555  1.00  0.00    -0.550 OA
ENDBRANCH   5   6
ENDBRANCH   4   5
ENDBRANCH   3   4
ENDBRANCH   2   3
ENDBRANCH   1   2
BRANCH   1   9
ATOM      9  C   UNL     1       1.967   5.503   0.152  1.00  0.00     0.000 C 
BRANCH   9  10
ATOM     10  C   UNL     1       3.048   4.709   0.915  1.00  0.00    -0.000 C 
BRANCH  10  11
ATOM     11  C   UNL     1       2.935   4.754   2.448  1.00  0.00    -0.000 C 
BRANCH  11  12
ATOM     12  C   UNL     1       2.841   6.188   2.998  1.00  0.00    -0.000 C 
BRANCH  12  13
ATOM     13  C   UNL     1       1.501   6.464   3.697  1.00  0.00    -0.003 C 
ATOM     14  C   UNL     1       1.315   7.936   4.063  1.00  0.00     0.004 C 
ENDBRANCH  12  13
ENDBRANCH  11  12
ENDBRANCH  10  11
ENDBRANCH   9  10
ENDBRANCH   1   9
TORSDOF 10
ENDMDL
MODEL 7
REMARK VINA RESULT:    -3.878      4.817      7.250
REMARK INTER + INTRA:          -7.126
REMARK INTER:                  -6.595
REMARK INTRA:                  -0.531
REMARK UNBOUND:                -0.981
REMARK SMILES CCCCCCCCCCCC(=O)[O-]
REMARK SMILES IDX 7 1 8 2 9 3 10 4 11 5 12 6 13 7 14 8 6 9 5 10 4 11 3 12 2 13
REMARK SMILES IDX 1 14
REMARK H PARENT
REMARK Flexibility Score: inf
ROOT
ATOM      1  C   UNL     1      -2.354  -4.633   1.175  1.00  0.00     0.000 C 
ENDROOT
BRANCH   1   2
ATOM      2  C   UNL     1      -3.082  -5.128  -0.089  1.00  0.00     0.000 C 
BRANCH   2   3
ATOM      3  C   UNL     1      -2.163  -5.426  -1.289  1.00  0.00     0.000 C 
BRANCH   3   4
ATOM      4  C   UNL     1      -2.893  -6.075  -2.484  1.00  0.00     0.006 C 
BRANCH   4   5
ATOM      5  C   UNL     1      -4.251  -6.670  -2.091  1.00  0.00     0.053 C 
BRANCH   5   6
ATOM      6  C   UNL     1      -5.307  -6.254  -3.065  1.00  0.00     0.041 C 
ATOM      7  O   UNL     1      -5.070  -5.350  -3.909  1.00  0.00    -0.550 OA
ATOM      8  O   UNL     1      -6.537  -6.899  -3.074  1.00  0.00    -0.550 OA
ENDBRANCH   5   6
ENDBRANCH   4   5
ENDBRANCH   3   4
ENDBRANCH   2   3
ENDBRANCH   1   2
BRANCH   1   9
ATOM      9  C   UNL     1      -2.965  -5.112   2.508  1.00  0.00     0.000 C 
BRANCH   9  10
ATOM     10  C   UNL     1      -2.186  -6.236   3.221  1.00  0.00    -0.000 C 
BRANCH  10  11
ATOM     11  C   UNL     1      -0.699  -6.345   2.842  1.00  0.00    -0.000 C 
BRANCH  11  12
ATOM     12  C   UNL     1       0.127  -7.127   3.879  1.00  0.00    -0.000 C 
BRANCH  12  13
ATOM     13  C   UNL     1      -0.736  -8.076   4.723  1.00  0.00    -0.003 C 
ATOM     14  C   UNL     1       0.002  -8.619   5.947  1.00  0.00     0.004 C 
ENDBRANCH  12  13
ENDBRANCH  11  12
ENDBRANCH  10  11
ENDBRANCH   9  10
ENDBRANCH   1   9
TORSDOF 10
ENDMDL
MODEL 8
REMARK VINA RESULT:    -3.836     12.684     13.883
REMARK INTER + INTRA:          -7.060
REMARK INTER:                  -6.536
REMARK INTRA:                  -0.524
REMARK UNBOUND:                -0.981
REMARK SMILES CCCCCCCCCCCC(=O)[O-]
REMARK SMILES IDX 7 1 8 2 9 3 10 4 11 5 12 6 13 7 14 8 6 9 5 10 4 11 3 12 2 13
REMARK SMILES IDX 1 14
REMARK H PARENT
REMARK Flexibility Score: inf
ROOT
ATOM      1  C   UNL     1       2.567   4.980   0.518  1.00  0.00     0.000 C 
ENDROOT
BRANCH   1   2
ATOM      2  C   UNL     1       1.855   5.201   1.866  1.00  0.00     0.000 C 
BRANCH   2   3
ATOM      3  C   UNL     1       2.662   6.011   2.898  1.00  0.00     0.000 C 
BRANCH   3   4
ATOM      4  C   UNL     1       1.855   6.391   4.158  1.00  0.00     0.006 C 
BRANCH   4   5
ATOM      5  C   UNL     1       1.395   7.854   4.141  1.00  0.00     0.053 C 
BRANCH   5   6
ATOM      6  C   UNL     1      -0.062   7.949   4.462  1.00  0.00     0.041 C 
ATOM      7  O   UNL     1      -0.826   6.973   4.236  1.00  0.00    -0.550 OA
ATOM      8  O   UNL     1      -0.570   9.096   5.059  1.00  0.00    -0.550 OA
ENDBRANCH   5   6
ENDBRANCH   4   5
ENDBRANCH   3   4
ENDBRANCH   2   3
ENDBRANCH   1   2
BRANCH   1   9
ATOM      9  C   UNL     1       1.721   5.318  -0.728  1.00  0.00     0.000 C 
BRANCH   9  10
ATOM     10  C   UNL     1       2.502   5.371  -2.056  1.00  0.00    -0.000 C 
BRANCH  10  11
ATOM     11  C   UNL     1       3.190   6.713  -2.360  1.00  0.00    -0.000 C 
BRANCH  11  12
ATOM     12  C   UNL     1       4.691   6.706  -2.020  1.00  0.00    -0.000 C 
BRANCH  12  13
ATOM     13  C   UNL     1       5.472   5.657  -2.826  1.00  0.00    -0.003 C 
ATOM     14  C   UNL     1       6.474   4.879  -1.973  1.00  0.00     0.004 C 
ENDBRANCH  12  13
ENDBRANCH  11  12
ENDBRANCH  10  11
ENDBRANCH   9  10
ENDBRANCH   1   9
TORSDOF 10
ENDMDL
MODEL 9
REMARK VINA RESULT:    -3.818     12.772     13.860
REMARK INTER + INTRA:          -7.032
REMARK INTER:                  -6.687
REMARK INTRA:                  -0.345
REMARK UNBOUND:                -0.981
REMARK SMILES CCCCCCCCCCCC(=O)[O-]
REMARK SMILES IDX 7 1 8 2 9 3 10 4 11 5 12 6 13 7 14 8 6 9 5 10 4 11 3 12 2 13
REMARK SMILES IDX 1 14
REMARK H PARENT
REMARK Flexibility Score: inf
ROOT
ATOM      1  C   UNL     1       2.961   4.728   1.639  1.00  0.00     0.000 C 
ENDROOT
BRANCH   1   2
ATOM      2  C   UNL     1       3.050   5.534   2.949  1.00  0.00     0.000 C 
BRANCH   2   3
ATOM      3  C   UNL     1       3.017   4.686   4.234  1.00  0.00     0.000 C 
BRANCH   3   4
ATOM      4  C   UNL     1       4.401   4.157   4.666  1.00  0.00     0.006 C 
BRANCH   4   5
ATOM      5  C   UNL     1       4.399   3.605   6.097  1.00  0.00     0.053 C 
BRANCH   5   6
ATOM      6  C   UNL     1       5.755   3.742   6.713  1.00  0.00     0.041 C 
ATOM      7  O   UNL     1       6.692   2.978   6.359  1.00  0.00    -0.550 OA
ATOM      8  O   UNL     1       5.999   4.746   7.641  1.00  0.00    -0.550 OA
ENDBRANCH   5   6
ENDBRANCH   4   5
ENDBRANCH   3   4
ENDBRANCH   2   3
ENDBRANCH   1   2
BRANCH   1   9
ATOM      9  C   UNL     1       2.024   5.327   0.569  1.00  0.00     0.000 C 
BRANCH   9  10
ATOM     10  C   UNL     1       2.516   5.189  -0.886  1.00  0.00    -0.000 C 
BRANCH  10  11
ATOM     11  C   UNL     1       4.035   5.335  -1.080  1.00  0.00    -0.000 C 
BRANCH  11  12
ATOM     12  C   UNL     1       4.426   6.660  -1.759  1.00  0.00    -0.000 C 
BRANCH  12  13
ATOM     13  C   UNL     1       5.738   6.552  -2.549  1.00  0.00    -0.003 C 
ATOM     14  C   UNL     1       5.859   5.240  -3.323  1.00  0.00     0.004 C 
ENDBRANCH  12  13
ENDBRANCH  11  12
ENDBRANCH  10  11
ENDBRANCH   9  10
ENDBRANCH   1   9
TORSDOF 10
ENDMDL
