MODEL 1
REMARK VINA RESULT:    -2.496      0.000      0.000
REMARK INTER + INTRA:          -3.457
REMARK INTER:                  -3.080
REMARK INTRA:                  -0.377
REMARK UNBOUND:                -0.377
REMARK SMILES Oc1cc(O)c2cc(O)c(-c3cc(O)c(O)c(O)c3)[o+]c2c1
REMARK SMILES IDX 10 1 20 2 21 3 22 4 2 5 3 6 4 7 6 8 7 9 8 10 11 11 12 12
REMARK SMILES IDX 13 13 19 14 15 15 17 16 14 17 16 19 18 21 9 23 1 25 5 27
REMARK H PARENT 14 18 16 20 18 22 9 24 1 26 5 28
REMARK Flexibility Score: inf
ROOT
ATOM      1  C   UNL     1      23.899  24.978  14.327  1.00  0.00     0.402 A 
ATOM      2  O   UNL     1      24.296  25.401  15.524  1.00  0.00    -0.202 OA
ATOM      3  C   UNL     1      24.412  26.686  15.842  1.00  0.00     0.368 A 
ATOM      4  C   UNL     1      24.834  27.033  17.129  1.00  0.00     0.162 A 
ATOM      5  C   UNL     1      24.962  28.377  17.490  1.00  0.00     0.128 A 
ATOM      6  C   UNL     1      24.666  29.378  16.563  1.00  0.00     0.093 A 
ATOM      7  C   UNL     1      24.242  29.057  15.268  1.00  0.00     0.136 A 
ATOM      8  C   UNL     1      24.113  27.694  14.894  1.00  0.00     0.125 A 
ATOM      9  C   UNL     1      23.707  27.279  13.615  1.00  0.00     0.078 A 
ATOM     10  C   UNL     1      23.608  25.917  13.319  1.00  0.00     0.223 A 
ENDROOT
BRANCH   1  11
ATOM     11  C   UNL     1      23.799  23.518  14.097  1.00  0.00     0.091 A 
ATOM     12  C   UNL     1      22.562  22.880  14.257  1.00  0.00     0.068 A 
ATOM     13  C   UNL     1      22.433  21.507  14.030  1.00  0.00     0.162 A 
ATOM     14  C   UNL     1      24.903  22.767  13.667  1.00  0.00     0.068 A 
ATOM     15  C   UNL     1      23.545  20.749  13.619  1.00  0.00     0.200 A 
ATOM     16  C   UNL     1      24.792  21.392  13.429  1.00  0.00     0.162 A 
BRANCH  13  17
ATOM     17  O   UNL     1      21.184  20.912  14.218  1.00  0.00    -0.504 OA
ATOM     18  H   UNL     1      20.536  21.228  14.928  1.00  0.00     0.293 HD
ENDBRANCH  13  17
BRANCH  15  19
ATOM     19  O   UNL     1      23.375  19.378  13.412  1.00  0.00    -0.502 OA
ATOM     20  H   UNL     1      22.478  18.914  13.385  1.00  0.00     0.293 HD
ENDBRANCH  15  19
BRANCH  16  21
ATOM     21  O   UNL     1      25.934  20.713  13.002  1.00  0.00    -0.504 OA
ATOM     22  H   UNL     1      26.215  19.806  13.343  1.00  0.00     0.293 HD
ENDBRANCH  16  21
ENDBRANCH   1  11
BRANCH  10  23
ATOM     23  O   UNL     1      23.252  25.503  12.035  1.00  0.00    -0.500 OA
ATOM     24  H   UNL     1      23.447  24.565  11.704  1.00  0.00     0.294 HD
ENDBRANCH  10  23
BRANCH   5  25
ATOM     25  O   UNL     1      25.382  28.730  18.771  1.00  0.00    -0.507 OA
ATOM     26  H   UNL     1      26.173  29.347  18.918  1.00  0.00     0.293 HD
ENDBRANCH   5  25
BRANCH   7  27
ATOM     27  O   UNL     1      23.963  30.118  14.400  1.00  0.00    -0.507 OA
ATOM     28  H   UNL     1      23.099  30.640  14.398  1.00  0.00     0.293 HD
ENDBRANCH   7  27
TORSDOF 7
ENDMDL
MODEL 2
REMARK VINA RESULT:    -2.473      2.516      6.461
REMARK INTER + INTRA:          -3.428
REMARK INTER:                  -3.043
REMARK INTRA:                  -0.385
REMARK UNBOUND:                -0.377
REMARK SMILES Oc1cc(O)c2cc(O)c(-c3cc(O)c(O)c(O)c3)[o+]c2c1
REMARK SMILES IDX 10 1 20 2 21 3 22 4 2 5 3 6 4 7 6 8 7 9 8 10 11 11 12 12
REMARK SMILES IDX 13 13 19 14 15 15 17 16 14 17 16 19 18 21 9 23 1 25 5 27
REMARK H PARENT 14 18 16 20 18 22 9 24 1 26 5 28
REMARK Flexibility Score: inf
ROOT
ATOM      1  C   UNL     1      23.821  24.921  14.889  1.00  0.00     0.402 A 
ATOM      2  O   UNL     1      24.219  24.358  16.027  1.00  0.00    -0.202 OA
ATOM      3  C   UNL     1      24.765  23.148  16.090  1.00  0.00     0.368 A 
ATOM      4  C   UNL     1      25.155  22.643  17.334  1.00  0.00     0.162 A 
ATOM      5  C   UNL     1      25.734  21.374  17.428  1.00  0.00     0.128 A 
ATOM      6  C   UNL     1      25.925  20.609  16.276  1.00  0.00     0.093 A 
ATOM      7  C   UNL     1      25.544  21.092  15.019  1.00  0.00     0.136 A 
ATOM      8  C   UNL     1      24.952  22.379  14.917  1.00  0.00     0.125 A 
ATOM      9  C   UNL     1      24.528  22.939  13.701  1.00  0.00     0.078 A 
ATOM     10  C   UNL     1      23.949  24.211  13.680  1.00  0.00     0.223 A 
ENDROOT
BRANCH   1  11
ATOM     11  C   UNL     1      23.237  26.281  14.947  1.00  0.00     0.091 A 
ATOM     12  C   UNL     1      21.886  26.436  15.286  1.00  0.00     0.068 A 
ATOM     13  C   UNL     1      21.312  27.707  15.366  1.00  0.00     0.162 A 
ATOM     14  C   UNL     1      24.019  27.424  14.724  1.00  0.00     0.068 A 
ATOM     15  C   UNL     1      22.091  28.853  15.121  1.00  0.00     0.200 A 
ATOM     16  C   UNL     1      23.462  28.706  14.804  1.00  0.00     0.162 A 
BRANCH  13  17
ATOM     17  O   UNL     1      19.959  27.812  15.692  1.00  0.00    -0.504 OA
ATOM     18  H   UNL     1      19.232  27.825  14.987  1.00  0.00     0.293 HD
ENDBRANCH  13  17
BRANCH  15  19
ATOM     19  O   UNL     1      21.475  30.105  15.202  1.00  0.00    -0.502 OA
ATOM     20  H   UNL     1      21.964  30.985  15.125  1.00  0.00     0.293 HD
ENDBRANCH  15  19
BRANCH  16  21
ATOM     21  O   UNL     1      24.304  29.794  14.570  1.00  0.00    -0.504 OA
ATOM     22  H   UNL     1      24.172  30.463  13.825  1.00  0.00     0.293 HD
ENDBRANCH  16  21
ENDBRANCH   1  11
BRANCH  10  23
ATOM     23  O   UNL     1      23.481  24.748  12.480  1.00  0.00    -0.500 OA
ATOM     24  H   UNL     1      23.014  24.175  11.787  1.00  0.00     0.294 HD
ENDBRANCH  10  23
BRANCH   5  25
ATOM     25  O   UNL     1      26.125  20.863  18.664  1.00  0.00    -0.507 OA
ATOM     26  H   UNL     1      27.097  20.667  18.874  1.00  0.00     0.293 HD
ENDBRANCH   5  25
BRANCH   7  27
ATOM     27  O   UNL     1      25.772  20.266  13.914  1.00  0.00    -0.507 OA
ATOM     28  H   UNL     1      26.192  20.574  13.049  1.00  0.00     0.293 HD
ENDBRANCH   7  27
TORSDOF 7
ENDMDL
MODEL 3
REMARK VINA RESULT:    -2.443      0.963      2.043
REMARK INTER + INTRA:          -3.391
REMARK INTER:                  -3.007
REMARK INTRA:                  -0.384
REMARK UNBOUND:                -0.377
REMARK SMILES Oc1cc(O)c2cc(O)c(-c3cc(O)c(O)c(O)c3)[o+]c2c1
REMARK SMILES IDX 10 1 20 2 21 3 22 4 2 5 3 6 4 7 6 8 7 9 8 10 11 11 12 12
REMARK SMILES IDX 13 13 19 14 15 15 17 16 14 17 16 19 18 21 9 23 1 25 5 27
REMARK H PARENT 14 18 16 20 18 22 9 24 1 26 5 28
REMARK Flexibility Score: inf
ROOT
ATOM      1  C   UNL     1      23.858  25.052  14.953  1.00  0.00     0.402 A 
ATOM      2  O   UNL     1      24.105  25.687  16.096  1.00  0.00    -0.202 OA
ATOM      3  C   UNL     1      24.188  27.010  16.192  1.00  0.00     0.368 A 
ATOM      4  C   UNL     1      24.448  27.585  17.439  1.00  0.00     0.162 A 
ATOM      5  C   UNL     1      24.537  28.975  17.569  1.00  0.00     0.128 A 
ATOM      6  C   UNL     1      24.365  29.790  16.449  1.00  0.00     0.093 A 
ATOM      7  C   UNL     1      24.103  29.239  15.189  1.00  0.00     0.136 A 
ATOM      8  C   UNL     1      24.014  27.828  15.051  1.00  0.00     0.125 A 
ATOM      9  C   UNL     1      23.768  27.188  13.826  1.00  0.00     0.078 A 
ATOM     10  C   UNL     1      23.699  25.792  13.766  1.00  0.00     0.223 A 
ENDROOT
BRANCH   1  11
ATOM     11  C   UNL     1      23.779  23.573  14.975  1.00  0.00     0.091 A 
ATOM     12  C   UNL     1      24.950  22.819  14.821  1.00  0.00     0.068 A 
ATOM     13  C   UNL     1      24.908  21.422  14.856  1.00  0.00     0.162 A 
ATOM     14  C   UNL     1      22.565  22.908  15.204  1.00  0.00     0.068 A 
ATOM     15  C   UNL     1      23.688  20.755  15.064  1.00  0.00     0.200 A 
ATOM     16  C   UNL     1      22.505  21.510  15.247  1.00  0.00     0.162 A 
BRANCH  13  17
ATOM     17  O   UNL     1      26.098  20.713  14.682  1.00  0.00    -0.504 OA
ATOM     18  H   UNL     1      26.113  19.711  14.537  1.00  0.00     0.293 HD
ENDBRANCH  13  17
BRANCH  15  19
ATOM     19  O   UNL     1      23.689  19.357  15.082  1.00  0.00    -0.502 OA
ATOM     20  H   UNL     1      23.067  18.781  14.535  1.00  0.00     0.293 HD
ENDBRANCH  15  19
BRANCH  16  21
ATOM     21  O   UNL     1      21.261  20.922  15.480  1.00  0.00    -0.504 OA
ATOM     22  H   UNL     1      20.679  21.123  16.280  1.00  0.00     0.293 HD
ENDBRANCH  16  21
ENDBRANCH   1  11
BRANCH  10  23
ATOM     23  O   UNL     1      23.504  25.153  12.542  1.00  0.00    -0.500 OA
ATOM     24  H   UNL     1      24.193  25.201  11.800  1.00  0.00     0.294 HD
ENDBRANCH  10  23
BRANCH   5  25
ATOM     25  O   UNL     1      24.797  29.555  18.809  1.00  0.00    -0.507 OA
ATOM     26  H   UNL     1      24.182  29.410  19.601  1.00  0.00     0.293 HD
ENDBRANCH   5  25
BRANCH   7  27
ATOM     27  O   UNL     1      23.939  30.124  14.120  1.00  0.00    -0.507 OA
ATOM     28  H   UNL     1      24.334  29.987  13.201  1.00  0.00     0.293 HD
ENDBRANCH   7  27
TORSDOF 7
ENDMDL
MODEL 4
REMARK VINA RESULT:    -2.341      2.655      7.500
REMARK INTER + INTRA:          -3.266
REMARK INTER:                  -3.020
REMARK INTRA:                  -0.246
REMARK UNBOUND:                -0.377
REMARK SMILES Oc1cc(O)c2cc(O)c(-c3cc(O)c(O)c(O)c3)[o+]c2c1
REMARK SMILES IDX 10 1 20 2 21 3 22 4 2 5 3 6 4 7 6 8 7 9 8 10 11 11 12 12
REMARK SMILES IDX 13 13 19 14 15 15 17 16 14 17 16 19 18 21 9 23 1 25 5 27
REMARK H PARENT 14 18 16 20 18 22 9 24 1 26 5 28
REMARK Flexibility Score: inf
ROOT
ATOM      1  C   UNL     1      25.084  24.686  16.484  1.00  0.00     0.402 A 
ATOM      2  O   UNL     1      24.870  23.750  15.563  1.00  0.00    -0.202 OA
ATOM      3  C   UNL     1      25.051  22.453  15.786  1.00  0.00     0.368 A 
ATOM      4  C   UNL     1      24.796  21.544  14.754  1.00  0.00     0.162 A 
ATOM      5  C   UNL     1      24.975  20.173  14.963  1.00  0.00     0.128 A 
ATOM      6  C   UNL     1      25.410  19.710  16.206  1.00  0.00     0.093 A 
ATOM      7  C   UNL     1      25.671  20.598  17.255  1.00  0.00     0.136 A 
ATOM      8  C   UNL     1      25.494  21.992  17.048  1.00  0.00     0.125 A 
ATOM      9  C   UNL     1      25.744  22.956  18.038  1.00  0.00     0.078 A 
ATOM     10  C   UNL     1      25.551  24.313  17.759  1.00  0.00     0.223 A 
ENDROOT
BRANCH   1  11
ATOM     11  C   UNL     1      24.836  26.099  16.118  1.00  0.00     0.091 A 
ATOM     12  C   UNL     1      25.564  26.676  15.069  1.00  0.00     0.068 A 
ATOM     13  C   UNL     1      25.339  28.002  14.690  1.00  0.00     0.162 A 
ATOM     14  C   UNL     1      23.849  26.860  16.762  1.00  0.00     0.068 A 
ATOM     15  C   UNL     1      24.364  28.772  15.349  1.00  0.00     0.200 A 
ATOM     16  C   UNL     1      23.606  28.188  16.393  1.00  0.00     0.162 A 
BRANCH  13  17
ATOM     17  O   UNL     1      26.098  28.539  13.649  1.00  0.00    -0.504 OA
ATOM     18  H   UNL     1      26.259  28.040  12.783  1.00  0.00     0.293 HD
ENDBRANCH  13  17
BRANCH  15  19
ATOM     19  O   UNL     1      24.177  30.097  14.945  1.00  0.00    -0.502 OA
ATOM     20  H   UNL     1      24.853  30.834  15.086  1.00  0.00     0.293 HD
ENDBRANCH  15  19
BRANCH  16  21
ATOM     21  O   UNL     1      22.607  28.880  17.080  1.00  0.00    -0.504 OA
ATOM     22  H   UNL     1      21.728  29.160  16.671  1.00  0.00     0.293 HD
ENDBRANCH  16  21
ENDBRANCH   1  11
BRANCH  10  23
ATOM     23  O   UNL     1      25.846  25.275  18.725  1.00  0.00    -0.500 OA
ATOM     24  H   UNL     1      25.356  25.308  19.611  1.00  0.00     0.294 HD
ENDBRANCH  10  23
BRANCH   5  25
ATOM     25  O   UNL     1      24.724  19.262  13.939  1.00  0.00    -0.507 OA
ATOM     26  H   UNL     1      23.851  19.270  13.425  1.00  0.00     0.293 HD
ENDBRANCH   5  25
BRANCH   7  27
ATOM     27  O   UNL     1      26.099  20.054  18.470  1.00  0.00    -0.507 OA
ATOM     28  H   UNL     1      25.485  19.644  19.159  1.00  0.00     0.293 HD
ENDBRANCH   7  27
TORSDOF 7
ENDMDL
MODEL 5
REMARK VINA RESULT:    -2.308      1.497      7.243
REMARK INTER + INTRA:          -3.225
REMARK INTER:                  -2.860
REMARK INTRA:                  -0.364
REMARK UNBOUND:                -0.377
REMARK SMILES Oc1cc(O)c2cc(O)c(-c3cc(O)c(O)c(O)c3)[o+]c2c1
REMARK SMILES IDX 10 1 20 2 21 3 22 4 2 5 3 6 4 7 6 8 7 9 8 10 11 11 12 12
REMARK SMILES IDX 13 13 19 14 15 15 17 16 14 17 16 19 18 21 9 23 1 25 5 27
REMARK H PARENT 14 18 16 20 18 22 9 24 1 26 5 28
REMARK Flexibility Score: inf
ROOT
ATOM      1  C   UNL     1      23.350  24.483  14.160  1.00  0.00     0.402 A 
ATOM      2  O   UNL     1      24.263  23.714  13.573  1.00  0.00    -0.202 OA
ATOM      3  C   UNL     1      24.177  22.389  13.522  1.00  0.00     0.368 A 
ATOM      4  C   UNL     1      25.187  21.667  12.879  1.00  0.00     0.162 A 
ATOM      5  C   UNL     1      25.119  20.272  12.807  1.00  0.00     0.128 A 
ATOM      6  C   UNL     1      24.039  19.598  13.380  1.00  0.00     0.093 A 
ATOM      7  C   UNL     1      23.015  20.298  14.028  1.00  0.00     0.136 A 
ATOM      8  C   UNL     1      23.080  21.714  14.107  1.00  0.00     0.125 A 
ATOM      9  C   UNL     1      22.106  22.496  14.749  1.00  0.00     0.078 A 
ATOM     10  C   UNL     1      22.240  23.887  14.789  1.00  0.00     0.223 A 
ENDROOT
BRANCH   1  11
ATOM     11  C   UNL     1      23.552  25.950  14.143  1.00  0.00     0.091 A 
ATOM     12  C   UNL     1      24.171  26.572  15.236  1.00  0.00     0.068 A 
ATOM     13  C   UNL     1      24.391  27.952  15.240  1.00  0.00     0.162 A 
ATOM     14  C   UNL     1      23.190  26.726  13.032  1.00  0.00     0.068 A 
ATOM     15  C   UNL     1      24.008  28.734  14.135  1.00  0.00     0.200 A 
ATOM     16  C   UNL     1      23.407  28.109  13.016  1.00  0.00     0.162 A 
BRANCH  13  17
ATOM     17  O   UNL     1      24.997  28.530  16.357  1.00  0.00    -0.504 OA
ATOM     18  H   UNL     1      25.827  29.105  16.285  1.00  0.00     0.293 HD
ENDBRANCH  13  17
BRANCH  15  19
ATOM     19  O   UNL     1      24.238  30.112  14.184  1.00  0.00    -0.502 OA
ATOM     20  H   UNL     1      23.641  30.803  13.754  1.00  0.00     0.293 HD
ENDBRANCH  15  19
BRANCH  16  21
ATOM     21  O   UNL     1      23.020  28.813  11.875  1.00  0.00    -0.504 OA
ATOM     22  H   UNL     1      22.576  29.719  11.892  1.00  0.00     0.293 HD
ENDBRANCH  16  21
ENDBRANCH   1  11
BRANCH  10  23
ATOM     23  O   UNL     1      21.300  24.662  15.469  1.00  0.00    -0.500 OA
ATOM     24  H   UNL     1      20.683  25.301  14.981  1.00  0.00     0.294 HD
ENDBRANCH  10  23
BRANCH   5  25
ATOM     25  O   UNL     1      26.122  19.546  12.168  1.00  0.00    -0.507 OA
ATOM     26  H   UNL     1      26.298  18.573  12.393  1.00  0.00     0.293 HD
ENDBRANCH   5  25
BRANCH   7  27
ATOM     27  O   UNL     1      21.967  19.549  14.572  1.00  0.00    -0.507 OA
ATOM     28  H   UNL     1      22.085  18.674  15.061  1.00  0.00     0.293 HD
ENDBRANCH   7  27
TORSDOF 7
ENDMDL
MODEL 6
REMARK VINA RESULT:    -2.307      1.473      2.681
REMARK INTER + INTRA:          -3.224
REMARK INTER:                  -2.849
REMARK INTRA:                  -0.374
REMARK UNBOUND:                -0.377
REMARK SMILES Oc1cc(O)c2cc(O)c(-c3cc(O)c(O)c(O)c3)[o+]c2c1
REMARK SMILES IDX 10 1 20 2 21 3 22 4 2 5 3 6 4 7 6 8 7 9 8 10 11 11 12 12
REMARK SMILES IDX 13 13 19 14 15 15 17 16 14 17 16 19 18 21 9 23 1 25 5 27
REMARK H PARENT 14 18 16 20 18 22 9 24 1 26 5 28
REMARK Flexibility Score: inf
ROOT
ATOM      1  C   UNL     1      23.704  24.848  14.760  1.00  0.00     0.402 A 
ATOM      2  O   UNL     1      23.974  25.727  13.799  1.00  0.00    -0.202 OA
ATOM      3  C   UNL     1      23.953  27.042  13.986  1.00  0.00     0.368 A 
ATOM      4  C   UNL     1      24.254  27.886  12.912  1.00  0.00     0.162 A 
ATOM      5  C   UNL     1      24.243  29.274  13.083  1.00  0.00     0.128 A 
ATOM      6  C   UNL     1      23.930  29.819  14.329  1.00  0.00     0.093 A 
ATOM      7  C   UNL     1      23.625  28.996  15.420  1.00  0.00     0.136 A 
ATOM      8  C   UNL     1      23.632  27.586  15.252  1.00  0.00     0.125 A 
ATOM      9  C   UNL     1      23.327  26.685  16.285  1.00  0.00     0.078 A 
ATOM     10  C   UNL     1      23.350  25.308  16.043  1.00  0.00     0.223 A 
ENDROOT
BRANCH   1  11
ATOM     11  C   UNL     1      23.770  23.405  14.431  1.00  0.00     0.091 A 
ATOM     12  C   UNL     1      22.707  22.807  13.742  1.00  0.00     0.068 A 
ATOM     13  C   UNL     1      22.750  21.453  13.402  1.00  0.00     0.162 A 
ATOM     14  C   UNL     1      24.900  22.634  14.745  1.00  0.00     0.068 A 
ATOM     15  C   UNL     1      23.873  20.673  13.735  1.00  0.00     0.200 A 
ATOM     16  C   UNL     1      24.962  21.277  14.407  1.00  0.00     0.162 A 
BRANCH  13  17
ATOM     17  O   UNL     1      21.660  20.896  12.729  1.00  0.00    -0.504 OA
ATOM     18  H   UNL     1      21.410  19.920  12.820  1.00  0.00     0.293 HD
ENDBRANCH  13  17
BRANCH  15  19
ATOM     19  O   UNL     1      23.871  19.320  13.384  1.00  0.00    -0.502 OA
ATOM     20  H   UNL     1      23.976  18.563  14.044  1.00  0.00     0.293 HD
ENDBRANCH  15  19
BRANCH  16  21
ATOM     21  O   UNL     1      26.119  20.576  14.752  1.00  0.00    -0.504 OA
ATOM     22  H   UNL     1      27.018  21.008  14.908  1.00  0.00     0.293 HD
ENDBRANCH  16  21
ENDBRANCH   1  11
BRANCH  10  23
ATOM     23  O   UNL     1      22.999  24.414  17.054  1.00  0.00    -0.500 OA
ATOM     24  H   UNL     1      22.056  24.049  17.139  1.00  0.00     0.294 HD
ENDBRANCH  10  23
BRANCH   5  25
ATOM     25  O   UNL     1      24.542  30.121  12.018  1.00  0.00    -0.507 OA
ATOM     26  H   UNL     1      25.275  30.818  12.084  1.00  0.00     0.293 HD
ENDBRANCH   5  25
BRANCH   7  27
ATOM     27  O   UNL     1      23.326  29.620  16.635  1.00  0.00    -0.507 OA
ATOM     28  H   UNL     1      23.205  29.134  17.511  1.00  0.00     0.293 HD
ENDBRANCH   7  27
TORSDOF 7
ENDMDL
MODEL 7
REMARK VINA RESULT:    -2.299     20.666     23.708
REMARK INTER + INTRA:          -3.213
REMARK INTER:                  -2.831
REMARK INTRA:                  -0.383
REMARK UNBOUND:                -0.377
REMARK SMILES Oc1cc(O)c2cc(O)c(-c3cc(O)c(O)c(O)c3)[o+]c2c1
REMARK SMILES IDX 10 1 20 2 21 3 22 4 2 5 3 6 4 7 6 8 7 9 8 10 11 11 12 12
REMARK SMILES IDX 13 13 19 14 15 15 17 16 14 17 16 19 18 21 9 23 1 25 5 27
REMARK H PARENT 14 18 16 20 18 22 9 24 1 26 5 28
REMARK Flexibility Score: inf
ROOT
ATOM      1  C   UNL     1       8.195  14.861  27.636  1.00  0.00     0.402 A 
ATOM      2  O   UNL     1       9.232  14.122  28.022  1.00  0.00    -0.202 OA
ATOM      3  C   UNL     1       9.219  12.794  28.029  1.00  0.00     0.368 A 
ATOM      4  C   UNL     1      10.362  12.106  28.449  1.00  0.00     0.162 A 
ATOM      5  C   UNL     1      10.376  10.707  28.463  1.00  0.00     0.128 A 
ATOM      6  C   UNL     1       9.245   9.996  28.057  1.00  0.00     0.093 A 
ATOM      7  C   UNL     1       8.090  10.661  27.632  1.00  0.00     0.136 A 
ATOM      8  C   UNL     1       8.068  12.081  27.618  1.00  0.00     0.125 A 
ATOM      9  C   UNL     1       6.950  12.832  27.220  1.00  0.00     0.078 A 
ATOM     10  C   UNL     1       7.002  14.229  27.237  1.00  0.00     0.223 A 
ENDROOT
BRANCH   1  11
ATOM     11  C   UNL     1       8.335  16.335  27.662  1.00  0.00     0.091 A 
ATOM     12  C   UNL     1       8.019  17.036  28.833  1.00  0.00     0.068 A 
ATOM     13  C   UNL     1       8.158  18.425  28.893  1.00  0.00     0.162 A 
ATOM     14  C   UNL     1       8.831  17.043  26.557  1.00  0.00     0.068 A 
ATOM     15  C   UNL     1       8.635  19.138  27.778  1.00  0.00     0.200 A 
ATOM     16  C   UNL     1       8.982  18.434  26.600  1.00  0.00     0.162 A 
BRANCH  13  17
ATOM     17  O   UNL     1       7.816  19.082  30.076  1.00  0.00    -0.504 OA
ATOM     18  H   UNL     1       8.213  19.978  30.331  1.00  0.00     0.293 HD
ENDBRANCH  13  17
BRANCH  15  19
ATOM     19  O   UNL     1       8.751  20.527  27.877  1.00  0.00    -0.502 OA
ATOM     20  H   UNL     1       9.349  21.091  27.291  1.00  0.00     0.293 HD
ENDBRANCH  15  19
BRANCH  16  21
ATOM     21  O   UNL     1       9.482  19.067  25.461  1.00  0.00    -0.504 OA
ATOM     22  H   UNL     1       9.706  18.591  24.600  1.00  0.00     0.293 HD
ENDBRANCH  16  21
ENDBRANCH   1  11
BRANCH  10  23
ATOM     23  O   UNL     1       5.876  14.975  26.889  1.00  0.00    -0.500 OA
ATOM     24  H   UNL     1       5.041  14.538  26.517  1.00  0.00     0.294 HD
ENDBRANCH  10  23
BRANCH   5  25
ATOM     25  O   UNL     1      11.510  10.015  28.881  1.00  0.00    -0.507 OA
ATOM     26  H   UNL     1      11.804   9.156  28.429  1.00  0.00     0.293 HD
ENDBRANCH   5  25
BRANCH   7  27
ATOM     27  O   UNL     1       7.002   9.876  27.237  1.00  0.00    -0.507 OA
ATOM     28  H   UNL     1       6.634   9.102  27.771  1.00  0.00     0.293 HD
ENDBRANCH   7  27
TORSDOF 7
ENDMDL
MODEL 8
REMARK VINA RESULT:    -2.247     21.105     23.963
REMARK INTER + INTRA:          -3.149
REMARK INTER:                  -2.864
REMARK INTRA:                  -0.285
REMARK UNBOUND:                -0.377
REMARK SMILES Oc1cc(O)c2cc(O)c(-c3cc(O)c(O)c(O)c3)[o+]c2c1
REMARK SMILES IDX 10 1 20 2 21 3 22 4 2 5 3 6 4 7 6 8 7 9 8 10 11 11 12 12
REMARK SMILES IDX 13 13 19 14 15 15 17 16 14 17 16 19 18 21 9 23 1 25 5 27
REMARK H PARENT 14 18 16 20 18 22 9 24 1 26 5 28
REMARK Flexibility Score: inf
ROOT
ATOM      1  C   UNL     1       7.050  15.816  26.779  1.00  0.00     0.402 A 
ATOM      2  O   UNL     1       7.201  14.644  27.392  1.00  0.00    -0.202 OA
ATOM      3  C   UNL     1       7.000  13.477  26.790  1.00  0.00     0.368 A 
ATOM      4  C   UNL     1       7.187  12.297  27.518  1.00  0.00     0.162 A 
ATOM      5  C   UNL     1       6.986  11.055  26.909  1.00  0.00     0.128 A 
ATOM      6  C   UNL     1       6.598  10.991  25.569  1.00  0.00     0.093 A 
ATOM      7  C   UNL     1       6.405  12.157  24.819  1.00  0.00     0.136 A 
ATOM      8  C   UNL     1       6.605  13.422  25.433  1.00  0.00     0.125 A 
ATOM      9  C   UNL     1       6.422  14.642  24.763  1.00  0.00     0.078 A 
ATOM     10  C   UNL     1       6.633  15.850  25.435  1.00  0.00     0.223 A 
ENDROOT
BRANCH   1  11
ATOM     11  C   UNL     1       7.313  17.051  27.554  1.00  0.00     0.091 A 
ATOM     12  C   UNL     1       6.497  17.364  28.648  1.00  0.00     0.068 A 
ATOM     13  C   UNL     1       6.732  18.513  29.408  1.00  0.00     0.162 A 
ATOM     14  C   UNL     1       8.399  17.887  27.251  1.00  0.00     0.068 A 
ATOM     15  C   UNL     1       7.807  19.364  29.092  1.00  0.00     0.200 A 
ATOM     16  C   UNL     1       8.653  19.039  28.004  1.00  0.00     0.162 A 
BRANCH  13  17
ATOM     17  O   UNL     1       5.882  18.793  30.479  1.00  0.00    -0.504 OA
ATOM     18  H   UNL     1       5.131  18.171  30.751  1.00  0.00     0.293 HD
ENDBRANCH  13  17
BRANCH  15  19
ATOM     19  O   UNL     1       8.001  20.507  29.872  1.00  0.00    -0.502 OA
ATOM     20  H   UNL     1       7.480  20.719  30.710  1.00  0.00     0.293 HD
ENDBRANCH  15  19
BRANCH  16  21
ATOM     21  O   UNL     1       9.752  19.821  27.643  1.00  0.00    -0.504 OA
ATOM     22  H   UNL     1      10.205  20.480  28.258  1.00  0.00     0.293 HD
ENDBRANCH  16  21
ENDBRANCH   1  11
BRANCH  10  23
ATOM     23  O   UNL     1       6.404  17.062  24.785  1.00  0.00    -0.500 OA
ATOM     24  H   UNL     1       6.797  17.260  23.872  1.00  0.00     0.294 HD
ENDBRANCH  10  23
BRANCH   5  25
ATOM     25  O   UNL     1       7.170   9.875  27.628  1.00  0.00    -0.507 OA
ATOM     26  H   UNL     1       8.095   9.501  27.804  1.00  0.00     0.293 HD
ENDBRANCH   5  25
BRANCH   7  27
ATOM     27  O   UNL     1       6.020  12.008  23.483  1.00  0.00    -0.507 OA
ATOM     28  H   UNL     1       5.340  11.337  23.158  1.00  0.00     0.293 HD
ENDBRANCH   7  27
TORSDOF 7
ENDMDL
MODEL 9
REMARK VINA RESULT:    -2.238     20.276     23.671
REMARK INTER + INTRA:          -3.138
REMARK INTER:                  -2.754
REMARK INTRA:                  -0.384
REMARK UNBOUND:                -0.377
REMARK SMILES Oc1cc(O)c2cc(O)c(-c3cc(O)c(O)c(O)c3)[o+]c2c1
REMARK SMILES IDX 10 1 20 2 21 3 22 4 2 5 3 6 4 7 6 8 7 9 8 10 11 11 12 12
REMARK SMILES IDX 13 13 19 14 15 15 17 16 14 17 16 19 18 21 9 23 1 25 5 27
REMARK H PARENT 14 18 16 20 18 22 9 24 1 26 5 28
REMARK Flexibility Score: inf
ROOT
ATOM      1  C   UNL     1       7.619  14.894  26.415  1.00  0.00     0.402 A 
ATOM      2  O   UNL     1       7.202  14.256  25.324  1.00  0.00    -0.202 OA
ATOM      3  C   UNL     1       6.990  12.945  25.282  1.00  0.00     0.368 A 
ATOM      4  C   UNL     1       6.549  12.367  24.088  1.00  0.00     0.162 A 
ATOM      5  C   UNL     1       6.315  10.990  24.017  1.00  0.00     0.128 A 
ATOM      6  C   UNL     1       6.523  10.190  25.143  1.00  0.00     0.093 A 
ATOM      7  C   UNL     1       6.964  10.745  26.349  1.00  0.00     0.136 A 
ATOM      8  C   UNL     1       7.205  12.142  26.427  1.00  0.00     0.125 A 
ATOM      9  C   UNL     1       7.661  12.783  27.590  1.00  0.00     0.078 A 
ATOM     10  C   UNL     1       7.882  14.163  27.590  1.00  0.00     0.223 A 
ENDROOT
BRANCH   1  11
ATOM     11  C   UNL     1       7.808  16.361  26.341  1.00  0.00     0.091 A 
ATOM     12  C   UNL     1       9.001  16.875  25.816  1.00  0.00     0.068 A 
ATOM     13  C   UNL     1       9.201  18.254  25.716  1.00  0.00     0.162 A 
ATOM     14  C   UNL     1       6.797  17.251  26.733  1.00  0.00     0.068 A 
ATOM     15  C   UNL     1       8.196  19.147  26.129  1.00  0.00     0.200 A 
ATOM     16  C   UNL     1       6.977  18.635  26.636  1.00  0.00     0.162 A 
BRANCH  13  17
ATOM     17  O   UNL     1      10.412  18.720  25.201  1.00  0.00    -0.504 OA
ATOM     18  H   UNL     1      11.208  18.926  25.792  1.00  0.00     0.293 HD
ENDBRANCH  13  17
BRANCH  15  19
ATOM     19  O   UNL     1       8.440  20.519  26.022  1.00  0.00    -0.502 OA
ATOM     20  H   UNL     1       7.765  21.236  26.244  1.00  0.00     0.293 HD
ENDBRANCH  15  19
BRANCH  16  21
ATOM     21  O   UNL     1       5.925  19.456  27.045  1.00  0.00    -0.504 OA
ATOM     22  H   UNL     1       5.534  20.199  26.484  1.00  0.00     0.293 HD
ENDBRANCH  16  21
ENDBRANCH   1  11
BRANCH  10  23
ATOM     23  O   UNL     1       8.381  14.793  28.730  1.00  0.00    -0.500 OA
ATOM     24  H   UNL     1       9.081  15.525  28.671  1.00  0.00     0.294 HD
ENDBRANCH  10  23
BRANCH   5  25
ATOM     25  O   UNL     1       5.876  10.406  22.831  1.00  0.00    -0.507 OA
ATOM     26  H   UNL     1       6.451  10.404  21.996  1.00  0.00     0.293 HD
ENDBRANCH   5  25
BRANCH   7  27
ATOM     27  O   UNL     1       7.144   9.877  27.430  1.00  0.00    -0.507 OA
ATOM     28  H   UNL     1       6.417   9.298  27.824  1.00  0.00     0.293 HD
ENDBRANCH   7  27
TORSDOF 7
ENDMDL
