MODEL 1
REMARK VINA RESULT:    -5.993      0.000      0.000
REMARK INTER + INTRA:         -16.505
REMARK INTER:                 -13.702
REMARK INTRA:                  -2.804
REMARK UNBOUND:                -2.804
REMARK SMILES CCCCCCCCCCCCCCCCCCCCCCCC(=O)[O-]
REMARK SMILES IDX 13 1 14 2 15 3 16 4 17 5 18 6 19 7 20 8 21 9 22 10 23 11
REMARK SMILES IDX 24 12 25 13 26 14 12 15 11 16 10 17 9 18 8 19 7 20 6 21 5 22
REMARK SMILES IDX 4 23 3 24 2 25 1 26
REMARK H PARENT
REMARK Flexibility Score: inf
ROOT
ATOM      1  C   UNL     1     -27.694 -32.828  22.418  1.00  0.00     0.000 C 
ENDROOT
BRANCH   1   2
ATOM      2  C   UNL     1     -29.069 -32.327  21.950  1.00  0.00     0.000 C 
BRANCH   2   3
ATOM      3  C   UNL     1     -29.356 -30.884  22.395  1.00  0.00     0.000 C 
BRANCH   3   4
ATOM      4  C   UNL     1     -30.743 -30.728  23.043  1.00  0.00     0.000 C 
BRANCH   4   5
ATOM      5  C   UNL     1     -30.750 -29.693  24.179  1.00  0.00     0.000 C 
BRANCH   5   6
ATOM      6  C   UNL     1     -30.117 -30.231  25.474  1.00  0.00     0.000 C 
BRANCH   6   7
ATOM      7  C   UNL     1     -28.881 -29.411  25.901  1.00  0.00     0.000 C 
BRANCH   7   8
ATOM      8  C   UNL     1     -28.376 -28.449  24.811  1.00  0.00     0.000 C 
BRANCH   8   9
ATOM      9  C   UNL     1     -26.853 -28.523  24.611  1.00  0.00     0.000 C 
BRANCH   9  10
ATOM     10  C   UNL     1     -26.458 -28.835  23.153  1.00  0.00     0.006 C 
BRANCH  10  11
ATOM     11  C   UNL     1     -25.193 -28.099  22.681  1.00  0.00     0.053 C 
BRANCH  11  12
ATOM     12  C   UNL     1     -24.747 -28.542  21.323  1.00  0.00     0.041 C 
ATOM     13  O   UNL     1     -25.529 -28.457  20.339  1.00  0.00    -0.550 OA
ATOM     14  O   UNL     1     -23.468 -29.053  21.143  1.00  0.00    -0.550 OA
ENDBRANCH  11  12
ENDBRANCH  10  11
ENDBRANCH   9  10
ENDBRANCH   8   9
ENDBRANCH   7   8
ENDBRANCH   6   7
ENDBRANCH   5   6
ENDBRANCH   4   5
ENDBRANCH   3   4
ENDBRANCH   2   3
ENDBRANCH   1   2
BRANCH   1  15
ATOM     15  C   UNL     1     -27.824 -33.715  23.662  1.00  0.00     0.000 C 
BRANCH  15  16
ATOM     16  C   UNL     1     -27.619 -32.894  24.944  1.00  0.00     0.000 C 
BRANCH  16  17
ATOM     17  C   UNL     1     -26.391 -31.963  24.866  1.00  0.00     0.000 C 
BRANCH  17  18
ATOM     18  C   UNL     1     -25.081 -32.614  25.349  1.00  0.00    -0.000 C 
BRANCH  18  19
ATOM     19  C   UNL     1     -23.814 -31.763  25.150  1.00  0.00    -0.000 C 
BRANCH  19  20
ATOM     20  C   UNL     1     -23.440 -31.485  23.682  1.00  0.00    -0.000 C 
BRANCH  20  21
ATOM     21  C   UNL     1     -22.043 -32.003  23.313  1.00  0.00    -0.000 C 
BRANCH  21  22
ATOM     22  C   UNL     1     -20.951 -31.046  23.812  1.00  0.00    -0.000 C 
BRANCH  22  23
ATOM     23  C   UNL     1     -19.536 -31.480  23.389  1.00  0.00    -0.000 C 
BRANCH  23  24
ATOM     24  C   UNL     1     -18.410 -30.500  23.776  1.00  0.00    -0.000 C 
BRANCH  24  25
ATOM     25  C   UNL     1     -16.990 -31.087  23.718  1.00  0.00    -0.003 C 
ATOM     26  C   UNL     1     -16.169 -30.545  22.548  1.00  0.00     0.004 C 
ENDBRANCH  24  25
ENDBRANCH  23  24
ENDBRANCH  22  23
ENDBRANCH  21  22
ENDBRANCH  20  21
ENDBRANCH  19  20
ENDBRANCH  18  19
ENDBRANCH  17  18
ENDBRANCH  16  17
ENDBRANCH  15  16
ENDBRANCH   1  15
TORSDOF 22
ENDMDL
MODEL 2
REMARK VINA RESULT:    -5.919      2.277      4.531
REMARK INTER + INTRA:         -16.336
REMARK INTER:                 -13.273
REMARK INTRA:                  -3.063
REMARK UNBOUND:                -2.804
REMARK SMILES CCCCCCCCCCCCCCCCCCCCCCCC(=O)[O-]
REMARK SMILES IDX 13 1 14 2 15 3 16 4 17 5 18 6 19 7 20 8 21 9 22 10 23 11
REMARK SMILES IDX 24 12 25 13 26 14 12 15 11 16 10 17 9 18 8 19 7 20 6 21 5 22
REMARK SMILES IDX 4 23 3 24 2 25 1 26
REMARK H PARENT
REMARK Flexibility Score: inf
ROOT
ATOM      1  C   UNL     1     -24.769 -28.217  23.554  1.00  0.00     0.000 C 
ENDROOT
BRANCH   1   2
ATOM      2  C   UNL     1     -26.032 -27.680  24.244  1.00  0.00     0.000 C 
BRANCH   2   3
ATOM      3  C   UNL     1     -26.842 -28.786  24.940  1.00  0.00     0.000 C 
BRANCH   3   4
ATOM      4  C   UNL     1     -25.951 -29.904  25.511  1.00  0.00     0.000 C 
BRANCH   4   5
ATOM      5  C   UNL     1     -26.755 -30.968  26.273  1.00  0.00     0.000 C 
BRANCH   5   6
ATOM      6  C   UNL     1     -26.303 -32.401  25.941  1.00  0.00     0.000 C 
BRANCH   6   7
ATOM      7  C   UNL     1     -27.315 -33.134  25.033  1.00  0.00     0.000 C 
BRANCH   7   8
ATOM      8  C   UNL     1     -27.102 -32.863  23.533  1.00  0.00     0.000 C 
BRANCH   8   9
ATOM      9  C   UNL     1     -28.296 -33.308  22.674  1.00  0.00     0.000 C 
BRANCH   9  10
ATOM     10  C   UNL     1     -29.139 -32.120  22.166  1.00  0.00     0.006 C 
BRANCH  10  11
ATOM     11  C   UNL     1     -28.930 -30.822  22.966  1.00  0.00     0.053 C 
BRANCH  11  12
ATOM     12  C   UNL     1     -30.100 -30.495  23.840  1.00  0.00     0.041 C 
ATOM     13  O   UNL     1     -29.966 -30.458  25.092  1.00  0.00    -0.550 OA
ATOM     14  O   UNL     1     -31.341 -30.235  23.273  1.00  0.00    -0.550 OA
ENDBRANCH  11  12
ENDBRANCH  10  11
ENDBRANCH   9  10
ENDBRANCH   8   9
ENDBRANCH   7   8
ENDBRANCH   6   7
ENDBRANCH   5   6
ENDBRANCH   4   5
ENDBRANCH   3   4
ENDBRANCH   2   3
ENDBRANCH   1   2
BRANCH   1  15
ATOM     15  C   UNL     1     -24.899 -28.139  22.028  1.00  0.00     0.000 C 
BRANCH  15  16
ATOM     16  C   UNL     1     -25.565 -29.405  21.468  1.00  0.00     0.000 C 
BRANCH  16  17
ATOM     17  C   UNL     1     -25.016 -30.699  22.106  1.00  0.00     0.000 C 
BRANCH  17  18
ATOM     18  C   UNL     1     -23.548 -30.998  21.750  1.00  0.00    -0.000 C 
BRANCH  18  19
ATOM     19  C   UNL     1     -22.786 -31.856  22.776  1.00  0.00    -0.000 C 
BRANCH  19  20
ATOM     20  C   UNL     1     -22.863 -31.354  24.230  1.00  0.00    -0.000 C 
BRANCH  20  21
ATOM     21  C   UNL     1     -21.720 -30.395  24.592  1.00  0.00    -0.000 C 
BRANCH  21  22
ATOM     22  C   UNL     1     -20.416 -30.802  23.893  1.00  0.00    -0.000 C 
BRANCH  22  23
ATOM     23  C   UNL     1     -19.165 -30.208  24.565  1.00  0.00    -0.000 C 
BRANCH  23  24
ATOM     24  C   UNL     1     -18.037 -29.797  23.597  1.00  0.00    -0.000 C 
BRANCH  24  25
ATOM     25  C   UNL     1     -16.854 -30.778  23.524  1.00  0.00    -0.003 C 
ATOM     26  C   UNL     1     -16.323 -30.964  22.103  1.00  0.00     0.004 C 
ENDBRANCH  24  25
ENDBRANCH  23  24
ENDBRANCH  22  23
ENDBRANCH  21  22
ENDBRANCH  20  21
ENDBRANCH  19  20
ENDBRANCH  18  19
ENDBRANCH  17  18
ENDBRANCH  16  17
ENDBRANCH  15  16
ENDBRANCH   1  15
TORSDOF 22
ENDMDL
MODEL 3
REMARK VINA RESULT:    -5.887      2.635      8.577
REMARK INTER + INTRA:         -16.263
REMARK INTER:                 -13.367
REMARK INTRA:                  -2.896
REMARK UNBOUND:                -2.804
REMARK SMILES CCCCCCCCCCCCCCCCCCCCCCCC(=O)[O-]
REMARK SMILES IDX 13 1 14 2 15 3 16 4 17 5 18 6 19 7 20 8 21 9 22 10 23 11
REMARK SMILES IDX 24 12 25 13 26 14 12 15 11 16 10 17 9 18 8 19 7 20 6 21 5 22
REMARK SMILES IDX 4 23 3 24 2 25 1 26
REMARK H PARENT
REMARK Flexibility Score: inf
ROOT
ATOM      1  C   UNL     1     -23.280 -31.434  22.029  1.00  0.00     0.000 C 
ENDROOT
BRANCH   1   2
ATOM      2  C   UNL     1     -22.216 -31.740  23.094  1.00  0.00     0.000 C 
BRANCH   2   3
ATOM      3  C   UNL     1     -22.302 -30.797  24.305  1.00  0.00     0.000 C 
BRANCH   3   4
ATOM      4  C   UNL     1     -20.927 -30.260  24.739  1.00  0.00     0.000 C 
BRANCH   4   5
ATOM      5  C   UNL     1     -19.838 -30.507  23.684  1.00  0.00     0.000 C 
BRANCH   5   6
ATOM      6  C   UNL     1     -18.443 -30.058  24.157  1.00  0.00     0.000 C 
BRANCH   6   7
ATOM      7  C   UNL     1     -17.364 -31.127  23.881  1.00  0.00     0.000 C 
BRANCH   7   8
ATOM      8  C   UNL     1     -16.346 -30.708  22.806  1.00  0.00     0.000 C 
BRANCH   8   9
ATOM      9  C   UNL     1     -16.786 -29.461  22.023  1.00  0.00     0.000 C 
BRANCH   9  10
ATOM     10  C   UNL     1     -15.899 -29.186  20.792  1.00  0.00     0.006 C 
BRANCH  10  11
ATOM     11  C   UNL     1     -16.613 -29.414  19.448  1.00  0.00     0.053 C 
BRANCH  11  12
ATOM     12  C   UNL     1     -17.018 -28.132  18.791  1.00  0.00     0.041 C 
ATOM     13  O   UNL     1     -16.872 -27.036  19.394  1.00  0.00    -0.550 OA
ATOM     14  O   UNL     1     -17.562 -28.147  17.513  1.00  0.00    -0.550 OA
ENDBRANCH  11  12
ENDBRANCH  10  11
ENDBRANCH   9  10
ENDBRANCH   8   9
ENDBRANCH   7   8
ENDBRANCH   6   7
ENDBRANCH   5   6
ENDBRANCH   4   5
ENDBRANCH   3   4
ENDBRANCH   2   3
ENDBRANCH   1   2
BRANCH   1  15
ATOM     15  C   UNL     1     -24.688 -31.456  22.635  1.00  0.00     0.000 C 
BRANCH  15  16
ATOM     16  C   UNL     1     -25.615 -30.473  21.904  1.00  0.00     0.000 C 
BRANCH  16  17
ATOM     17  C   UNL     1     -26.337 -29.506  22.866  1.00  0.00     0.000 C 
BRANCH  17  18
ATOM     18  C   UNL     1     -25.421 -28.901  23.947  1.00  0.00    -0.000 C 
BRANCH  18  19
ATOM     19  C   UNL     1     -25.736 -29.335  25.390  1.00  0.00    -0.000 C 
BRANCH  19  20
ATOM     20  C   UNL     1     -26.766 -30.473  25.518  1.00  0.00    -0.000 C 
BRANCH  20  21
ATOM     21  C   UNL     1     -26.172 -31.752  26.124  1.00  0.00    -0.000 C 
BRANCH  21  22
ATOM     22  C   UNL     1     -26.565 -32.986  25.300  1.00  0.00    -0.000 C 
BRANCH  22  23
ATOM     23  C   UNL     1     -27.834 -32.765  24.458  1.00  0.00    -0.000 C 
BRANCH  23  24
ATOM     24  C   UNL     1     -27.830 -33.453  23.078  1.00  0.00    -0.000 C 
BRANCH  24  25
ATOM     25  C   UNL     1     -28.579 -32.691  21.971  1.00  0.00    -0.003 C 
ATOM     26  C   UNL     1     -29.355 -31.485  22.499  1.00  0.00     0.004 C 
ENDBRANCH  24  25
ENDBRANCH  23  24
ENDBRANCH  22  23
ENDBRANCH  21  22
ENDBRANCH  20  21
ENDBRANCH  19  20
ENDBRANCH  18  19
ENDBRANCH  17  18
ENDBRANCH  16  17
ENDBRANCH  15  16
ENDBRANCH   1  15
TORSDOF 22
ENDMDL
MODEL 4
REMARK VINA RESULT:    -5.866      2.615      5.354
REMARK INTER + INTRA:         -16.213
REMARK INTER:                 -11.673
REMARK INTRA:                  -4.540
REMARK UNBOUND:                -2.804
REMARK SMILES CCCCCCCCCCCCCCCCCCCCCCCC(=O)[O-]
REMARK SMILES IDX 13 1 14 2 15 3 16 4 17 5 18 6 19 7 20 8 21 9 22 10 23 11
REMARK SMILES IDX 24 12 25 13 26 14 12 15 11 16 10 17 9 18 8 19 7 20 6 21 5 22
REMARK SMILES IDX 4 23 3 24 2 25 1 26
REMARK H PARENT
REMARK Flexibility Score: inf
ROOT
ATOM      1  C   UNL     1     -24.430 -31.237  24.601  1.00  0.00     0.000 C 
ENDROOT
BRANCH   1   2
ATOM      2  C   UNL     1     -24.123 -32.366  25.596  1.00  0.00     0.000 C 
BRANCH   2   3
ATOM      3  C   UNL     1     -25.354 -33.236  25.901  1.00  0.00     0.000 C 
BRANCH   3   4
ATOM      4  C   UNL     1     -26.602 -32.401  26.240  1.00  0.00     0.000 C 
BRANCH   4   5
ATOM      5  C   UNL     1     -27.841 -32.843  25.446  1.00  0.00     0.000 C 
BRANCH   5   6
ATOM      6  C   UNL     1     -27.491 -33.343  24.033  1.00  0.00     0.000 C 
BRANCH   6   7
ATOM      7  C   UNL     1     -28.175 -32.502  22.933  1.00  0.00     0.000 C 
BRANCH   7   8
ATOM      8  C   UNL     1     -28.702 -31.146  23.435  1.00  0.00     0.000 C 
BRANCH   8   9
ATOM      9  C   UNL     1     -27.679 -30.011  23.265  1.00  0.00     0.000 C 
BRANCH   9  10
ATOM     10  C   UNL     1     -27.548 -29.134  24.527  1.00  0.00     0.006 C 
BRANCH  10  11
ATOM     11  C   UNL     1     -28.699 -29.314  25.532  1.00  0.00     0.053 C 
BRANCH  11  12
ATOM     12  C   UNL     1     -29.586 -28.111  25.607  1.00  0.00     0.041 C 
ATOM     13  O   UNL     1     -29.094 -26.974  25.838  1.00  0.00    -0.550 OA
ATOM     14  O   UNL     1     -30.957 -28.244  25.426  1.00  0.00    -0.550 OA
ENDBRANCH  11  12
ENDBRANCH  10  11
ENDBRANCH   9  10
ENDBRANCH   8   9
ENDBRANCH   7   8
ENDBRANCH   6   7
ENDBRANCH   5   6
ENDBRANCH   4   5
ENDBRANCH   3   4
ENDBRANCH   2   3
ENDBRANCH   1   2
BRANCH   1  15
ATOM     15  C   UNL     1     -24.376 -31.745  23.155  1.00  0.00     0.000 C 
BRANCH  15  16
ATOM     16  C   UNL     1     -23.063 -31.327  22.475  1.00  0.00     0.000 C 
BRANCH  16  17
ATOM     17  C   UNL     1     -21.859 -32.180  22.926  1.00  0.00     0.000 C 
BRANCH  17  18
ATOM     18  C   UNL     1     -20.749 -31.374  23.627  1.00  0.00    -0.000 C 
BRANCH  18  19
ATOM     19  C   UNL     1     -20.995 -29.857  23.711  1.00  0.00    -0.000 C 
BRANCH  19  20
ATOM     20  C   UNL     1     -21.222 -29.311  25.133  1.00  0.00    -0.000 C 
BRANCH  20  21
ATOM     21  C   UNL     1     -22.375 -28.299  25.208  1.00  0.00    -0.000 C 
BRANCH  21  22
ATOM     22  C   UNL     1     -22.740 -27.775  23.812  1.00  0.00    -0.000 C 
BRANCH  22  23
ATOM     23  C   UNL     1     -24.260 -27.711  23.575  1.00  0.00    -0.000 C 
BRANCH  23  24
ATOM     24  C   UNL     1     -24.703 -27.937  22.116  1.00  0.00    -0.000 C 
BRANCH  24  25
ATOM     25  C   UNL     1     -23.556 -28.040  21.097  1.00  0.00    -0.003 C 
ATOM     26  C   UNL     1     -23.441 -26.804  20.204  1.00  0.00     0.004 C 
ENDBRANCH  24  25
ENDBRANCH  23  24
ENDBRANCH  22  23
ENDBRANCH  21  22
ENDBRANCH  20  21
ENDBRANCH  19  20
ENDBRANCH  18  19
ENDBRANCH  17  18
ENDBRANCH  16  17
ENDBRANCH  15  16
ENDBRANCH   1  15
TORSDOF 22
ENDMDL
MODEL 5
REMARK VINA RESULT:    -5.789      2.111      4.821
REMARK INTER + INTRA:         -16.038
REMARK INTER:                 -13.231
REMARK INTRA:                  -2.808
REMARK UNBOUND:                -2.804
REMARK SMILES CCCCCCCCCCCCCCCCCCCCCCCC(=O)[O-]
REMARK SMILES IDX 13 1 14 2 15 3 16 4 17 5 18 6 19 7 20 8 21 9 22 10 23 11
REMARK SMILES IDX 24 12 25 13 26 14 12 15 11 16 10 17 9 18 8 19 7 20 6 21 5 22
REMARK SMILES IDX 4 23 3 24 2 25 1 26
REMARK H PARENT
REMARK Flexibility Score: inf
ROOT
ATOM      1  C   UNL     1     -25.343 -29.622  21.394  1.00  0.00     0.000 C 
ENDROOT
BRANCH   1   2
ATOM      2  C   UNL     1     -25.139 -31.094  21.785  1.00  0.00     0.000 C 
BRANCH   2   3
ATOM      3  C   UNL     1     -23.814 -31.330  22.528  1.00  0.00     0.000 C 
BRANCH   3   4
ATOM      4  C   UNL     1     -24.020 -31.923  23.934  1.00  0.00     0.000 C 
BRANCH   4   5
ATOM      5  C   UNL     1     -24.625 -30.911  24.919  1.00  0.00     0.000 C 
BRANCH   5   6
ATOM      6  C   UNL     1     -25.978 -31.374  25.487  1.00  0.00     0.000 C 
BRANCH   6   7
ATOM      7  C   UNL     1     -26.252 -32.865  25.193  1.00  0.00     0.000 C 
BRANCH   7   8
ATOM      8  C   UNL     1     -27.714 -33.158  24.813  1.00  0.00     0.000 C 
BRANCH   8   9
ATOM      9  C   UNL     1     -27.864 -33.660  23.368  1.00  0.00     0.000 C 
BRANCH   9  10
ATOM     10  C   UNL     1     -27.990 -32.511  22.348  1.00  0.00     0.006 C 
BRANCH  10  11
ATOM     11  C   UNL     1     -29.425 -31.981  22.182  1.00  0.00     0.053 C 
BRANCH  11  12
ATOM     12  C   UNL     1     -29.710 -30.814  23.074  1.00  0.00     0.041 C 
ATOM     13  O   UNL     1     -30.899 -30.498  23.345  1.00  0.00    -0.550 OA
ATOM     14  O   UNL     1     -28.662 -30.070  23.603  1.00  0.00    -0.550 OA
ENDBRANCH  11  12
ENDBRANCH  10  11
ENDBRANCH   9  10
ENDBRANCH   8   9
ENDBRANCH   7   8
ENDBRANCH   6   7
ENDBRANCH   5   6
ENDBRANCH   4   5
ENDBRANCH   3   4
ENDBRANCH   2   3
ENDBRANCH   1   2
BRANCH   1  15
ATOM     15  C   UNL     1     -24.092 -28.791  21.705  1.00  0.00     0.000 C 
BRANCH  15  16
ATOM     16  C   UNL     1     -24.363 -27.799  22.847  1.00  0.00     0.000 C 
BRANCH  16  17
ATOM     17  C   UNL     1     -23.068 -27.197  23.433  1.00  0.00     0.000 C 
BRANCH  17  18
ATOM     18  C   UNL     1     -22.428 -28.051  24.544  1.00  0.00    -0.000 C 
BRANCH  18  19
ATOM     19  C   UNL     1     -20.895 -28.173  24.474  1.00  0.00    -0.000 C 
BRANCH  19  20
ATOM     20  C   UNL     1     -20.315 -29.456  25.099  1.00  0.00    -0.000 C 
BRANCH  20  21
ATOM     21  C   UNL     1     -20.604 -30.711  24.262  1.00  0.00    -0.000 C 
BRANCH  21  22
ATOM     22  C   UNL     1     -19.341 -31.189  23.531  1.00  0.00    -0.000 C 
BRANCH  22  23
ATOM     23  C   UNL     1     -18.063 -30.487  24.023  1.00  0.00    -0.000 C 
BRANCH  23  24
ATOM     24  C   UNL     1     -16.743 -31.163  23.600  1.00  0.00    -0.000 C 
BRANCH  24  25
ATOM     25  C   UNL     1     -16.111 -30.605  22.314  1.00  0.00    -0.003 C 
ATOM     26  C   UNL     1     -16.544 -29.170  22.013  1.00  0.00     0.004 C 
ENDBRANCH  24  25
ENDBRANCH  23  24
ENDBRANCH  22  23
ENDBRANCH  21  22
ENDBRANCH  20  21
ENDBRANCH  19  20
ENDBRANCH  18  19
ENDBRANCH  17  18
ENDBRANCH  16  17
ENDBRANCH  15  16
ENDBRANCH   1  15
TORSDOF 22
ENDMDL
MODEL 6
REMARK VINA RESULT:    -5.785      2.652      4.357
REMARK INTER + INTRA:         -16.029
REMARK INTER:                 -12.124
REMARK INTRA:                  -3.905
REMARK UNBOUND:                -2.804
REMARK SMILES CCCCCCCCCCCCCCCCCCCCCCCC(=O)[O-]
REMARK SMILES IDX 13 1 14 2 15 3 16 4 17 5 18 6 19 7 20 8 21 9 22 10 23 11
REMARK SMILES IDX 24 12 25 13 26 14 12 15 11 16 10 17 9 18 8 19 7 20 6 21 5 22
REMARK SMILES IDX 4 23 3 24 2 25 1 26
REMARK H PARENT
REMARK Flexibility Score: inf
ROOT
ATOM      1  C   UNL     1     -25.679 -31.708  25.818  1.00  0.00     0.000 C 
ENDROOT
BRANCH   1   2
ATOM      2  C   UNL     1     -26.195 -32.942  25.060  1.00  0.00     0.000 C 
BRANCH   2   3
ATOM      3  C   UNL     1     -27.715 -32.903  24.834  1.00  0.00     0.000 C 
BRANCH   3   4
ATOM      4  C   UNL     1     -28.091 -32.506  23.395  1.00  0.00     0.000 C 
BRANCH   4   5
ATOM      5  C   UNL     1     -26.879 -32.492  22.451  1.00  0.00     0.000 C 
BRANCH   5   6
ATOM      6  C   UNL     1     -26.573 -31.087  21.902  1.00  0.00     0.000 C 
BRANCH   6   7
ATOM      7  C   UNL     1     -27.478 -30.007  22.534  1.00  0.00     0.000 C 
BRANCH   7   8
ATOM      8  C   UNL     1     -26.701 -28.794  23.074  1.00  0.00     0.000 C 
BRANCH   8   9
ATOM      9  C   UNL     1     -26.945 -28.551  24.572  1.00  0.00     0.000 C 
BRANCH   9  10
ATOM     10  C   UNL     1     -28.288 -29.133  25.059  1.00  0.00     0.006 C 
BRANCH  10  11
ATOM     11  C   UNL     1     -29.251 -28.079  25.632  1.00  0.00     0.053 C 
BRANCH  11  12
ATOM     12  C   UNL     1     -30.674 -28.541  25.624  1.00  0.00     0.041 C 
ATOM     13  O   UNL     1     -31.365 -28.488  26.676  1.00  0.00    -0.550 OA
ATOM     14  O   UNL     1     -31.239 -29.036  24.454  1.00  0.00    -0.550 OA
ENDBRANCH  11  12
ENDBRANCH  10  11
ENDBRANCH   9  10
ENDBRANCH   8   9
ENDBRANCH   7   8
ENDBRANCH   6   7
ENDBRANCH   5   6
ENDBRANCH   4   5
ENDBRANCH   3   4
ENDBRANCH   2   3
ENDBRANCH   1   2
BRANCH   1  15
ATOM     15  C   UNL     1     -24.527 -31.038  25.060  1.00  0.00     0.000 C 
BRANCH  15  16
ATOM     16  C   UNL     1     -23.468 -32.072  24.646  1.00  0.00     0.000 C 
BRANCH  16  17
ATOM     17  C   UNL     1     -22.813 -31.743  23.287  1.00  0.00     0.000 C 
BRANCH  17  18
ATOM     18  C   UNL     1     -23.334 -30.447  22.639  1.00  0.00    -0.000 C 
BRANCH  18  19
ATOM     19  C   UNL     1     -22.362 -29.255  22.685  1.00  0.00    -0.000 C 
BRANCH  19  20
ATOM     20  C   UNL     1     -22.688 -28.188  23.748  1.00  0.00    -0.000 C 
BRANCH  20  21
ATOM     21  C   UNL     1     -21.545 -27.973  24.750  1.00  0.00    -0.000 C 
BRANCH  21  22
ATOM     22  C   UNL     1     -21.148 -29.294  25.425  1.00  0.00    -0.000 C 
BRANCH  22  23
ATOM     23  C   UNL     1     -19.623 -29.494  25.500  1.00  0.00    -0.000 C 
BRANCH  23  24
ATOM     24  C   UNL     1     -18.907 -29.566  24.137  1.00  0.00    -0.000 C 
BRANCH  24  25
ATOM     25  C   UNL     1     -18.502 -30.981  23.690  1.00  0.00    -0.003 C 
ATOM     26  C   UNL     1     -16.991 -31.142  23.520  1.00  0.00     0.004 C 
ENDBRANCH  24  25
ENDBRANCH  23  24
ENDBRANCH  22  23
ENDBRANCH  21  22
ENDBRANCH  20  21
ENDBRANCH  19  20
ENDBRANCH  18  19
ENDBRANCH  17  18
ENDBRANCH  16  17
ENDBRANCH  15  16
ENDBRANCH   1  15
TORSDOF 22
ENDMDL
MODEL 7
REMARK VINA RESULT:    -5.783      2.637      8.103
REMARK INTER + INTRA:         -16.024
REMARK INTER:                 -13.248
REMARK INTRA:                  -2.776
REMARK UNBOUND:                -2.804
REMARK SMILES CCCCCCCCCCCCCCCCCCCCCCCC(=O)[O-]
REMARK SMILES IDX 13 1 14 2 15 3 16 4 17 5 18 6 19 7 20 8 21 9 22 10 23 11
REMARK SMILES IDX 24 12 25 13 26 14 12 15 11 16 10 17 9 18 8 19 7 20 6 21 5 22
REMARK SMILES IDX 4 23 3 24 2 25 1 26
REMARK H PARENT
REMARK Flexibility Score: inf
ROOT
ATOM      1  C   UNL     1     -24.334 -31.327  22.184  1.00  0.00     0.000 C 
ENDROOT
BRANCH   1   2
ATOM      2  C   UNL     1     -24.442 -31.181  23.710  1.00  0.00     0.000 C 
BRANCH   2   3
ATOM      3  C   UNL     1     -23.071 -31.209  24.405  1.00  0.00     0.000 C 
BRANCH   3   4
ATOM      4  C   UNL     1     -22.040 -32.067  23.650  1.00  0.00     0.000 C 
BRANCH   4   5
ATOM      5  C   UNL     1     -20.771 -31.282  23.287  1.00  0.00     0.000 C 
BRANCH   5   6
ATOM      6  C   UNL     1     -20.341 -30.307  24.398  1.00  0.00     0.000 C 
BRANCH   6   7
ATOM      7  C   UNL     1     -18.805 -30.206  24.520  1.00  0.00     0.000 C 
BRANCH   7   8
ATOM      8  C   UNL     1     -18.052 -31.249  23.675  1.00  0.00     0.000 C 
BRANCH   8   9
ATOM      9  C   UNL     1     -16.584 -30.867  23.429  1.00  0.00     0.000 C 
BRANCH   9  10
ATOM     10  C   UNL     1     -16.291 -30.551  21.948  1.00  0.00     0.006 C 
BRANCH  10  11
ATOM     11  C   UNL     1     -16.478 -29.068  21.581  1.00  0.00     0.053 C 
BRANCH  11  12
ATOM     12  C   UNL     1     -16.573 -28.854  20.103  1.00  0.00     0.041 C 
ATOM     13  O   UNL     1     -16.821 -27.708  19.642  1.00  0.00    -0.550 OA
ATOM     14  O   UNL     1     -16.391 -29.921  19.231  1.00  0.00    -0.550 OA
ENDBRANCH  11  12
ENDBRANCH  10  11
ENDBRANCH   9  10
ENDBRANCH   8   9
ENDBRANCH   7   8
ENDBRANCH   6   7
ENDBRANCH   5   6
ENDBRANCH   4   5
ENDBRANCH   3   4
ENDBRANCH   2   3
ENDBRANCH   1   2
BRANCH   1  15
ATOM     15  C   UNL     1     -25.671 -31.011  21.504  1.00  0.00     0.000 C 
BRANCH  15  16
ATOM     16  C   UNL     1     -26.787 -30.833  22.545  1.00  0.00     0.000 C 
BRANCH  16  17
ATOM     17  C   UNL     1     -28.094 -31.550  22.146  1.00  0.00     0.000 C 
BRANCH  17  18
ATOM     18  C   UNL     1     -28.102 -33.057  22.464  1.00  0.00    -0.000 C 
BRANCH  18  19
ATOM     19  C   UNL     1     -27.317 -33.465  23.724  1.00  0.00    -0.000 C 
BRANCH  19  20
ATOM     20  C   UNL     1     -27.974 -33.063  25.059  1.00  0.00    -0.000 C 
BRANCH  20  21
ATOM     21  C   UNL     1     -26.974 -32.473  26.063  1.00  0.00    -0.000 C 
BRANCH  21  22
ATOM     22  C   UNL     1     -27.202 -30.966  26.247  1.00  0.00    -0.000 C 
BRANCH  22  23
ATOM     23  C   UNL     1     -28.587 -30.506  25.757  1.00  0.00    -0.000 C 
BRANCH  23  24
ATOM     24  C   UNL     1     -28.631 -29.081  25.169  1.00  0.00    -0.000 C 
BRANCH  24  25
ATOM     25  C   UNL     1     -27.265 -28.383  25.057  1.00  0.00    -0.003 C 
ATOM     26  C   UNL     1     -27.372 -26.944  24.552  1.00  0.00     0.004 C 
ENDBRANCH  24  25
ENDBRANCH  23  24
ENDBRANCH  22  23
ENDBRANCH  21  22
ENDBRANCH  20  21
ENDBRANCH  19  20
ENDBRANCH  18  19
ENDBRANCH  17  18
ENDBRANCH  16  17
ENDBRANCH  15  16
ENDBRANCH   1  15
TORSDOF 22
ENDMDL
MODEL 8
REMARK VINA RESULT:    -5.758      2.643      9.166
REMARK INTER + INTRA:         -15.968
REMARK INTER:                 -13.313
REMARK INTRA:                  -2.655
REMARK UNBOUND:                -2.804
REMARK SMILES CCCCCCCCCCCCCCCCCCCCCCCC(=O)[O-]
REMARK SMILES IDX 13 1 14 2 15 3 16 4 17 5 18 6 19 7 20 8 21 9 22 10 23 11
REMARK SMILES IDX 24 12 25 13 26 14 12 15 11 16 10 17 9 18 8 19 7 20 6 21 5 22
REMARK SMILES IDX 4 23 3 24 2 25 1 26
REMARK H PARENT
REMARK Flexibility Score: inf
ROOT
ATOM      1  C   UNL     1     -20.407 -30.264  24.416  1.00  0.00     0.000 C 
ENDROOT
BRANCH   1   2
ATOM      2  C   UNL     1     -18.879 -30.108  24.409  1.00  0.00     0.000 C 
BRANCH   2   3
ATOM      3  C   UNL     1     -18.191 -31.059  23.416  1.00  0.00     0.000 C 
BRANCH   3   4
ATOM      4  C   UNL     1     -16.659 -31.067  23.565  1.00  0.00     0.000 C 
BRANCH   4   5
ATOM      5  C   UNL     1     -15.952 -30.301  22.437  1.00  0.00     0.000 C 
BRANCH   5   6
ATOM      6  C   UNL     1     -16.577 -30.571  21.057  1.00  0.00     0.000 C 
BRANCH   6   7
ATOM      7  C   UNL     1     -16.299 -29.426  20.059  1.00  0.00     0.000 C 
BRANCH   7   8
ATOM      8  C   UNL     1     -16.144 -28.050  20.731  1.00  0.00     0.000 C 
BRANCH   8   9
ATOM      9  C   UNL     1     -17.479 -27.300  20.863  1.00  0.00     0.000 C 
BRANCH   9  10
ATOM     10  C   UNL     1     -17.878 -27.047  22.332  1.00  0.00     0.006 C 
BRANCH  10  11
ATOM     11  C   UNL     1     -19.391 -26.869  22.543  1.00  0.00     0.053 C 
BRANCH  11  12
ATOM     12  C   UNL     1     -19.738 -25.515  23.078  1.00  0.00     0.041 C 
ATOM     13  O   UNL     1     -18.832 -24.749  23.502  1.00  0.00    -0.550 OA
ATOM     14  O   UNL     1     -21.064 -25.100  23.115  1.00  0.00    -0.550 OA
ENDBRANCH  11  12
ENDBRANCH  10  11
ENDBRANCH   9  10
ENDBRANCH   8   9
ENDBRANCH   7   8
ENDBRANCH   6   7
ENDBRANCH   5   6
ENDBRANCH   4   5
ENDBRANCH   3   4
ENDBRANCH   2   3
ENDBRANCH   1   2
BRANCH   1  15
ATOM     15  C   UNL     1     -20.848 -31.413  23.501  1.00  0.00     0.000 C 
BRANCH  15  16
ATOM     16  C   UNL     1     -22.357 -31.671  23.632  1.00  0.00     0.000 C 
BRANCH  16  17
ATOM     17  C   UNL     1     -23.062 -30.639  24.538  1.00  0.00     0.000 C 
BRANCH  17  18
ATOM     18  C   UNL     1     -24.408 -31.124  25.107  1.00  0.00    -0.000 C 
BRANCH  18  19
ATOM     19  C   UNL     1     -24.429 -32.587  25.585  1.00  0.00    -0.000 C 
BRANCH  19  20
ATOM     20  C   UNL     1     -25.798 -33.094  26.076  1.00  0.00    -0.000 C 
BRANCH  20  21
ATOM     21  C   UNL     1     -26.857 -31.984  26.142  1.00  0.00    -0.000 C 
BRANCH  21  22
ATOM     22  C   UNL     1     -27.969 -32.221  25.111  1.00  0.00    -0.000 C 
BRANCH  22  23
ATOM     23  C   UNL     1     -27.547 -33.183  23.986  1.00  0.00    -0.000 C 
BRANCH  23  24
ATOM     24  C   UNL     1     -26.894 -32.510  22.762  1.00  0.00    -0.000 C 
BRANCH  24  25
ATOM     25  C   UNL     1     -27.174 -31.004  22.623  1.00  0.00    -0.003 C 
ATOM     26  C   UNL     1     -26.185 -30.298  21.696  1.00  0.00     0.004 C 
ENDBRANCH  24  25
ENDBRANCH  23  24
ENDBRANCH  22  23
ENDBRANCH  21  22
ENDBRANCH  20  21
ENDBRANCH  19  20
ENDBRANCH  18  19
ENDBRANCH  17  18
ENDBRANCH  16  17
ENDBRANCH  15  16
ENDBRANCH   1  15
TORSDOF 22
ENDMDL
MODEL 9
REMARK VINA RESULT:    -5.740      2.082      5.532
REMARK INTER + INTRA:         -15.926
REMARK INTER:                 -12.801
REMARK INTRA:                  -3.126
REMARK UNBOUND:                -2.804
REMARK SMILES CCCCCCCCCCCCCCCCCCCCCCCC(=O)[O-]
REMARK SMILES IDX 13 1 14 2 15 3 16 4 17 5 18 6 19 7 20 8 21 9 22 10 23 11
REMARK SMILES IDX 24 12 25 13 26 14 12 15 11 16 10 17 9 18 8 19 7 20 6 21 5 22
REMARK SMILES IDX 4 23 3 24 2 25 1 26
REMARK H PARENT
REMARK Flexibility Score: inf
ROOT
ATOM      1  C   UNL     1     -22.517 -30.689  23.605  1.00  0.00     0.000 C 
ENDROOT
BRANCH   1   2
ATOM      2  C   UNL     1     -23.252 -31.927  24.143  1.00  0.00     0.000 C 
BRANCH   2   3
ATOM      3  C   UNL     1     -24.327 -31.570  25.183  1.00  0.00     0.000 C 
BRANCH   3   4
ATOM      4  C   UNL     1     -25.188 -32.781  25.586  1.00  0.00     0.000 C 
BRANCH   4   5
ATOM      5  C   UNL     1     -26.482 -32.372  26.305  1.00  0.00     0.000 C 
BRANCH   5   6
ATOM      6  C   UNL     1     -27.677 -32.242  25.345  1.00  0.00     0.000 C 
BRANCH   6   7
ATOM      7  C   UNL     1     -27.535 -33.163  24.114  1.00  0.00     0.000 C 
BRANCH   7   8
ATOM      8  C   UNL     1     -27.693 -32.424  22.773  1.00  0.00     0.000 C 
BRANCH   8   9
ATOM      9  C   UNL     1     -26.343 -32.054  22.137  1.00  0.00     0.000 C 
BRANCH   9  10
ATOM     10  C   UNL     1     -26.238 -30.553  21.796  1.00  0.00     0.006 C 
BRANCH  10  11
ATOM     11  C   UNL     1     -26.548 -29.623  22.982  1.00  0.00     0.053 C 
BRANCH  11  12
ATOM     12  C   UNL     1     -25.521 -28.548  23.149  1.00  0.00     0.041 C 
ATOM     13  O   UNL     1     -25.384 -27.969  24.259  1.00  0.00    -0.550 OA
ATOM     14  O   UNL     1     -24.716 -28.182  22.077  1.00  0.00    -0.550 OA
ENDBRANCH  11  12
ENDBRANCH  10  11
ENDBRANCH   9  10
ENDBRANCH   8   9
ENDBRANCH   7   8
ENDBRANCH   6   7
ENDBRANCH   5   6
ENDBRANCH   4   5
ENDBRANCH   3   4
ENDBRANCH   2   3
ENDBRANCH   1   2
BRANCH   1  15
ATOM     15  C   UNL     1     -20.998 -30.892  23.641  1.00  0.00     0.000 C 
BRANCH  15  16
ATOM     16  C   UNL     1     -20.339 -29.929  24.640  1.00  0.00     0.000 C 
BRANCH  16  17
ATOM     17  C   UNL     1     -18.809 -30.111  24.724  1.00  0.00     0.000 C 
BRANCH  17  18
ATOM     18  C   UNL     1     -18.218 -30.964  23.586  1.00  0.00    -0.000 C 
BRANCH  18  19
ATOM     19  C   UNL     1     -16.681 -31.061  23.571  1.00  0.00    -0.000 C 
BRANCH  19  20
ATOM     20  C   UNL     1     -16.004 -30.490  22.311  1.00  0.00    -0.000 C 
BRANCH  20  21
ATOM     21  C   UNL     1     -16.957 -29.650  21.449  1.00  0.00    -0.000 C 
BRANCH  21  22
ATOM     22  C   UNL     1     -16.683 -28.150  21.628  1.00  0.00    -0.000 C 
BRANCH  22  23
ATOM     23  C   UNL     1     -17.740 -27.449  22.500  1.00  0.00    -0.000 C 
BRANCH  23  24
ATOM     24  C   UNL     1     -18.858 -26.730  21.720  1.00  0.00    -0.000 C 
BRANCH  24  25
ATOM     25  C   UNL     1     -20.064 -26.291  22.569  1.00  0.00    -0.003 C 
ATOM     26  C   UNL     1     -21.295 -27.169  22.352  1.00  0.00     0.004 C 
ENDBRANCH  24  25
ENDBRANCH  23  24
ENDBRANCH  22  23
ENDBRANCH  21  22
ENDBRANCH  20  21
ENDBRANCH  19  20
ENDBRANCH  18  19
ENDBRANCH  17  18
ENDBRANCH  16  17
ENDBRANCH  15  16
ENDBRANCH   1  15
TORSDOF 22
ENDMDL
