MODEL 1
REMARK VINA RESULT:    -4.245      0.000      0.000
REMARK INTER + INTRA:         -11.083
REMARK INTER:                  -9.208
REMARK INTRA:                  -1.875
REMARK UNBOUND:                -1.875
REMARK SMILES CCCCCCCCCCCCCCCCCCCCCC(=O)[O-]
REMARK SMILES IDX 12 1 11 2 10 3 9 4 8 5 7 6 6 7 5 8 4 9 3 10 2 11 1 12 13 13
REMARK SMILES IDX 14 14 15 15 16 16 17 17 18 18 19 19 20 20 21 21 22 22 23 23
REMARK SMILES IDX 24 24
REMARK H PARENT
REMARK Flexibility Score: inf
ROOT
ATOM      1  C   UNL     1      -7.439  -9.492   0.367  1.00  0.00     0.000 C 
ENDROOT
BRANCH   1   2
ATOM      2  C   UNL     1      -7.075  -8.138  -0.266  1.00  0.00     0.000 C 
BRANCH   2   3
ATOM      3  C   UNL     1      -6.275  -7.237   0.690  1.00  0.00     0.000 C 
BRANCH   3   4
ATOM      4  C   UNL     1      -5.932  -5.876   0.064  1.00  0.00    -0.000 C 
BRANCH   4   5
ATOM      5  C   UNL     1      -5.939  -4.728   1.088  1.00  0.00    -0.000 C 
BRANCH   5   6
ATOM      6  C   UNL     1      -6.807  -5.014   2.332  1.00  0.00    -0.000 C 
BRANCH   6   7
ATOM      7  C   UNL     1      -8.042  -4.096   2.397  1.00  0.00    -0.000 C 
BRANCH   7   8
ATOM      8  C   UNL     1      -9.320  -4.843   2.812  1.00  0.00    -0.000 C 
BRANCH   8   9
ATOM      9  C   UNL     1      -9.125  -6.368   2.858  1.00  0.00    -0.000 C 
BRANCH   9  10
ATOM     10  C   UNL     1     -10.108  -7.126   1.947  1.00  0.00    -0.000 C 
BRANCH  10  11
ATOM     11  C   UNL     1     -10.156  -6.634   0.489  1.00  0.00    -0.003 C 
ATOM     12  C   UNL     1     -11.447  -5.888   0.151  1.00  0.00     0.004 C 
ENDBRANCH  10  11
ENDBRANCH   9  10
ENDBRANCH   8   9
ENDBRANCH   7   8
ENDBRANCH   6   7
ENDBRANCH   5   6
ENDBRANCH   4   5
ENDBRANCH   3   4
ENDBRANCH   2   3
ENDBRANCH   1   2
BRANCH   1  13
ATOM     13  C   UNL     1      -6.762 -10.680  -0.340  1.00  0.00     0.000 C 
BRANCH  13  14
ATOM     14  C   UNL     1      -6.361 -11.848   0.586  1.00  0.00     0.000 C 
BRANCH  14  15
ATOM     15  C   UNL     1      -5.073 -12.589   0.181  1.00  0.00     0.000 C 
BRANCH  15  16
ATOM     16  C   UNL     1      -5.117 -14.118   0.366  1.00  0.00     0.000 C 
BRANCH  16  17
ATOM     17  C   UNL     1      -6.542 -14.682   0.559  1.00  0.00     0.000 C 
BRANCH  17  18
ATOM     18  C   UNL     1      -6.540 -16.149   1.012  1.00  0.00     0.000 C 
BRANCH  18  19
ATOM     19  C   UNL     1      -5.196 -16.820   0.703  1.00  0.00     0.000 C 
BRANCH  19  20
ATOM     20  C   UNL     1      -5.280 -18.337   0.909  1.00  0.00     0.006 C 
BRANCH  20  21
ATOM     21  C   UNL     1      -5.814 -19.034  -0.345  1.00  0.00     0.053 C 
BRANCH  21  22
ATOM     22  C   UNL     1      -6.984 -19.902  -0.004  1.00  0.00     0.041 C 
ATOM     23  O   UNL     1      -7.694 -20.398  -0.918  1.00  0.00    -0.550 OA
ATOM     24  O   UNL     1      -7.259 -20.207   1.323  1.00  0.00    -0.550 OA
ENDBRANCH  21  22
ENDBRANCH  20  21
ENDBRANCH  19  20
ENDBRANCH  18  19
ENDBRANCH  17  18
ENDBRANCH  16  17
ENDBRANCH  15  16
ENDBRANCH  14  15
ENDBRANCH  13  14
ENDBRANCH   1  13
TORSDOF 20
ENDMDL
MODEL 2
REMARK VINA RESULT:    -4.208      4.263     10.578
REMARK INTER + INTRA:         -11.002
REMARK INTER:                  -9.222
REMARK INTRA:                  -1.780
REMARK UNBOUND:                -1.875
REMARK SMILES CCCCCCCCCCCCCCCCCCCCCC(=O)[O-]
REMARK SMILES IDX 12 1 11 2 10 3 9 4 8 5 7 6 6 7 5 8 4 9 3 10 2 11 1 12 13 13
REMARK SMILES IDX 14 14 15 15 16 16 17 17 18 18 19 19 20 20 21 21 22 22 23 23
REMARK SMILES IDX 24 24
REMARK H PARENT
REMARK Flexibility Score: inf
ROOT
ATOM      1  C   UNL     1      -7.887  -9.275  -0.014  1.00  0.00     0.000 C 
ENDROOT
BRANCH   1   2
ATOM      2  C   UNL     1      -6.657 -10.035  -0.539  1.00  0.00     0.000 C 
BRANCH   2   3
ATOM      3  C   UNL     1      -6.527 -11.440   0.072  1.00  0.00     0.000 C 
BRANCH   3   4
ATOM      4  C   UNL     1      -6.645 -11.426   1.605  1.00  0.00    -0.000 C 
BRANCH   4   5
ATOM      5  C   UNL     1      -6.446 -12.817   2.232  1.00  0.00    -0.000 C 
BRANCH   5   6
ATOM      6  C   UNL     1      -5.841 -13.853   1.261  1.00  0.00    -0.000 C 
BRANCH   6   7
ATOM      7  C   UNL     1      -6.769 -15.065   1.059  1.00  0.00    -0.000 C 
BRANCH   7   8
ATOM      8  C   UNL     1      -6.010 -16.336   0.643  1.00  0.00    -0.000 C 
BRANCH   8   9
ATOM      9  C   UNL     1      -6.788 -17.622   0.966  1.00  0.00    -0.000 C 
BRANCH   9  10
ATOM     10  C   UNL     1      -6.320 -18.831   0.136  1.00  0.00    -0.000 C 
BRANCH  10  11
ATOM     11  C   UNL     1      -7.275 -20.038   0.146  1.00  0.00    -0.003 C 
ATOM     12  C   UNL     1      -7.510 -20.628  -1.244  1.00  0.00     0.004 C 
ENDBRANCH  10  11
ENDBRANCH   9  10
ENDBRANCH   8   9
ENDBRANCH   7   8
ENDBRANCH   6   7
ENDBRANCH   5   6
ENDBRANCH   4   5
ENDBRANCH   3   4
ENDBRANCH   2   3
ENDBRANCH   1   2
BRANCH   1  13
ATOM     13  C   UNL     1      -7.730  -7.747  -0.113  1.00  0.00     0.000 C 
BRANCH  13  14
ATOM     14  C   UNL     1      -6.365  -7.199   0.353  1.00  0.00     0.000 C 
BRANCH  14  15
ATOM     15  C   UNL     1      -6.086  -7.339   1.861  1.00  0.00     0.000 C 
BRANCH  15  16
ATOM     16  C   UNL     1      -5.829  -6.012   2.600  1.00  0.00     0.000 C 
BRANCH  16  17
ATOM     17  C   UNL     1      -6.671  -4.830   2.071  1.00  0.00     0.000 C 
BRANCH  17  18
ATOM     18  C   UNL     1      -7.918  -4.564   2.928  1.00  0.00     0.000 C 
BRANCH  18  19
ATOM     19  C   UNL     1      -9.201  -4.808   2.125  1.00  0.00     0.000 C 
BRANCH  19  20
ATOM     20  C   UNL     1     -10.126  -5.792   2.852  1.00  0.00     0.006 C 
BRANCH  20  21
ATOM     21  C   UNL     1     -10.375  -7.042   2.003  1.00  0.00     0.053 C 
BRANCH  21  22
ATOM     22  C   UNL     1     -11.394  -6.760   0.943  1.00  0.00     0.041 C 
ATOM     23  O   UNL     1     -11.085  -6.857  -0.274  1.00  0.00    -0.550 OA
ATOM     24  O   UNL     1     -12.698  -6.441   1.300  1.00  0.00    -0.550 OA
ENDBRANCH  21  22
ENDBRANCH  20  21
ENDBRANCH  19  20
ENDBRANCH  18  19
ENDBRANCH  17  18
ENDBRANCH  16  17
ENDBRANCH  15  16
ENDBRANCH  14  15
ENDBRANCH  13  14
ENDBRANCH   1  13
TORSDOF 20
ENDMDL
MODEL 3
REMARK VINA RESULT:    -4.205      4.570     11.349
REMARK INTER + INTRA:         -10.996
REMARK INTER:                  -9.332
REMARK INTRA:                  -1.664
REMARK UNBOUND:                -1.875
REMARK SMILES CCCCCCCCCCCCCCCCCCCCCC(=O)[O-]
REMARK SMILES IDX 12 1 11 2 10 3 9 4 8 5 7 6 6 7 5 8 4 9 3 10 2 11 1 12 13 13
REMARK SMILES IDX 14 14 15 15 16 16 17 17 18 18 19 19 20 20 21 21 22 22 23 23
REMARK SMILES IDX 24 24
REMARK H PARENT
REMARK Flexibility Score: inf
ROOT
ATOM      1  C   UNL     1      -5.904 -12.446   0.777  1.00  0.00     0.000 C 
ENDROOT
BRANCH   1   2
ATOM      2  C   UNL     1      -6.311 -13.828   0.238  1.00  0.00     0.000 C 
BRANCH   2   3
ATOM      3  C   UNL     1      -6.770 -14.783   1.352  1.00  0.00     0.000 C 
BRANCH   3   4
ATOM      4  C   UNL     1      -6.779 -16.252   0.899  1.00  0.00    -0.000 C 
BRANCH   4   5
ATOM      5  C   UNL     1      -5.403 -16.927   1.036  1.00  0.00    -0.000 C 
BRANCH   5   6
ATOM      6  C   UNL     1      -5.254 -17.774   2.317  1.00  0.00    -0.000 C 
BRANCH   6   7
ATOM      7  C   UNL     1      -5.343 -19.284   2.026  1.00  0.00    -0.000 C 
BRANCH   7   8
ATOM      8  C   UNL     1      -6.789 -19.772   1.845  1.00  0.00    -0.000 C 
BRANCH   8   9
ATOM      9  C   UNL     1      -6.901 -20.928   0.836  1.00  0.00    -0.000 C 
BRANCH   9  10
ATOM     10  C   UNL     1      -7.570 -20.508  -0.486  1.00  0.00    -0.000 C 
BRANCH  10  11
ATOM     11  C   UNL     1      -6.706 -20.705  -1.744  1.00  0.00    -0.003 C 
ATOM     12  C   UNL     1      -5.369 -19.966  -1.675  1.00  0.00     0.004 C 
ENDBRANCH  10  11
ENDBRANCH   9  10
ENDBRANCH   8   9
ENDBRANCH   7   8
ENDBRANCH   6   7
ENDBRANCH   5   6
ENDBRANCH   4   5
ENDBRANCH   3   4
ENDBRANCH   2   3
ENDBRANCH   1   2
BRANCH   1  13
ATOM     13  C   UNL     1      -6.563 -12.116   2.129  1.00  0.00     0.000 C 
BRANCH  13  14
ATOM     14  C   UNL     1      -6.426 -10.647   2.581  1.00  0.00     0.000 C 
BRANCH  14  15
ATOM     15  C   UNL     1      -5.488  -9.783   1.717  1.00  0.00     0.000 C 
BRANCH  15  16
ATOM     16  C   UNL     1      -6.155  -8.557   1.062  1.00  0.00     0.000 C 
BRANCH  16  17
ATOM     17  C   UNL     1      -6.966  -8.893  -0.208  1.00  0.00     0.000 C 
BRANCH  17  18
ATOM     18  C   UNL     1      -8.398  -9.348   0.111  1.00  0.00     0.000 C 
BRANCH  18  19
ATOM     19  C   UNL     1      -9.386  -8.181  -0.001  1.00  0.00     0.000 C 
BRANCH  19  20
ATOM     20  C   UNL     1      -9.710  -7.600   1.380  1.00  0.00     0.006 C 
BRANCH  20  21
ATOM     21  C   UNL     1     -10.041  -6.108   1.286  1.00  0.00     0.053 C 
BRANCH  21  22
ATOM     22  C   UNL     1     -11.335  -5.903   0.562  1.00  0.00     0.041 C 
ATOM     23  O   UNL     1     -11.411  -5.063  -0.373  1.00  0.00    -0.550 OA
ATOM     24  O   UNL     1     -12.441  -6.678   0.885  1.00  0.00    -0.550 OA
ENDBRANCH  21  22
ENDBRANCH  20  21
ENDBRANCH  19  20
ENDBRANCH  18  19
ENDBRANCH  17  18
ENDBRANCH  16  17
ENDBRANCH  15  16
ENDBRANCH  14  15
ENDBRANCH  13  14
ENDBRANCH   1  13
TORSDOF 20
ENDMDL
MODEL 4
REMARK VINA RESULT:    -3.840      4.138     11.301
REMARK INTER + INTRA:         -10.205
REMARK INTER:                  -8.870
REMARK INTRA:                  -1.335
REMARK UNBOUND:                -1.875
REMARK SMILES CCCCCCCCCCCCCCCCCCCCCC(=O)[O-]
REMARK SMILES IDX 12 1 11 2 10 3 9 4 8 5 7 6 6 7 5 8 4 9 3 10 2 11 1 12 13 13
REMARK SMILES IDX 14 14 15 15 16 16 17 17 18 18 19 19 20 20 21 21 22 22 23 23
REMARK SMILES IDX 24 24
REMARK H PARENT
REMARK Flexibility Score: inf
ROOT
ATOM      1  C   UNL     1      -5.803 -11.048   1.474  1.00  0.00     0.000 C 
ENDROOT
BRANCH   1   2
ATOM      2  C   UNL     1      -6.100 -12.421   2.102  1.00  0.00     0.000 C 
BRANCH   2   3
ATOM      3  C   UNL     1      -6.206 -13.539   1.051  1.00  0.00     0.000 C 
BRANCH   3   4
ATOM      4  C   UNL     1      -7.027 -14.738   1.551  1.00  0.00    -0.000 C 
BRANCH   4   5
ATOM      5  C   UNL     1      -6.930 -15.959   0.620  1.00  0.00    -0.000 C 
BRANCH   5   6
ATOM      6  C   UNL     1      -5.816 -16.951   1.015  1.00  0.00    -0.000 C 
BRANCH   6   7
ATOM      7  C   UNL     1      -6.356 -18.116   1.867  1.00  0.00    -0.000 C 
BRANCH   7   8
ATOM      8  C   UNL     1      -5.367 -19.288   1.970  1.00  0.00    -0.000 C 
BRANCH   8   9
ATOM      9  C   UNL     1      -5.750 -20.467   1.059  1.00  0.00    -0.000 C 
BRANCH   9  10
ATOM     10  C   UNL     1      -7.179 -20.350   0.498  1.00  0.00    -0.000 C 
BRANCH  10  11
ATOM     11  C   UNL     1      -7.297 -20.532  -1.026  1.00  0.00    -0.003 C 
ATOM     12  C   UNL     1      -5.999 -20.214  -1.769  1.00  0.00     0.004 C 
ENDBRANCH  10  11
ENDBRANCH   9  10
ENDBRANCH   8   9
ENDBRANCH   7   8
ENDBRANCH   6   7
ENDBRANCH   5   6
ENDBRANCH   4   5
ENDBRANCH   3   4
ENDBRANCH   2   3
ENDBRANCH   1   2
BRANCH   1  13
ATOM     13  C   UNL     1      -7.079 -10.300   1.050  1.00  0.00     0.000 C 
BRANCH  13  14
ATOM     14  C   UNL     1      -7.005  -9.613  -0.330  1.00  0.00     0.000 C 
BRANCH  14  15
ATOM     15  C   UNL     1      -7.192  -8.084  -0.310  1.00  0.00     0.000 C 
BRANCH  15  16
ATOM     16  C   UNL     1      -6.241  -7.325   0.635  1.00  0.00     0.000 C 
BRANCH  16  17
ATOM     17  C   UNL     1      -6.900  -6.882   1.958  1.00  0.00     0.000 C 
BRANCH  17  18
ATOM     18  C   UNL     1      -7.509  -5.475   1.872  1.00  0.00     0.000 C 
BRANCH  18  19
ATOM     19  C   UNL     1      -8.518  -5.239   3.002  1.00  0.00     0.000 C 
BRANCH  19  20
ATOM     20  C   UNL     1      -9.889  -5.825   2.645  1.00  0.00     0.006 C 
BRANCH  20  21
ATOM     21  C   UNL     1     -10.270  -5.493   1.200  1.00  0.00     0.053 C 
BRANCH  21  22
ATOM     22  C   UNL     1     -11.060  -6.612   0.596  1.00  0.00     0.041 C 
ATOM     23  O   UNL     1     -12.319  -6.576   0.605  1.00  0.00    -0.550 OA
ATOM     24  O   UNL     1     -10.405  -7.669  -0.024  1.00  0.00    -0.550 OA
ENDBRANCH  21  22
ENDBRANCH  20  21
ENDBRANCH  19  20
ENDBRANCH  18  19
ENDBRANCH  17  18
ENDBRANCH  16  17
ENDBRANCH  15  16
ENDBRANCH  14  15
ENDBRANCH  13  14
ENDBRANCH   1  13
TORSDOF 20
ENDMDL
MODEL 5
REMARK VINA RESULT:    -3.772      5.450     10.914
REMARK INTER + INTRA:         -10.057
REMARK INTER:                  -8.433
REMARK INTRA:                  -1.624
REMARK UNBOUND:                -1.875
REMARK SMILES CCCCCCCCCCCCCCCCCCCCCC(=O)[O-]
REMARK SMILES IDX 12 1 11 2 10 3 9 4 8 5 7 6 6 7 5 8 4 9 3 10 2 11 1 12 13 13
REMARK SMILES IDX 14 14 15 15 16 16 17 17 18 18 19 19 20 20 21 21 22 22 23 23
REMARK SMILES IDX 24 24
REMARK H PARENT
REMARK Flexibility Score: inf
ROOT
ATOM      1  C   UNL     1     -10.190  -6.981   0.448  1.00  0.00     0.000 C 
ENDROOT
BRANCH   1   2
ATOM      2  C   UNL     1      -9.421  -8.158   1.074  1.00  0.00     0.000 C 
BRANCH   2   3
ATOM      3  C   UNL     1      -8.748  -9.050   0.018  1.00  0.00     0.000 C 
BRANCH   3   4
ATOM      4  C   UNL     1      -7.312  -8.604  -0.298  1.00  0.00    -0.000 C 
BRANCH   4   5
ATOM      5  C   UNL     1      -6.340  -9.785  -0.454  1.00  0.00    -0.000 C 
BRANCH   5   6
ATOM      6  C   UNL     1      -5.995 -10.483   0.878  1.00  0.00    -0.000 C 
BRANCH   6   7
ATOM      7  C   UNL     1      -6.670 -11.862   1.000  1.00  0.00    -0.000 C 
BRANCH   7   8
ATOM      8  C   UNL     1      -6.682 -12.396   2.442  1.00  0.00    -0.000 C 
BRANCH   8   9
ATOM      9  C   UNL     1      -6.719 -13.932   2.503  1.00  0.00    -0.000 C 
BRANCH   9  10
ATOM     10  C   UNL     1      -5.609 -14.592   1.663  1.00  0.00    -0.000 C 
BRANCH  10  11
ATOM     11  C   UNL     1      -6.083 -15.722   0.731  1.00  0.00    -0.003 C 
ATOM     12  C   UNL     1      -6.453 -17.001   1.481  1.00  0.00     0.004 C 
ENDBRANCH  10  11
ENDBRANCH   9  10
ENDBRANCH   8   9
ENDBRANCH   7   8
ENDBRANCH   6   7
ENDBRANCH   5   6
ENDBRANCH   4   5
ENDBRANCH   3   4
ENDBRANCH   2   3
ENDBRANCH   1   2
BRANCH   1  13
ATOM     13  C   UNL     1     -10.384  -5.808   1.426  1.00  0.00     0.000 C 
BRANCH  13  14
ATOM     14  C   UNL     1      -9.329  -5.713   2.548  1.00  0.00     0.000 C 
BRANCH  14  15
ATOM     15  C   UNL     1      -8.135  -4.788   2.246  1.00  0.00     0.000 C 
BRANCH  15  16
ATOM     16  C   UNL     1      -6.917  -5.485   1.611  1.00  0.00     0.000 C 
BRANCH  16  17
ATOM     17  C   UNL     1      -5.678  -4.575   1.474  1.00  0.00     0.000 C 
BRANCH  17  18
ATOM     18  C   UNL     1      -5.912  -3.170   2.048  1.00  0.00     0.000 C 
BRANCH  18  19
ATOM     19  C   UNL     1      -5.831  -2.103   0.949  1.00  0.00     0.000 C 
BRANCH  19  20
ATOM     20  C   UNL     1      -4.892  -2.547  -0.179  1.00  0.00     0.006 C 
BRANCH  20  21
ATOM     21  C   UNL     1      -5.089  -1.685  -1.429  1.00  0.00     0.053 C 
BRANCH  21  22
ATOM     22  C   UNL     1      -5.052  -2.534  -2.661  1.00  0.00     0.041 C 
ATOM     23  O   UNL     1      -5.133  -2.001  -3.799  1.00  0.00    -0.550 OA
ATOM     24  O   UNL     1      -4.876  -3.907  -2.553  1.00  0.00    -0.550 OA
ENDBRANCH  21  22
ENDBRANCH  20  21
ENDBRANCH  19  20
ENDBRANCH  18  19
ENDBRANCH  17  18
ENDBRANCH  16  17
ENDBRANCH  15  16
ENDBRANCH  14  15
ENDBRANCH  13  14
ENDBRANCH   1  13
TORSDOF 20
ENDMDL
MODEL 6
REMARK VINA RESULT:    -3.737      4.474     10.695
REMARK INTER + INTRA:          -9.980
REMARK INTER:                  -8.661
REMARK INTRA:                  -1.320
REMARK UNBOUND:                -1.875
REMARK SMILES CCCCCCCCCCCCCCCCCCCCCC(=O)[O-]
REMARK SMILES IDX 12 1 11 2 10 3 9 4 8 5 7 6 6 7 5 8 4 9 3 10 2 11 1 12 13 13
REMARK SMILES IDX 14 14 15 15 16 16 17 17 18 18 19 19 20 20 21 21 22 22 23 23
REMARK SMILES IDX 24 24
REMARK H PARENT
REMARK Flexibility Score: inf
ROOT
ATOM      1  C   UNL     1      -9.372  -8.387   0.086  1.00  0.00     0.000 C 
ENDROOT
BRANCH   1   2
ATOM      2  C   UNL     1      -8.129  -9.082   0.669  1.00  0.00     0.000 C 
BRANCH   2   3
ATOM      3  C   UNL     1      -7.178  -9.600  -0.423  1.00  0.00     0.000 C 
BRANCH   3   4
ATOM      4  C   UNL     1      -6.365 -10.821   0.037  1.00  0.00    -0.000 C 
BRANCH   4   5
ATOM      5  C   UNL     1      -6.038 -10.788   1.540  1.00  0.00    -0.000 C 
BRANCH   5   6
ATOM      6  C   UNL     1      -5.551 -12.142   2.097  1.00  0.00    -0.000 C 
BRANCH   6   7
ATOM      7  C   UNL     1      -5.817 -13.299   1.116  1.00  0.00    -0.000 C 
BRANCH   7   8
ATOM      8  C   UNL     1      -6.780 -14.354   1.683  1.00  0.00    -0.000 C 
BRANCH   8   9
ATOM      9  C   UNL     1      -6.901 -15.592   0.777  1.00  0.00    -0.000 C 
BRANCH   9  10
ATOM     10  C   UNL     1      -5.620 -16.445   0.755  1.00  0.00    -0.000 C 
BRANCH  10  11
ATOM     11  C   UNL     1      -5.819 -17.909   0.322  1.00  0.00    -0.003 C 
ATOM     12  C   UNL     1      -6.694 -18.705   1.291  1.00  0.00     0.004 C 
ENDBRANCH  10  11
ENDBRANCH   9  10
ENDBRANCH   8   9
ENDBRANCH   7   8
ENDBRANCH   6   7
ENDBRANCH   5   6
ENDBRANCH   4   5
ENDBRANCH   3   4
ENDBRANCH   2   3
ENDBRANCH   1   2
BRANCH   1  13
ATOM     13  C   UNL     1      -9.998  -7.373   1.060  1.00  0.00     0.000 C 
BRANCH  13  14
ATOM     14  C   UNL     1      -9.112  -6.154   1.392  1.00  0.00     0.000 C 
BRANCH  14  15
ATOM     15  C   UNL     1      -9.872  -4.909   1.888  1.00  0.00     0.000 C 
BRANCH  15  16
ATOM     16  C   UNL     1      -9.017  -3.896   2.673  1.00  0.00     0.000 C 
BRANCH  16  17
ATOM     17  C   UNL     1      -7.500  -4.177   2.608  1.00  0.00     0.000 C 
BRANCH  17  18
ATOM     18  C   UNL     1      -6.656  -2.911   2.814  1.00  0.00     0.000 C 
BRANCH  18  19
ATOM     19  C   UNL     1      -5.924  -2.520   1.524  1.00  0.00     0.000 C 
BRANCH  19  20
ATOM     20  C   UNL     1      -4.988  -3.643   1.062  1.00  0.00     0.006 C 
BRANCH  20  21
ATOM     21  C   UNL     1      -4.909  -3.699  -0.467  1.00  0.00     0.053 C 
BRANCH  21  22
ATOM     22  C   UNL     1      -5.242  -5.073  -0.959  1.00  0.00     0.041 C 
ATOM     23  O   UNL     1      -4.917  -5.425  -2.123  1.00  0.00    -0.550 OA
ATOM     24  O   UNL     1      -5.864  -5.982  -0.113  1.00  0.00    -0.550 OA
ENDBRANCH  21  22
ENDBRANCH  20  21
ENDBRANCH  19  20
ENDBRANCH  18  19
ENDBRANCH  17  18
ENDBRANCH  16  17
ENDBRANCH  15  16
ENDBRANCH  14  15
ENDBRANCH  13  14
ENDBRANCH   1  13
TORSDOF 20
ENDMDL
MODEL 7
REMARK VINA RESULT:    -3.582      1.445      2.337
REMARK INTER + INTRA:          -9.645
REMARK INTER:                  -7.791
REMARK INTRA:                  -1.854
REMARK UNBOUND:                -1.875
REMARK SMILES CCCCCCCCCCCCCCCCCCCCCC(=O)[O-]
REMARK SMILES IDX 12 1 11 2 10 3 9 4 8 5 7 6 6 7 5 8 4 9 3 10 2 11 1 12 13 13
REMARK SMILES IDX 14 14 15 15 16 16 17 17 18 18 19 19 20 20 21 21 22 22 23 23
REMARK SMILES IDX 24 24
REMARK H PARENT
REMARK Flexibility Score: inf
ROOT
ATOM      1  C   UNL     1      -4.919  -8.987   2.022  1.00  0.00     0.000 C 
ENDROOT
BRANCH   1   2
ATOM      2  C   UNL     1      -6.014  -7.919   2.184  1.00  0.00     0.000 C 
BRANCH   2   3
ATOM      3  C   UNL     1      -6.363  -7.229   0.855  1.00  0.00     0.000 C 
BRANCH   3   4
ATOM      4  C   UNL     1      -6.099  -5.715   0.893  1.00  0.00    -0.000 C 
BRANCH   4   5
ATOM      5  C   UNL     1      -5.966  -5.168   2.325  1.00  0.00    -0.000 C 
BRANCH   5   6
ATOM      6  C   UNL     1      -7.286  -5.200   3.125  1.00  0.00    -0.000 C 
BRANCH   6   7
ATOM      7  C   UNL     1      -8.450  -4.563   2.342  1.00  0.00    -0.000 C 
BRANCH   7   8
ATOM      8  C   UNL     1      -9.726  -5.421   2.365  1.00  0.00    -0.000 C 
BRANCH   8   9
ATOM      9  C   UNL     1     -10.530  -5.321   1.058  1.00  0.00    -0.000 C 
BRANCH   9  10
ATOM     10  C   UNL     1     -10.487  -6.617   0.228  1.00  0.00    -0.000 C 
BRANCH  10  11
ATOM     11  C   UNL     1      -9.763  -7.797   0.899  1.00  0.00    -0.003 C 
ATOM     12  C   UNL     1      -9.314  -8.868  -0.095  1.00  0.00     0.004 C 
ENDBRANCH  10  11
ENDBRANCH   9  10
ENDBRANCH   8   9
ENDBRANCH   7   8
ENDBRANCH   6   7
ENDBRANCH   5   6
ENDBRANCH   4   5
ENDBRANCH   3   4
ENDBRANCH   2   3
ENDBRANCH   1   2
BRANCH   1  13
ATOM     13  C   UNL     1      -5.413 -10.404   2.365  1.00  0.00     0.000 C 
BRANCH  13  14
ATOM     14  C   UNL     1      -6.700 -10.841   1.634  1.00  0.00     0.000 C 
BRANCH  14  15
ATOM     15  C   UNL     1      -6.527 -11.152   0.136  1.00  0.00     0.000 C 
BRANCH  15  16
ATOM     16  C   UNL     1      -5.210 -11.863  -0.232  1.00  0.00     0.000 C 
BRANCH  16  17
ATOM     17  C   UNL     1      -5.063 -13.267   0.393  1.00  0.00     0.000 C 
BRANCH  17  18
ATOM     18  C   UNL     1      -6.330 -14.120   0.232  1.00  0.00     0.000 C 
BRANCH  18  19
ATOM     19  C   UNL     1      -6.658 -14.872   1.528  1.00  0.00     0.000 C 
BRANCH  19  20
ATOM     20  C   UNL     1      -5.482 -15.756   1.962  1.00  0.00     0.006 C 
BRANCH  20  21
ATOM     21  C   UNL     1      -5.979 -17.033   2.645  1.00  0.00     0.053 C 
BRANCH  21  22
ATOM     22  C   UNL     1      -5.911 -18.192   1.700  1.00  0.00     0.041 C 
ATOM     23  O   UNL     1      -5.073 -19.113   1.887  1.00  0.00    -0.550 OA
ATOM     24  O   UNL     1      -6.808 -18.280   0.643  1.00  0.00    -0.550 OA
ENDBRANCH  21  22
ENDBRANCH  20  21
ENDBRANCH  19  20
ENDBRANCH  18  19
ENDBRANCH  17  18
ENDBRANCH  16  17
ENDBRANCH  15  16
ENDBRANCH  14  15
ENDBRANCH  13  14
ENDBRANCH   1  13
TORSDOF 20
ENDMDL
MODEL 8
REMARK VINA RESULT:    -3.430      4.764     10.539
REMARK INTER + INTRA:          -9.316
REMARK INTER:                  -7.783
REMARK INTRA:                  -1.533
REMARK UNBOUND:                -1.875
REMARK SMILES CCCCCCCCCCCCCCCCCCCCCC(=O)[O-]
REMARK SMILES IDX 12 1 11 2 10 3 9 4 8 5 7 6 6 7 5 8 4 9 3 10 2 11 1 12 13 13
REMARK SMILES IDX 14 14 15 15 16 16 17 17 18 18 19 19 20 20 21 21 22 22 23 23
REMARK SMILES IDX 24 24
REMARK H PARENT
REMARK Flexibility Score: inf
ROOT
ATOM      1  C   UNL     1     -10.103  -7.088   0.283  1.00  0.00     0.000 C 
ENDROOT
BRANCH   1   2
ATOM      2  C   UNL     1      -9.238  -8.358   0.365  1.00  0.00     0.000 C 
BRANCH   2   3
ATOM      3  C   UNL     1      -7.995  -8.168   1.249  1.00  0.00     0.000 C 
BRANCH   3   4
ATOM      4  C   UNL     1      -6.686  -8.395   0.476  1.00  0.00    -0.000 C 
BRANCH   4   5
ATOM      5  C   UNL     1      -5.665  -9.236   1.263  1.00  0.00    -0.000 C 
BRANCH   5   6
ATOM      6  C   UNL     1      -6.183 -10.638   1.645  1.00  0.00    -0.000 C 
BRANCH   6   7
ATOM      7  C   UNL     1      -6.677 -11.426   0.417  1.00  0.00    -0.000 C 
BRANCH   7   8
ATOM      8  C   UNL     1      -5.534 -12.090  -0.366  1.00  0.00    -0.000 C 
BRANCH   8   9
ATOM      9  C   UNL     1      -5.222 -13.511   0.134  1.00  0.00    -0.000 C 
BRANCH   9  10
ATOM     10  C   UNL     1      -6.486 -14.367   0.333  1.00  0.00    -0.000 C 
BRANCH  10  11
ATOM     11  C   UNL     1      -6.591 -15.066   1.701  1.00  0.00    -0.003 C 
ATOM     12  C   UNL     1      -6.893 -14.098   2.846  1.00  0.00     0.004 C 
ENDBRANCH  10  11
ENDBRANCH   9  10
ENDBRANCH   8   9
ENDBRANCH   7   8
ENDBRANCH   6   7
ENDBRANCH   5   6
ENDBRANCH   4   5
ENDBRANCH   3   4
ENDBRANCH   2   3
ENDBRANCH   1   2
BRANCH   1  13
ATOM     13  C   UNL     1     -10.327  -6.431   1.657  1.00  0.00     0.000 C 
BRANCH  13  14
ATOM     14  C   UNL     1      -9.451  -5.192   1.939  1.00  0.00     0.000 C 
BRANCH  14  15
ATOM     15  C   UNL     1     -10.127  -4.091   2.777  1.00  0.00     0.000 C 
BRANCH  15  16
ATOM     16  C   UNL     1      -9.224  -2.892   3.125  1.00  0.00     0.000 C 
BRANCH  16  17
ATOM     17  C   UNL     1      -7.913  -2.842   2.311  1.00  0.00     0.000 C 
BRANCH  17  18
ATOM     18  C   UNL     1      -7.167  -1.510   2.475  1.00  0.00     0.000 C 
BRANCH  18  19
ATOM     19  C   UNL     1      -6.015  -1.395   1.470  1.00  0.00     0.000 C 
BRANCH  19  20
ATOM     20  C   UNL     1      -5.188  -2.686   1.430  1.00  0.00     0.006 C 
BRANCH  20  21
ATOM     21  C   UNL     1      -5.159  -3.278   0.018  1.00  0.00     0.053 C 
BRANCH  21  22
ATOM     22  C   UNL     1      -5.257  -4.770   0.073  1.00  0.00     0.041 C 
ATOM     23  O   UNL     1      -5.291  -5.442  -0.991  1.00  0.00    -0.550 OA
ATOM     24  O   UNL     1      -5.258  -5.421   1.300  1.00  0.00    -0.550 OA
ENDBRANCH  21  22
ENDBRANCH  20  21
ENDBRANCH  19  20
ENDBRANCH  18  19
ENDBRANCH  17  18
ENDBRANCH  16  17
ENDBRANCH  15  16
ENDBRANCH  14  15
ENDBRANCH  13  14
ENDBRANCH   1  13
TORSDOF 20
ENDMDL
MODEL 9
REMARK VINA RESULT:    -3.394     20.392     24.026
REMARK INTER + INTRA:          -9.236
REMARK INTER:                  -6.163
REMARK INTRA:                  -3.073
REMARK UNBOUND:                -1.875
REMARK SMILES CCCCCCCCCCCCCCCCCCCCCC(=O)[O-]
REMARK SMILES IDX 12 1 11 2 10 3 9 4 8 5 7 6 6 7 5 8 4 9 3 10 2 11 1 12 13 13
REMARK SMILES IDX 14 14 15 15 16 16 17 17 18 18 19 19 20 20 21 21 22 22 23 23
REMARK SMILES IDX 24 24
REMARK H PARENT
REMARK Flexibility Score: inf
ROOT
ATOM      1  C   UNL     1     -21.034  -5.515 -17.007  1.00  0.00     0.000 C 
ENDROOT
BRANCH   1   2
ATOM      2  C   UNL     1     -22.470  -6.057 -17.124  1.00  0.00     0.000 C 
BRANCH   2   3
ATOM      3  C   UNL     1     -23.391  -5.530 -16.011  1.00  0.00     0.000 C 
BRANCH   3   4
ATOM      4  C   UNL     1     -24.772  -6.204 -16.024  1.00  0.00    -0.000 C 
BRANCH   4   5
ATOM      5  C   UNL     1     -24.879  -7.325 -17.072  1.00  0.00    -0.000 C 
BRANCH   5   6
ATOM      6  C   UNL     1     -24.924  -8.742 -16.461  1.00  0.00    -0.000 C 
BRANCH   6   7
ATOM      7  C   UNL     1     -23.603  -9.504 -16.673  1.00  0.00    -0.000 C 
BRANCH   7   8
ATOM      8  C   UNL     1     -23.508 -10.782 -15.823  1.00  0.00    -0.000 C 
BRANCH   8   9
ATOM      9  C   UNL     1     -22.244 -10.817 -14.947  1.00  0.00    -0.000 C 
BRANCH   9  10
ATOM     10  C   UNL     1     -21.685  -9.414 -14.645  1.00  0.00    -0.000 C 
BRANCH  10  11
ATOM     11  C   UNL     1     -20.451  -9.389 -13.726  1.00  0.00    -0.003 C 
ATOM     12  C   UNL     1     -20.645  -8.516 -12.486  1.00  0.00     0.004 C 
ENDBRANCH  10  11
ENDBRANCH   9  10
ENDBRANCH   8   9
ENDBRANCH   7   8
ENDBRANCH   6   7
ENDBRANCH   5   6
ENDBRANCH   4   5
ENDBRANCH   3   4
ENDBRANCH   2   3
ENDBRANCH   1   2
BRANCH   1  13
ATOM     13  C   UNL     1     -20.124  -6.418 -16.155  1.00  0.00     0.000 C 
BRANCH  13  14
ATOM     14  C   UNL     1     -19.462  -5.724 -14.947  1.00  0.00     0.000 C 
BRANCH  14  15
ATOM     15  C   UNL     1     -20.441  -5.102 -13.934  1.00  0.00     0.000 C 
BRANCH  15  16
ATOM     16  C   UNL     1     -20.208  -3.608 -13.639  1.00  0.00     0.000 C 
BRANCH  16  17
ATOM     17  C   UNL     1     -20.330  -2.700 -14.882  1.00  0.00     0.000 C 
BRANCH  17  18
ATOM     18  C   UNL     1     -21.787  -2.346 -15.214  1.00  0.00     0.000 C 
BRANCH  18  19
ATOM     19  C   UNL     1     -22.533  -1.854 -13.968  1.00  0.00     0.000 C 
BRANCH  19  20
ATOM     20  C   UNL     1     -23.952  -2.433 -13.913  1.00  0.00     0.006 C 
BRANCH  20  21
ATOM     21  C   UNL     1     -24.456  -2.517 -12.470  1.00  0.00     0.053 C 
BRANCH  21  22
ATOM     22  C   UNL     1     -24.189  -3.875 -11.900  1.00  0.00     0.041 C 
ATOM     23  O   UNL     1     -23.439  -4.681 -12.510  1.00  0.00    -0.550 OA
ATOM     24  O   UNL     1     -24.728  -4.230 -10.670  1.00  0.00    -0.550 OA
ENDBRANCH  21  22
ENDBRANCH  20  21
ENDBRANCH  19  20
ENDBRANCH  18  19
ENDBRANCH  17  18
ENDBRANCH  16  17
ENDBRANCH  15  16
ENDBRANCH  14  15
ENDBRANCH  13  14
ENDBRANCH   1  13
TORSDOF 20
ENDMDL
