MODEL 1
REMARK VINA RESULT:    -5.243      0.000      0.000
REMARK INTER + INTRA:         -13.353
REMARK INTER:                 -11.372
REMARK INTRA:                  -1.981
REMARK UNBOUND:                -1.981
REMARK SMILES CCCCCCCCCCCCCCCCCCCCCC(=O)[O-]
REMARK SMILES IDX 12 1 11 2 10 3 9 4 8 5 7 6 6 7 5 8 4 9 3 10 2 11 1 12 13 13
REMARK SMILES IDX 14 14 15 15 16 16 17 17 18 18 19 19 20 20 21 21 22 22 23 23
REMARK SMILES IDX 24 24
REMARK H PARENT
REMARK Flexibility Score: inf
ROOT
ATOM      1  C   UNL     1      44.934   6.928 127.524  1.00  0.00     0.000 C 
ENDROOT
BRANCH   1   2
ATOM      2  C   UNL     1      45.846   7.103 126.291  1.00  0.00     0.000 C 
BRANCH   2   3
ATOM      3  C   UNL     1      47.288   7.505 126.645  1.00  0.00     0.000 C 
BRANCH   3   4
ATOM      4  C   UNL     1      48.125   7.877 125.411  1.00  0.00    -0.000 C 
BRANCH   4   5
ATOM      5  C   UNL     1      47.261   8.252 124.195  1.00  0.00    -0.000 C 
BRANCH   5   6
ATOM      6  C   UNL     1      47.802   9.460 123.399  1.00  0.00    -0.000 C 
BRANCH   6   7
ATOM      7  C   UNL     1      47.219  10.794 123.899  1.00  0.00    -0.000 C 
BRANCH   7   8
ATOM      8  C   UNL     1      45.747  10.674 124.328  1.00  0.00    -0.000 C 
BRANCH   8   9
ATOM      9  C   UNL     1      44.905  11.884 123.888  1.00  0.00    -0.000 C 
BRANCH   9  10
ATOM     10  C   UNL     1      44.119  11.626 122.589  1.00  0.00    -0.000 C 
BRANCH  10  11
ATOM     11  C   UNL     1      44.822  12.092 121.302  1.00  0.00    -0.003 C 
ATOM     12  C   UNL     1      45.541  10.960 120.570  1.00  0.00     0.004 C 
ENDBRANCH  10  11
ENDBRANCH   9  10
ENDBRANCH   8   9
ENDBRANCH   7   8
ENDBRANCH   6   7
ENDBRANCH   5   6
ENDBRANCH   4   5
ENDBRANCH   3   4
ENDBRANCH   2   3
ENDBRANCH   1   2
BRANCH   1  13
ATOM     13  C   UNL     1      44.780   5.451 127.929  1.00  0.00     0.000 C 
BRANCH  13  14
ATOM     14  C   UNL     1      45.561   5.106 129.207  1.00  0.00     0.000 C 
BRANCH  14  15
ATOM     15  C   UNL     1      47.032   4.758 128.925  1.00  0.00     0.000 C 
BRANCH  15  16
ATOM     16  C   UNL     1      47.930   4.902 130.165  1.00  0.00     0.000 C 
BRANCH  16  17
ATOM     17  C   UNL     1      47.202   4.609 131.494  1.00  0.00     0.000 C 
BRANCH  17  18
ATOM     18  C   UNL     1      47.487   3.193 132.017  1.00  0.00     0.000 C 
BRANCH  18  19
ATOM     19  C   UNL     1      46.343   2.701 132.917  1.00  0.00     0.000 C 
BRANCH  19  20
ATOM     20  C   UNL     1      45.195   3.722 133.034  1.00  0.00     0.006 C 
BRANCH  20  21
ATOM     21  C   UNL     1      43.860   3.244 132.441  1.00  0.00     0.053 C 
BRANCH  21  22
ATOM     22  C   UNL     1      43.525   1.846 132.861  1.00  0.00     0.041 C 
ATOM     23  O   UNL     1      43.504   0.916 132.010  1.00  0.00    -0.550 OA
ATOM     24  O   UNL     1      43.198   1.574 134.186  1.00  0.00    -0.550 OA
ENDBRANCH  21  22
ENDBRANCH  20  21
ENDBRANCH  19  20
ENDBRANCH  18  19
ENDBRANCH  17  18
ENDBRANCH  16  17
ENDBRANCH  15  16
ENDBRANCH  14  15
ENDBRANCH  13  14
ENDBRANCH   1  13
TORSDOF 20
ENDMDL
MODEL 2
REMARK VINA RESULT:    -5.240      3.507      6.634
REMARK INTER + INTRA:         -13.348
REMARK INTER:                 -11.118
REMARK INTRA:                  -2.230
REMARK UNBOUND:                -1.981
REMARK SMILES CCCCCCCCCCCCCCCCCCCCCC(=O)[O-]
REMARK SMILES IDX 12 1 11 2 10 3 9 4 8 5 7 6 6 7 5 8 4 9 3 10 2 11 1 12 13 13
REMARK SMILES IDX 14 14 15 15 16 16 17 17 18 18 19 19 20 20 21 21 22 22 23 23
REMARK SMILES IDX 24 24
REMARK H PARENT
REMARK Flexibility Score: inf
ROOT
ATOM      1  C   UNL     1      44.493  11.239 123.089  1.00  0.00     0.000 C 
ENDROOT
BRANCH   1   2
ATOM      2  C   UNL     1      44.369  12.147 121.848  1.00  0.00     0.000 C 
BRANCH   2   3
ATOM      3  C   UNL     1      45.585  12.076 120.909  1.00  0.00     0.000 C 
BRANCH   3   4
ATOM      4  C   UNL     1      45.618  10.790 120.069  1.00  0.00    -0.000 C 
BRANCH   4   5
ATOM      5  C   UNL     1      46.801  10.747 119.088  1.00  0.00    -0.000 C 
BRANCH   5   6
ATOM      6  C   UNL     1      46.492   9.994 117.776  1.00  0.00    -0.000 C 
BRANCH   6   7
ATOM      7  C   UNL     1      45.052   9.449 117.745  1.00  0.00    -0.000 C 
BRANCH   7   8
ATOM      8  C   UNL     1      44.483   9.357 116.319  1.00  0.00    -0.000 C 
BRANCH   8   9
ATOM      9  C   UNL     1      43.149  10.108 116.168  1.00  0.00    -0.000 C 
BRANCH   9  10
ATOM     10  C   UNL     1      42.874  11.080 117.331  1.00  0.00    -0.000 C 
BRANCH  10  11
ATOM     11  C   UNL     1      43.074  12.568 116.994  1.00  0.00    -0.003 C 
ATOM     12  C   UNL     1      43.676  13.367 118.149  1.00  0.00     0.004 C 
ENDBRANCH  10  11
ENDBRANCH   9  10
ENDBRANCH   8   9
ENDBRANCH   7   8
ENDBRANCH   6   7
ENDBRANCH   5   6
ENDBRANCH   4   5
ENDBRANCH   3   4
ENDBRANCH   2   3
ENDBRANCH   1   2
BRANCH   1  13
ATOM     13  C   UNL     1      45.681  11.635 123.984  1.00  0.00     0.000 C 
BRANCH  13  14
ATOM     14  C   UNL     1      46.722  10.512 124.113  1.00  0.00     0.000 C 
BRANCH  14  15
ATOM     15  C   UNL     1      46.224   9.175 123.538  1.00  0.00     0.000 C 
BRANCH  15  16
ATOM     16  C   UNL     1      46.336   8.013 124.539  1.00  0.00     0.000 C 
BRANCH  16  17
ATOM     17  C   UNL     1      47.614   8.061 125.402  1.00  0.00     0.000 C 
BRANCH  17  18
ATOM     18  C   UNL     1      47.467   7.268 126.709  1.00  0.00     0.000 C 
BRANCH  18  19
ATOM     19  C   UNL     1      45.988   7.133 127.105  1.00  0.00     0.000 C 
BRANCH  19  20
ATOM     20  C   UNL     1      45.558   5.670 127.318  1.00  0.00     0.006 C 
BRANCH  20  21
ATOM     21  C   UNL     1      44.530   5.469 128.442  1.00  0.00     0.053 C 
BRANCH  21  22
ATOM     22  C   UNL     1      43.282   6.265 128.214  1.00  0.00     0.041 C 
ATOM     23  O   UNL     1      42.504   5.966 127.268  1.00  0.00    -0.550 OA
ATOM     24  O   UNL     1      42.995   7.361 129.021  1.00  0.00    -0.550 OA
ENDBRANCH  21  22
ENDBRANCH  20  21
ENDBRANCH  19  20
ENDBRANCH  18  19
ENDBRANCH  17  18
ENDBRANCH  16  17
ENDBRANCH  15  16
ENDBRANCH  14  15
ENDBRANCH  13  14
ENDBRANCH   1  13
TORSDOF 20
ENDMDL
MODEL 3
REMARK VINA RESULT:    -5.221      4.670     10.985
REMARK INTER + INTRA:         -13.305
REMARK INTER:                 -11.825
REMARK INTRA:                  -1.480
REMARK UNBOUND:                -1.981
REMARK SMILES CCCCCCCCCCCCCCCCCCCCCC(=O)[O-]
REMARK SMILES IDX 12 1 11 2 10 3 9 4 8 5 7 6 6 7 5 8 4 9 3 10 2 11 1 12 13 13
REMARK SMILES IDX 14 14 15 15 16 16 17 17 18 18 19 19 20 20 21 21 22 22 23 23
REMARK SMILES IDX 24 24
REMARK H PARENT
REMARK Flexibility Score: inf
ROOT
ATOM      1  C   UNL     1      43.843   6.510 128.481  1.00  0.00     0.000 C 
ENDROOT
BRANCH   1   2
ATOM      2  C   UNL     1      44.266   5.797 129.782  1.00  0.00     0.000 C 
BRANCH   2   3
ATOM      3  C   UNL     1      45.419   4.797 129.589  1.00  0.00     0.000 C 
BRANCH   3   4
ATOM      4  C   UNL     1      46.733   5.267 130.232  1.00  0.00    -0.000 C 
BRANCH   4   5
ATOM      5  C   UNL     1      47.176   4.377 131.405  1.00  0.00    -0.000 C 
BRANCH   5   6
ATOM      6  C   UNL     1      46.034   4.029 132.384  1.00  0.00    -0.000 C 
BRANCH   6   7
ATOM      7  C   UNL     1      46.252   2.669 133.072  1.00  0.00    -0.000 C 
BRANCH   7   8
ATOM      8  C   UNL     1      45.266   2.423 134.226  1.00  0.00    -0.000 C 
BRANCH   8   9
ATOM      9  C   UNL     1      44.295   1.266 133.935  1.00  0.00    -0.000 C 
BRANCH   9  10
ATOM     10  C   UNL     1      44.516   0.633 132.548  1.00  0.00    -0.000 C 
BRANCH  10  11
ATOM     11  C   UNL     1      43.236   0.425 131.719  1.00  0.00    -0.003 C 
ATOM     12  C   UNL     1      42.035   0.008 132.567  1.00  0.00     0.004 C 
ENDBRANCH  10  11
ENDBRANCH   9  10
ENDBRANCH   8   9
ENDBRANCH   7   8
ENDBRANCH   6   7
ENDBRANCH   5   6
ENDBRANCH   4   5
ENDBRANCH   3   4
ENDBRANCH   2   3
ENDBRANCH   1   2
BRANCH   1  13
ATOM     13  C   UNL     1      44.903   7.515 127.996  1.00  0.00     0.000 C 
BRANCH  13  14
ATOM     14  C   UNL     1      45.615   7.048 126.717  1.00  0.00     0.000 C 
BRANCH  14  15
ATOM     15  C   UNL     1      47.129   6.863 126.917  1.00  0.00     0.000 C 
BRANCH  15  16
ATOM     16  C   UNL     1      47.961   7.969 126.248  1.00  0.00     0.000 C 
BRANCH  16  17
ATOM     17  C   UNL     1      47.957   7.899 124.706  1.00  0.00     0.000 C 
BRANCH  17  18
ATOM     18  C   UNL     1      47.708   9.270 124.060  1.00  0.00     0.000 C 
BRANCH  18  19
ATOM     19  C   UNL     1      46.235   9.683 124.202  1.00  0.00     0.000 C 
BRANCH  19  20
ATOM     20  C   UNL     1      46.033  11.208 124.138  1.00  0.00     0.006 C 
BRANCH  20  21
ATOM     21  C   UNL     1      44.743  11.648 123.428  1.00  0.00     0.053 C 
BRANCH  21  22
ATOM     22  C   UNL     1      44.995  12.071 122.013  1.00  0.00     0.041 C 
ATOM     23  O   UNL     1      45.450  11.246 121.176  1.00  0.00    -0.550 OA
ATOM     24  O   UNL     1      44.764  13.387 121.627  1.00  0.00    -0.550 OA
ENDBRANCH  21  22
ENDBRANCH  20  21
ENDBRANCH  19  20
ENDBRANCH  18  19
ENDBRANCH  17  18
ENDBRANCH  16  17
ENDBRANCH  15  16
ENDBRANCH  14  15
ENDBRANCH  13  14
ENDBRANCH   1  13
TORSDOF 20
ENDMDL
MODEL 4
REMARK VINA RESULT:    -5.155      1.202      2.377
REMARK INTER + INTRA:         -13.163
REMARK INTER:                 -11.935
REMARK INTRA:                  -1.228
REMARK UNBOUND:                -1.981
REMARK SMILES CCCCCCCCCCCCCCCCCCCCCC(=O)[O-]
REMARK SMILES IDX 12 1 11 2 10 3 9 4 8 5 7 6 6 7 5 8 4 9 3 10 2 11 1 12 13 13
REMARK SMILES IDX 14 14 15 15 16 16 17 17 18 18 19 19 20 20 21 21 22 22 23 23
REMARK SMILES IDX 24 24
REMARK H PARENT
REMARK Flexibility Score: inf
ROOT
ATOM      1  C   UNL     1      43.669   6.000 129.395  1.00  0.00     0.000 C 
ENDROOT
BRANCH   1   2
ATOM      2  C   UNL     1      43.730   7.162 128.381  1.00  0.00     0.000 C 
BRANCH   2   3
ATOM      3  C   UNL     1      45.152   7.700 128.147  1.00  0.00     0.000 C 
BRANCH   3   4
ATOM      4  C   UNL     1      45.717   7.317 126.770  1.00  0.00    -0.000 C 
BRANCH   4   5
ATOM      5  C   UNL     1      47.242   7.115 126.786  1.00  0.00    -0.000 C 
BRANCH   5   6
ATOM      6  C   UNL     1      47.988   7.949 125.723  1.00  0.00    -0.000 C 
BRANCH   6   7
ATOM      7  C   UNL     1      47.027   8.576 124.696  1.00  0.00    -0.000 C 
BRANCH   7   8
ATOM      8  C   UNL     1      47.757   9.132 123.463  1.00  0.00    -0.000 C 
BRANCH   8   9
ATOM      9  C   UNL     1      47.159  10.463 122.975  1.00  0.00    -0.000 C 
BRANCH   9  10
ATOM     10  C   UNL     1      46.673  11.360 124.128  1.00  0.00    -0.000 C 
BRANCH  10  11
ATOM     11  C   UNL     1      45.171  11.695 124.101  1.00  0.00    -0.003 C 
ATOM     12  C   UNL     1      44.495  11.301 122.789  1.00  0.00     0.004 C 
ENDBRANCH  10  11
ENDBRANCH   9  10
ENDBRANCH   8   9
ENDBRANCH   7   8
ENDBRANCH   6   7
ENDBRANCH   5   6
ENDBRANCH   4   5
ENDBRANCH   3   4
ENDBRANCH   2   3
ENDBRANCH   1   2
BRANCH   1  13
ATOM     13  C   UNL     1      44.814   4.992 129.195  1.00  0.00     0.000 C 
BRANCH  13  14
ATOM     14  C   UNL     1      45.406   4.501 130.525  1.00  0.00     0.000 C 
BRANCH  14  15
ATOM     15  C   UNL     1      46.916   4.772 130.636  1.00  0.00     0.000 C 
BRANCH  15  16
ATOM     16  C   UNL     1      47.552   4.123 131.876  1.00  0.00     0.000 C 
BRANCH  16  17
ATOM     17  C   UNL     1      46.610   3.151 132.618  1.00  0.00     0.000 C 
BRANCH  17  18
ATOM     18  C   UNL     1      45.825   3.842 133.743  1.00  0.00     0.000 C 
BRANCH  18  19
ATOM     19  C   UNL     1      45.745   2.942 134.987  1.00  0.00     0.000 C 
BRANCH  19  20
ATOM     20  C   UNL     1      44.992   1.625 134.724  1.00  0.00     0.006 C 
BRANCH  20  21
ATOM     21  C   UNL     1      43.671   1.794 133.957  1.00  0.00     0.053 C 
BRANCH  21  22
ATOM     22  C   UNL     1      43.596   0.897 132.759  1.00  0.00     0.041 C 
ATOM     23  O   UNL     1      42.527   0.813 132.097  1.00  0.00    -0.550 OA
ATOM     24  O   UNL     1      44.693   0.124 132.396  1.00  0.00    -0.550 OA
ENDBRANCH  21  22
ENDBRANCH  20  21
ENDBRANCH  19  20
ENDBRANCH  18  19
ENDBRANCH  17  18
ENDBRANCH  16  17
ENDBRANCH  15  16
ENDBRANCH  14  15
ENDBRANCH  13  14
ENDBRANCH   1  13
TORSDOF 20
ENDMDL
MODEL 5
REMARK VINA RESULT:    -5.111      5.022     11.402
REMARK INTER + INTRA:         -13.068
REMARK INTER:                 -11.563
REMARK INTRA:                  -1.505
REMARK UNBOUND:                -1.981
REMARK SMILES CCCCCCCCCCCCCCCCCCCCCC(=O)[O-]
REMARK SMILES IDX 12 1 11 2 10 3 9 4 8 5 7 6 6 7 5 8 4 9 3 10 2 11 1 12 13 13
REMARK SMILES IDX 14 14 15 15 16 16 17 17 18 18 19 19 20 20 21 21 22 22 23 23
REMARK SMILES IDX 24 24
REMARK H PARENT
REMARK Flexibility Score: inf
ROOT
ATOM      1  C   UNL     1      45.902   7.199 126.459  1.00  0.00     0.000 C 
ENDROOT
BRANCH   1   2
ATOM      2  C   UNL     1      45.321   7.111 127.885  1.00  0.00     0.000 C 
BRANCH   2   3
ATOM      3  C   UNL     1      44.649   5.762 128.194  1.00  0.00     0.000 C 
BRANCH   3   4
ATOM      4  C   UNL     1      45.280   5.041 129.396  1.00  0.00    -0.000 C 
BRANCH   4   5
ATOM      5  C   UNL     1      46.737   5.463 129.648  1.00  0.00    -0.000 C 
BRANCH   5   6
ATOM      6  C   UNL     1      47.448   4.621 130.730  1.00  0.00    -0.000 C 
BRANCH   6   7
ATOM      7  C   UNL     1      46.527   4.312 131.924  1.00  0.00    -0.000 C 
BRANCH   7   8
ATOM      8  C   UNL     1      46.838   2.956 132.578  1.00  0.00    -0.000 C 
BRANCH   8   9
ATOM      9  C   UNL     1      45.681   2.445 133.454  1.00  0.00    -0.000 C 
BRANCH   9  10
ATOM     10  C   UNL     1      44.934   1.254 132.825  1.00  0.00    -0.000 C 
BRANCH  10  11
ATOM     11  C   UNL     1      43.528   1.580 132.292  1.00  0.00    -0.003 C 
ATOM     12  C   UNL     1      42.773   0.344 131.804  1.00  0.00     0.004 C 
ENDBRANCH  10  11
ENDBRANCH   9  10
ENDBRANCH   8   9
ENDBRANCH   7   8
ENDBRANCH   6   7
ENDBRANCH   5   6
ENDBRANCH   4   5
ENDBRANCH   3   4
ENDBRANCH   2   3
ENDBRANCH   1   2
BRANCH   1  13
ATOM     13  C   UNL     1      47.416   7.475 126.463  1.00  0.00     0.000 C 
BRANCH  13  14
ATOM     14  C   UNL     1      47.868   8.307 125.252  1.00  0.00     0.000 C 
BRANCH  14  15
ATOM     15  C   UNL     1      46.725   8.569 124.256  1.00  0.00     0.000 C 
BRANCH  15  16
ATOM     16  C   UNL     1      47.076   9.640 123.211  1.00  0.00     0.000 C 
BRANCH  16  17
ATOM     17  C   UNL     1      46.923  11.085 123.730  1.00  0.00     0.000 C 
BRANCH  17  18
ATOM     18  C   UNL     1      45.511  11.369 124.262  1.00  0.00     0.000 C 
BRANCH  18  19
ATOM     19  C   UNL     1      44.504  11.488 123.107  1.00  0.00     0.000 C 
BRANCH  19  20
ATOM     20  C   UNL     1      44.987  12.431 121.990  1.00  0.00     0.006 C 
BRANCH  20  21
ATOM     21  C   UNL     1      45.127  11.763 120.613  1.00  0.00     0.053 C 
BRANCH  21  22
ATOM     22  C   UNL     1      46.540  11.785 120.117  1.00  0.00     0.041 C 
ATOM     23  O   UNL     1      46.962  10.865 119.366  1.00  0.00    -0.550 OA
ATOM     24  O   UNL     1      47.404  12.800 120.514  1.00  0.00    -0.550 OA
ENDBRANCH  21  22
ENDBRANCH  20  21
ENDBRANCH  19  20
ENDBRANCH  18  19
ENDBRANCH  17  18
ENDBRANCH  16  17
ENDBRANCH  15  16
ENDBRANCH  14  15
ENDBRANCH  13  14
ENDBRANCH   1  13
TORSDOF 20
ENDMDL
MODEL 6
REMARK VINA RESULT:    -5.033      5.348     10.661
REMARK INTER + INTRA:         -12.898
REMARK INTER:                 -10.663
REMARK INTRA:                  -2.234
REMARK UNBOUND:                -1.981
REMARK SMILES CCCCCCCCCCCCCCCCCCCCCC(=O)[O-]
REMARK SMILES IDX 12 1 11 2 10 3 9 4 8 5 7 6 6 7 5 8 4 9 3 10 2 11 1 12 13 13
REMARK SMILES IDX 14 14 15 15 16 16 17 17 18 18 19 19 20 20 21 21 22 22 23 23
REMARK SMILES IDX 24 24
REMARK H PARENT
REMARK Flexibility Score: inf
ROOT
ATOM      1  C   UNL     1      47.985   8.014 125.186  1.00  0.00     0.000 C 
ENDROOT
BRANCH   1   2
ATOM      2  C   UNL     1      47.682   7.525 126.618  1.00  0.00     0.000 C 
BRANCH   2   3
ATOM      3  C   UNL     1      46.231   7.779 127.061  1.00  0.00     0.000 C 
BRANCH   3   4
ATOM      4  C   UNL     1      46.058   7.747 128.587  1.00  0.00    -0.000 C 
BRANCH   4   5
ATOM      5  C   UNL     1      47.081   6.836 129.286  1.00  0.00    -0.000 C 
BRANCH   5   6
ATOM      6  C   UNL     1      46.489   5.491 129.761  1.00  0.00    -0.000 C 
BRANCH   6   7
ATOM      7  C   UNL     1      46.800   4.342 128.785  1.00  0.00    -0.000 C 
BRANCH   7   8
ATOM      8  C   UNL     1      45.973   4.422 127.492  1.00  0.00    -0.000 C 
BRANCH   8   9
ATOM      9  C   UNL     1      44.458   4.439 127.761  1.00  0.00    -0.000 C 
BRANCH   9  10
ATOM     10  C   UNL     1      43.673   5.251 126.713  1.00  0.00    -0.000 C 
BRANCH  10  11
ATOM     11  C   UNL     1      42.381   5.904 127.234  1.00  0.00    -0.003 C 
ATOM     12  C   UNL     1      42.578   6.650 128.553  1.00  0.00     0.004 C 
ENDBRANCH  10  11
ENDBRANCH   9  10
ENDBRANCH   8   9
ENDBRANCH   7   8
ENDBRANCH   6   7
ENDBRANCH   5   6
ENDBRANCH   4   5
ENDBRANCH   3   4
ENDBRANCH   2   3
ENDBRANCH   1   2
BRANCH   1  13
ATOM     13  C   UNL     1      46.708   8.405 124.422  1.00  0.00     0.000 C 
BRANCH  13  14
ATOM     14  C   UNL     1      46.944   9.549 123.423  1.00  0.00     0.000 C 
BRANCH  14  15
ATOM     15  C   UNL     1      46.864  10.935 124.083  1.00  0.00     0.000 C 
BRANCH  15  16
ATOM     16  C   UNL     1      45.444  11.526 124.066  1.00  0.00     0.000 C 
BRANCH  16  17
ATOM     17  C   UNL     1      44.655  11.202 122.780  1.00  0.00     0.000 C 
BRANCH  17  18
ATOM     18  C   UNL     1      44.718  12.342 121.753  1.00  0.00     0.000 C 
BRANCH  18  19
ATOM     19  C   UNL     1      44.883  11.788 120.329  1.00  0.00     0.000 C 
BRANCH  19  20
ATOM     20  C   UNL     1      46.074  10.819 120.201  1.00  0.00     0.006 C 
BRANCH  20  21
ATOM     21  C   UNL     1      46.458  10.476 118.753  1.00  0.00     0.053 C 
BRANCH  21  22
ATOM     22  C   UNL     1      45.276  10.037 117.945  1.00  0.00     0.041 C 
ATOM     23  O   UNL     1      44.798   8.881 118.098  1.00  0.00    -0.550 OA
ATOM     24  O   UNL     1      44.725  10.890 116.994  1.00  0.00    -0.550 OA
ENDBRANCH  21  22
ENDBRANCH  20  21
ENDBRANCH  19  20
ENDBRANCH  18  19
ENDBRANCH  17  18
ENDBRANCH  16  17
ENDBRANCH  15  16
ENDBRANCH  14  15
ENDBRANCH  13  14
ENDBRANCH   1  13
TORSDOF 20
ENDMDL
MODEL 7
REMARK VINA RESULT:    -5.028      3.655      7.313
REMARK INTER + INTRA:         -12.888
REMARK INTER:                 -10.702
REMARK INTRA:                  -2.186
REMARK UNBOUND:                -1.981
REMARK SMILES CCCCCCCCCCCCCCCCCCCCCC(=O)[O-]
REMARK SMILES IDX 12 1 11 2 10 3 9 4 8 5 7 6 6 7 5 8 4 9 3 10 2 11 1 12 13 13
REMARK SMILES IDX 14 14 15 15 16 16 17 17 18 18 19 19 20 20 21 21 22 22 23 23
REMARK SMILES IDX 24 24
REMARK H PARENT
REMARK Flexibility Score: inf
ROOT
ATOM      1  C   UNL     1      44.293  11.629 122.391  1.00  0.00     0.000 C 
ENDROOT
BRANCH   1   2
ATOM      2  C   UNL     1      44.420  12.842 121.445  1.00  0.00     0.000 C 
BRANCH   2   3
ATOM      3  C   UNL     1      43.491  12.769 120.221  1.00  0.00     0.000 C 
BRANCH   3   4
ATOM      4  C   UNL     1      44.009  13.587 119.028  1.00  0.00    -0.000 C 
BRANCH   4   5
ATOM      5  C   UNL     1      44.022  12.785 117.715  1.00  0.00    -0.000 C 
BRANCH   5   6
ATOM      6  C   UNL     1      43.224  11.465 117.788  1.00  0.00    -0.000 C 
BRANCH   6   7
ATOM      7  C   UNL     1      43.402  10.607 116.522  1.00  0.00    -0.000 C 
BRANCH   7   8
ATOM      8  C   UNL     1      44.806   9.988 116.418  1.00  0.00    -0.000 C 
BRANCH   8   9
ATOM      9  C   UNL     1      45.319   9.460 117.769  1.00  0.00    -0.000 C 
BRANCH   9  10
ATOM     10  C   UNL     1      46.642  10.117 118.205  1.00  0.00    -0.000 C 
BRANCH  10  11
ATOM     11  C   UNL     1      46.621  10.750 119.607  1.00  0.00    -0.003 C 
ATOM     12  C   UNL     1      48.001  10.803 120.260  1.00  0.00     0.004 C 
ENDBRANCH  10  11
ENDBRANCH   9  10
ENDBRANCH   8   9
ENDBRANCH   7   8
ENDBRANCH   6   7
ENDBRANCH   5   6
ENDBRANCH   4   5
ENDBRANCH   3   4
ENDBRANCH   2   3
ENDBRANCH   1   2
BRANCH   1  13
ATOM     13  C   UNL     1      44.893  11.909 123.780  1.00  0.00     0.000 C 
BRANCH  13  14
ATOM     14  C   UNL     1      46.318  11.354 123.930  1.00  0.00     0.000 C 
BRANCH  14  15
ATOM     15  C   UNL     1      46.373   9.823 123.793  1.00  0.00     0.000 C 
BRANCH  15  16
ATOM     16  C   UNL     1      47.804   9.288 123.619  1.00  0.00     0.000 C 
BRANCH  16  17
ATOM     17  C   UNL     1      48.123   8.071 124.513  1.00  0.00     0.000 C 
BRANCH  17  18
ATOM     18  C   UNL     1      47.092   7.885 125.636  1.00  0.00     0.000 C 
BRANCH  18  19
ATOM     19  C   UNL     1      47.736   7.224 126.865  1.00  0.00     0.000 C 
BRANCH  19  20
ATOM     20  C   UNL     1      46.701   6.799 127.924  1.00  0.00     0.006 C 
BRANCH  20  21
ATOM     21  C   UNL     1      45.240   6.917 127.465  1.00  0.00     0.053 C 
BRANCH  21  22
ATOM     22  C   UNL     1      44.635   5.581 127.160  1.00  0.00     0.041 C 
ATOM     23  O   UNL     1      43.854   5.447 126.180  1.00  0.00    -0.550 OA
ATOM     24  O   UNL     1      44.903   4.489 127.981  1.00  0.00    -0.550 OA
ENDBRANCH  21  22
ENDBRANCH  20  21
ENDBRANCH  19  20
ENDBRANCH  18  19
ENDBRANCH  17  18
ENDBRANCH  16  17
ENDBRANCH  15  16
ENDBRANCH  14  15
ENDBRANCH  13  14
ENDBRANCH   1  13
TORSDOF 20
ENDMDL
MODEL 8
REMARK VINA RESULT:    -5.016      4.691      7.543
REMARK INTER + INTRA:         -12.862
REMARK INTER:                 -10.943
REMARK INTRA:                  -1.920
REMARK UNBOUND:                -1.981
REMARK SMILES CCCCCCCCCCCCCCCCCCCCCC(=O)[O-]
REMARK SMILES IDX 12 1 11 2 10 3 9 4 8 5 7 6 6 7 5 8 4 9 3 10 2 11 1 12 13 13
REMARK SMILES IDX 14 14 15 15 16 16 17 17 18 18 19 19 20 20 21 21 22 22 23 23
REMARK SMILES IDX 24 24
REMARK H PARENT
REMARK Flexibility Score: inf
ROOT
ATOM      1  C   UNL     1      43.899   2.829 132.565  1.00  0.00     0.000 C 
ENDROOT
BRANCH   1   2
ATOM      2  C   UNL     1      44.698   4.115 132.267  1.00  0.00     0.000 C 
BRANCH   2   3
ATOM      3  C   UNL     1      46.213   3.964 132.488  1.00  0.00     0.000 C 
BRANCH   3   4
ATOM      4  C   UNL     1      47.046   4.537 131.331  1.00  0.00    -0.000 C 
BRANCH   4   5
ATOM      5  C   UNL     1      46.180   5.130 130.207  1.00  0.00    -0.000 C 
BRANCH   5   6
ATOM      6  C   UNL     1      46.981   5.953 129.175  1.00  0.00    -0.000 C 
BRANCH   6   7
ATOM      7  C   UNL     1      46.570   5.628 127.728  1.00  0.00    -0.000 C 
BRANCH   7   8
ATOM      8  C   UNL     1      45.541   4.489 127.644  1.00  0.00    -0.000 C 
BRANCH   8   9
ATOM      9  C   UNL     1      44.359   4.829 126.720  1.00  0.00    -0.000 C 
BRANCH   9  10
ATOM     10  C   UNL     1      43.686   6.168 127.077  1.00  0.00    -0.000 C 
BRANCH  10  11
ATOM     11  C   UNL     1      42.991   6.200 128.449  1.00  0.00    -0.003 C 
ATOM     12  C   UNL     1      43.383   7.415 129.289  1.00  0.00     0.004 C 
ENDBRANCH  10  11
ENDBRANCH   9  10
ENDBRANCH   8   9
ENDBRANCH   7   8
ENDBRANCH   6   7
ENDBRANCH   5   6
ENDBRANCH   4   5
ENDBRANCH   3   4
ENDBRANCH   2   3
ENDBRANCH   1   2
BRANCH   1  13
ATOM     13  C   UNL     1      44.810   1.662 132.985  1.00  0.00     0.000 C 
BRANCH  13  14
ATOM     14  C   UNL     1      44.297   0.303 132.483  1.00  0.00     0.000 C 
BRANCH  14  15
ATOM     15  C   UNL     1      42.890   0.394 131.868  1.00  0.00     0.000 C 
BRANCH  15  16
ATOM     16  C   UNL     1      41.802  -0.214 132.768  1.00  0.00     0.000 C 
BRANCH  16  17
ATOM     17  C   UNL     1      42.172  -0.222 134.266  1.00  0.00     0.000 C 
BRANCH  17  18
ATOM     18  C   UNL     1      41.116  -0.933 135.126  1.00  0.00     0.000 C 
BRANCH  18  19
ATOM     19  C   UNL     1      40.254  -1.872 134.267  1.00  0.00     0.000 C 
BRANCH  19  20
ATOM     20  C   UNL     1      38.864  -2.131 134.877  1.00  0.00     0.006 C 
BRANCH  20  21
ATOM     21  C   UNL     1      37.773  -1.157 134.405  1.00  0.00     0.053 C 
BRANCH  21  22
ATOM     22  C   UNL     1      36.657  -1.860 133.697  1.00  0.00     0.041 C 
ATOM     23  O   UNL     1      36.502  -3.104 133.836  1.00  0.00    -0.550 OA
ATOM     24  O   UNL     1      35.809  -1.152 132.851  1.00  0.00    -0.550 OA
ENDBRANCH  21  22
ENDBRANCH  20  21
ENDBRANCH  19  20
ENDBRANCH  18  19
ENDBRANCH  17  18
ENDBRANCH  16  17
ENDBRANCH  15  16
ENDBRANCH  14  15
ENDBRANCH  13  14
ENDBRANCH   1  13
TORSDOF 20
ENDMDL
MODEL 9
REMARK VINA RESULT:    -4.814      1.069      2.264
REMARK INTER + INTRA:         -12.423
REMARK INTER:                 -10.488
REMARK INTRA:                  -1.936
REMARK UNBOUND:                -1.981
REMARK SMILES CCCCCCCCCCCCCCCCCCCCCC(=O)[O-]
REMARK SMILES IDX 12 1 11 2 10 3 9 4 8 5 7 6 6 7 5 8 4 9 3 10 2 11 1 12 13 13
REMARK SMILES IDX 14 14 15 15 16 16 17 17 18 18 19 19 20 20 21 21 22 22 23 23
REMARK SMILES IDX 24 24
REMARK H PARENT
REMARK Flexibility Score: inf
ROOT
ATOM      1  C   UNL     1      46.403   7.480 126.253  1.00  0.00     0.000 C 
ENDROOT
BRANCH   1   2
ATOM      2  C   UNL     1      46.182   7.977 124.808  1.00  0.00     0.000 C 
BRANCH   2   3
ATOM      3  C   UNL     1      47.488   8.192 124.025  1.00  0.00     0.000 C 
BRANCH   3   4
ATOM      4  C   UNL     1      47.584   9.590 123.393  1.00  0.00    -0.000 C 
BRANCH   4   5
ATOM      5  C   UNL     1      47.472  10.722 124.429  1.00  0.00    -0.000 C 
BRANCH   5   6
ATOM      6  C   UNL     1      46.511  11.854 124.007  1.00  0.00    -0.000 C 
BRANCH   6   7
ATOM      7  C   UNL     1      45.035  11.422 124.081  1.00  0.00    -0.000 C 
BRANCH   7   8
ATOM      8  C   UNL     1      44.305  11.568 122.736  1.00  0.00    -0.000 C 
BRANCH   8   9
ATOM      9  C   UNL     1      44.837  12.747 121.903  1.00  0.00    -0.000 C 
BRANCH   9  10
ATOM     10  C   UNL     1      45.318  12.322 120.503  1.00  0.00    -0.000 C 
BRANCH  10  11
ATOM     11  C   UNL     1      45.696  10.836 120.370  1.00  0.00    -0.003 C 
ATOM     12  C   UNL     1      46.817  10.592 119.361  1.00  0.00     0.004 C 
ENDBRANCH  10  11
ENDBRANCH   9  10
ENDBRANCH   8   9
ENDBRANCH   7   8
ENDBRANCH   6   7
ENDBRANCH   5   6
ENDBRANCH   4   5
ENDBRANCH   3   4
ENDBRANCH   2   3
ENDBRANCH   1   2
BRANCH   1  13
ATOM     13  C   UNL     1      47.887   7.510 126.658  1.00  0.00     0.000 C 
BRANCH  13  14
ATOM     14  C   UNL     1      48.125   6.949 128.069  1.00  0.00     0.000 C 
BRANCH  14  15
ATOM     15  C   UNL     1      46.833   6.876 128.901  1.00  0.00     0.000 C 
BRANCH  15  16
ATOM     16  C   UNL     1      46.643   5.515 129.591  1.00  0.00     0.000 C 
BRANCH  16  17
ATOM     17  C   UNL     1      47.966   4.847 130.018  1.00  0.00     0.000 C 
BRANCH  17  18
ATOM     18  C   UNL     1      47.809   3.997 131.288  1.00  0.00     0.000 C 
BRANCH  18  19
ATOM     19  C   UNL     1      46.441   4.242 131.945  1.00  0.00     0.000 C 
BRANCH  19  20
ATOM     20  C   UNL     1      46.147   3.260 133.094  1.00  0.00     0.006 C 
BRANCH  20  21
ATOM     21  C   UNL     1      45.797   1.836 132.636  1.00  0.00     0.053 C 
BRANCH  21  22
ATOM     22  C   UNL     1      44.318   1.605 132.591  1.00  0.00     0.041 C 
ATOM     23  O   UNL     1      43.541   2.343 133.254  1.00  0.00    -0.550 OA
ATOM     24  O   UNL     1      43.798   0.551 131.847  1.00  0.00    -0.550 OA
ENDBRANCH  21  22
ENDBRANCH  20  21
ENDBRANCH  19  20
ENDBRANCH  18  19
ENDBRANCH  17  18
ENDBRANCH  16  17
ENDBRANCH  15  16
ENDBRANCH  14  15
ENDBRANCH  13  14
ENDBRANCH   1  13
TORSDOF 20
ENDMDL
