MODEL 1
REMARK VINA RESULT:    -6.705      0.000      0.000
REMARK INTER + INTRA:          -8.001
REMARK INTER:                  -8.077
REMARK INTRA:                   0.075
REMARK UNBOUND:                 0.075
REMARK SMILES O=c1c(O)c(-c2ccc(O)c(O)c2)oc2cc(O)cc(O)c12
REMARK SMILES IDX 5 1 3 2 2 3 1 4 22 5 20 6 19 7 17 8 16 9 15 10 14 11 6 12
REMARK SMILES IDX 7 13 8 14 9 15 13 16 11 17 10 18 12 20 4 22 21 24 18 26
REMARK H PARENT 10 19 12 21 4 23 21 25 18 27
REMARK Flexibility Score: inf
ROOT
ATOM      1  C   UNL     1     116.875 116.875  99.750  1.00  0.00     0.180 A 
ATOM      2  C   UNL     1     116.436 116.809  98.414  1.00  0.00     0.208 A 
ATOM      3  C   UNL     1     115.454 115.869  98.067  1.00  0.00     0.238 A 
ATOM      4  O   UNL     1     115.045 115.808  96.875  1.00  0.00    -0.285 OA
ATOM      5  C   UNL     1     114.943 114.999  99.052  1.00  0.00     0.111 A 
ATOM      6  C   UNL     1     113.955 114.021  98.785  1.00  0.00     0.134 A 
ATOM      7  C   UNL     1     113.504 113.187  99.819  1.00  0.00     0.093 A 
ATOM      8  C   UNL     1     114.020 113.311 101.111  1.00  0.00     0.123 A 
ATOM      9  C   UNL     1     114.996 114.275 101.381  1.00  0.00     0.094 A 
ATOM     10  C   UNL     1     115.457 115.118 100.365  1.00  0.00     0.146 A 
ATOM     11  O   UNL     1     116.381 116.029 100.650  1.00  0.00    -0.452 OA
ENDROOT
BRANCH   1  12
ATOM     12  C   UNL     1     117.893 117.852 100.198  1.00  0.00     0.025 A 
ATOM     13  C   UNL     1     117.721 118.601 101.375  1.00  0.00     0.016 A 
ATOM     14  C   UNL     1     118.706 119.500 101.790  1.00  0.00     0.051 A 
ATOM     15  C   UNL     1     119.880 119.656 101.048  1.00  0.00     0.157 A 
ATOM     16  C   UNL     1     119.083 117.996  99.466  1.00  0.00     0.062 A 
ATOM     17  C   UNL     1     120.072 118.898  99.881  1.00  0.00     0.158 A 
BRANCH  15  18
ATOM     18  O   UNL     1     120.845 120.563 101.487  1.00  0.00    -0.504 OA
ATOM     19  H   UNL     1     121.837 120.384 101.384  1.00  0.00     0.293 HD
ENDBRANCH  15  18
BRANCH  17  20
ATOM     20  O   UNL     1     121.245 119.043  99.139  1.00  0.00    -0.504 OA
ATOM     21  H   UNL     1     121.658 119.952  98.971  1.00  0.00     0.293 HD
ENDBRANCH  17  20
ENDBRANCH   1  12
BRANCH   2  22
ATOM     22  O   UNL     1     116.995 117.648  97.446  1.00  0.00    -0.502 OA
ATOM     23  H   UNL     1     116.681 118.600  97.307  1.00  0.00     0.293 HD
ENDBRANCH   2  22
BRANCH   6  24
ATOM     24  O   UNL     1     113.419 113.872  97.505  1.00  0.00    -0.507 OA
ATOM     25  H   UNL     1     113.925 113.398  96.767  1.00  0.00     0.293 HD
ENDBRANCH   6  24
BRANCH   8  26
ATOM     26  O   UNL     1     113.556 112.469 102.120  1.00  0.00    -0.508 OA
ATOM     27  H   UNL     1     113.739 111.473 102.103  1.00  0.00     0.293 HD
ENDBRANCH   8  26
TORSDOF 6
ENDMDL
MODEL 2
REMARK VINA RESULT:    -6.517      9.080     10.945
REMARK INTER + INTRA:          -7.775
REMARK INTER:                  -7.446
REMARK INTRA:                  -0.330
REMARK UNBOUND:                 0.075
REMARK SMILES O=c1c(O)c(-c2ccc(O)c(O)c2)oc2cc(O)cc(O)c12
REMARK SMILES IDX 5 1 3 2 2 3 1 4 22 5 20 6 19 7 17 8 16 9 15 10 14 11 6 12
REMARK SMILES IDX 7 13 8 14 9 15 13 16 11 17 10 18 12 20 4 22 21 24 18 26
REMARK H PARENT 10 19 12 21 4 23 21 25 18 27
REMARK Flexibility Score: inf
ROOT
ATOM      1  C   UNL     1     112.699 107.493 101.281  1.00  0.00     0.180 A 
ATOM      2  C   UNL     1     112.859 107.807  99.918  1.00  0.00     0.208 A 
ATOM      3  C   UNL     1     113.405 106.842  99.058  1.00  0.00     0.238 A 
ATOM      4  O   UNL     1     113.543 107.108  97.833  1.00  0.00    -0.285 OA
ATOM      5  C   UNL     1     113.800 105.591  99.576  1.00  0.00     0.111 A 
ATOM      6  C   UNL     1     114.363 104.566  98.779  1.00  0.00     0.134 A 
ATOM      7  C   UNL     1     114.739 103.351  99.372  1.00  0.00     0.093 A 
ATOM      8  C   UNL     1     114.564 103.143 100.742  1.00  0.00     0.123 A 
ATOM      9  C   UNL     1     114.009 104.152 101.534  1.00  0.00     0.094 A 
ATOM     10  C   UNL     1     113.625 105.369 100.962  1.00  0.00     0.146 A 
ATOM     11  O   UNL     1     113.096 106.309 101.737  1.00  0.00    -0.452 OA
ENDROOT
BRANCH   1  12
ATOM     12  C   UNL     1     112.112 108.450 102.247  1.00  0.00     0.025 A 
ATOM     13  C   UNL     1     110.721 108.557 102.418  1.00  0.00     0.016 A 
ATOM     14  C   UNL     1     110.191 109.451 103.352  1.00  0.00     0.051 A 
ATOM     15  C   UNL     1     111.038 110.240 104.136  1.00  0.00     0.157 A 
ATOM     16  C   UNL     1     112.960 109.229 103.050  1.00  0.00     0.062 A 
ATOM     17  C   UNL     1     112.430 110.128 103.987  1.00  0.00     0.158 A 
BRANCH  15  18
ATOM     18  O   UNL     1     110.480 111.125 105.059  1.00  0.00    -0.504 OA
ATOM     19  H   UNL     1     109.481 111.174 105.221  1.00  0.00     0.293 HD
ENDBRANCH  15  18
BRANCH  17  20
ATOM     20  O   UNL     1     113.282 110.906 104.771  1.00  0.00    -0.504 OA
ATOM     21  H   UNL     1     112.968 111.769 105.200  1.00  0.00     0.293 HD
ENDBRANCH  17  20
ENDBRANCH   1  12
BRANCH   2  22
ATOM     22  O   UNL     1     112.506 109.072  99.439  1.00  0.00    -0.502 OA
ATOM     23  H   UNL     1     111.641 109.529  99.700  1.00  0.00     0.293 HD
ENDBRANCH   2  22
BRANCH   6  24
ATOM     24  O   UNL     1     114.551 104.743  97.407  1.00  0.00    -0.507 OA
ATOM     25  H   UNL     1     115.457 104.620  96.973  1.00  0.00     0.293 HD
ENDBRANCH   6  24
BRANCH   8  26
ATOM     26  O   UNL     1     114.948 101.927 101.305  1.00  0.00    -0.508 OA
ATOM     27  H   UNL     1     114.402 101.487 102.037  1.00  0.00     0.293 HD
ENDBRANCH   8  26
TORSDOF 6
ENDMDL
MODEL 3
REMARK VINA RESULT:    -6.433      7.816     10.344
REMARK INTER + INTRA:          -7.674
REMARK INTER:                  -7.351
REMARK INTRA:                  -0.323
REMARK UNBOUND:                 0.075
REMARK SMILES O=c1c(O)c(-c2ccc(O)c(O)c2)oc2cc(O)cc(O)c12
REMARK SMILES IDX 5 1 3 2 2 3 1 4 22 5 20 6 19 7 17 8 16 9 15 10 14 11 6 12
REMARK SMILES IDX 7 13 8 14 9 15 13 16 11 17 10 18 12 20 4 22 21 24 18 26
REMARK H PARENT 10 19 12 21 4 23 21 25 18 27
REMARK Flexibility Score: inf
ROOT
ATOM      1  C   UNL     1     107.909 113.569 101.205  1.00  0.00     0.180 A 
ATOM      2  C   UNL     1     108.033 113.299  99.829  1.00  0.00     0.208 A 
ATOM      3  C   UNL     1     106.891 113.365  99.018  1.00  0.00     0.238 A 
ATOM      4  O   UNL     1     106.993 113.134  97.782  1.00  0.00    -0.285 OA
ATOM      5  C   UNL     1     105.643 113.678  99.595  1.00  0.00     0.111 A 
ATOM      6  C   UNL     1     104.443 113.760  98.849  1.00  0.00     0.134 A 
ATOM      7  C   UNL     1     103.239 114.069  99.499  1.00  0.00     0.093 A 
ATOM      8  C   UNL     1     103.212 114.296 100.877  1.00  0.00     0.123 A 
ATOM      9  C   UNL     1     104.393 114.217 101.620  1.00  0.00     0.094 A 
ATOM     10  C   UNL     1     105.604 113.912 100.990  1.00  0.00     0.146 A 
ATOM     11  O   UNL     1     106.713 113.847 101.718  1.00  0.00    -0.452 OA
ENDROOT
BRANCH   1  12
ATOM     12  C   UNL     1     109.070 113.539 102.123  1.00  0.00     0.025 A 
ATOM     13  C   UNL     1     109.778 114.710 102.447  1.00  0.00     0.016 A 
ATOM     14  C   UNL     1     110.856 114.662 103.334  1.00  0.00     0.051 A 
ATOM     15  C   UNL     1     111.236 113.451 103.919  1.00  0.00     0.157 A 
ATOM     16  C   UNL     1     109.442 112.328 102.729  1.00  0.00     0.062 A 
ATOM     17  C   UNL     1     110.524 112.277 103.618  1.00  0.00     0.158 A 
BRANCH  15  18
ATOM     18  O   UNL     1     112.318 113.433 104.800  1.00  0.00    -0.504 OA
ATOM     19  H   UNL     1     112.296 112.913 105.669  1.00  0.00     0.293 HD
ENDBRANCH  15  18
BRANCH  17  20
ATOM     20  O   UNL     1     110.893 111.067 104.205  1.00  0.00    -0.504 OA
ATOM     21  H   UNL     1     110.227 110.499 104.715  1.00  0.00     0.293 HD
ENDBRANCH  17  20
ENDBRANCH   1  12
BRANCH   2  22
ATOM     22  O   UNL     1     109.272 112.941  99.290  1.00  0.00    -0.502 OA
ATOM     23  H   UNL     1     109.563 111.976  99.191  1.00  0.00     0.293 HD
ENDBRANCH   2  22
BRANCH   6  24
ATOM     24  O   UNL     1     104.437 113.539  97.471  1.00  0.00    -0.507 OA
ATOM     25  H   UNL     1     103.582 113.334  96.967  1.00  0.00     0.293 HD
ENDBRANCH   6  24
BRANCH   8  26
ATOM     26  O   UNL     1     102.002 114.600 101.499  1.00  0.00    -0.508 OA
ATOM     27  H   UNL     1     101.915 115.384 102.135  1.00  0.00     0.293 HD
ENDBRANCH   8  26
TORSDOF 6
ENDMDL
MODEL 4
REMARK VINA RESULT:    -6.428     11.980     14.745
REMARK INTER + INTRA:          -7.667
REMARK INTER:                  -7.354
REMARK INTRA:                  -0.314
REMARK UNBOUND:                 0.075
REMARK SMILES O=c1c(O)c(-c2ccc(O)c(O)c2)oc2cc(O)cc(O)c12
REMARK SMILES IDX 5 1 3 2 2 3 1 4 22 5 20 6 19 7 17 8 16 9 15 10 14 11 6 12
REMARK SMILES IDX 7 13 8 14 9 15 13 16 11 17 10 18 12 20 4 22 21 24 18 26
REMARK H PARENT 10 19 12 21 4 23 21 25 18 27
REMARK Flexibility Score: inf
ROOT
ATOM      1  C   UNL     1     113.245 108.424 110.510  1.00  0.00     0.180 A 
ATOM      2  C   UNL     1     112.204 109.353 110.322  1.00  0.00     0.208 A 
ATOM      3  C   UNL     1     111.078 109.290 111.156  1.00  0.00     0.238 A 
ATOM      4  O   UNL     1     110.144 110.124 111.003  1.00  0.00    -0.285 OA
ATOM      5  C   UNL     1     111.000 108.291 112.148  1.00  0.00     0.111 A 
ATOM      6  C   UNL     1     109.898 108.155 113.027  1.00  0.00     0.134 A 
ATOM      7  C   UNL     1     109.893 107.128 113.982  1.00  0.00     0.093 A 
ATOM      8  C   UNL     1     110.964 106.236 114.075  1.00  0.00     0.123 A 
ATOM      9  C   UNL     1     112.054 106.364 113.210  1.00  0.00     0.094 A 
ATOM     10  C   UNL     1     112.080 107.383 112.252  1.00  0.00     0.146 A 
ATOM     11  O   UNL     1     113.131 107.486 111.446  1.00  0.00    -0.452 OA
ENDROOT
BRANCH   1  12
ATOM     12  C   UNL     1     114.473 108.438 109.684  1.00  0.00     0.025 A 
ATOM     13  C   UNL     1     115.524 109.333 109.950  1.00  0.00     0.016 A 
ATOM     14  C   UNL     1     116.683 109.312 109.171  1.00  0.00     0.051 A 
ATOM     15  C   UNL     1     116.818 108.392 108.126  1.00  0.00     0.157 A 
ATOM     16  C   UNL     1     114.620 107.502 108.647  1.00  0.00     0.062 A 
ATOM     17  C   UNL     1     115.782 107.480 107.864  1.00  0.00     0.158 A 
BRANCH  15  18
ATOM     18  O   UNL     1     117.987 108.396 107.365  1.00  0.00    -0.504 OA
ATOM     19  H   UNL     1     118.304 107.577 106.862  1.00  0.00     0.293 HD
ENDBRANCH  15  18
BRANCH  17  20
ATOM     20  O   UNL     1     115.912 106.555 106.828  1.00  0.00    -0.504 OA
ATOM     21  H   UNL     1     115.260 106.529 106.054  1.00  0.00     0.293 HD
ENDBRANCH  17  20
ENDBRANCH   1  12
BRANCH   2  22
ATOM     22  O   UNL     1     112.282 110.302 109.299  1.00  0.00    -0.502 OA
ATOM     23  H   UNL     1     113.164 110.596 108.897  1.00  0.00     0.293 HD
ENDBRANCH   2  22
BRANCH   6  24
ATOM     24  O   UNL     1     108.814 109.030 112.959  1.00  0.00    -0.507 OA
ATOM     25  H   UNL     1     107.865 108.696 112.840  1.00  0.00     0.293 HD
ENDBRANCH   6  24
BRANCH   8  26
ATOM     26  O   UNL     1     110.932 105.223 115.032  1.00  0.00    -0.508 OA
ATOM     27  H   UNL     1     111.410 104.342 114.887  1.00  0.00     0.293 HD
ENDBRANCH   8  26
TORSDOF 6
ENDMDL
MODEL 5
REMARK VINA RESULT:    -6.398     13.218     15.730
REMARK INTER + INTRA:          -7.632
REMARK INTER:                  -7.310
REMARK INTRA:                  -0.322
REMARK UNBOUND:                 0.075
REMARK SMILES O=c1c(O)c(-c2ccc(O)c(O)c2)oc2cc(O)cc(O)c12
REMARK SMILES IDX 5 1 3 2 2 3 1 4 22 5 20 6 19 7 17 8 16 9 15 10 14 11 6 12
REMARK SMILES IDX 7 13 8 14 9 15 13 16 11 17 10 18 12 20 4 22 21 24 18 26
REMARK H PARENT 10 19 12 21 4 23 21 25 18 27
REMARK Flexibility Score: inf
ROOT
ATOM      1  C   UNL     1     108.270 112.734 110.513  1.00  0.00     0.180 A 
ATOM      2  C   UNL     1     109.605 113.152 110.355  1.00  0.00     0.208 A 
ATOM      3  C   UNL     1     110.110 114.147 111.206  1.00  0.00     0.238 A 
ATOM      4  O   UNL     1     111.308 114.522 111.081  1.00  0.00    -0.285 OA
ATOM      5  C   UNL     1     109.270 114.721 112.182  1.00  0.00     0.111 A 
ATOM      6  C   UNL     1     109.699 115.732 113.076  1.00  0.00     0.134 A 
ATOM      7  C   UNL     1     108.799 116.258 114.014  1.00  0.00     0.093 A 
ATOM      8  C   UNL     1     107.483 115.796 114.076  1.00  0.00     0.123 A 
ATOM      9  C   UNL     1     107.053 114.798 113.197  1.00  0.00     0.094 A 
ATOM     10  C   UNL     1     107.935 114.258 112.255  1.00  0.00     0.146 A 
ATOM     11  O   UNL     1     107.503 113.308 111.435  1.00  0.00    -0.452 OA
ENDROOT
BRANCH   1  12
ATOM     12  C   UNL     1     107.670 111.676 109.668  1.00  0.00     0.025 A 
ATOM     13  C   UNL     1     107.858 110.313 109.959  1.00  0.00     0.016 A 
ATOM     14  C   UNL     1     107.262 109.333 109.161  1.00  0.00     0.051 A 
ATOM     15  C   UNL     1     106.464 109.695 108.072  1.00  0.00     0.157 A 
ATOM     16  C   UNL     1     106.851 112.036 108.586  1.00  0.00     0.062 A 
ATOM     17  C   UNL     1     106.254 111.054 107.783  1.00  0.00     0.158 A 
BRANCH  15  18
ATOM     18  O   UNL     1     105.885 108.693 107.292  1.00  0.00    -0.504 OA
ATOM     19  H   UNL     1     106.423 108.147 106.631  1.00  0.00     0.293 HD
ENDBRANCH  15  18
BRANCH  17  20
ATOM     20  O   UNL     1     105.452 111.423 106.703  1.00  0.00    -0.504 OA
ATOM     21  H   UNL     1     104.467 111.628 106.819  1.00  0.00     0.293 HD
ENDBRANCH  17  20
ENDBRANCH   1  12
BRANCH   2  22
ATOM     22  O   UNL     1     110.402 112.603 109.347  1.00  0.00    -0.502 OA
ATOM     23  H   UNL     1     111.114 113.138 108.866  1.00  0.00     0.293 HD
ENDBRANCH   2  22
BRANCH   6  24
ATOM     24  O   UNL     1     111.008 116.215 113.039  1.00  0.00    -0.507 OA
ATOM     25  H   UNL     1     111.490 116.382 112.164  1.00  0.00     0.293 HD
ENDBRANCH   6  24
BRANCH   8  26
ATOM     26  O   UNL     1     106.609 116.338 115.017  1.00  0.00    -0.508 OA
ATOM     27  H   UNL     1     105.604 116.295 114.893  1.00  0.00     0.293 HD
ENDBRANCH   8  26
TORSDOF 6
ENDMDL
MODEL 6
REMARK VINA RESULT:    -6.388      9.966     12.281
REMARK INTER + INTRA:          -7.620
REMARK INTER:                  -7.290
REMARK INTRA:                  -0.330
REMARK UNBOUND:                 0.075
REMARK SMILES O=c1c(O)c(-c2ccc(O)c(O)c2)oc2cc(O)cc(O)c12
REMARK SMILES IDX 5 1 3 2 2 3 1 4 22 5 20 6 19 7 17 8 16 9 15 10 14 11 6 12
REMARK SMILES IDX 7 13 8 14 9 15 13 16 11 17 10 18 12 20 4 22 21 24 18 26
REMARK H PARENT 10 19 12 21 4 23 21 25 18 27
REMARK Flexibility Score: inf
ROOT
ATOM      1  C   UNL     1     114.476 114.923 110.457  1.00  0.00     0.180 A 
ATOM      2  C   UNL     1     114.235 113.554 110.235  1.00  0.00     0.208 A 
ATOM      3  C   UNL     1     114.859 112.611 111.066  1.00  0.00     0.238 A 
ATOM      4  O   UNL     1     114.642 111.382 110.883  1.00  0.00    -0.285 OA
ATOM      5  C   UNL     1     115.727 113.049 112.088  1.00  0.00     0.111 A 
ATOM      6  C   UNL     1     116.399 112.165 112.965  1.00  0.00     0.134 A 
ATOM      7  C   UNL     1     117.253 112.680 113.952  1.00  0.00     0.093 A 
ATOM      8  C   UNL     1     117.449 114.057 114.077  1.00  0.00     0.123 A 
ATOM      9  C   UNL     1     116.788 114.935 113.213  1.00  0.00     0.094 A 
ATOM     10  C   UNL     1     115.930 114.443 112.225  1.00  0.00     0.146 A 
ATOM     11  O   UNL     1     115.311 115.299 111.421  1.00  0.00    -0.452 OA
ENDROOT
BRANCH   1  12
ATOM     12  C   UNL     1     113.839 115.978 109.635  1.00  0.00     0.025 A 
ATOM     13  C   UNL     1     112.556 116.466 109.937  1.00  0.00     0.016 A 
ATOM     14  C   UNL     1     111.985 117.478 109.162  1.00  0.00     0.051 A 
ATOM     15  C   UNL     1     112.688 118.028 108.086  1.00  0.00     0.157 A 
ATOM     16  C   UNL     1     114.551 116.546 108.567  1.00  0.00     0.062 A 
ATOM     17  C   UNL     1     113.979 117.562 107.787  1.00  0.00     0.158 A 
BRANCH  15  18
ATOM     18  O   UNL     1     112.091 119.036 107.329  1.00  0.00    -0.504 OA
ATOM     19  H   UNL     1     111.303 119.571 107.672  1.00  0.00     0.293 HD
ENDBRANCH  15  18
BRANCH  17  20
ATOM     20  O   UNL     1     114.690 118.110 106.720  1.00  0.00    -0.504 OA
ATOM     21  H   UNL     1     115.555 117.698 106.389  1.00  0.00     0.293 HD
ENDBRANCH  17  20
ENDBRANCH   1  12
BRANCH   2  22
ATOM     22  O   UNL     1     113.411 113.143 109.184  1.00  0.00    -0.502 OA
ATOM     23  H   UNL     1     113.773 112.920 108.265  1.00  0.00     0.293 HD
ENDBRANCH   2  22
BRANCH   6  24
ATOM     24  O   UNL     1     116.225 110.784 112.866  1.00  0.00    -0.507 OA
ATOM     25  H   UNL     1     116.991 110.165 112.633  1.00  0.00     0.293 HD
ENDBRANCH   6  24
BRANCH   8  26
ATOM     26  O   UNL     1     118.304 114.542 115.065  1.00  0.00    -0.508 OA
ATOM     27  H   UNL     1     117.961 115.108 115.831  1.00  0.00     0.293 HD
ENDBRANCH   8  26
TORSDOF 6
ENDMDL
MODEL 7
REMARK VINA RESULT:    -6.152      8.458     10.841
REMARK INTER + INTRA:          -7.335
REMARK INTER:                  -7.005
REMARK INTRA:                  -0.330
REMARK UNBOUND:                 0.075
REMARK SMILES O=c1c(O)c(-c2ccc(O)c(O)c2)oc2cc(O)cc(O)c12
REMARK SMILES IDX 5 1 3 2 2 3 1 4 22 5 20 6 19 7 17 8 16 9 15 10 14 11 6 12
REMARK SMILES IDX 7 13 8 14 9 15 13 16 11 17 10 18 12 20 4 22 21 24 18 26
REMARK H PARENT 10 19 12 21 4 23 21 25 18 27
REMARK Flexibility Score: inf
ROOT
ATOM      1  C   UNL     1     109.743 113.467 106.501  1.00  0.00     0.180 A 
ATOM      2  C   UNL     1     110.399 112.230 106.351  1.00  0.00     0.208 A 
ATOM      3  C   UNL     1     109.635 111.054 106.332  1.00  0.00     0.238 A 
ATOM      4  O   UNL     1     110.211 109.941 106.187  1.00  0.00    -0.285 OA
ATOM      5  C   UNL     1     108.235 111.129 106.483  1.00  0.00     0.111 A 
ATOM      6  C   UNL     1     107.393 109.992 106.480  1.00  0.00     0.134 A 
ATOM      7  C   UNL     1     106.009 110.151 106.645  1.00  0.00     0.093 A 
ATOM      8  C   UNL     1     105.452 111.420 106.814  1.00  0.00     0.123 A 
ATOM      9  C   UNL     1     106.279 112.548 106.818  1.00  0.00     0.094 A 
ATOM     10  C   UNL     1     107.661 112.412 106.653  1.00  0.00     0.146 A 
ATOM     11  O   UNL     1     108.423 113.499 106.656  1.00  0.00    -0.452 OA
ENDROOT
BRANCH   1  12
ATOM     12  C   UNL     1     110.478 114.753 106.512  1.00  0.00     0.025 A 
ATOM     13  C   UNL     1     110.774 115.435 105.319  1.00  0.00     0.016 A 
ATOM     14  C   UNL     1     111.447 116.659 105.355  1.00  0.00     0.051 A 
ATOM     15  C   UNL     1     111.823 117.225 106.577  1.00  0.00     0.157 A 
ATOM     16  C   UNL     1     110.838 115.333 107.738  1.00  0.00     0.062 A 
ATOM     17  C   UNL     1     111.515 116.561 107.776  1.00  0.00     0.158 A 
BRANCH  15  18
ATOM     18  O   UNL     1     112.496 118.447 106.581  1.00  0.00    -0.504 OA
ATOM     19  H   UNL     1     113.487 118.516 106.386  1.00  0.00     0.293 HD
ENDBRANCH  15  18
BRANCH  17  20
ATOM     20  O   UNL     1     111.880 117.122 109.000  1.00  0.00    -0.504 OA
ATOM     21  H   UNL     1     112.680 117.738 109.084  1.00  0.00     0.293 HD
ENDBRANCH  17  20
ENDBRANCH   1  12
BRANCH   2  22
ATOM     22  O   UNL     1     111.793 112.178 106.254  1.00  0.00    -0.502 OA
ATOM     23  H   UNL     1     112.292 112.499 105.434  1.00  0.00     0.293 HD
ENDBRANCH   2  22
BRANCH   6  24
ATOM     24  O   UNL     1     107.918 108.710 106.313  1.00  0.00    -0.507 OA
ATOM     25  H   UNL     1     108.649 108.351 106.915  1.00  0.00     0.293 HD
ENDBRANCH   6  24
BRANCH   8  26
ATOM     26  O   UNL     1     104.074 111.550 106.978  1.00  0.00    -0.508 OA
ATOM     27  H   UNL     1     103.435 110.826 106.672  1.00  0.00     0.293 HD
ENDBRANCH   8  26
TORSDOF 6
ENDMDL
MODEL 8
REMARK VINA RESULT:    -6.150      9.634     12.684
REMARK INTER + INTRA:          -7.333
REMARK INTER:                  -7.002
REMARK INTRA:                  -0.331
REMARK UNBOUND:                 0.075
REMARK SMILES O=c1c(O)c(-c2ccc(O)c(O)c2)oc2cc(O)cc(O)c12
REMARK SMILES IDX 5 1 3 2 2 3 1 4 22 5 20 6 19 7 17 8 16 9 15 10 14 11 6 12
REMARK SMILES IDX 7 13 8 14 9 15 13 16 11 17 10 18 12 20 4 22 21 24 18 26
REMARK H PARENT 10 19 12 21 4 23 21 25 18 27
REMARK Flexibility Score: inf
ROOT
ATOM      1  C   UNL     1     111.788 109.326 106.493  1.00  0.00     0.180 A 
ATOM      2  C   UNL     1     112.527 110.504 106.268  1.00  0.00     0.208 A 
ATOM      3  C   UNL     1     113.927 110.428 106.215  1.00  0.00     0.238 A 
ATOM      4  O   UNL     1     114.598 111.475 106.003  1.00  0.00    -0.285 OA
ATOM      5  C   UNL     1     114.565 109.185 106.408  1.00  0.00     0.111 A 
ATOM      6  C   UNL     1     115.971 109.024 106.374  1.00  0.00     0.134 A 
ATOM      7  C   UNL     1     116.530 107.754 106.584  1.00  0.00     0.093 A 
ATOM      8  C   UNL     1     115.714 106.647 106.827  1.00  0.00     0.123 A 
ATOM      9  C   UNL     1     114.325 106.801 106.861  1.00  0.00     0.094 A 
ATOM     10  C   UNL     1     113.747 108.057 106.652  1.00  0.00     0.146 A 
ATOM     11  O   UNL     1     112.425 108.174 106.685  1.00  0.00    -0.452 OA
ENDROOT
BRANCH   1  12
ATOM     12  C   UNL     1     110.308 109.321 106.543  1.00  0.00     0.025 A 
ATOM     13  C   UNL     1     109.537 109.207 105.373  1.00  0.00     0.016 A 
ATOM     14  C   UNL     1     108.142 109.181 105.447  1.00  0.00     0.051 A 
ATOM     15  C   UNL     1     107.498 109.255 106.685  1.00  0.00     0.157 A 
ATOM     16  C   UNL     1     109.658 109.375 107.786  1.00  0.00     0.062 A 
ATOM     17  C   UNL     1     108.259 109.350 107.862  1.00  0.00     0.158 A 
BRANCH  15  18
ATOM     18  O   UNL     1     106.103 109.228 106.727  1.00  0.00    -0.504 OA
ATOM     19  H   UNL     1     105.556 110.055 106.928  1.00  0.00     0.293 HD
ENDBRANCH  15  18
BRANCH  17  20
ATOM     20  O   UNL     1     107.622 109.416 109.101  1.00  0.00    -0.504 OA
ATOM     21  H   UNL     1     106.649 109.684 109.185  1.00  0.00     0.293 HD
ENDBRANCH  17  20
ENDBRANCH   1  12
BRANCH   2  22
ATOM     22  O   UNL     1     111.873 111.731 106.130  1.00  0.00    -0.502 OA
ATOM     23  H   UNL     1     111.268 111.938 105.345  1.00  0.00     0.293 HD
ENDBRANCH   2  22
BRANCH   6  24
ATOM     24  O   UNL     1     116.814 110.109 106.134  1.00  0.00    -0.507 OA
ATOM     25  H   UNL     1     116.591 110.815 105.443  1.00  0.00     0.293 HD
ENDBRANCH   6  24
BRANCH   8  26
ATOM     26  O   UNL     1     116.295 105.398 107.034  1.00  0.00    -0.508 OA
ATOM     27  H   UNL     1     116.952 105.238 107.789  1.00  0.00     0.293 HD
ENDBRANCH   8  26
TORSDOF 6
ENDMDL
MODEL 9
REMARK VINA RESULT:    -6.075      7.649      9.834
REMARK INTER + INTRA:          -7.243
REMARK INTER:                  -6.910
REMARK INTRA:                  -0.332
REMARK UNBOUND:                 0.075
REMARK SMILES O=c1c(O)c(-c2ccc(O)c(O)c2)oc2cc(O)cc(O)c12
REMARK SMILES IDX 5 1 3 2 2 3 1 4 22 5 20 6 19 7 17 8 16 9 15 10 14 11 6 12
REMARK SMILES IDX 7 13 8 14 9 15 13 16 11 17 10 18 12 20 4 22 21 24 18 26
REMARK H PARENT 10 19 12 21 4 23 21 25 18 27
REMARK Flexibility Score: inf
ROOT
ATOM      1  C   UNL     1     114.477 113.111 106.644  1.00  0.00     0.180 A 
ATOM      2  C   UNL     1     113.083 113.150 106.448  1.00  0.00     0.208 A 
ATOM      3  C   UNL     1     112.443 114.396 106.368  1.00  0.00     0.238 A 
ATOM      4  O   UNL     1     111.196 114.442 106.182  1.00  0.00    -0.285 OA
ATOM      5  C   UNL     1     113.199 115.578 106.505  1.00  0.00     0.111 A 
ATOM      6  C   UNL     1     112.630 116.873 106.441  1.00  0.00     0.134 A 
ATOM      7  C   UNL     1     113.450 118.001 106.595  1.00  0.00     0.093 A 
ATOM      8  C   UNL     1     114.822 117.860 106.813  1.00  0.00     0.123 A 
ATOM      9  C   UNL     1     115.390 116.584 106.877  1.00  0.00     0.094 A 
ATOM     10  C   UNL     1     114.591 115.447 106.723  1.00  0.00     0.146 A 
ATOM     11  O   UNL     1     115.156 114.247 106.783  1.00  0.00    -0.452 OA
ENDROOT
BRANCH   1  12
ATOM     12  C   UNL     1     115.227 111.837 106.719  1.00  0.00     0.025 A 
ATOM     13  C   UNL     1     115.759 111.232 105.567  1.00  0.00     0.016 A 
ATOM     14  C   UNL     1     116.484 110.042 105.666  1.00  0.00     0.051 A 
ATOM     15  C   UNL     1     116.700 109.445 106.912  1.00  0.00     0.157 A 
ATOM     16  C   UNL     1     115.463 111.247 107.971  1.00  0.00     0.062 A 
ATOM     17  C   UNL     1     116.189 110.052 108.072  1.00  0.00     0.158 A 
BRANCH  15  18
ATOM     18  O   UNL     1     117.426 108.256 106.979  1.00  0.00    -0.504 OA
ATOM     19  H   UNL     1     117.181 107.445 106.425  1.00  0.00     0.293 HD
ENDBRANCH  15  18
BRANCH  17  20
ATOM     20  O   UNL     1     116.407 109.467 109.320  1.00  0.00    -0.504 OA
ATOM     21  H   UNL     1     115.997 109.848 110.164  1.00  0.00     0.293 HD
ENDBRANCH  17  20
ENDBRANCH   1  12
BRANCH   2  22
ATOM     22  O   UNL     1     112.349 111.964 106.366  1.00  0.00    -0.502 OA
ATOM     23  H   UNL     1     111.626 111.725 107.033  1.00  0.00     0.293 HD
ENDBRANCH   2  22
BRANCH   6  24
ATOM     24  O   UNL     1     111.263 117.048 106.226  1.00  0.00    -0.507 OA
ATOM     25  H   UNL     1     110.902 117.399 105.347  1.00  0.00     0.293 HD
ENDBRANCH   6  24
BRANCH   8  26
ATOM     26  O   UNL     1     115.614 118.998 106.965  1.00  0.00    -0.508 OA
ATOM     27  H   UNL     1     115.315 119.901 106.616  1.00  0.00     0.293 HD
ENDBRANCH   8  26
TORSDOF 6
ENDMDL
