MODEL 1
REMARK VINA RESULT:    -6.412      0.000      0.000
REMARK INTER + INTRA:          -8.064
REMARK INTER:                  -7.724
REMARK INTRA:                  -0.339
REMARK UNBOUND:                -0.339
REMARK SMILES Oc1cc(O)c2cc(O)c(-c3ccc(O)c(O)c3)[o+]c2c1.[Cl-]
REMARK SMILES IDX 10 1 19 2 20 3 21 4 2 5 3 6 4 7 6 8 7 9 8 10 11 11 12 12
REMARK SMILES IDX 13 13 14 14 18 15 16 16 15 17 17 19 9 21 1 23 5 25
REMARK H PARENT 15 18 17 20 9 22 1 24 5 26
REMARK Flexibility Score: inf
ROOT
ATOM      1  C   UNL     1      53.629  44.095  21.910  1.00  0.00     0.402 A 
ATOM      2  O   UNL     1      53.741  42.989  22.641  1.00  0.00    -0.202 OA
ATOM      3  C   UNL     1      53.078  41.867  22.374  1.00  0.00     0.368 A 
ATOM      4  C   UNL     1      53.265  40.755  23.199  1.00  0.00     0.162 A 
ATOM      5  C   UNL     1      52.583  39.563  22.939  1.00  0.00     0.128 A 
ATOM      6  C   UNL     1      51.714  39.482  21.849  1.00  0.00     0.093 A 
ATOM      7  C   UNL     1      51.510  40.582  21.007  1.00  0.00     0.136 A 
ATOM      8  C   UNL     1      52.197  41.797  21.269  1.00  0.00     0.125 A 
ATOM      9  C   UNL     1      52.046  42.953  20.487  1.00  0.00     0.078 A 
ATOM     10  C   UNL     1      52.753  44.115  20.809  1.00  0.00     0.223 A 
ENDROOT
BRANCH   1  11
ATOM     11  C   UNL     1      54.428  45.279  22.304  1.00  0.00     0.087 A 
ATOM     12  C   UNL     1      53.885  46.292  23.114  1.00  0.00     0.022 A 
ATOM     13  C   UNL     1      54.650  47.411  23.453  1.00  0.00     0.051 A 
ATOM     14  C   UNL     1      55.962  47.539  22.979  1.00  0.00     0.157 A 
ATOM     15  C   UNL     1      55.736  45.424  21.814  1.00  0.00     0.068 A 
ATOM     16  C   UNL     1      56.506  46.542  22.154  1.00  0.00     0.158 A 
BRANCH  14  17
ATOM     17  O   UNL     1      56.724  48.656  23.322  1.00  0.00    -0.504 OA
ATOM     18  H   UNL     1      57.514  48.586  23.953  1.00  0.00     0.293 HD
ENDBRANCH  14  17
BRANCH  16  19
ATOM     19  O   UNL     1      57.806  46.645  21.659  1.00  0.00    -0.504 OA
ATOM     20  H   UNL     1      58.028  47.198  20.840  1.00  0.00     0.293 HD
ENDBRANCH  16  19
ENDBRANCH   1  11
BRANCH  10  21
ATOM     21  O   UNL     1      52.565  45.278  20.063  1.00  0.00    -0.500 OA
ATOM     22  H   UNL     1      52.745  45.308  19.066  1.00  0.00     0.294 HD
ENDBRANCH  10  21
BRANCH   5  23
ATOM     23  O   UNL     1      52.764  38.450  23.758  1.00  0.00    -0.507 OA
ATOM     24  H   UNL     1      52.319  37.563  23.554  1.00  0.00     0.293 HD
ENDBRANCH   5  23
BRANCH   7  25
ATOM     25  O   UNL     1      50.627  40.419  19.937  1.00  0.00    -0.507 OA
ATOM     26  H   UNL     1      50.636  40.981  19.098  1.00  0.00     0.293 HD
ENDBRANCH   7  25
TORSDOF 6
ENDMDL
MODEL 2
REMARK VINA RESULT:    -6.383      1.546      7.193
REMARK INTER + INTRA:          -8.028
REMARK INTER:                  -7.697
REMARK INTRA:                  -0.331
REMARK UNBOUND:                -0.339
REMARK SMILES Oc1cc(O)c2cc(O)c(-c3ccc(O)c(O)c3)[o+]c2c1.[Cl-]
REMARK SMILES IDX 10 1 19 2 20 3 21 4 2 5 3 6 4 7 6 8 7 9 8 10 11 11 12 12
REMARK SMILES IDX 13 13 14 14 18 15 16 16 15 17 17 19 9 21 1 23 5 25
REMARK H PARENT 15 18 17 20 9 22 1 24 5 26
REMARK Flexibility Score: inf
ROOT
ATOM      1  C   UNL     1      54.453  44.468  22.101  1.00  0.00     0.402 A 
ATOM      2  O   UNL     1      54.029  45.489  22.842  1.00  0.00    -0.202 OA
ATOM      3  C   UNL     1      54.765  46.569  23.085  1.00  0.00     0.368 A 
ATOM      4  C   UNL     1      54.231  47.592  23.873  1.00  0.00     0.162 A 
ATOM      5  C   UNL     1      54.982  48.740  24.142  1.00  0.00     0.128 A 
ATOM      6  C   UNL     1      56.270  48.866  23.619  1.00  0.00     0.093 A 
ATOM      7  C   UNL     1      56.829  47.856  22.826  1.00  0.00     0.136 A 
ATOM      8  C   UNL     1      56.071  46.686  22.553  1.00  0.00     0.125 A 
ATOM      9  C   UNL     1      56.553  45.618  21.780  1.00  0.00     0.078 A 
ATOM     10  C   UNL     1      55.750  44.495  21.557  1.00  0.00     0.223 A 
ENDROOT
BRANCH   1  11
ATOM     11  C   UNL     1      53.535  43.324  21.895  1.00  0.00     0.087 A 
ATOM     12  C   UNL     1      53.627  42.161  22.679  1.00  0.00     0.022 A 
ATOM     13  C   UNL     1      52.765  41.085  22.450  1.00  0.00     0.051 A 
ATOM     14  C   UNL     1      51.808  41.150  21.429  1.00  0.00     0.157 A 
ATOM     15  C   UNL     1      52.588  43.375  20.858  1.00  0.00     0.068 A 
ATOM     16  C   UNL     1      51.723  42.300  20.628  1.00  0.00     0.158 A 
BRANCH  14  17
ATOM     17  O   UNL     1      50.949  40.076  21.205  1.00  0.00    -0.504 OA
ATOM     18  H   UNL     1      50.445  39.632  21.964  1.00  0.00     0.293 HD
ENDBRANCH  14  17
BRANCH  16  19
ATOM     19  O   UNL     1      50.787  42.394  19.598  1.00  0.00    -0.504 OA
ATOM     20  H   UNL     1      49.938  41.842  19.591  1.00  0.00     0.293 HD
ENDBRANCH  16  19
ENDBRANCH   1  11
BRANCH  10  21
ATOM     21  O   UNL     1      56.247  43.413  20.831  1.00  0.00    -0.500 OA
ATOM     22  H   UNL     1      55.878  43.167  19.920  1.00  0.00     0.294 HD
ENDBRANCH  10  21
BRANCH   5  23
ATOM     23  O   UNL     1      54.456  49.763  24.927  1.00  0.00    -0.507 OA
ATOM     24  H   UNL     1      53.595  49.644  25.448  1.00  0.00     0.293 HD
ENDBRANCH   5  23
BRANCH   7  25
ATOM     25  O   UNL     1      58.122  48.060  22.338  1.00  0.00    -0.507 OA
ATOM     26  H   UNL     1      58.572  48.962  22.275  1.00  0.00     0.293 HD
ENDBRANCH   7  25
TORSDOF 6
ENDMDL
MODEL 3
REMARK VINA RESULT:    -6.247      9.561     10.843
REMARK INTER + INTRA:          -7.864
REMARK INTER:                  -7.652
REMARK INTRA:                  -0.212
REMARK UNBOUND:                -0.339
REMARK SMILES Oc1cc(O)c2cc(O)c(-c3ccc(O)c(O)c3)[o+]c2c1.[Cl-]
REMARK SMILES IDX 10 1 19 2 20 3 21 4 2 5 3 6 4 7 6 8 7 9 8 10 11 11 12 12
REMARK SMILES IDX 13 13 14 14 18 15 16 16 15 17 17 19 9 21 1 23 5 25
REMARK H PARENT 15 18 17 20 9 22 1 24 5 26
REMARK Flexibility Score: inf
ROOT
ATOM      1  C   UNL     1      45.345  50.752  22.463  1.00  0.00     0.402 A 
ATOM      2  O   UNL     1      46.467  50.196  22.012  1.00  0.00    -0.202 OA
ATOM      3  C   UNL     1      46.530  48.951  21.549  1.00  0.00     0.368 A 
ATOM      4  C   UNL     1      47.756  48.457  21.094  1.00  0.00     0.162 A 
ATOM      5  C   UNL     1      47.849  47.152  20.601  1.00  0.00     0.128 A 
ATOM      6  C   UNL     1      46.713  46.341  20.560  1.00  0.00     0.093 A 
ATOM      7  C   UNL     1      45.474  46.813  21.009  1.00  0.00     0.136 A 
ATOM      8  C   UNL     1      45.374  48.136  21.515  1.00  0.00     0.125 A 
ATOM      9  C   UNL     1      44.178  48.688  21.999  1.00  0.00     0.078 A 
ATOM     10  C   UNL     1      44.157  49.998  22.486  1.00  0.00     0.223 A 
ENDROOT
BRANCH   1  11
ATOM     11  C   UNL     1      45.401  52.152  22.943  1.00  0.00     0.087 A 
ATOM     12  C   UNL     1      44.667  53.172  22.314  1.00  0.00     0.022 A 
ATOM     13  C   UNL     1      44.754  54.490  22.771  1.00  0.00     0.051 A 
ATOM     14  C   UNL     1      45.585  54.809  23.853  1.00  0.00     0.157 A 
ATOM     15  C   UNL     1      46.249  52.481  24.013  1.00  0.00     0.068 A 
ATOM     16  C   UNL     1      46.338  53.800  24.474  1.00  0.00     0.158 A 
BRANCH  14  17
ATOM     17  O   UNL     1      45.669  56.124  24.308  1.00  0.00    -0.504 OA
ATOM     18  H   UNL     1      46.197  56.827  23.803  1.00  0.00     0.293 HD
ENDBRANCH  14  17
BRANCH  16  19
ATOM     19  O   UNL     1      47.180  54.086  25.548  1.00  0.00    -0.504 OA
ATOM     20  H   UNL     1      48.179  53.924  25.507  1.00  0.00     0.293 HD
ENDBRANCH  16  19
ENDBRANCH   1  11
BRANCH  10  21
ATOM     21  O   UNL     1      42.980  50.531  23.013  1.00  0.00    -0.500 OA
ATOM     22  H   UNL     1      42.790  51.526  22.994  1.00  0.00     0.294 HD
ENDBRANCH  10  21
BRANCH   5  23
ATOM     23  O   UNL     1      49.067  46.653  20.146  1.00  0.00    -0.507 OA
ATOM     24  H   UNL     1      49.192  46.347  19.187  1.00  0.00     0.293 HD
ENDBRANCH   5  23
BRANCH   7  25
ATOM     25  O   UNL     1      44.386  45.939  20.932  1.00  0.00    -0.507 OA
ATOM     26  H   UNL     1      43.437  46.188  21.169  1.00  0.00     0.293 HD
ENDBRANCH   7  25
TORSDOF 6
ENDMDL
MODEL 4
REMARK VINA RESULT:    -6.232      3.549      6.490
REMARK INTER + INTRA:          -7.846
REMARK INTER:                  -7.722
REMARK INTRA:                  -0.125
REMARK UNBOUND:                -0.339
REMARK SMILES Oc1cc(O)c2cc(O)c(-c3ccc(O)c(O)c3)[o+]c2c1.[Cl-]
REMARK SMILES IDX 10 1 19 2 20 3 21 4 2 5 3 6 4 7 6 8 7 9 8 10 11 11 12 12
REMARK SMILES IDX 13 13 14 14 18 15 16 16 15 17 17 19 9 21 1 23 5 25
REMARK H PARENT 15 18 17 20 9 22 1 24 5 26
REMARK Flexibility Score: inf
ROOT
ATOM      1  C   UNL     1      53.830  48.619  23.902  1.00  0.00     0.402 A 
ATOM      2  O   UNL     1      53.474  47.393  23.526  1.00  0.00    -0.202 OA
ATOM      3  C   UNL     1      54.293  46.558  22.894  1.00  0.00     0.368 A 
ATOM      4  C   UNL     1      53.827  45.287  22.543  1.00  0.00     0.162 A 
ATOM      5  C   UNL     1      54.668  44.388  21.880  1.00  0.00     0.128 A 
ATOM      6  C   UNL     1      55.978  44.759  21.570  1.00  0.00     0.093 A 
ATOM      7  C   UNL     1      56.468  46.026  21.911  1.00  0.00     0.136 A 
ATOM      8  C   UNL     1      55.617  46.945  22.581  1.00  0.00     0.125 A 
ATOM      9  C   UNL     1      56.018  48.238  22.951  1.00  0.00     0.078 A 
ATOM     10  C   UNL     1      55.122  49.089  23.605  1.00  0.00     0.223 A 
ENDROOT
BRANCH   1  11
ATOM     11  C   UNL     1      52.830  49.452  24.609  1.00  0.00     0.087 A 
ATOM     12  C   UNL     1      51.605  49.793  24.009  1.00  0.00     0.022 A 
ATOM     13  C   UNL     1      50.687  50.600  24.687  1.00  0.00     0.051 A 
ATOM     14  C   UNL     1      50.985  51.089  25.966  1.00  0.00     0.157 A 
ATOM     15  C   UNL     1      53.132  49.963  25.882  1.00  0.00     0.068 A 
ATOM     16  C   UNL     1      52.215  50.770  26.564  1.00  0.00     0.158 A 
BRANCH  14  17
ATOM     17  O   UNL     1      50.066  51.892  26.640  1.00  0.00    -0.504 OA
ATOM     18  H   UNL     1      49.098  51.951  26.346  1.00  0.00     0.293 HD
ENDBRANCH  14  17
BRANCH  16  19
ATOM     19  O   UNL     1      52.544  51.247  27.832  1.00  0.00    -0.504 OA
ATOM     20  H   UNL     1      52.812  50.628  28.587  1.00  0.00     0.293 HD
ENDBRANCH  16  19
ENDBRANCH   1  11
BRANCH  10  21
ATOM     21  O   UNL     1      55.504  50.392  23.927  1.00  0.00    -0.500 OA
ATOM     22  H   UNL     1      54.995  51.198  23.582  1.00  0.00     0.294 HD
ENDBRANCH  10  21
BRANCH   5  23
ATOM     23  O   UNL     1      54.211  43.120  21.526  1.00  0.00    -0.507 OA
ATOM     24  H   UNL     1      54.122  42.378  22.210  1.00  0.00     0.293 HD
ENDBRANCH   5  23
BRANCH   7  25
ATOM     25  O   UNL     1      57.790  46.319  21.568  1.00  0.00    -0.507 OA
ATOM     26  H   UNL     1      58.596  45.844  21.946  1.00  0.00     0.293 HD
ENDBRANCH   7  25
TORSDOF 6
ENDMDL
MODEL 5
REMARK VINA RESULT:    -6.214      4.255      7.571
REMARK INTER + INTRA:          -7.825
REMARK INTER:                  -7.487
REMARK INTRA:                  -0.338
REMARK UNBOUND:                -0.339
REMARK SMILES Oc1cc(O)c2cc(O)c(-c3ccc(O)c(O)c3)[o+]c2c1.[Cl-]
REMARK SMILES IDX 10 1 19 2 20 3 21 4 2 5 3 6 4 7 6 8 7 9 8 10 11 11 12 12
REMARK SMILES IDX 13 13 14 14 18 15 16 16 15 17 17 19 9 21 1 23 5 25
REMARK H PARENT 15 18 17 20 9 22 1 24 5 26
REMARK Flexibility Score: inf
ROOT
ATOM      1  C   UNL     1      51.740  47.335  22.405  1.00  0.00     0.402 A 
ATOM      2  O   UNL     1      52.878  46.693  22.153  1.00  0.00    -0.202 OA
ATOM      3  C   UNL     1      54.077  47.195  22.433  1.00  0.00     0.368 A 
ATOM      4  C   UNL     1      55.216  46.442  22.134  1.00  0.00     0.162 A 
ATOM      5  C   UNL     1      56.488  46.945  22.420  1.00  0.00     0.128 A 
ATOM      6  C   UNL     1      56.622  48.204  23.010  1.00  0.00     0.093 A 
ATOM      7  C   UNL     1      55.497  48.978  23.320  1.00  0.00     0.136 A 
ATOM      8  C   UNL     1      54.202  48.473  23.028  1.00  0.00     0.125 A 
ATOM      9  C   UNL     1      53.020  49.183  23.291  1.00  0.00     0.078 A 
ATOM     10  C   UNL     1      51.780  48.623  22.972  1.00  0.00     0.223 A 
ENDROOT
BRANCH   1  11
ATOM     11  C   UNL     1      50.466  46.666  22.056  1.00  0.00     0.087 A 
ATOM     12  C   UNL     1      49.863  45.739  22.924  1.00  0.00     0.022 A 
ATOM     13  C   UNL     1      48.673  45.102  22.563  1.00  0.00     0.051 A 
ATOM     14  C   UNL     1      48.075  45.372  21.324  1.00  0.00     0.157 A 
ATOM     15  C   UNL     1      49.874  46.916  20.807  1.00  0.00     0.068 A 
ATOM     16  C   UNL     1      48.681  46.281  20.442  1.00  0.00     0.158 A 
BRANCH  14  17
ATOM     17  O   UNL     1      46.887  44.737  20.968  1.00  0.00    -0.504 OA
ATOM     18  H   UNL     1      46.777  43.732  21.051  1.00  0.00     0.293 HD
ENDBRANCH  14  17
BRANCH  16  19
ATOM     19  O   UNL     1      48.115  46.565  19.199  1.00  0.00    -0.504 OA
ATOM     20  H   UNL     1      48.674  46.861  18.408  1.00  0.00     0.293 HD
ENDBRANCH  16  19
ENDBRANCH   1  11
BRANCH  10  21
ATOM     21  O   UNL     1      50.607  49.348  23.187  1.00  0.00    -0.500 OA
ATOM     22  H   UNL     1      50.420  50.216  22.698  1.00  0.00     0.294 HD
ENDBRANCH  10  21
BRANCH   5  23
ATOM     23  O   UNL     1      57.627  46.200  22.124  1.00  0.00    -0.507 OA
ATOM     24  H   UNL     1      58.031  46.194  21.195  1.00  0.00     0.293 HD
ENDBRANCH   5  23
BRANCH   7  25
ATOM     25  O   UNL     1      55.716  50.225  23.911  1.00  0.00    -0.507 OA
ATOM     26  H   UNL     1      56.558  50.770  23.797  1.00  0.00     0.293 HD
ENDBRANCH   7  25
TORSDOF 6
ENDMDL
MODEL 6
REMARK VINA RESULT:    -6.201      3.003      7.238
REMARK INTER + INTRA:          -7.809
REMARK INTER:                  -7.579
REMARK INTRA:                  -0.230
REMARK UNBOUND:                -0.339
REMARK SMILES Oc1cc(O)c2cc(O)c(-c3ccc(O)c(O)c3)[o+]c2c1.[Cl-]
REMARK SMILES IDX 10 1 19 2 20 3 21 4 2 5 3 6 4 7 6 8 7 9 8 10 11 11 12 12
REMARK SMILES IDX 13 13 14 14 18 15 16 16 15 17 17 19 9 21 1 23 5 25
REMARK H PARENT 15 18 17 20 9 22 1 24 5 26
REMARK Flexibility Score: inf
ROOT
ATOM      1  C   UNL     1      52.278  45.707  21.775  1.00  0.00     0.402 A 
ATOM      2  O   UNL     1      52.658  46.854  22.334  1.00  0.00    -0.202 OA
ATOM      3  C   UNL     1      53.932  47.193  22.511  1.00  0.00     0.368 A 
ATOM      4  C   UNL     1      54.231  48.423  23.105  1.00  0.00     0.162 A 
ATOM      5  C   UNL     1      55.561  48.804  23.301  1.00  0.00     0.128 A 
ATOM      6  C   UNL     1      56.595  47.956  22.899  1.00  0.00     0.093 A 
ATOM      7  C   UNL     1      56.322  46.720  22.302  1.00  0.00     0.136 A 
ATOM      8  C   UNL     1      54.972  46.325  22.103  1.00  0.00     0.125 A 
ATOM      9  C   UNL     1      54.603  45.100  21.525  1.00  0.00     0.078 A 
ATOM     10  C   UNL     1      53.252  44.778  21.366  1.00  0.00     0.223 A 
ENDROOT
BRANCH   1  11
ATOM     11  C   UNL     1      50.828  45.449  21.623  1.00  0.00     0.087 A 
ATOM     12  C   UNL     1      50.181  44.446  22.367  1.00  0.00     0.022 A 
ATOM     13  C   UNL     1      48.816  44.205  22.190  1.00  0.00     0.051 A 
ATOM     14  C   UNL     1      48.082  44.952  21.260  1.00  0.00     0.157 A 
ATOM     15  C   UNL     1      50.091  46.179  20.677  1.00  0.00     0.068 A 
ATOM     16  C   UNL     1      48.724  45.941  20.498  1.00  0.00     0.158 A 
BRANCH  14  17
ATOM     17  O   UNL     1      46.720  44.710  21.087  1.00  0.00    -0.504 OA
ATOM     18  H   UNL     1      46.049  45.468  21.032  1.00  0.00     0.293 HD
ENDBRANCH  14  17
BRANCH  16  19
ATOM     19  O   UNL     1      48.022  46.696  19.559  1.00  0.00    -0.504 OA
ATOM     20  H   UNL     1      47.010  46.706  19.523  1.00  0.00     0.293 HD
ENDBRANCH  16  19
ENDBRANCH   1  11
BRANCH  10  21
ATOM     21  O   UNL     1      52.886  43.540  20.837  1.00  0.00    -0.500 OA
ATOM     22  H   UNL     1      53.443  43.076  20.130  1.00  0.00     0.294 HD
ENDBRANCH  10  21
BRANCH   5  23
ATOM     23  O   UNL     1      55.867  50.028  23.892  1.00  0.00    -0.507 OA
ATOM     24  H   UNL     1      56.824  50.306  24.074  1.00  0.00     0.293 HD
ENDBRANCH   5  23
BRANCH   7  25
ATOM     25  O   UNL     1      57.412  45.930  21.926  1.00  0.00    -0.507 OA
ATOM     26  H   UNL     1      57.386  44.925  21.840  1.00  0.00     0.293 HD
ENDBRANCH   7  25
TORSDOF 6
ENDMDL
MODEL 7
REMARK VINA RESULT:    -6.147      8.983     11.762
REMARK INTER + INTRA:          -7.744
REMARK INTER:                  -7.395
REMARK INTRA:                  -0.349
REMARK UNBOUND:                -0.339
REMARK SMILES Oc1cc(O)c2cc(O)c(-c3ccc(O)c(O)c3)[o+]c2c1.[Cl-]
REMARK SMILES IDX 10 1 19 2 20 3 21 4 2 5 3 6 4 7 6 8 7 9 8 10 11 11 12 12
REMARK SMILES IDX 13 13 14 14 18 15 16 16 15 17 17 19 9 21 1 23 5 25
REMARK H PARENT 15 18 17 20 9 22 1 24 5 26
REMARK Flexibility Score: inf
ROOT
ATOM      1  C   UNL     1      46.093  49.965  22.627  1.00  0.00     0.402 A 
ATOM      2  O   UNL     1      46.808  50.531  23.596  1.00  0.00    -0.202 OA
ATOM      3  C   UNL     1      46.577  51.758  24.052  1.00  0.00     0.368 A 
ATOM      4  C   UNL     1      47.381  52.265  25.077  1.00  0.00     0.162 A 
ATOM      5  C   UNL     1      47.158  53.552  25.577  1.00  0.00     0.128 A 
ATOM      6  C   UNL     1      46.126  54.332  25.052  1.00  0.00     0.093 A 
ATOM      7  C   UNL     1      45.307  53.848  24.025  1.00  0.00     0.136 A 
ATOM      8  C   UNL     1      45.531  52.543  23.511  1.00  0.00     0.125 A 
ATOM      9  C   UNL     1      44.769  51.980  22.475  1.00  0.00     0.078 A 
ATOM     10  C   UNL     1      45.052  50.690  22.018  1.00  0.00     0.223 A 
ENDROOT
BRANCH   1  11
ATOM     11  C   UNL     1      46.442  48.587  22.212  1.00  0.00     0.087 A 
ATOM     12  C   UNL     1      45.889  47.466  22.856  1.00  0.00     0.022 A 
ATOM     13  C   UNL     1      46.252  46.175  22.464  1.00  0.00     0.051 A 
ATOM     14  C   UNL     1      47.181  45.985  21.432  1.00  0.00     0.157 A 
ATOM     15  C   UNL     1      47.389  48.390  21.194  1.00  0.00     0.068 A 
ATOM     16  C   UNL     1      47.754  47.099  20.797  1.00  0.00     0.158 A 
BRANCH  14  17
ATOM     17  O   UNL     1      47.539  44.696  21.041  1.00  0.00    -0.504 OA
ATOM     18  H   UNL     1      48.164  44.533  20.260  1.00  0.00     0.293 HD
ENDBRANCH  14  17
BRANCH  16  19
ATOM     19  O   UNL     1      48.686  46.944  19.772  1.00  0.00    -0.504 OA
ATOM     20  H   UNL     1      48.437  46.551  18.872  1.00  0.00     0.293 HD
ENDBRANCH  16  19
ENDBRANCH   1  11
BRANCH  10  21
ATOM     21  O   UNL     1      44.327  50.149  20.955  1.00  0.00    -0.500 OA
ATOM     22  H   UNL     1      43.317  50.077  20.981  1.00  0.00     0.294 HD
ENDBRANCH  10  21
BRANCH   5  23
ATOM     23  O   UNL     1      47.956  54.063  26.598  1.00  0.00    -0.507 OA
ATOM     24  H   UNL     1      48.534  54.883  26.460  1.00  0.00     0.293 HD
ENDBRANCH   5  23
BRANCH   7  25
ATOM     25  O   UNL     1      44.295  54.691  23.556  1.00  0.00    -0.507 OA
ATOM     26  H   UNL     1      43.873  55.430  24.098  1.00  0.00     0.293 HD
ENDBRANCH   7  25
TORSDOF 6
ENDMDL
MODEL 8
REMARK VINA RESULT:    -6.103      1.380      2.859
REMARK INTER + INTRA:          -7.691
REMARK INTER:                  -7.397
REMARK INTRA:                  -0.294
REMARK UNBOUND:                -0.339
REMARK SMILES Oc1cc(O)c2cc(O)c(-c3ccc(O)c(O)c3)[o+]c2c1.[Cl-]
REMARK SMILES IDX 10 1 19 2 20 3 21 4 2 5 3 6 4 7 6 8 7 9 8 10 11 11 12 12
REMARK SMILES IDX 13 13 14 14 18 15 16 16 15 17 17 19 9 21 1 23 5 25
REMARK H PARENT 15 18 17 20 9 22 1 24 5 26
REMARK Flexibility Score: inf
ROOT
ATOM      1  C   UNL     1      54.093  44.730  22.989  1.00  0.00     0.402 A 
ATOM      2  O   UNL     1      53.301  44.487  21.947  1.00  0.00    -0.202 OA
ATOM      3  C   UNL     1      52.854  43.273  21.638  1.00  0.00     0.368 A 
ATOM      4  C   UNL     1      52.023  43.119  20.524  1.00  0.00     0.162 A 
ATOM      5  C   UNL     1      51.537  41.854  20.179  1.00  0.00     0.128 A 
ATOM      6  C   UNL     1      51.881  40.742  20.950  1.00  0.00     0.093 A 
ATOM      7  C   UNL     1      52.711  40.870  22.070  1.00  0.00     0.136 A 
ATOM      8  C   UNL     1      53.211  42.152  22.424  1.00  0.00     0.125 A 
ATOM      9  C   UNL     1      54.058  42.374  23.521  1.00  0.00     0.078 A 
ATOM     10  C   UNL     1      54.514  43.664  23.805  1.00  0.00     0.223 A 
ENDROOT
BRANCH   1  11
ATOM     11  C   UNL     1      54.516  46.128  23.235  1.00  0.00     0.087 A 
ATOM     12  C   UNL     1      53.632  47.075  23.780  1.00  0.00     0.022 A 
ATOM     13  C   UNL     1      54.047  48.395  23.981  1.00  0.00     0.051 A 
ATOM     14  C   UNL     1      55.345  48.789  23.630  1.00  0.00     0.157 A 
ATOM     15  C   UNL     1      55.808  46.534  22.864  1.00  0.00     0.068 A 
ATOM     16  C   UNL     1      56.228  47.854  23.066  1.00  0.00     0.158 A 
BRANCH  14  17
ATOM     17  O   UNL     1      55.756  50.105  23.834  1.00  0.00    -0.504 OA
ATOM     18  H   UNL     1      56.726  50.380  23.729  1.00  0.00     0.293 HD
ENDBRANCH  14  17
BRANCH  16  19
ATOM     19  O   UNL     1      57.523  48.216  22.698  1.00  0.00    -0.504 OA
ATOM     20  H   UNL     1      57.916  49.120  22.931  1.00  0.00     0.293 HD
ENDBRANCH  16  19
ENDBRANCH   1  11
BRANCH  10  21
ATOM     21  O   UNL     1      55.396  43.877  24.865  1.00  0.00    -0.500 OA
ATOM     22  H   UNL     1      56.398  43.935  24.721  1.00  0.00     0.294 HD
ENDBRANCH  10  21
BRANCH   5  23
ATOM     23  O   UNL     1      50.708  41.693  19.070  1.00  0.00    -0.507 OA
ATOM     24  H   UNL     1      50.470  40.774  18.715  1.00  0.00     0.293 HD
ENDBRANCH   5  23
BRANCH   7  25
ATOM     25  O   UNL     1      53.006  39.710  22.790  1.00  0.00    -0.507 OA
ATOM     26  H   UNL     1      53.846  39.573  23.332  1.00  0.00     0.293 HD
ENDBRANCH   7  25
TORSDOF 6
ENDMDL
MODEL 9
REMARK VINA RESULT:    -5.984     10.986     13.574
REMARK INTER + INTRA:          -7.548
REMARK INTER:                  -7.434
REMARK INTRA:                  -0.113
REMARK UNBOUND:                -0.339
REMARK SMILES Oc1cc(O)c2cc(O)c(-c3ccc(O)c(O)c3)[o+]c2c1.[Cl-]
REMARK SMILES IDX 10 1 19 2 20 3 21 4 2 5 3 6 4 7 6 8 7 9 8 10 11 11 12 12
REMARK SMILES IDX 13 13 14 14 18 15 16 16 15 17 17 19 9 21 1 23 5 25
REMARK H PARENT 15 18 17 20 9 22 1 24 5 26
REMARK Flexibility Score: inf
ROOT
ATOM      1  C   UNL     1      43.597  48.838  22.702  1.00  0.00     0.402 A 
ATOM      2  O   UNL     1      43.695  49.982  23.377  1.00  0.00    -0.202 OA
ATOM      3  C   UNL     1      44.205  51.094  22.857  1.00  0.00     0.368 A 
ATOM      4  C   UNL     1      44.261  52.248  23.644  1.00  0.00     0.162 A 
ATOM      5  C   UNL     1      44.790  53.431  23.122  1.00  0.00     0.128 A 
ATOM      6  C   UNL     1      45.262  53.463  21.808  1.00  0.00     0.093 A 
ATOM      7  C   UNL     1      45.216  52.321  20.999  1.00  0.00     0.136 A 
ATOM      8  C   UNL     1      44.683  51.115  21.525  1.00  0.00     0.125 A 
ATOM      9  C   UNL     1      44.609  49.919  20.792  1.00  0.00     0.078 A 
ATOM     10  C   UNL     1      44.074  48.769  21.380  1.00  0.00     0.223 A 
ENDROOT
BRANCH   1  11
ATOM     11  C   UNL     1      43.000  47.669  23.388  1.00  0.00     0.087 A 
ATOM     12  C   UNL     1      43.708  46.463  23.528  1.00  0.00     0.022 A 
ATOM     13  C   UNL     1      43.115  45.365  24.158  1.00  0.00     0.051 A 
ATOM     14  C   UNL     1      41.805  45.454  24.646  1.00  0.00     0.157 A 
ATOM     15  C   UNL     1      41.679  47.745  23.859  1.00  0.00     0.068 A 
ATOM     16  C   UNL     1      41.083  46.648  24.492  1.00  0.00     0.158 A 
BRANCH  14  17
ATOM     17  O   UNL     1      41.217  44.358  25.276  1.00  0.00    -0.504 OA
ATOM     18  H   UNL     1      40.464  44.471  25.945  1.00  0.00     0.293 HD
ENDBRANCH  14  17
BRANCH  16  19
ATOM     19  O   UNL     1      39.775  46.765  24.960  1.00  0.00    -0.504 OA
ATOM     20  H   UNL     1      38.976  46.507  24.394  1.00  0.00     0.293 HD
ENDBRANCH  16  19
ENDBRANCH   1  11
BRANCH  10  21
ATOM     21  O   UNL     1      44.046  47.569  20.669  1.00  0.00    -0.500 OA
ATOM     22  H   UNL     1      43.350  46.856  20.854  1.00  0.00     0.294 HD
ENDBRANCH  10  21
BRANCH   5  23
ATOM     23  O   UNL     1      44.850  54.585  23.901  1.00  0.00    -0.507 OA
ATOM     24  H   UNL     1      45.735  55.002  24.165  1.00  0.00     0.293 HD
ENDBRANCH   5  23
BRANCH   7  25
ATOM     25  O   UNL     1      45.705  52.436  19.695  1.00  0.00    -0.507 OA
ATOM     26  H   UNL     1      45.811  53.309  19.200  1.00  0.00     0.293 HD
ENDBRANCH   7  25
TORSDOF 6
ENDMDL
