MODEL 1
REMARK VINA RESULT:    -5.519      0.000      0.000
REMARK INTER + INTRA:          -5.680
REMARK INTER:                  -5.680
REMARK INTRA:                   0.000
REMARK UNBOUND:                 0.000
REMARK SMILES O=c1ccc2ccc(O)cc2o1
REMARK SMILES IDX 6 1 7 2 8 3 10 4 11 5 5 6 4 7 3 8 2 9 1 10 12 11 9 12
REMARK H PARENT 9 13
REMARK Flexibility Score: inf
ROOT
ATOM      1  C   UNL     1       7.297  79.749   1.548  1.00  0.00     0.016 A 
ATOM      2  C   UNL     1       7.119  79.373   2.884  1.00  0.00     0.047 A 
ATOM      3  C   UNL     1       8.218  79.003   3.668  1.00  0.00     0.119 A 
ATOM      4  C   UNL     1       9.507  79.008   3.113  1.00  0.00     0.094 A 
ATOM      5  C   UNL     1       9.696  79.382   1.778  1.00  0.00     0.142 A 
ATOM      6  C   UNL     1       8.584  79.755   0.990  1.00  0.00     0.018 A 
ATOM      7  C   UNL     1       8.803  80.125  -0.340  1.00  0.00     0.019 A 
ATOM      8  C   UNL     1      10.103  80.114  -0.848  1.00  0.00     0.094 A 
ATOM      9  C   UNL     1      11.155  79.733  -0.009  1.00  0.00     0.336 A 
ATOM     10  O   UNL     1      12.335  79.717  -0.448  1.00  0.00    -0.246 OA
ATOM     11  O   UNL     1      10.919  79.386   1.254  1.00  0.00    -0.423 OA
ENDROOT
BRANCH   3  12
ATOM     12  O   UNL     1       8.020  78.631   4.996  1.00  0.00    -0.508 OA
ATOM     13  H   UNL     1       7.810  79.317   5.712  1.00  0.00     0.293 HD
ENDBRANCH   3  12
TORSDOF 1
ENDMDL
MODEL 2
REMARK VINA RESULT:    -5.410      0.776      4.228
REMARK INTER + INTRA:          -5.568
REMARK INTER:                  -5.568
REMARK INTRA:                   0.000
REMARK UNBOUND:                 0.000
REMARK SMILES O=c1ccc2ccc(O)cc2o1
REMARK SMILES IDX 6 1 7 2 8 3 10 4 11 5 5 6 4 7 3 8 2 9 1 10 12 11 9 12
REMARK H PARENT 9 13
REMARK Flexibility Score: inf
ROOT
ATOM      1  C   UNL     1       8.961  80.116  -0.423  1.00  0.00     0.016 A 
ATOM      2  C   UNL     1      10.272  80.124  -0.912  1.00  0.00     0.047 A 
ATOM      3  C   UNL     1      11.342  79.788  -0.073  1.00  0.00     0.119 A 
ATOM      4  C   UNL     1      11.100  79.443   1.265  1.00  0.00     0.094 A 
ATOM      5  C   UNL     1       9.793  79.432   1.763  1.00  0.00     0.142 A 
ATOM      6  C   UNL     1       8.716  79.772   0.914  1.00  0.00     0.018 A 
ATOM      7  C   UNL     1       7.421  79.752   1.440  1.00  0.00     0.019 A 
ATOM      8  C   UNL     1       7.231  79.402   2.777  1.00  0.00     0.094 A 
ATOM      9  C   UNL     1       8.345  79.078   3.559  1.00  0.00     0.336 A 
ATOM     10  O   UNL     1       8.194  78.760   4.767  1.00  0.00    -0.246 OA
ATOM     11  O   UNL     1       9.567  79.104   3.033  1.00  0.00    -0.423 OA
ENDROOT
BRANCH   3  12
ATOM     12  O   UNL     1      12.640  79.801  -0.579  1.00  0.00    -0.508 OA
ATOM     13  H   UNL     1      13.035  78.992  -1.044  1.00  0.00     0.293 HD
ENDBRANCH   3  12
TORSDOF 1
ENDMDL
MODEL 3
REMARK VINA RESULT:    -5.168      2.434      3.618
REMARK INTER + INTRA:          -5.320
REMARK INTER:                  -5.320
REMARK INTRA:                   0.000
REMARK UNBOUND:                 0.000
REMARK SMILES O=c1ccc2ccc(O)cc2o1
REMARK SMILES IDX 6 1 7 2 8 3 10 4 11 5 5 6 4 7 3 8 2 9 1 10 12 11 9 12
REMARK H PARENT 9 13
REMARK Flexibility Score: inf
ROOT
ATOM      1  C   UNL     1       9.156  80.013   1.578  1.00  0.00     0.016 A 
ATOM      2  C   UNL     1       8.318  79.927   0.461  1.00  0.00     0.047 A 
ATOM      3  C   UNL     1       8.862  79.854  -0.827  1.00  0.00     0.119 A 
ATOM      4  C   UNL     1      10.254  79.869  -1.001  1.00  0.00     0.094 A 
ATOM      5  C   UNL     1      11.100  79.955   0.110  1.00  0.00     0.142 A 
ATOM      6  C   UNL     1      10.547  80.028   1.408  1.00  0.00     0.018 A 
ATOM      7  C   UNL     1      11.418  80.112   2.500  1.00  0.00     0.019 A 
ATOM      8  C   UNL     1      12.795  80.124   2.277  1.00  0.00     0.094 A 
ATOM      9  C   UNL     1      13.271  80.048   0.964  1.00  0.00     0.336 A 
ATOM     10  O   UNL     1      14.510  80.057   0.742  1.00  0.00    -0.246 OA
ATOM     11  O   UNL     1      12.421  79.968  -0.057  1.00  0.00    -0.423 OA
ENDROOT
BRANCH   3  12
ATOM     12  O   UNL     1       8.011  79.769  -1.927  1.00  0.00    -0.508 OA
ATOM     13  H   UNL     1       7.521  80.582  -2.281  1.00  0.00     0.293 HD
ENDBRANCH   3  12
TORSDOF 1
ENDMDL
MODEL 4
REMARK VINA RESULT:    -4.966      1.788      2.564
REMARK INTER + INTRA:          -5.111
REMARK INTER:                  -5.111
REMARK INTRA:                   0.000
REMARK UNBOUND:                 0.000
REMARK SMILES O=c1ccc2ccc(O)cc2o1
REMARK SMILES IDX 6 1 7 2 8 3 10 4 11 5 5 6 4 7 3 8 2 9 1 10 12 11 9 12
REMARK H PARENT 9 13
REMARK Flexibility Score: inf
ROOT
ATOM      1  C   UNL     1       8.555  79.512   2.879  1.00  0.00     0.016 A 
ATOM      2  C   UNL     1       7.256  79.407   2.370  1.00  0.00     0.047 A 
ATOM      3  C   UNL     1       7.032  79.459   0.989  1.00  0.00     0.119 A 
ATOM      4  C   UNL     1       8.113  79.618   0.110  1.00  0.00     0.094 A 
ATOM      5  C   UNL     1       9.416  79.723   0.609  1.00  0.00     0.142 A 
ATOM      6  C   UNL     1       9.638  79.671   2.003  1.00  0.00     0.018 A 
ATOM      7  C   UNL     1      10.951  79.778   2.473  1.00  0.00     0.019 A 
ATOM      8  C   UNL     1      11.994  79.935   1.559  1.00  0.00     0.094 A 
ATOM      9  C   UNL     1      11.698  79.979   0.193  1.00  0.00     0.336 A 
ATOM     10  O   UNL     1      12.625  80.120  -0.647  1.00  0.00    -0.246 OA
ATOM     11  O   UNL     1      10.440  79.874  -0.228  1.00  0.00    -0.423 OA
ENDROOT
BRANCH   3  12
ATOM     12  O   UNL     1       5.731  79.353   0.501  1.00  0.00    -0.508 OA
ATOM     13  H   UNL     1       5.263  78.457   0.433  1.00  0.00     0.293 HD
ENDBRANCH   3  12
TORSDOF 1
ENDMDL
MODEL 5
REMARK VINA RESULT:    -4.921      1.927      4.495
REMARK INTER + INTRA:          -5.065
REMARK INTER:                  -5.065
REMARK INTRA:                   0.000
REMARK UNBOUND:                 0.000
REMARK SMILES O=c1ccc2ccc(O)cc2o1
REMARK SMILES IDX 6 1 7 2 8 3 10 4 11 5 5 6 4 7 3 8 2 9 1 10 12 11 9 12
REMARK H PARENT 9 13
REMARK Flexibility Score: inf
ROOT
ATOM      1  C   UNL     1      10.485  79.999  -0.132  1.00  0.00     0.016 A 
ATOM      2  C   UNL     1       9.726  80.125  -1.301  1.00  0.00     0.047 A 
ATOM      3  C   UNL     1       8.333  79.996  -1.256  1.00  0.00     0.119 A 
ATOM      4  C   UNL     1       7.692  79.739  -0.035  1.00  0.00     0.094 A 
ATOM      5  C   UNL     1       8.442  79.611   1.139  1.00  0.00     0.142 A 
ATOM      6  C   UNL     1       9.848  79.741   1.090  1.00  0.00     0.018 A 
ATOM      7  C   UNL     1      10.572  79.610   2.279  1.00  0.00     0.019 A 
ATOM      8  C   UNL     1       9.890  79.354   3.470  1.00  0.00     0.094 A 
ATOM      9  C   UNL     1       8.496  79.237   3.442  1.00  0.00     0.336 A 
ATOM     10  O   UNL     1       7.864  79.006   4.505  1.00  0.00    -0.246 OA
ATOM     11  O   UNL     1       7.832  79.367   2.296  1.00  0.00    -0.423 OA
ENDROOT
BRANCH   3  12
ATOM     12  O   UNL     1       7.595  80.125  -2.431  1.00  0.00    -0.508 OA
ATOM     13  H   UNL     1       8.046  80.265  -3.327  1.00  0.00     0.293 HD
ENDBRANCH   3  12
TORSDOF 1
ENDMDL
MODEL 6
REMARK VINA RESULT:    -4.802      1.751      2.489
REMARK INTER + INTRA:          -4.942
REMARK INTER:                  -4.942
REMARK INTRA:                   0.000
REMARK UNBOUND:                 0.000
REMARK SMILES O=c1ccc2ccc(O)cc2o1
REMARK SMILES IDX 6 1 7 2 8 3 10 4 11 5 5 6 4 7 3 8 2 9 1 10 12 11 9 12
REMARK H PARENT 9 13
REMARK Flexibility Score: inf
ROOT
ATOM      1  C   UNL     1       8.932  79.977  -0.833  1.00  0.00     0.016 A 
ATOM      2  C   UNL     1       7.680  79.885  -0.216  1.00  0.00     0.047 A 
ATOM      3  C   UNL     1       7.581  79.822   1.179  1.00  0.00     0.119 A 
ATOM      4  C   UNL     1       8.743  79.851   1.965  1.00  0.00     0.094 A 
ATOM      5  C   UNL     1      10.000  79.944   1.358  1.00  0.00     0.142 A 
ATOM      6  C   UNL     1      10.095  80.006  -0.051  1.00  0.00     0.018 A 
ATOM      7  C   UNL     1      11.365  80.099  -0.629  1.00  0.00     0.019 A 
ATOM      8  C   UNL     1      12.491  80.125   0.194  1.00  0.00     0.094 A 
ATOM      9  C   UNL     1      12.320  80.059   1.580  1.00  0.00     0.336 A 
ATOM     10  O   UNL     1      13.324  80.081   2.339  1.00  0.00    -0.246 OA
ATOM     11  O   UNL     1      11.100  79.972   2.106  1.00  0.00    -0.423 OA
ENDROOT
BRANCH   3  12
ATOM     12  O   UNL     1       6.325  79.730   1.774  1.00  0.00    -0.508 OA
ATOM     13  H   UNL     1       6.211  79.772   2.780  1.00  0.00     0.293 HD
ENDBRANCH   3  12
TORSDOF 1
ENDMDL
MODEL 7
REMARK VINA RESULT:    -4.781      8.963     10.242
REMARK INTER + INTRA:          -4.921
REMARK INTER:                  -4.921
REMARK INTRA:                   0.000
REMARK UNBOUND:                 0.000
REMARK SMILES O=c1ccc2ccc(O)cc2o1
REMARK SMILES IDX 6 1 7 2 8 3 10 4 11 5 5 6 4 7 3 8 2 9 1 10 12 11 9 12
REMARK H PARENT 9 13
REMARK Flexibility Score: inf
ROOT
ATOM      1  C   UNL     1       2.738  80.122   8.425  1.00  0.00     0.016 A 
ATOM      2  C   UNL     1       2.368  79.437   7.262  1.00  0.00     0.047 A 
ATOM      3  C   UNL     1       2.759  78.106   7.071  1.00  0.00     0.119 A 
ATOM      4  C   UNL     1       3.525  77.455   8.049  1.00  0.00     0.094 A 
ATOM      5  C   UNL     1       3.900  78.131   9.215  1.00  0.00     0.142 A 
ATOM      6  C   UNL     1       3.504  79.474   9.403  1.00  0.00     0.018 A 
ATOM      7  C   UNL     1       3.893  80.125  10.578  1.00  0.00     0.019 A 
ATOM      8  C   UNL     1       4.655  79.436  11.522  1.00  0.00     0.094 A 
ATOM      9  C   UNL     1       5.011  78.107  11.267  1.00  0.00     0.336 A 
ATOM     10  O   UNL     1       5.698  77.468  12.106  1.00  0.00    -0.246 OA
ATOM     11  O   UNL     1       4.627  77.511  10.141  1.00  0.00    -0.423 OA
ENDROOT
BRANCH   3  12
ATOM     12  O   UNL     1       2.381  77.441   5.907  1.00  0.00    -0.508 OA
ATOM     13  H   UNL     1       2.855  76.599   5.601  1.00  0.00     0.293 HD
ENDBRANCH   3  12
TORSDOF 1
ENDMDL
MODEL 8
REMARK VINA RESULT:    -4.770      2.536      4.351
REMARK INTER + INTRA:          -4.910
REMARK INTER:                  -4.910
REMARK INTRA:                   0.000
REMARK UNBOUND:                 0.000
REMARK SMILES O=c1ccc2ccc(O)cc2o1
REMARK SMILES IDX 6 1 7 2 8 3 10 4 11 5 5 6 4 7 3 8 2 9 1 10 12 11 9 12
REMARK H PARENT 9 13
REMARK Flexibility Score: inf
ROOT
ATOM      1  C   UNL     1      11.527  80.125   2.369  1.00  0.00     0.016 A 
ATOM      2  C   UNL     1      12.901  80.093   2.103  1.00  0.00     0.047 A 
ATOM      3  C   UNL     1      13.365  80.030   0.783  1.00  0.00     0.119 A 
ATOM      4  C   UNL     1      12.450  79.998  -0.279  1.00  0.00     0.094 A 
ATOM      5  C   UNL     1      11.074  80.029  -0.024  1.00  0.00     0.142 A 
ATOM      6  C   UNL     1      10.610  80.092   1.309  1.00  0.00     0.018 A 
ATOM      7  C   UNL     1       9.231  80.123   1.534  1.00  0.00     0.019 A 
ATOM      8  C   UNL     1       8.359  80.089   0.444  1.00  0.00     0.094 A 
ATOM      9  C   UNL     1       8.891  80.026  -0.848  1.00  0.00     0.336 A 
ATOM     10  O   UNL     1       8.122  79.995  -1.844  1.00  0.00    -0.246 OA
ATOM     11  O   UNL     1      10.209  79.999  -1.034  1.00  0.00    -0.423 OA
ENDROOT
BRANCH   3  12
ATOM     12  O   UNL     1      14.736  79.999   0.540  1.00  0.00    -0.508 OA
ATOM     13  H   UNL     1      15.288  79.170   0.726  1.00  0.00     0.293 HD
ENDBRANCH   3  12
TORSDOF 1
ENDMDL
MODEL 9
REMARK VINA RESULT:    -4.582      1.833      4.479
REMARK INTER + INTRA:          -4.716
REMARK INTER:                  -4.716
REMARK INTRA:                   0.000
REMARK UNBOUND:                 0.000
REMARK SMILES O=c1ccc2ccc(O)cc2o1
REMARK SMILES IDX 6 1 7 2 8 3 10 4 11 5 5 6 4 7 3 8 2 9 1 10 12 11 9 12
REMARK H PARENT 9 13
REMARK Flexibility Score: inf
ROOT
ATOM      1  C   UNL     1      10.868  79.745   2.591  1.00  0.00     0.016 A 
ATOM      2  C   UNL     1      11.870  79.914   1.629  1.00  0.00     0.047 A 
ATOM      3  C   UNL     1      11.543  79.956   0.268  1.00  0.00     0.119 A 
ATOM      4  C   UNL     1      10.206  79.826  -0.135  1.00  0.00     0.094 A 
ATOM      5  C   UNL     1       9.197  79.657   0.819  1.00  0.00     0.142 A 
ATOM      6  C   UNL     1       9.531  79.615   2.191  1.00  0.00     0.018 A 
ATOM      7  C   UNL     1       8.502  79.444   3.123  1.00  0.00     0.019 A 
ATOM      8  C   UNL     1       7.186  79.320   2.674  1.00  0.00     0.094 A 
ATOM      9  C   UNL     1       6.931  79.371   1.299  1.00  0.00     0.336 A 
ATOM     10  O   UNL     1       5.751  79.260   0.874  1.00  0.00    -0.246 OA
ATOM     11  O   UNL     1       7.929  79.534   0.434  1.00  0.00    -0.423 OA
ENDROOT
BRANCH   3  12
ATOM     12  O   UNL     1      12.555  80.125  -0.675  1.00  0.00    -0.508 OA
ATOM     13  H   UNL     1      12.739  79.426  -1.385  1.00  0.00     0.293 HD
ENDBRANCH   3  12
TORSDOF 1
ENDMDL
