MODEL 1
REMARK VINA RESULT:    -5.767      0.000      0.000
REMARK INTER + INTRA:          -7.173
REMARK INTER:                  -6.948
REMARK INTRA:                  -0.226
REMARK UNBOUND:                -0.226
REMARK SMILES O=c1c(O)c(-c2ccc(O)c(O)c2)oc2cc(O)cc(O)c12
REMARK SMILES IDX 5 1 3 2 2 3 1 4 22 5 20 6 19 7 17 8 16 9 15 10 14 11 6 12
REMARK SMILES IDX 7 13 8 14 9 15 13 16 11 17 10 18 12 20 4 22 21 24 18 26
REMARK H PARENT 10 19 12 21 4 23 21 25 18 27
REMARK Flexibility Score: inf
ROOT
ATOM      1  C   UNL     1     137.979 103.057 137.658  1.00  0.00     0.180 A 
ATOM      2  C   UNL     1     138.495 102.963 136.351  1.00  0.00     0.208 A 
ATOM      3  C   UNL     1     139.880 102.813 136.178  1.00  0.00     0.238 A 
ATOM      4  O   UNL     1     140.355 102.739 135.012  1.00  0.00    -0.285 OA
ATOM      5  C   UNL     1     140.720 102.739 137.308  1.00  0.00     0.111 A 
ATOM      6  C   UNL     1     142.125 102.583 137.220  1.00  0.00     0.134 A 
ATOM      7  C   UNL     1     142.891 102.509 138.392  1.00  0.00     0.093 A 
ATOM      8  C   UNL     1     142.280 102.585 139.650  1.00  0.00     0.123 A 
ATOM      9  C   UNL     1     140.896 102.739 139.741  1.00  0.00     0.094 A 
ATOM     10  C   UNL     1     140.115 102.817 138.584  1.00  0.00     0.146 A 
ATOM     11  O   UNL     1     138.801 102.968 138.701  1.00  0.00    -0.452 OA
ENDROOT
BRANCH   1  12
ATOM     12  C   UNL     1     136.534 103.235 137.922  1.00  0.00     0.025 A 
ATOM     13  C   UNL     1     135.656 102.160 137.716  1.00  0.00     0.016 A 
ATOM     14  C   UNL     1     134.291 102.299 137.980  1.00  0.00     0.051 A 
ATOM     15  C   UNL     1     133.785 103.509 138.466  1.00  0.00     0.157 A 
ATOM     16  C   UNL     1     136.026 104.445 138.432  1.00  0.00     0.062 A 
ATOM     17  C   UNL     1     134.656 104.587 138.698  1.00  0.00     0.158 A 
BRANCH  15  18
ATOM     18  O   UNL     1     132.417 103.619 138.717  1.00  0.00    -0.504 OA
ATOM     19  H   UNL     1     132.056 103.838 139.637  1.00  0.00     0.293 HD
ENDBRANCH  15  18
BRANCH  17  20
ATOM     20  O   UNL     1     134.160 105.790 139.196  1.00  0.00    -0.504 OA
ATOM     21  H   UNL     1     134.741 106.422 139.736  1.00  0.00     0.293 HD
ENDBRANCH  17  20
ENDBRANCH   1  12
BRANCH   2  22
ATOM     22  O   UNL     1     137.637 102.989 135.249  1.00  0.00    -0.502 OA
ATOM     23  H   UNL     1     137.241 102.148 134.849  1.00  0.00     0.293 HD
ENDBRANCH   2  22
BRANCH   6  24
ATOM     24  O   UNL     1     142.762 102.503 135.981  1.00  0.00    -0.507 OA
ATOM     25  H   UNL     1     142.320 102.837 135.132  1.00  0.00     0.293 HD
ENDBRANCH   6  24
BRANCH   8  26
ATOM     26  O   UNL     1     143.041 102.510 140.814  1.00  0.00    -0.508 OA
ATOM     27  H   UNL     1     143.796 103.160 140.996  1.00  0.00     0.293 HD
ENDBRANCH   8  26
TORSDOF 6
ENDMDL
MODEL 2
REMARK VINA RESULT:    -5.737     13.010     15.224
REMARK INTER + INTRA:          -7.137
REMARK INTER:                  -7.034
REMARK INTRA:                  -0.103
REMARK UNBOUND:                -0.226
REMARK SMILES O=c1c(O)c(-c2ccc(O)c(O)c2)oc2cc(O)cc(O)c12
REMARK SMILES IDX 5 1 3 2 2 3 1 4 22 5 20 6 19 7 17 8 16 9 15 10 14 11 6 12
REMARK SMILES IDX 7 13 8 14 9 15 13 16 11 17 10 18 12 20 4 22 21 24 18 26
REMARK H PARENT 10 19 12 21 4 23 21 25 18 27
REMARK Flexibility Score: inf
ROOT
ATOM      1  C   UNL     1     145.157 115.312 139.217  1.00  0.00     0.180 A 
ATOM      2  C   UNL     1     144.461 116.356 139.857  1.00  0.00     0.208 A 
ATOM      3  C   UNL     1     143.144 116.128 140.288  1.00  0.00     0.238 A 
ATOM      4  O   UNL     1     142.506 117.059 140.853  1.00  0.00    -0.285 OA
ATOM      5  C   UNL     1     142.555 114.862 140.092  1.00  0.00     0.111 A 
ATOM      6  C   UNL     1     141.236 114.550 140.500  1.00  0.00     0.134 A 
ATOM      7  C   UNL     1     140.725 113.263 140.277  1.00  0.00     0.093 A 
ATOM      8  C   UNL     1     141.507 112.283 139.655  1.00  0.00     0.123 A 
ATOM      9  C   UNL     1     142.808 112.586 139.250  1.00  0.00     0.094 A 
ATOM     10  C   UNL     1     143.335 113.864 139.462  1.00  0.00     0.146 A 
ATOM     11  O   UNL     1     144.575 114.126 139.063  1.00  0.00    -0.452 OA
ENDROOT
BRANCH   1  12
ATOM     12  C   UNL     1     146.540 115.480 138.718  1.00  0.00     0.025 A 
ATOM     13  C   UNL     1     147.536 114.578 139.124  1.00  0.00     0.016 A 
ATOM     14  C   UNL     1     148.843 114.704 138.648  1.00  0.00     0.051 A 
ATOM     15  C   UNL     1     149.173 115.723 137.750  1.00  0.00     0.157 A 
ATOM     16  C   UNL     1     146.869 116.492 137.797  1.00  0.00     0.062 A 
ATOM     17  C   UNL     1     148.181 116.620 137.318  1.00  0.00     0.158 A 
BRANCH  15  18
ATOM     18  O   UNL     1     150.488 115.826 137.295  1.00  0.00    -0.504 OA
ATOM     19  H   UNL     1     150.786 115.418 136.418  1.00  0.00     0.293 HD
ENDBRANCH  15  18
BRANCH  17  20
ATOM     20  O   UNL     1     148.500 117.629 136.411  1.00  0.00    -0.504 OA
ATOM     21  H   UNL     1     148.840 118.533 136.719  1.00  0.00     0.293 HD
ENDBRANCH  17  20
ENDBRANCH   1  12
BRANCH   2  22
ATOM     22  O   UNL     1     145.084 117.585 140.084  1.00  0.00    -0.502 OA
ATOM     23  H   UNL     1     144.946 118.384 139.477  1.00  0.00     0.293 HD
ENDBRANCH   2  22
BRANCH   6  24
ATOM     24  O   UNL     1     140.432 115.506 141.123  1.00  0.00    -0.507 OA
ATOM     25  H   UNL     1     140.264 116.414 140.707  1.00  0.00     0.293 HD
ENDBRANCH   6  24
BRANCH   8  26
ATOM     26  O   UNL     1     141.000 111.005 139.434  1.00  0.00    -0.508 OA
ATOM     27  H   UNL     1     140.205 110.654 139.953  1.00  0.00     0.293 HD
ENDBRANCH   8  26
TORSDOF 6
ENDMDL
MODEL 3
REMARK VINA RESULT:    -5.584     13.230     14.278
REMARK INTER + INTRA:          -6.953
REMARK INTER:                  -6.944
REMARK INTRA:                  -0.008
REMARK UNBOUND:                -0.226
REMARK SMILES O=c1c(O)c(-c2ccc(O)c(O)c2)oc2cc(O)cc(O)c12
REMARK SMILES IDX 5 1 3 2 2 3 1 4 22 5 20 6 19 7 17 8 16 9 15 10 14 11 6 12
REMARK SMILES IDX 7 13 8 14 9 15 13 16 11 17 10 18 12 20 4 22 21 24 18 26
REMARK H PARENT 10 19 12 21 4 23 21 25 18 27
REMARK Flexibility Score: inf
ROOT
ATOM      1  C   UNL     1     145.291 115.093 139.272  1.00  0.00     0.180 A 
ATOM      2  C   UNL     1     145.369 116.448 138.893  1.00  0.00     0.208 A 
ATOM      3  C   UNL     1     146.613 116.973 138.510  1.00  0.00     0.238 A 
ATOM      4  O   UNL     1     146.697 118.188 138.178  1.00  0.00    -0.285 OA
ATOM      5  C   UNL     1     147.748 116.137 138.491  1.00  0.00     0.111 A 
ATOM      6  C   UNL     1     149.036 116.588 138.113  1.00  0.00     0.134 A 
ATOM      7  C   UNL     1     150.114 115.691 138.112  1.00  0.00     0.093 A 
ATOM      8  C   UNL     1     149.929 114.353 138.481  1.00  0.00     0.123 A 
ATOM      9  C   UNL     1     148.661 113.905 138.854  1.00  0.00     0.094 A 
ATOM     10  C   UNL     1     147.574 114.783 138.863  1.00  0.00     0.146 A 
ATOM     11  O   UNL     1     146.380 114.331 139.228  1.00  0.00    -0.452 OA
ENDROOT
BRANCH   1  12
ATOM     12  C   UNL     1     144.020 114.470 139.707  1.00  0.00     0.025 A 
ATOM     13  C   UNL     1     143.259 115.083 140.714  1.00  0.00     0.016 A 
ATOM     14  C   UNL     1     142.046 114.524 141.125  1.00  0.00     0.051 A 
ATOM     15  C   UNL     1     141.569 113.353 140.528  1.00  0.00     0.157 A 
ATOM     16  C   UNL     1     143.529 113.304 139.092  1.00  0.00     0.062 A 
ATOM     17  C   UNL     1     142.311 112.741 139.503  1.00  0.00     0.158 A 
BRANCH  15  18
ATOM     18  O   UNL     1     140.357 112.817 140.961  1.00  0.00    -0.504 OA
ATOM     19  H   UNL     1     139.760 113.302 141.619  1.00  0.00     0.293 HD
ENDBRANCH  15  18
BRANCH  17  20
ATOM     20  O   UNL     1     141.834 111.582 138.893  1.00  0.00    -0.504 OA
ATOM     21  H   UNL     1     142.259 110.678 139.065  1.00  0.00     0.293 HD
ENDBRANCH  17  20
ENDBRANCH   1  12
BRANCH   2  22
ATOM     22  O   UNL     1     144.220 117.242 138.872  1.00  0.00    -0.502 OA
ATOM     23  H   UNL     1     144.023 117.892 138.121  1.00  0.00     0.293 HD
ENDBRANCH   2  22
BRANCH   6  24
ATOM     24  O   UNL     1     149.250 117.915 137.740  1.00  0.00    -0.507 OA
ATOM     25  H   UNL     1     148.815 118.315 136.916  1.00  0.00     0.293 HD
ENDBRANCH   6  24
BRANCH   8  26
ATOM     26  O   UNL     1     150.999 113.462 138.479  1.00  0.00    -0.508 OA
ATOM     27  H   UNL     1     151.955 113.783 138.573  1.00  0.00     0.293 HD
ENDBRANCH   8  26
TORSDOF 6
ENDMDL
MODEL 4
REMARK VINA RESULT:    -4.962     13.878     14.808
REMARK INTER + INTRA:          -6.203
REMARK INTER:                  -6.639
REMARK INTRA:                   0.437
REMARK UNBOUND:                -0.226
REMARK SMILES O=c1c(O)c(-c2ccc(O)c(O)c2)oc2cc(O)cc(O)c12
REMARK SMILES IDX 5 1 3 2 2 3 1 4 22 5 20 6 19 7 17 8 16 9 15 10 14 11 6 12
REMARK SMILES IDX 7 13 8 14 9 15 13 16 11 17 10 18 12 20 4 22 21 24 18 26
REMARK H PARENT 10 19 12 21 4 23 21 25 18 27
REMARK Flexibility Score: inf
ROOT
ATOM      1  C   UNL     1     144.901 115.446 139.332  1.00  0.00     0.180 A 
ATOM      2  C   UNL     1     145.861 114.817 138.516  1.00  0.00     0.208 A 
ATOM      3  C   UNL     1     146.992 115.546 138.116  1.00  0.00     0.238 A 
ATOM      4  O   UNL     1     147.853 114.997 137.375  1.00  0.00    -0.285 OA
ATOM      5  C   UNL     1     147.155 116.877 138.553  1.00  0.00     0.111 A 
ATOM      6  C   UNL     1     148.268 117.677 138.198  1.00  0.00     0.134 A 
ATOM      7  C   UNL     1     148.361 118.991 138.682  1.00  0.00     0.093 A 
ATOM      8  C   UNL     1     147.365 119.518 139.512  1.00  0.00     0.123 A 
ATOM      9  C   UNL     1     146.266 118.732 139.864  1.00  0.00     0.094 A 
ATOM     10  C   UNL     1     146.154 117.421 139.391  1.00  0.00     0.146 A 
ATOM     11  O   UNL     1     145.095 116.698 139.738  1.00  0.00    -0.452 OA
ENDROOT
BRANCH   1  12
ATOM     12  C   UNL     1     143.673 114.751 139.780  1.00  0.00     0.025 A 
ATOM     13  C   UNL     1     142.822 115.377 140.705  1.00  0.00     0.016 A 
ATOM     14  C   UNL     1     141.647 114.749 141.125  1.00  0.00     0.051 A 
ATOM     15  C   UNL     1     141.297 113.494 140.618  1.00  0.00     0.157 A 
ATOM     16  C   UNL     1     143.307 113.498 139.255  1.00  0.00     0.062 A 
ATOM     17  C   UNL     1     142.128 112.865 139.675  1.00  0.00     0.158 A 
BRANCH  15  18
ATOM     18  O   UNL     1     140.119 112.890 141.059  1.00  0.00    -0.504 OA
ATOM     19  H   UNL     1     139.207 113.207 140.754  1.00  0.00     0.293 HD
ENDBRANCH  15  18
BRANCH  17  20
ATOM     20  O   UNL     1     141.777 111.621 139.155  1.00  0.00    -0.504 OA
ATOM     21  H   UNL     1     141.989 111.366 138.197  1.00  0.00     0.293 HD
ENDBRANCH  17  20
ENDBRANCH   1  12
BRANCH   2  22
ATOM     22  O   UNL     1     145.701 113.482 138.137  1.00  0.00    -0.502 OA
ATOM     23  H   UNL     1     145.467 112.754 138.801  1.00  0.00     0.293 HD
ENDBRANCH   2  22
BRANCH   6  24
ATOM     24  O   UNL     1     149.276 117.179 137.373  1.00  0.00    -0.507 OA
ATOM     25  H   UNL     1     149.830 117.788 136.781  1.00  0.00     0.293 HD
ENDBRANCH   6  24
BRANCH   8  26
ATOM     26  O   UNL     1     147.458 120.821 139.993  1.00  0.00    -0.508 OA
ATOM     27  H   UNL     1     148.081 121.062 140.755  1.00  0.00     0.293 HD
ENDBRANCH   8  26
TORSDOF 6
ENDMDL
MODEL 5
REMARK VINA RESULT:    -4.779      1.361      3.226
REMARK INTER + INTRA:          -5.982
REMARK INTER:                  -5.801
REMARK INTRA:                  -0.181
REMARK UNBOUND:                -0.226
REMARK SMILES O=c1c(O)c(-c2ccc(O)c(O)c2)oc2cc(O)cc(O)c12
REMARK SMILES IDX 5 1 3 2 2 3 1 4 22 5 20 6 19 7 17 8 16 9 15 10 14 11 6 12
REMARK SMILES IDX 7 13 8 14 9 15 13 16 11 17 10 18 12 20 4 22 21 24 18 26
REMARK H PARENT 10 19 12 21 4 23 21 25 18 27
REMARK Flexibility Score: inf
ROOT
ATOM      1  C   UNL     1     137.626 103.304 138.691  1.00  0.00     0.180 A 
ATOM      2  C   UNL     1     138.295 103.184 139.925  1.00  0.00     0.208 A 
ATOM      3  C   UNL     1     139.678 102.940 139.924  1.00  0.00     0.238 A 
ATOM      4  O   UNL     1     140.286 102.819 141.023  1.00  0.00    -0.285 OA
ATOM      5  C   UNL     1     140.369 102.842 138.699  1.00  0.00     0.111 A 
ATOM      6  C   UNL     1     141.762 102.602 138.613  1.00  0.00     0.134 A 
ATOM      7  C   UNL     1     142.378 102.527 137.355  1.00  0.00     0.093 A 
ATOM      8  C   UNL     1     141.628 102.687 136.183  1.00  0.00     0.123 A 
ATOM      9  C   UNL     1     140.255 102.923 136.264  1.00  0.00     0.094 A 
ATOM     10  C   UNL     1     139.622 103.000 137.508  1.00  0.00     0.146 A 
ATOM     11  O   UNL     1     138.313 103.221 137.555  1.00  0.00    -0.452 OA
ENDROOT
BRANCH   1  12
ATOM     12  C   UNL     1     136.167 103.543 138.607  1.00  0.00     0.025 A 
ATOM     13  C   UNL     1     135.643 104.774 139.030  1.00  0.00     0.016 A 
ATOM     14  C   UNL     1     134.272 105.028 138.940  1.00  0.00     0.051 A 
ATOM     15  C   UNL     1     133.407 104.064 138.414  1.00  0.00     0.157 A 
ATOM     16  C   UNL     1     135.298 102.582 138.059  1.00  0.00     0.062 A 
ATOM     17  C   UNL     1     133.922 102.835 137.967  1.00  0.00     0.158 A 
BRANCH  15  18
ATOM     18  O   UNL     1     132.043 104.345 138.340  1.00  0.00    -0.504 OA
ATOM     19  H   UNL     1     131.545 104.361 137.459  1.00  0.00     0.293 HD
ENDBRANCH  15  18
BRANCH  17  20
ATOM     20  O   UNL     1     133.067 101.875 137.429  1.00  0.00    -0.504 OA
ATOM     21  H   UNL     1     133.399 100.952 137.171  1.00  0.00     0.293 HD
ENDBRANCH  17  20
ENDBRANCH   1  12
BRANCH   2  22
ATOM     22  O   UNL     1     137.597 103.335 141.125  1.00  0.00    -0.502 OA
ATOM     23  H   UNL     1     137.588 104.205 141.642  1.00  0.00     0.293 HD
ENDBRANCH   2  22
BRANCH   6  24
ATOM     24  O   UNL     1     142.534 102.439 139.763  1.00  0.00    -0.507 OA
ATOM     25  H   UNL     1     142.490 101.593 140.319  1.00  0.00     0.293 HD
ENDBRANCH   6  24
BRANCH   8  26
ATOM     26  O   UNL     1     142.240 102.613 134.934  1.00  0.00    -0.508 OA
ATOM     27  H   UNL     1     142.058 101.845 134.300  1.00  0.00     0.293 HD
ENDBRANCH   8  26
TORSDOF 6
ENDMDL
MODEL 6
REMARK VINA RESULT:    -4.658     13.591     14.577
REMARK INTER + INTRA:          -5.837
REMARK INTER:                  -6.257
REMARK INTRA:                   0.421
REMARK UNBOUND:                -0.226
REMARK SMILES O=c1c(O)c(-c2ccc(O)c(O)c2)oc2cc(O)cc(O)c12
REMARK SMILES IDX 5 1 3 2 2 3 1 4 22 5 20 6 19 7 17 8 16 9 15 10 14 11 6 12
REMARK SMILES IDX 7 13 8 14 9 15 13 16 11 17 10 18 12 20 4 22 21 24 18 26
REMARK H PARENT 10 19 12 21 4 23 21 25 18 27
REMARK Flexibility Score: inf
ROOT
ATOM      1  C   UNL     1     144.428 115.563 139.655  1.00  0.00     0.180 A 
ATOM      2  C   UNL     1     144.535 116.806 140.308  1.00  0.00     0.208 A 
ATOM      3  C   UNL     1     145.692 117.576 140.113  1.00  0.00     0.238 A 
ATOM      4  O   UNL     1     145.805 118.687 140.702  1.00  0.00    -0.285 OA
ATOM      5  C   UNL     1     146.708 117.105 139.256  1.00  0.00     0.111 A 
ATOM      6  C   UNL     1     147.902 117.823 139.003  1.00  0.00     0.134 A 
ATOM      7  C   UNL     1     148.862 117.290 138.130  1.00  0.00     0.093 A 
ATOM      8  C   UNL     1     148.650 116.054 137.506  1.00  0.00     0.123 A 
ATOM      9  C   UNL     1     147.474 115.344 137.753  1.00  0.00     0.094 A 
ATOM     10  C   UNL     1     146.506 115.857 138.621  1.00  0.00     0.146 A 
ATOM     11  O   UNL     1     145.399 115.157 138.842  1.00  0.00    -0.452 OA
ENDROOT
BRANCH   1  12
ATOM     12  C   UNL     1     143.249 114.684 139.824  1.00  0.00     0.025 A 
ATOM     13  C   UNL     1     143.339 113.330 139.468  1.00  0.00     0.016 A 
ATOM     14  C   UNL     1     142.245 112.478 139.639  1.00  0.00     0.051 A 
ATOM     15  C   UNL     1     141.051 112.961 140.182  1.00  0.00     0.157 A 
ATOM     16  C   UNL     1     142.053 115.164 140.390  1.00  0.00     0.062 A 
ATOM     17  C   UNL     1     140.954 114.310 140.564  1.00  0.00     0.158 A 
BRANCH  15  18
ATOM     18  O   UNL     1     139.975 112.087 140.339  1.00  0.00    -0.504 OA
ATOM     19  H   UNL     1     139.019 112.376 140.171  1.00  0.00     0.293 HD
ENDBRANCH  15  18
BRANCH  17  20
ATOM     20  O   UNL     1     139.771 114.794 141.120  1.00  0.00    -0.504 OA
ATOM     21  H   UNL     1     139.775 115.419 141.917  1.00  0.00     0.293 HD
ENDBRANCH  17  20
ENDBRANCH   1  12
BRANCH   2  22
ATOM     22  O   UNL     1     143.493 117.273 141.113  1.00  0.00    -0.502 OA
ATOM     23  H   UNL     1     143.564 118.128 141.651  1.00  0.00     0.293 HD
ENDBRANCH   2  22
BRANCH   6  24
ATOM     24  O   UNL     1     148.141 119.056 139.610  1.00  0.00    -0.507 OA
ATOM     25  H   UNL     1     148.175 119.916 139.074  1.00  0.00     0.293 HD
ENDBRANCH   6  24
BRANCH   8  26
ATOM     26  O   UNL     1     149.602 115.526 136.638  1.00  0.00    -0.508 OA
ATOM     27  H   UNL     1     149.738 114.526 136.546  1.00  0.00     0.293 HD
ENDBRANCH   8  26
TORSDOF 6
ENDMDL
MODEL 7
REMARK VINA RESULT:    -4.631     15.499     17.262
REMARK INTER + INTRA:          -5.804
REMARK INTER:                  -5.508
REMARK INTRA:                  -0.296
REMARK UNBOUND:                -0.226
REMARK SMILES O=c1c(O)c(-c2ccc(O)c(O)c2)oc2cc(O)cc(O)c12
REMARK SMILES IDX 5 1 3 2 2 3 1 4 22 5 20 6 19 7 17 8 16 9 15 10 14 11 6 12
REMARK SMILES IDX 7 13 8 14 9 15 13 16 11 17 10 18 12 20 4 22 21 24 18 26
REMARK H PARENT 10 19 12 21 4 23 21 25 18 27
REMARK Flexibility Score: inf
ROOT
ATOM      1  C   UNL     1     146.721 117.380 139.012  1.00  0.00     0.180 A 
ATOM      2  C   UNL     1     147.087 116.281 138.209  1.00  0.00     0.208 A 
ATOM      3  C   UNL     1     146.230 115.171 138.150  1.00  0.00     0.238 A 
ATOM      4  O   UNL     1     146.553 114.176 137.443  1.00  0.00    -0.285 OA
ATOM      5  C   UNL     1     145.019 115.184 138.871  1.00  0.00     0.111 A 
ATOM      6  C   UNL     1     144.100 114.108 138.861  1.00  0.00     0.134 A 
ATOM      7  C   UNL     1     142.910 114.202 139.599  1.00  0.00     0.093 A 
ATOM      8  C   UNL     1     142.624 115.350 140.347  1.00  0.00     0.123 A 
ATOM      9  C   UNL     1     143.528 116.414 140.360  1.00  0.00     0.094 A 
ATOM     10  C   UNL     1     144.719 116.339 139.632  1.00  0.00     0.146 A 
ATOM     11  O   UNL     1     145.564 117.364 139.667  1.00  0.00    -0.452 OA
ENDROOT
BRANCH   1  12
ATOM     12  C   UNL     1     147.579 118.579 139.142  1.00  0.00     0.025 A 
ATOM     13  C   UNL     1     148.690 118.545 140.000  1.00  0.00     0.016 A 
ATOM     14  C   UNL     1     149.525 119.658 140.122  1.00  0.00     0.051 A 
ATOM     15  C   UNL     1     149.273 120.816 139.380  1.00  0.00     0.157 A 
ATOM     16  C   UNL     1     147.339 119.737 138.381  1.00  0.00     0.062 A 
ATOM     17  C   UNL     1     148.177 120.856 138.501  1.00  0.00     0.158 A 
BRANCH  15  18
ATOM     18  O   UNL     1     150.123 121.912 139.525  1.00  0.00    -0.504 OA
ATOM     19  H   UNL     1     150.932 122.047 138.931  1.00  0.00     0.293 HD
ENDBRANCH  15  18
BRANCH  17  20
ATOM     20  O   UNL     1     147.929 122.002 137.748  1.00  0.00    -0.504 OA
ATOM     21  H   UNL     1     147.018 122.185 137.343  1.00  0.00     0.293 HD
ENDBRANCH  17  20
ENDBRANCH   1  12
BRANCH   2  22
ATOM     22  O   UNL     1     148.268 116.313 137.465  1.00  0.00    -0.502 OA
ATOM     23  H   UNL     1     148.491 115.611 136.770  1.00  0.00     0.293 HD
ENDBRANCH   2  22
BRANCH   6  24
ATOM     24  O   UNL     1     144.357 112.951 138.125  1.00  0.00    -0.507 OA
ATOM     25  H   UNL     1     143.804 112.701 137.313  1.00  0.00     0.293 HD
ENDBRANCH   6  24
BRANCH   8  26
ATOM     26  O   UNL     1     141.443 115.444 141.079  1.00  0.00    -0.508 OA
ATOM     27  H   UNL     1     140.982 114.621 141.448  1.00  0.00     0.293 HD
ENDBRANCH   8  26
TORSDOF 6
ENDMDL
MODEL 8
REMARK VINA RESULT:    -4.303     15.156     16.460
REMARK INTER + INTRA:          -5.409
REMARK INTER:                  -5.254
REMARK INTRA:                  -0.156
REMARK UNBOUND:                -0.226
REMARK SMILES O=c1c(O)c(-c2ccc(O)c(O)c2)oc2cc(O)cc(O)c12
REMARK SMILES IDX 5 1 3 2 2 3 1 4 22 5 20 6 19 7 17 8 16 9 15 10 14 11 6 12
REMARK SMILES IDX 7 13 8 14 9 15 13 16 11 17 10 18 12 20 4 22 21 24 18 26
REMARK H PARENT 10 19 12 21 4 23 21 25 18 27
REMARK Flexibility Score: inf
ROOT
ATOM      1  C   UNL     1     146.700 116.192 139.160  1.00  0.00     0.180 A 
ATOM      2  C   UNL     1     147.998 115.782 139.519  1.00  0.00     0.208 A 
ATOM      3  C   UNL     1     149.051 116.705 139.423  1.00  0.00     0.238 A 
ATOM      4  O   UNL     1     150.221 116.346 139.731  1.00  0.00    -0.285 OA
ATOM      5  C   UNL     1     148.788 118.021 138.992  1.00  0.00     0.111 A 
ATOM      6  C   UNL     1     149.793 119.012 138.872  1.00  0.00     0.134 A 
ATOM      7  C   UNL     1     149.449 120.303 138.444  1.00  0.00     0.093 A 
ATOM      8  C   UNL     1     148.121 120.621 138.135  1.00  0.00     0.123 A 
ATOM      9  C   UNL     1     147.128 119.648 138.252  1.00  0.00     0.094 A 
ATOM     10  C   UNL     1     147.451 118.355 138.674  1.00  0.00     0.146 A 
ATOM     11  O   UNL     1     146.486 117.447 138.772  1.00  0.00    -0.452 OA
ENDROOT
BRANCH   1  12
ATOM     12  C   UNL     1     145.541 115.273 139.215  1.00  0.00     0.025 A 
ATOM     13  C   UNL     1     145.516 114.141 138.387  1.00  0.00     0.016 A 
ATOM     14  C   UNL     1     144.442 113.249 138.438  1.00  0.00     0.051 A 
ATOM     15  C   UNL     1     143.385 113.466 139.327  1.00  0.00     0.157 A 
ATOM     16  C   UNL     1     144.486 115.479 140.124  1.00  0.00     0.062 A 
ATOM     17  C   UNL     1     143.407 114.584 140.178  1.00  0.00     0.158 A 
BRANCH  15  18
ATOM     18  O   UNL     1     142.325 112.559 139.354  1.00  0.00    -0.504 OA
ATOM     19  H   UNL     1     142.420 111.633 139.751  1.00  0.00     0.293 HD
ENDBRANCH  15  18
BRANCH  17  20
ATOM     20  O   UNL     1     142.363 114.798 141.076  1.00  0.00    -0.504 OA
ATOM     21  H   UNL     1     142.382 114.415 142.014  1.00  0.00     0.293 HD
ENDBRANCH  17  20
ENDBRANCH   1  12
BRANCH   2  22
ATOM     22  O   UNL     1     148.224 114.487 139.991  1.00  0.00    -0.502 OA
ATOM     23  H   UNL     1     149.041 114.243 140.538  1.00  0.00     0.293 HD
ENDBRANCH   2  22
BRANCH   6  24
ATOM     24  O   UNL     1     151.124 118.725 139.174  1.00  0.00    -0.507 OA
ATOM     25  H   UNL     1     151.594 119.146 139.967  1.00  0.00     0.293 HD
ENDBRANCH   6  24
BRANCH   8  26
ATOM     26  O   UNL     1     147.779 121.903 137.711  1.00  0.00    -0.508 OA
ATOM     27  H   UNL     1     147.109 122.055 136.967  1.00  0.00     0.293 HD
ENDBRANCH   8  26
TORSDOF 6
ENDMDL
MODEL 9
REMARK VINA RESULT:    -3.620     14.280     16.061
REMARK INTER + INTRA:          -4.587
REMARK INTER:                  -4.728
REMARK INTRA:                   0.141
REMARK UNBOUND:                -0.226
REMARK SMILES O=c1c(O)c(-c2ccc(O)c(O)c2)oc2cc(O)cc(O)c12
REMARK SMILES IDX 5 1 3 2 2 3 1 4 22 5 20 6 19 7 17 8 16 9 15 10 14 11 6 12
REMARK SMILES IDX 7 13 8 14 9 15 13 16 11 17 10 18 12 20 4 22 21 24 18 26
REMARK H PARENT 10 19 12 21 4 23 21 25 18 27
REMARK Flexibility Score: inf
ROOT
ATOM      1  C   UNL     1     145.195 116.514 139.434  1.00  0.00     0.180 A 
ATOM      2  C   UNL     1     145.540 115.269 138.873  1.00  0.00     0.208 A 
ATOM      3  C   UNL     1     144.593 114.232 138.891  1.00  0.00     0.238 A 
ATOM      4  O   UNL     1     144.894 113.109 138.402  1.00  0.00    -0.285 OA
ATOM      5  C   UNL     1     143.318 114.462 139.447  1.00  0.00     0.111 A 
ATOM      6  C   UNL     1     142.307 113.471 139.499  1.00  0.00     0.134 A 
ATOM      7  C   UNL     1     141.059 113.781 140.060  1.00  0.00     0.093 A 
ATOM      8  C   UNL     1     140.803 115.061 140.569  1.00  0.00     0.123 A 
ATOM      9  C   UNL     1     141.797 116.039 140.519  1.00  0.00     0.094 A 
ATOM     10  C   UNL     1     143.048 115.750 139.965  1.00  0.00     0.146 A 
ATOM     11  O   UNL     1     143.977 116.699 139.935  1.00  0.00    -0.452 OA
ENDROOT
BRANCH   1  12
ATOM     12  C   UNL     1     146.143 117.650 139.471  1.00  0.00     0.025 A 
ATOM     13  C   UNL     1     146.252 118.422 140.637  1.00  0.00     0.016 A 
ATOM     14  C   UNL     1     147.156 119.485 140.702  1.00  0.00     0.051 A 
ATOM     15  C   UNL     1     147.974 119.785 139.608  1.00  0.00     0.157 A 
ATOM     16  C   UNL     1     146.982 117.939 138.379  1.00  0.00     0.062 A 
ATOM     17  C   UNL     1     147.891 119.006 138.441  1.00  0.00     0.158 A 
BRANCH  15  18
ATOM     18  O   UNL     1     148.865 120.854 139.700  1.00  0.00    -0.504 OA
ATOM     19  H   UNL     1     149.694 120.914 139.122  1.00  0.00     0.293 HD
ENDBRANCH  15  18
BRANCH  17  20
ATOM     20  O   UNL     1     148.714 119.290 137.353  1.00  0.00    -0.504 OA
ATOM     21  H   UNL     1     148.843 118.627 136.596  1.00  0.00     0.293 HD
ENDBRANCH  17  20
ENDBRANCH   1  12
BRANCH   2  22
ATOM     22  O   UNL     1     146.793 115.082 138.285  1.00  0.00    -0.502 OA
ATOM     23  H   UNL     1     147.477 114.437 138.659  1.00  0.00     0.293 HD
ENDBRANCH   2  22
BRANCH   6  24
ATOM     24  O   UNL     1     142.532 112.188 139.000  1.00  0.00    -0.507 OA
ATOM     25  H   UNL     1     142.647 111.390 139.614  1.00  0.00     0.293 HD
ENDBRANCH   6  24
BRANCH   8  26
ATOM     26  O   UNL     1     139.564 115.368 141.125  1.00  0.00    -0.508 OA
ATOM     27  H   UNL     1     138.707 115.281 140.592  1.00  0.00     0.293 HD
ENDBRANCH   8  26
TORSDOF 6
ENDMDL
