MODEL 1
REMARK VINA RESULT:     0.000      0.000      0.000
REMARK INTER + INTRA:          -0.318
REMARK INTER:                   0.000
REMARK INTRA:                  -0.318
REMARK UNBOUND:                -0.318
REMARK SMILES O=c1cc(-c2ccc(O)c(O)c2)oc2cc(O)cc(O)c12
REMARK SMILES IDX 4 1 3 2 2 3 1 4 21 5 19 6 18 7 16 8 15 9 14 10 13 11 5 12
REMARK SMILES IDX 6 13 7 14 8 15 12 16 10 17 9 18 11 20 20 22 17 24
REMARK H PARENT 9 19 11 21 20 23 17 25
REMARK Flexibility Score: inf
ROOT
ATOM      1  C   UNL     1       5.614  51.401  34.985  1.00  0.00     0.138 A 
ATOM      2  C   UNL     1       5.417  51.880  33.683  1.00  0.00     0.100 A 
ATOM      3  C   UNL     1       4.119  52.059  33.204  1.00  0.00     0.197 A 
ATOM      4  O   UNL     1       3.972  52.431  32.010  1.00  0.00    -0.289 OA
ATOM      5  C   UNL     1       3.013  51.786  34.045  1.00  0.00     0.107 A 
ATOM      6  C   UNL     1       1.647  51.971  33.677  1.00  0.00     0.134 A 
ATOM      7  C   UNL     1       0.635  51.557  34.552  1.00  0.00     0.093 A 
ATOM      8  C   UNL     1       0.939  51.022  35.804  1.00  0.00     0.123 A 
ATOM      9  C   UNL     1       2.272  50.887  36.195  1.00  0.00     0.094 A 
ATOM     10  C   UNL     1       3.304  51.258  35.331  1.00  0.00     0.146 A 
ATOM     11  O   UNL     1       4.560  51.100  35.736  1.00  0.00    -0.456 OA
ENDROOT
BRANCH   1  12
ATOM     12  C   UNL     1       6.973  51.192  35.547  1.00  0.00     0.021 A 
ATOM     13  C   UNL     1       8.133  51.497  34.808  1.00  0.00     0.016 A 
ATOM     14  C   UNL     1       9.400  51.301  35.364  1.00  0.00     0.051 A 
ATOM     15  C   UNL     1       9.531  50.806  36.668  1.00  0.00     0.157 A 
ATOM     16  C   UNL     1       7.114  50.708  36.860  1.00  0.00     0.062 A 
ATOM     17  C   UNL     1       8.385  50.510  37.417  1.00  0.00     0.158 A 
BRANCH  15  18
ATOM     18  O   UNL     1      10.792  50.608  37.225  1.00  0.00    -0.504 OA
ATOM     19  H   UNL     1      11.337  49.778  37.021  1.00  0.00     0.293 HD
ENDBRANCH  15  18
BRANCH  17  20
ATOM     20  O   UNL     1       8.518  50.022  38.715  1.00  0.00    -0.504 OA
ATOM     21  H   UNL     1       9.089  50.497  39.406  1.00  0.00     0.293 HD
ENDBRANCH  17  20
ENDBRANCH   1  12
BRANCH   6  22
ATOM     22  O   UNL     1       1.234  52.574  32.485  1.00  0.00    -0.507 OA
ATOM     23  H   UNL     1       1.830  52.751  31.692  1.00  0.00     0.293 HD
ENDBRANCH   6  22
BRANCH   8  24
ATOM     24  O   UNL     1      -0.094  50.635  36.654  1.00  0.00    -0.508 OA
ATOM     25  H   UNL     1      -1.051  50.925  36.490  1.00  0.00     0.293 HD
ENDBRANCH   8  24
TORSDOF 5
ENDMDL
MODEL 2
REMARK VINA RESULT:     0.000      6.031     10.246
REMARK INTER + INTRA:          -0.318
REMARK INTER:                   0.000
REMARK INTRA:                  -0.318
REMARK UNBOUND:                -0.318
REMARK SMILES O=c1cc(-c2ccc(O)c(O)c2)oc2cc(O)cc(O)c12
REMARK SMILES IDX 4 1 3 2 2 3 1 4 21 5 19 6 18 7 16 8 15 9 14 10 13 11 5 12
REMARK SMILES IDX 6 13 7 14 8 15 12 16 10 17 9 18 11 20 20 22 17 24
REMARK H PARENT 9 19 11 21 20 23 17 25
REMARK Flexibility Score: inf
ROOT
ATOM      1  C   UNL     1      11.787  47.579  37.222  1.00  0.00     0.138 A 
ATOM      2  C   UNL     1      13.029  47.369  37.836  1.00  0.00     0.100 A 
ATOM      3  C   UNL     1      14.154  47.119  37.050  1.00  0.00     0.197 A 
ATOM      4  O   UNL     1      15.243  46.874  37.632  1.00  0.00    -0.289 OA
ATOM      5  C   UNL     1      14.039  47.110  35.639  1.00  0.00     0.107 A 
ATOM      6  C   UNL     1      15.126  46.906  34.737  1.00  0.00     0.134 A 
ATOM      7  C   UNL     1      14.871  46.802  33.364  1.00  0.00     0.093 A 
ATOM      8  C   UNL     1      13.581  46.954  32.856  1.00  0.00     0.123 A 
ATOM      9  C   UNL     1      12.520  47.207  33.725  1.00  0.00     0.094 A 
ATOM     10  C   UNL     1      12.735  47.282  35.103  1.00  0.00     0.146 A 
ATOM     11  O   UNL     1      11.695  47.510  35.898  1.00  0.00    -0.456 OA
ENDROOT
BRANCH   1  12
ATOM     12  C   UNL     1      10.558  47.850  38.010  1.00  0.00     0.021 A 
ATOM     13  C   UNL     1      10.586  47.942  39.415  1.00  0.00     0.016 A 
ATOM     14  C   UNL     1       9.416  48.209  40.132  1.00  0.00     0.051 A 
ATOM     15  C   UNL     1       8.202  48.394  39.459  1.00  0.00     0.157 A 
ATOM     16  C   UNL     1       9.336  48.051  37.342  1.00  0.00     0.062 A 
ATOM     17  C   UNL     1       8.162  48.317  38.061  1.00  0.00     0.158 A 
BRANCH  15  18
ATOM     18  O   UNL     1       7.033  48.659  40.170  1.00  0.00    -0.504 OA
ATOM     19  H   UNL     1       6.343  47.937  40.343  1.00  0.00     0.293 HD
ENDBRANCH  15  18
BRANCH  17  20
ATOM     20  O   UNL     1       6.954  48.507  37.394  1.00  0.00    -0.504 OA
ATOM     21  H   UNL     1       6.888  49.100  36.575  1.00  0.00     0.293 HD
ENDBRANCH  17  20
ENDBRANCH   1  12
BRANCH   6  22
ATOM     22  O   UNL     1      16.465  46.825  35.132  1.00  0.00    -0.507 OA
ATOM     23  H   UNL     1      17.138  47.570  35.042  1.00  0.00     0.293 HD
ENDBRANCH   6  22
BRANCH   8  24
ATOM     24  O   UNL     1      13.368  46.858  31.483  1.00  0.00    -0.508 OA
ATOM     25  H   UNL     1      12.633  47.383  31.023  1.00  0.00     0.293 HD
ENDBRANCH   8  24
TORSDOF 5
ENDMDL
MODEL 3
REMARK VINA RESULT:     0.000      7.508      9.270
REMARK INTER + INTRA:          -0.318
REMARK INTER:                   0.000
REMARK INTRA:                  -0.318
REMARK UNBOUND:                -0.318
REMARK SMILES O=c1cc(-c2ccc(O)c(O)c2)oc2cc(O)cc(O)c12
REMARK SMILES IDX 4 1 3 2 2 3 1 4 21 5 19 6 18 7 16 8 15 9 14 10 13 11 5 12
REMARK SMILES IDX 6 13 7 14 8 15 12 16 10 17 9 18 11 20 20 22 17 24
REMARK H PARENT 9 19 11 21 20 23 17 25
REMARK Flexibility Score: inf
ROOT
ATOM      1  C   UNL     1      10.591  52.200  29.338  1.00  0.00     0.138 A 
ATOM      2  C   UNL     1      10.692  51.086  28.493  1.00  0.00     0.100 A 
ATOM      3  C   UNL     1      10.366  51.213  27.142  1.00  0.00     0.197 A 
ATOM      4  O   UNL     1      10.406  50.182  26.422  1.00  0.00    -0.289 OA
ATOM      5  C   UNL     1       9.968  52.471  26.629  1.00  0.00     0.107 A 
ATOM      6  C   UNL     1       9.652  52.727  25.261  1.00  0.00     0.134 A 
ATOM      7  C   UNL     1       9.158  53.985  24.892  1.00  0.00     0.093 A 
ATOM      8  C   UNL     1       9.026  55.011  25.828  1.00  0.00     0.123 A 
ATOM      9  C   UNL     1       9.384  54.786  27.157  1.00  0.00     0.094 A 
ATOM     10  C   UNL     1       9.847  53.533  27.564  1.00  0.00     0.146 A 
ATOM     11  O   UNL     1      10.162  53.356  28.842  1.00  0.00    -0.456 OA
ENDROOT
BRANCH   1  12
ATOM     12  C   UNL     1      10.926  52.121  30.782  1.00  0.00     0.021 A 
ATOM     13  C   UNL     1      11.392  50.929  31.370  1.00  0.00     0.016 A 
ATOM     14  C   UNL     1      11.709  50.886  32.730  1.00  0.00     0.051 A 
ATOM     15  C   UNL     1      11.574  52.031  33.524  1.00  0.00     0.157 A 
ATOM     16  C   UNL     1      10.806  53.270  31.585  1.00  0.00     0.062 A 
ATOM     17  C   UNL     1      11.123  53.226  32.950  1.00  0.00     0.158 A 
BRANCH  15  18
ATOM     18  O   UNL     1      11.889  51.991  34.881  1.00  0.00    -0.504 OA
ATOM     19  H   UNL     1      11.462  51.316  35.504  1.00  0.00     0.293 HD
ENDBRANCH  15  18
BRANCH  17  20
ATOM     20  O   UNL     1      10.994  54.365  33.741  1.00  0.00    -0.504 OA
ATOM     21  H   UNL     1      10.249  54.458  34.422  1.00  0.00     0.293 HD
ENDBRANCH  17  20
ENDBRANCH   1  12
BRANCH   6  22
ATOM     22  O   UNL     1       9.827  51.798  24.231  1.00  0.00    -0.507 OA
ATOM     23  H   UNL     1       9.141  51.118  23.946  1.00  0.00     0.293 HD
ENDBRANCH   6  22
BRANCH   8  24
ATOM     24  O   UNL     1       8.545  56.253  25.421  1.00  0.00    -0.508 OA
ATOM     25  H   UNL     1       8.838  56.673  24.546  1.00  0.00     0.293 HD
ENDBRANCH   8  24
TORSDOF 5
ENDMDL
MODEL 4
REMARK VINA RESULT:     0.000      4.004      6.590
REMARK INTER + INTRA:          -0.318
REMARK INTER:                   0.000
REMARK INTRA:                  -0.318
REMARK UNBOUND:                -0.318
REMARK SMILES O=c1cc(-c2ccc(O)c(O)c2)oc2cc(O)cc(O)c12
REMARK SMILES IDX 4 1 3 2 2 3 1 4 21 5 19 6 18 7 16 8 15 9 14 10 13 11 5 12
REMARK SMILES IDX 6 13 7 14 8 15 12 16 10 17 9 18 11 20 20 22 17 24
REMARK H PARENT 9 19 11 21 20 23 17 25
REMARK Flexibility Score: inf
ROOT
ATOM      1  C   UNL     1       7.212  50.195  34.168  1.00  0.00     0.138 A 
ATOM      2  C   UNL     1       8.522  50.602  33.883  1.00  0.00     0.100 A 
ATOM      3  C   UNL     1       9.326  49.811  33.061  1.00  0.00     0.197 A 
ATOM      4  O   UNL     1      10.517  50.170  32.872  1.00  0.00    -0.289 OA
ATOM      5  C   UNL     1       8.803  48.623  32.497  1.00  0.00     0.107 A 
ATOM      6  C   UNL     1       9.518  47.760  31.613  1.00  0.00     0.134 A 
ATOM      7  C   UNL     1       8.937  46.551  31.211  1.00  0.00     0.093 A 
ATOM      8  C   UNL     1       7.647  46.202  31.611  1.00  0.00     0.123 A 
ATOM      9  C   UNL     1       6.920  47.064  32.432  1.00  0.00     0.094 A 
ATOM     10  C   UNL     1       7.483  48.261  32.878  1.00  0.00     0.146 A 
ATOM     11  O   UNL     1       6.763  49.047  33.671  1.00  0.00    -0.456 OA
ENDROOT
BRANCH   1  12
ATOM     12  C   UNL     1       6.312  50.997  35.036  1.00  0.00     0.021 A 
ATOM     13  C   UNL     1       6.722  52.226  35.589  1.00  0.00     0.016 A 
ATOM     14  C   UNL     1       5.852  52.967  36.394  1.00  0.00     0.051 A 
ATOM     15  C   UNL     1       4.558  52.498  36.653  1.00  0.00     0.157 A 
ATOM     16  C   UNL     1       5.006  50.542  35.291  1.00  0.00     0.062 A 
ATOM     17  C   UNL     1       4.134  51.284  36.099  1.00  0.00     0.158 A 
BRANCH  15  18
ATOM     18  O   UNL     1       3.688  53.233  37.456  1.00  0.00    -0.504 OA
ATOM     19  H   UNL     1       2.837  52.825  37.826  1.00  0.00     0.293 HD
ENDBRANCH  15  18
BRANCH  17  20
ATOM     20  O   UNL     1       2.844  50.823  36.355  1.00  0.00    -0.504 OA
ATOM     21  H   UNL     1       2.043  51.442  36.321  1.00  0.00     0.293 HD
ENDBRANCH  17  20
ENDBRANCH   1  12
BRANCH   6  22
ATOM     22  O   UNL     1      10.779  48.053  31.085  1.00  0.00    -0.507 OA
ATOM     23  H   UNL     1      11.637  48.060  31.613  1.00  0.00     0.293 HD
ENDBRANCH   6  22
BRANCH   8  24
ATOM     24  O   UNL     1       7.097  44.998  31.179  1.00  0.00    -0.508 OA
ATOM     25  H   UNL     1       6.292  44.589  31.638  1.00  0.00     0.293 HD
ENDBRANCH   8  24
TORSDOF 5
ENDMDL
MODEL 5
REMARK VINA RESULT:     0.000      4.599      8.785
REMARK INTER + INTRA:          -0.318
REMARK INTER:                   0.000
REMARK INTRA:                  -0.318
REMARK UNBOUND:                -0.318
REMARK SMILES O=c1cc(-c2ccc(O)c(O)c2)oc2cc(O)cc(O)c12
REMARK SMILES IDX 4 1 3 2 2 3 1 4 21 5 19 6 18 7 16 8 15 9 14 10 13 11 5 12
REMARK SMILES IDX 6 13 7 14 8 15 12 16 10 17 9 18 11 20 20 22 17 24
REMARK H PARENT 9 19 11 21 20 23 17 25
REMARK Flexibility Score: inf
ROOT
ATOM      1  C   UNL     1       9.325  49.696  33.961  1.00  0.00     0.138 A 
ATOM      2  C   UNL     1       8.706  48.703  34.731  1.00  0.00     0.100 A 
ATOM      3  C   UNL     1       9.471  47.932  35.607  1.00  0.00     0.197 A 
ATOM      4  O   UNL     1       8.898  47.007  36.239  1.00  0.00    -0.289 OA
ATOM      5  C   UNL     1      10.859  48.180  35.734  1.00  0.00     0.107 A 
ATOM      6  C   UNL     1      11.730  47.484  36.624  1.00  0.00     0.134 A 
ATOM      7  C   UNL     1      13.107  47.736  36.578  1.00  0.00     0.093 A 
ATOM      8  C   UNL     1      13.636  48.700  35.720  1.00  0.00     0.123 A 
ATOM      9  C   UNL     1      12.785  49.424  34.883  1.00  0.00     0.094 A 
ATOM     10  C   UNL     1      11.412  49.171  34.880  1.00  0.00     0.146 A 
ATOM     11  O   UNL     1      10.638  49.872  34.058  1.00  0.00    -0.456 OA
ENDROOT
BRANCH   1  12
ATOM     12  C   UNL     1       8.559  50.546  33.014  1.00  0.00     0.021 A 
ATOM     13  C   UNL     1       7.164  50.417  32.867  1.00  0.00     0.016 A 
ATOM     14  C   UNL     1       6.466  51.237  31.976  1.00  0.00     0.051 A 
ATOM     15  C   UNL     1       7.145  52.203  31.223  1.00  0.00     0.157 A 
ATOM     16  C   UNL     1       9.231  51.528  32.264  1.00  0.00     0.062 A 
ATOM     17  C   UNL     1       8.530  52.349  31.369  1.00  0.00     0.158 A 
BRANCH  15  18
ATOM     18  O   UNL     1       6.453  53.021  30.333  1.00  0.00    -0.504 OA
ATOM     19  H   UNL     1       6.802  53.937  30.075  1.00  0.00     0.293 HD
ENDBRANCH  15  18
BRANCH  17  20
ATOM     20  O   UNL     1       9.203  53.315  30.623  1.00  0.00    -0.504 OA
ATOM     21  H   UNL     1       9.494  53.140  29.667  1.00  0.00     0.293 HD
ENDBRANCH  17  20
ENDBRANCH   1  12
BRANCH   6  22
ATOM     22  O   UNL     1      11.296  46.562  37.582  1.00  0.00    -0.507 OA
ATOM     23  H   UNL     1      11.689  46.462  38.504  1.00  0.00     0.293 HD
ENDBRANCH   6  22
BRANCH   8  24
ATOM     24  O   UNL     1      15.009  48.934  35.713  1.00  0.00    -0.508 OA
ATOM     25  H   UNL     1      15.670  48.198  35.495  1.00  0.00     0.293 HD
ENDBRANCH   8  24
TORSDOF 5
ENDMDL
MODEL 6
REMARK VINA RESULT:     0.000      4.785      6.333
REMARK INTER + INTRA:          -0.318
REMARK INTER:                   0.000
REMARK INTRA:                  -0.318
REMARK UNBOUND:                -0.318
REMARK SMILES O=c1cc(-c2ccc(O)c(O)c2)oc2cc(O)cc(O)c12
REMARK SMILES IDX 4 1 3 2 2 3 1 4 21 5 19 6 18 7 16 8 15 9 14 10 13 11 5 12
REMARK SMILES IDX 6 13 7 14 8 15 12 16 10 17 9 18 11 20 20 22 17 24
REMARK H PARENT 9 19 11 21 20 23 17 25
REMARK Flexibility Score: inf
ROOT
ATOM      1  C   UNL     1       7.822  49.865  30.901  1.00  0.00     0.138 A 
ATOM      2  C   UNL     1       8.327  48.852  30.075  1.00  0.00     0.100 A 
ATOM      3  C   UNL     1       7.775  48.656  28.809  1.00  0.00     0.197 A 
ATOM      4  O   UNL     1       8.207  47.700  28.114  1.00  0.00    -0.289 OA
ATOM      5  C   UNL     1       6.732  49.500  28.357  1.00  0.00     0.107 A 
ATOM      6  C   UNL     1       6.121  49.418  27.070  1.00  0.00     0.134 A 
ATOM      7  C   UNL     1       5.018  50.231  26.777  1.00  0.00     0.093 A 
ATOM      8  C   UNL     1       4.544  51.162  27.701  1.00  0.00     0.123 A 
ATOM      9  C   UNL     1       5.169  51.287  28.942  1.00  0.00     0.094 A 
ATOM     10  C   UNL     1       6.248  50.467  29.277  1.00  0.00     0.146 A 
ATOM     11  O   UNL     1       6.806  50.607  30.475  1.00  0.00    -0.456 OA
ENDROOT
BRANCH   1  12
ATOM     12  C   UNL     1       8.372  50.118  32.257  1.00  0.00     0.021 A 
ATOM     13  C   UNL     1       9.453  49.373  32.768  1.00  0.00     0.016 A 
ATOM     14  C   UNL     1       9.959  49.639  34.043  1.00  0.00     0.051 A 
ATOM     15  C   UNL     1       9.400  50.657  34.826  1.00  0.00     0.157 A 
ATOM     16  C   UNL     1       7.827  51.147  33.046  1.00  0.00     0.062 A 
ATOM     17  C   UNL     1       8.334  51.413  34.326  1.00  0.00     0.158 A 
BRANCH  15  18
ATOM     18  O   UNL     1       9.901  50.925  36.099  1.00  0.00    -0.504 OA
ATOM     19  H   UNL     1      10.096  51.872  36.403  1.00  0.00     0.293 HD
ENDBRANCH  15  18
BRANCH  17  20
ATOM     20  O   UNL     1       7.783  52.429  35.105  1.00  0.00    -0.504 OA
ATOM     21  H   UNL     1       7.161  53.124  34.709  1.00  0.00     0.293 HD
ENDBRANCH  17  20
ENDBRANCH   1  12
BRANCH   6  22
ATOM     22  O   UNL     1       6.570  48.582  26.043  1.00  0.00    -0.507 OA
ATOM     23  H   UNL     1       6.885  48.897  25.139  1.00  0.00     0.293 HD
ENDBRANCH   6  22
BRANCH   8  24
ATOM     24  O   UNL     1       3.455  51.964  27.369  1.00  0.00    -0.508 OA
ATOM     25  H   UNL     1       3.494  52.616  26.595  1.00  0.00     0.293 HD
ENDBRANCH   8  24
TORSDOF 5
ENDMDL
MODEL 7
REMARK VINA RESULT:     0.000      6.146      7.361
REMARK INTER + INTRA:          -0.318
REMARK INTER:                   0.000
REMARK INTRA:                  -0.318
REMARK UNBOUND:                -0.318
REMARK SMILES O=c1cc(-c2ccc(O)c(O)c2)oc2cc(O)cc(O)c12
REMARK SMILES IDX 4 1 3 2 2 3 1 4 21 5 19 6 18 7 16 8 15 9 14 10 13 11 5 12
REMARK SMILES IDX 6 13 7 14 8 15 12 16 10 17 9 18 11 20 20 22 17 24
REMARK H PARENT 9 19 11 21 20 23 17 25
REMARK Flexibility Score: inf
ROOT
ATOM      1  C   UNL     1       9.273  48.662  29.783  1.00  0.00     0.138 A 
ATOM      2  C   UNL     1       9.694  48.409  28.471  1.00  0.00     0.100 A 
ATOM      3  C   UNL     1       8.754  48.068  27.497  1.00  0.00     0.197 A 
ATOM      4  O   UNL     1       9.168  47.787  26.343  1.00  0.00    -0.289 OA
ATOM      5  C   UNL     1       7.380  48.012  27.835  1.00  0.00     0.107 A 
ATOM      6  C   UNL     1       6.329  47.715  26.917  1.00  0.00     0.134 A 
ATOM      7  C   UNL     1       5.019  47.573  27.391  1.00  0.00     0.093 A 
ATOM      8  C   UNL     1       4.713  47.775  28.736  1.00  0.00     0.123 A 
ATOM      9  C   UNL     1       5.725  48.119  29.633  1.00  0.00     0.094 A 
ATOM     10  C   UNL     1       7.047  48.234  29.198  1.00  0.00     0.146 A 
ATOM     11  O   UNL     1       7.984  48.548  30.086  1.00  0.00    -0.456 OA
ENDROOT
BRANCH   1  12
ATOM     12  C   UNL     1      10.230  49.029  30.857  1.00  0.00     0.021 A 
ATOM     13  C   UNL     1      11.608  49.172  30.602  1.00  0.00     0.016 A 
ATOM     14  C   UNL     1      12.486  49.529  31.629  1.00  0.00     0.051 A 
ATOM     15  C   UNL     1      12.003  49.755  32.925  1.00  0.00     0.157 A 
ATOM     16  C   UNL     1       9.753  49.270  32.158  1.00  0.00     0.062 A 
ATOM     17  C   UNL     1      10.634  49.627  33.189  1.00  0.00     0.158 A 
BRANCH  15  18
ATOM     18  O   UNL     1      12.876  50.109  33.952  1.00  0.00    -0.504 OA
ATOM     19  H   UNL     1      12.873  49.622  34.841  1.00  0.00     0.293 HD
ENDBRANCH  15  18
BRANCH  17  20
ATOM     20  O   UNL     1      10.156  49.856  34.477  1.00  0.00    -0.504 OA
ATOM     21  H   UNL     1       9.184  49.700  34.719  1.00  0.00     0.293 HD
ENDBRANCH  17  20
ENDBRANCH   1  12
BRANCH   6  22
ATOM     22  O   UNL     1       6.512  47.577  25.537  1.00  0.00    -0.507 OA
ATOM     23  H   UNL     1       7.272  47.983  25.014  1.00  0.00     0.293 HD
ENDBRANCH   6  22
BRANCH   8  24
ATOM     24  O   UNL     1       3.396  47.640  29.169  1.00  0.00    -0.508 OA
ATOM     25  H   UNL     1       2.637  47.490  28.515  1.00  0.00     0.293 HD
ENDBRANCH   8  24
TORSDOF 5
ENDMDL
MODEL 8
REMARK VINA RESULT:     0.000      6.910      8.635
REMARK INTER + INTRA:          -0.318
REMARK INTER:                   0.000
REMARK INTRA:                  -0.318
REMARK UNBOUND:                -0.318
REMARK SMILES O=c1cc(-c2ccc(O)c(O)c2)oc2cc(O)cc(O)c12
REMARK SMILES IDX 4 1 3 2 2 3 1 4 21 5 19 6 18 7 16 8 15 9 14 10 13 11 5 12
REMARK SMILES IDX 6 13 7 14 8 15 12 16 10 17 9 18 11 20 20 22 17 24
REMARK H PARENT 9 19 11 21 20 23 17 25
REMARK Flexibility Score: inf
ROOT
ATOM      1  C   UNL     1      10.721  53.371  34.543  1.00  0.00     0.138 A 
ATOM      2  C   UNL     1      11.020  52.174  33.877  1.00  0.00     0.100 A 
ATOM      3  C   UNL     1      11.445  51.065  34.610  1.00  0.00     0.197 A 
ATOM      4  O   UNL     1      11.765  50.024  33.980  1.00  0.00    -0.289 OA
ATOM      5  C   UNL     1      11.540  51.147  36.020  1.00  0.00     0.107 A 
ATOM      6  C   UNL     1      11.923  50.069  36.872  1.00  0.00     0.134 A 
ATOM      7  C   UNL     1      12.095  50.301  38.243  1.00  0.00     0.093 A 
ATOM      8  C   UNL     1      11.840  51.554  38.799  1.00  0.00     0.123 A 
ATOM      9  C   UNL     1      11.413  52.601  37.982  1.00  0.00     0.094 A 
ATOM     10  C   UNL     1      11.266  52.411  36.607  1.00  0.00     0.146 A 
ATOM     11  O   UNL     1      10.872  53.438  35.861  1.00  0.00    -0.456 OA
ENDROOT
BRANCH   1  12
ATOM     12  C   UNL     1      10.264  54.581  33.813  1.00  0.00     0.021 A 
ATOM     13  C   UNL     1      10.077  54.576  32.417  1.00  0.00     0.016 A 
ATOM     14  C   UNL     1       9.636  55.726  31.756  1.00  0.00     0.051 A 
ATOM     15  C   UNL     1       9.368  56.896  32.478  1.00  0.00     0.157 A 
ATOM     16  C   UNL     1       9.979  55.757  34.530  1.00  0.00     0.062 A 
ATOM     17  C   UNL     1       9.538  56.910  33.867  1.00  0.00     0.158 A 
BRANCH  15  18
ATOM     18  O   UNL     1       8.929  58.045  31.822  1.00  0.00    -0.504 OA
ATOM     19  H   UNL     1       9.538  58.844  31.691  1.00  0.00     0.293 HD
ENDBRANCH  15  18
BRANCH  17  20
ATOM     20  O   UNL     1       9.265  58.075  34.583  1.00  0.00    -0.504 OA
ATOM     21  H   UNL     1      10.003  58.611  35.025  1.00  0.00     0.293 HD
ENDBRANCH  17  20
ENDBRANCH   1  12
BRANCH   6  22
ATOM     22  O   UNL     1      12.120  48.756  36.432  1.00  0.00    -0.507 OA
ATOM     23  H   UNL     1      11.597  48.311  35.695  1.00  0.00     0.293 HD
ENDBRANCH   6  22
BRANCH   8  24
ATOM     24  O   UNL     1      12.008  51.744  40.169  1.00  0.00    -0.508 OA
ATOM     25  H   UNL     1      12.584  52.493  40.533  1.00  0.00     0.293 HD
ENDBRANCH   8  24
TORSDOF 5
ENDMDL
MODEL 9
REMARK VINA RESULT:     0.000     11.024     13.567
REMARK INTER + INTRA:          -0.318
REMARK INTER:                   0.000
REMARK INTRA:                  -0.318
REMARK UNBOUND:                -0.318
REMARK SMILES O=c1cc(-c2ccc(O)c(O)c2)oc2cc(O)cc(O)c12
REMARK SMILES IDX 4 1 3 2 2 3 1 4 21 5 19 6 18 7 16 8 15 9 14 10 13 11 5 12
REMARK SMILES IDX 6 13 7 14 8 15 12 16 10 17 9 18 11 20 20 22 17 24
REMARK H PARENT 9 19 11 21 20 23 17 25
REMARK Flexibility Score: inf
ROOT
ATOM      1  C   UNL     1      15.311  45.584  31.150  1.00  0.00     0.138 A 
ATOM      2  C   UNL     1      14.440  46.199  32.059  1.00  0.00     0.100 A 
ATOM      3  C   UNL     1      13.641  45.412  32.890  1.00  0.00     0.197 A 
ATOM      4  O   UNL     1      12.825  45.992  33.652  1.00  0.00    -0.289 OA
ATOM      5  C   UNL     1      13.740  44.002  32.831  1.00  0.00     0.107 A 
ATOM      6  C   UNL     1      13.005  43.100  33.658  1.00  0.00     0.134 A 
ATOM      7  C   UNL     1      13.099  41.722  33.429  1.00  0.00     0.093 A 
ATOM      8  C   UNL     1      13.945  41.210  32.445  1.00  0.00     0.123 A 
ATOM      9  C   UNL     1      14.708  42.081  31.667  1.00  0.00     0.094 A 
ATOM     10  C   UNL     1      14.611  43.462  31.847  1.00  0.00     0.146 A 
ATOM     11  O   UNL     1      15.344  44.258  31.076  1.00  0.00    -0.456 OA
ENDROOT
BRANCH   1  12
ATOM     12  C   UNL     1      16.183  46.373  30.243  1.00  0.00     0.021 A 
ATOM     13  C   UNL     1      16.202  47.781  30.275  1.00  0.00     0.016 A 
ATOM     14  C   UNL     1      17.040  48.498  29.418  1.00  0.00     0.051 A 
ATOM     15  C   UNL     1      17.878  47.824  28.521  1.00  0.00     0.157 A 
ATOM     16  C   UNL     1      17.038  45.704  29.348  1.00  0.00     0.062 A 
ATOM     17  C   UNL     1      17.878  46.424  28.488  1.00  0.00     0.158 A 
BRANCH  15  18
ATOM     18  O   UNL     1      18.715  48.536  27.664  1.00  0.00    -0.504 OA
ATOM     19  H   UNL     1      19.288  49.302  27.999  1.00  0.00     0.293 HD
ENDBRANCH  15  18
BRANCH  17  20
ATOM     20  O   UNL     1      18.716  45.756  27.598  1.00  0.00    -0.504 OA
ATOM     21  H   UNL     1      19.218  46.249  26.868  1.00  0.00     0.293 HD
ENDBRANCH  17  20
ENDBRANCH   1  12
BRANCH   6  22
ATOM     22  O   UNL     1      12.196  43.502  34.725  1.00  0.00    -0.507 OA
ATOM     23  H   UNL     1      11.430  44.154  34.654  1.00  0.00     0.293 HD
ENDBRANCH   6  22
BRANCH   8  24
ATOM     24  O   UNL     1      14.023  39.833  32.255  1.00  0.00    -0.508 OA
ATOM     25  H   UNL     1      13.731  39.400  31.387  1.00  0.00     0.293 HD
ENDBRANCH   8  24
TORSDOF 5
ENDMDL
