MODEL 1
REMARK VINA RESULT:    -4.631      0.000      0.000
REMARK INTER + INTRA:          -5.570
REMARK INTER:                  -5.444
REMARK INTRA:                  -0.126
REMARK UNBOUND:                -0.126
REMARK SMILES O=C([O-])C=Cc1ccc(O)c(O)c1
REMARK SMILES IDX 6 1 13 2 7 3 11 4 8 5 9 6 5 7 4 8 2 9 1 10 3 11 12 12 10 14
REMARK H PARENT 12 13 10 15
REMARK Flexibility Score: inf
ROOT
ATOM      1  C   UNL     1       4.073  38.094   7.008  1.00  0.00    -0.022 A 
ATOM      2  C   UNL     1       4.601  37.364   8.086  1.00  0.00     0.058 A 
ATOM      3  C   UNL     1       4.877  39.069   6.388  1.00  0.00     0.012 A 
ATOM      4  C   UNL     1       5.916  37.581   8.524  1.00  0.00     0.157 A 
ATOM      5  C   UNL     1       6.188  39.286   6.823  1.00  0.00     0.051 A 
ATOM      6  C   UNL     1       6.713  38.547   7.886  1.00  0.00     0.157 A 
ENDROOT
BRANCH   1   7
ATOM      7  C   UNL     1       2.673  37.831   6.591  1.00  0.00     0.010 C 
ATOM      8  C   UNL     1       2.315  36.834   5.768  1.00  0.00     0.025 C 
BRANCH   8   9
ATOM      9  C   UNL     1       0.913  36.596   5.386  1.00  0.00     0.064 C 
ATOM     10  O   UNL     1       0.198  37.522   4.917  1.00  0.00    -0.545 OA
ATOM     11  O   UNL     1       0.370  35.327   5.542  1.00  0.00    -0.545 OA
ENDBRANCH   8   9
ENDBRANCH   1   7
BRANCH   4  12
ATOM     12  O   UNL     1       6.431  36.843   9.588  1.00  0.00    -0.504 OA
ATOM     13  H   UNL     1       5.825  36.396  10.266  1.00  0.00     0.293 HD
ENDBRANCH   4  12
BRANCH   6  14
ATOM     14  O   UNL     1       8.023  38.785   8.297  1.00  0.00    -0.504 OA
ATOM     15  H   UNL     1       8.265  39.559   8.906  1.00  0.00     0.293 HD
ENDBRANCH   6  14
TORSDOF 4
ENDMDL
MODEL 2
REMARK VINA RESULT:    -4.506      1.335      6.054
REMARK INTER + INTRA:          -5.422
REMARK INTER:                  -5.295
REMARK INTRA:                  -0.128
REMARK UNBOUND:                -0.126
REMARK SMILES O=C([O-])C=Cc1ccc(O)c(O)c1
REMARK SMILES IDX 6 1 13 2 7 3 11 4 8 5 9 6 5 7 4 8 2 9 1 10 3 11 12 12 10 14
REMARK H PARENT 12 13 10 15
REMARK Flexibility Score: inf
ROOT
ATOM      1  C   UNL     1       2.694  37.752   6.537  1.00  0.00    -0.022 A 
ATOM      2  C   UNL     1       1.544  38.222   7.194  1.00  0.00     0.058 A 
ATOM      3  C   UNL     1       2.549  36.804   5.506  1.00  0.00     0.012 A 
ATOM      4  C   UNL     1       0.269  37.777   6.814  1.00  0.00     0.157 A 
ATOM      5  C   UNL     1       1.279  36.360   5.127  1.00  0.00     0.051 A 
ATOM      6  C   UNL     1       0.138  36.842   5.774  1.00  0.00     0.157 A 
ENDROOT
BRANCH   1   7
ATOM      7  C   UNL     1       4.019  38.249   6.985  1.00  0.00     0.010 C 
ATOM      8  C   UNL     1       4.677  37.762   8.048  1.00  0.00     0.025 C 
BRANCH   8   9
ATOM      9  C   UNL     1       5.997  38.272   8.456  1.00  0.00     0.064 C 
ATOM     10  O   UNL     1       6.798  37.558   9.116  1.00  0.00    -0.545 OA
ATOM     11  O   UNL     1       6.367  39.564   8.104  1.00  0.00    -0.545 OA
ENDBRANCH   8   9
ENDBRANCH   1   7
BRANCH   4  12
ATOM     12  O   UNL     1      -0.864  38.258   7.467  1.00  0.00    -0.504 OA
ATOM     13  H   UNL     1      -1.209  39.198   7.309  1.00  0.00     0.293 HD
ENDBRANCH   4  12
BRANCH   6  14
ATOM     14  O   UNL     1      -1.115  36.381   5.372  1.00  0.00    -0.504 OA
ATOM     15  H   UNL     1      -1.974  36.842   5.651  1.00  0.00     0.293 HD
ENDBRANCH   6  14
TORSDOF 4
ENDMDL
MODEL 3
REMARK VINA RESULT:    -4.451      1.705      6.139
REMARK INTER + INTRA:          -5.358
REMARK INTER:                  -5.232
REMARK INTRA:                  -0.126
REMARK UNBOUND:                -0.126
REMARK SMILES O=C([O-])C=Cc1ccc(O)c(O)c1
REMARK SMILES IDX 6 1 13 2 7 3 11 4 8 5 9 6 5 7 4 8 2 9 1 10 3 11 12 12 10 14
REMARK H PARENT 12 13 10 15
REMARK Flexibility Score: inf
ROOT
ATOM      1  C   UNL     1       2.127  37.321   6.173  1.00  0.00    -0.022 A 
ATOM      2  C   UNL     1       1.009  37.868   6.826  1.00  0.00     0.058 A 
ATOM      3  C   UNL     1       1.982  36.101   5.484  1.00  0.00     0.012 A 
ATOM      4  C   UNL     1      -0.238  37.226   6.773  1.00  0.00     0.157 A 
ATOM      5  C   UNL     1       0.741  35.461   5.431  1.00  0.00     0.051 A 
ATOM      6  C   UNL     1      -0.371  36.018   6.070  1.00  0.00     0.157 A 
ENDROOT
BRANCH   1   7
ATOM      7  C   UNL     1       3.424  38.035   6.268  1.00  0.00     0.010 C 
ATOM      8  C   UNL     1       4.184  38.056   7.374  1.00  0.00     0.025 C 
BRANCH   8   9
ATOM      9  C   UNL     1       5.473  38.766   7.428  1.00  0.00     0.064 C 
ATOM     10  O   UNL     1       5.535  40.016   7.284  1.00  0.00    -0.545 OA
ATOM     11  O   UNL     1       6.640  38.045   7.646  1.00  0.00    -0.545 OA
ENDBRANCH   8   9
ENDBRANCH   1   7
BRANCH   4  12
ATOM     12  O   UNL     1      -1.339  37.785   7.417  1.00  0.00    -0.504 OA
ATOM     13  H   UNL     1      -2.275  37.702   7.038  1.00  0.00     0.293 HD
ENDBRANCH   4  12
BRANCH   6  14
ATOM     14  O   UNL     1      -1.596  35.357   5.998  1.00  0.00    -0.504 OA
ATOM     15  H   UNL     1      -1.751  34.577   5.370  1.00  0.00     0.293 HD
ENDBRANCH   6  14
TORSDOF 4
ENDMDL
MODEL 4
REMARK VINA RESULT:    -4.367      2.222      6.304
REMARK INTER + INTRA:          -5.259
REMARK INTER:                  -5.132
REMARK INTRA:                  -0.128
REMARK UNBOUND:                -0.126
REMARK SMILES O=C([O-])C=Cc1ccc(O)c(O)c1
REMARK SMILES IDX 6 1 13 2 7 3 11 4 8 5 9 6 5 7 4 8 2 9 1 10 3 11 12 12 10 14
REMARK H PARENT 12 13 10 15
REMARK Flexibility Score: inf
ROOT
ATOM      1  C   UNL     1       1.553  36.927   5.843  1.00  0.00    -0.022 A 
ATOM      2  C   UNL     1       0.473  37.470   6.561  1.00  0.00     0.058 A 
ATOM      3  C   UNL     1       1.478  35.589   5.411  1.00  0.00     0.012 A 
ATOM      4  C   UNL     1      -0.672  36.703   6.822  1.00  0.00     0.157 A 
ATOM      5  C   UNL     1       0.337  34.824   5.671  1.00  0.00     0.051 A 
ATOM      6  C   UNL     1      -0.740  35.374   6.373  1.00  0.00     0.157 A 
ENDROOT
BRANCH   1   7
ATOM      7  C   UNL     1       2.745  37.778   5.603  1.00  0.00     0.010 C 
ATOM      8  C   UNL     1       3.612  38.135   6.562  1.00  0.00     0.025 C 
BRANCH   8   9
ATOM      9  C   UNL     1       4.791  38.972   6.284  1.00  0.00     0.064 C 
ATOM     10  O   UNL     1       5.746  39.047   7.102  1.00  0.00    -0.545 OA
ATOM     11  O   UNL     1       4.852  39.688   5.095  1.00  0.00    -0.545 OA
ENDBRANCH   8   9
ENDBRANCH   1   7
BRANCH   4  12
ATOM     12  O   UNL     1      -1.739  37.257   7.526  1.00  0.00    -0.504 OA
ATOM     13  H   UNL     1      -2.660  37.347   7.112  1.00  0.00     0.293 HD
ENDBRANCH   4  12
BRANCH   6  14
ATOM     14  O   UNL     1      -1.864  34.587   6.615  1.00  0.00    -0.504 OA
ATOM     15  H   UNL     1      -2.356  34.608   7.501  1.00  0.00     0.293 HD
ENDBRANCH   6  14
TORSDOF 4
ENDMDL
MODEL 5
REMARK VINA RESULT:    -4.317      1.207      5.958
REMARK INTER + INTRA:          -5.200
REMARK INTER:                  -5.075
REMARK INTRA:                  -0.125
REMARK UNBOUND:                -0.126
REMARK SMILES O=C([O-])C=Cc1ccc(O)c(O)c1
REMARK SMILES IDX 6 1 13 2 7 3 11 4 8 5 9 6 5 7 4 8 2 9 1 10 3 11 12 12 10 14
REMARK H PARENT 12 13 10 15
REMARK Flexibility Score: inf
ROOT
ATOM      1  C   UNL     1       2.891  38.013   6.757  1.00  0.00    -0.022 A 
ATOM      2  C   UNL     1       2.768  36.965   5.828  1.00  0.00     0.058 A 
ATOM      3  C   UNL     1       1.724  38.575   7.308  1.00  0.00     0.012 A 
ATOM      4  C   UNL     1       1.505  36.466   5.473  1.00  0.00     0.157 A 
ATOM      5  C   UNL     1       0.465  38.079   6.954  1.00  0.00     0.051 A 
ATOM      6  C   UNL     1       0.349  37.026   6.042  1.00  0.00     0.157 A 
ENDROOT
BRANCH   1   7
ATOM      7  C   UNL     1       4.250  38.509   7.089  1.00  0.00     0.010 C 
ATOM      8  C   UNL     1       5.057  37.925   7.988  1.00  0.00     0.025 C 
BRANCH   8   9
ATOM      9  C   UNL     1       6.405  38.439   8.284  1.00  0.00     0.064 C 
ATOM     10  O   UNL     1       6.749  38.729   9.460  1.00  0.00    -0.545 OA
ATOM     11  O   UNL     1       7.314  38.603   7.247  1.00  0.00    -0.545 OA
ENDBRANCH   8   9
ENDBRANCH   1   7
BRANCH   4  12
ATOM     12  O   UNL     1       1.398  35.421   4.559  1.00  0.00    -0.504 OA
ATOM     13  H   UNL     1       2.155  34.764   4.411  1.00  0.00     0.293 HD
ENDBRANCH   4  12
BRANCH   6  14
ATOM     14  O   UNL     1      -0.919  36.552   5.711  1.00  0.00    -0.504 OA
ATOM     15  H   UNL     1      -1.566  36.209   6.412  1.00  0.00     0.293 HD
ENDBRANCH   6  14
TORSDOF 4
ENDMDL
MODEL 6
REMARK VINA RESULT:    -4.183      1.100      2.024
REMARK INTER + INTRA:          -5.042
REMARK INTER:                  -4.907
REMARK INTRA:                  -0.135
REMARK UNBOUND:                -0.126
REMARK SMILES O=C([O-])C=Cc1ccc(O)c(O)c1
REMARK SMILES IDX 6 1 13 2 7 3 11 4 8 5 9 6 5 7 4 8 2 9 1 10 3 11 12 12 10 14
REMARK H PARENT 12 13 10 15
REMARK Flexibility Score: inf
ROOT
ATOM      1  C   UNL     1       4.047  38.354   7.093  1.00  0.00    -0.022 A 
ATOM      2  C   UNL     1       4.636  39.601   6.822  1.00  0.00     0.058 A 
ATOM      3  C   UNL     1       4.669  37.494   8.019  1.00  0.00     0.012 A 
ATOM      4  C   UNL     1       5.810  39.997   7.480  1.00  0.00     0.157 A 
ATOM      5  C   UNL     1       5.839  37.888   8.674  1.00  0.00     0.051 A 
ATOM      6  C   UNL     1       6.412  39.135   8.412  1.00  0.00     0.157 A 
ENDROOT
BRANCH   1   7
ATOM      7  C   UNL     1       2.810  37.980   6.363  1.00  0.00     0.010 C 
ATOM      8  C   UNL     1       2.624  36.790   5.772  1.00  0.00     0.025 C 
BRANCH   8   9
ATOM      9  C   UNL     1       1.377  36.450   5.065  1.00  0.00     0.064 C 
ATOM     10  O   UNL     1       0.945  37.166   4.123  1.00  0.00    -0.545 OA
ATOM     11  O   UNL     1       0.667  35.317   5.443  1.00  0.00    -0.545 OA
ENDBRANCH   8   9
ENDBRANCH   1   7
BRANCH   4  12
ATOM     12  O   UNL     1       6.378  41.240   7.209  1.00  0.00    -0.504 OA
ATOM     13  H   UNL     1       6.601  41.527   6.263  1.00  0.00     0.293 HD
ENDBRANCH   4  12
BRANCH   6  14
ATOM     14  O   UNL     1       7.579  39.500   9.082  1.00  0.00    -0.504 OA
ATOM     15  H   UNL     1       8.422  39.772   8.589  1.00  0.00     0.293 HD
ENDBRANCH   6  14
TORSDOF 4
ENDMDL
MODEL 7
REMARK VINA RESULT:    -3.904     13.303     14.267
REMARK INTER + INTRA:          -4.714
REMARK INTER:                  -4.584
REMARK INTRA:                  -0.130
REMARK UNBOUND:                -0.126
REMARK SMILES O=C([O-])C=Cc1ccc(O)c(O)c1
REMARK SMILES IDX 6 1 13 2 7 3 11 4 8 5 9 6 5 7 4 8 2 9 1 10 3 11 12 12 10 14
REMARK H PARENT 12 13 10 15
REMARK Flexibility Score: inf
ROOT
ATOM      1  C   UNL     1      -4.556  48.730   9.378  1.00  0.00    -0.022 A 
ATOM      2  C   UNL     1      -3.324  49.084   9.955  1.00  0.00     0.058 A 
ATOM      3  C   UNL     1      -5.628  49.639   9.449  1.00  0.00     0.012 A 
ATOM      4  C   UNL     1      -3.154  50.334  10.570  1.00  0.00     0.157 A 
ATOM      5  C   UNL     1      -5.459  50.884  10.063  1.00  0.00     0.051 A 
ATOM      6  C   UNL     1      -4.228  51.237  10.622  1.00  0.00     0.157 A 
ENDROOT
BRANCH   1   7
ATOM      7  C   UNL     1      -4.685  47.392   8.748  1.00  0.00     0.010 C 
ATOM      8  C   UNL     1      -4.053  46.295   9.192  1.00  0.00     0.025 C 
BRANCH   8   9
ATOM      9  C   UNL     1      -4.214  44.981   8.547  1.00  0.00     0.064 C 
ATOM     10  O   UNL     1      -4.699  44.002   9.174  1.00  0.00    -0.545 OA
ATOM     11  O   UNL     1      -3.827  44.819   7.223  1.00  0.00    -0.545 OA
ENDBRANCH   8   9
ENDBRANCH   1   7
BRANCH   4  12
ATOM     12  O   UNL     1      -1.925  50.676  11.130  1.00  0.00    -0.504 OA
ATOM     13  H   UNL     1      -1.351  51.414  10.740  1.00  0.00     0.293 HD
ENDBRANCH   4  12
BRANCH   6  14
ATOM     14  O   UNL     1      -4.090  52.487  11.225  1.00  0.00    -0.504 OA
ATOM     15  H   UNL     1      -4.870  53.128  11.320  1.00  0.00     0.293 HD
ENDBRANCH   6  14
TORSDOF 4
ENDMDL
MODEL 8
REMARK VINA RESULT:    -3.812      3.288      7.112
REMARK INTER + INTRA:          -4.607
REMARK INTER:                  -4.474
REMARK INTRA:                  -0.133
REMARK UNBOUND:                -0.126
REMARK SMILES O=C([O-])C=Cc1ccc(O)c(O)c1
REMARK SMILES IDX 6 1 13 2 7 3 11 4 8 5 9 6 5 7 4 8 2 9 1 10 3 11 12 12 10 14
REMARK H PARENT 12 13 10 15
REMARK Flexibility Score: inf
ROOT
ATOM      1  C   UNL     1      -0.538  36.517   5.641  1.00  0.00    -0.022 A 
ATOM      2  C   UNL     1      -0.386  35.417   6.502  1.00  0.00     0.058 A 
ATOM      3  C   UNL     1      -1.831  36.870   5.209  1.00  0.00     0.012 A 
ATOM      4  C   UNL     1      -1.504  34.695   6.947  1.00  0.00     0.157 A 
ATOM      5  C   UNL     1      -2.945  36.152   5.652  1.00  0.00     0.051 A 
ATOM      6  C   UNL     1      -2.790  35.067   6.520  1.00  0.00     0.157 A 
ENDROOT
BRANCH   1   7
ATOM      7  C   UNL     1       0.678  37.240   5.193  1.00  0.00     0.010 C 
ATOM      8  C   UNL     1       1.888  37.080   5.750  1.00  0.00     0.025 C 
BRANCH   8   9
ATOM      9  C   UNL     1       3.076  37.806   5.271  1.00  0.00     0.064 C 
ATOM     10  O   UNL     1       3.954  38.222   6.072  1.00  0.00    -0.545 OA
ATOM     11  O   UNL     1       3.233  38.033   3.909  1.00  0.00    -0.545 OA
ENDBRANCH   8   9
ENDBRANCH   1   7
BRANCH   4  12
ATOM     12  O   UNL     1      -1.340  33.612   7.808  1.00  0.00    -0.504 OA
ATOM     13  H   UNL     1      -0.916  32.746   7.497  1.00  0.00     0.293 HD
ENDBRANCH   4  12
BRANCH   6  14
ATOM     14  O   UNL     1      -3.920  34.371   6.945  1.00  0.00    -0.504 OA
ATOM     15  H   UNL     1      -4.176  34.305   7.924  1.00  0.00     0.293 HD
ENDBRANCH   6  14
TORSDOF 4
ENDMDL
MODEL 9
REMARK VINA RESULT:    -3.752      3.717      5.309
REMARK INTER + INTRA:          -4.536
REMARK INTER:                  -4.410
REMARK INTRA:                  -0.126
REMARK UNBOUND:                -0.126
REMARK SMILES O=C([O-])C=Cc1ccc(O)c(O)c1
REMARK SMILES IDX 6 1 13 2 7 3 11 4 8 5 9 6 5 7 4 8 2 9 1 10 3 11 12 12 10 14
REMARK H PARENT 12 13 10 15
REMARK Flexibility Score: inf
ROOT
ATOM      1  C   UNL     1      -0.125  36.060   6.141  1.00  0.00    -0.022 A 
ATOM      2  C   UNL     1       0.041  37.373   6.615  1.00  0.00     0.058 A 
ATOM      3  C   UNL     1       0.921  35.463   5.411  1.00  0.00     0.012 A 
ATOM      4  C   UNL     1       1.236  38.071   6.389  1.00  0.00     0.157 A 
ATOM      5  C   UNL     1       2.112  36.159   5.185  1.00  0.00     0.051 A 
ATOM      6  C   UNL     1       2.277  37.459   5.671  1.00  0.00     0.157 A 
ENDROOT
BRANCH   1   7
ATOM      7  C   UNL     1      -1.413  35.370   6.400  1.00  0.00     0.010 C 
ATOM      8  C   UNL     1      -1.812  34.968   7.617  1.00  0.00     0.025 C 
BRANCH   8   9
ATOM      9  C   UNL     1      -3.104  34.296   7.837  1.00  0.00     0.064 C 
ATOM     10  O   UNL     1      -3.200  33.304   8.607  1.00  0.00    -0.545 OA
ATOM     11  O   UNL     1      -4.237  34.768   7.187  1.00  0.00    -0.545 OA
ENDBRANCH   8   9
ENDBRANCH   1   7
BRANCH   4  12
ATOM     12  O   UNL     1       1.390  39.369   6.872  1.00  0.00    -0.504 OA
ATOM     13  H   UNL     1       0.754  40.113   6.609  1.00  0.00     0.293 HD
ENDBRANCH   4  12
BRANCH   6  14
ATOM     14  O   UNL     1       3.477  38.126   5.431  1.00  0.00    -0.504 OA
ATOM     15  H   UNL     1       4.335  37.631   5.215  1.00  0.00     0.293 HD
ENDBRANCH   6  14
TORSDOF 4
ENDMDL
