MODEL 1
REMARK VINA RESULT:     5.326      0.000      0.000
REMARK INTER + INTRA:           9.688
REMARK INTER:                   7.350
REMARK INTRA:                   2.338
REMARK UNBOUND:                 2.338
REMARK SMILES CC[C@H](CC[C@@H](C)[C@H]1CC[C@H]2[C@@H]3CC=C4C[C@H](O)CC[C@]4(C)[C@@H]3CC[C@@]12C)C(C)C
REMARK SMILES IDX 5 1 4 2 3 3 2 4 1 5 28 6 29 7 30 8 6 9 7 10 8 11 9 12 26 13
REMARK SMILES IDX 10 14 11 15 25 16 27 17 12 18 24 19 23 20 13 21 21 22 14 23
REMARK SMILES IDX 15 24 20 25 22 26 16 27 19 28 17 29 18 30
REMARK H PARENT 18 31
REMARK Flexibility Score: inf
ROOT
ATOM      1  C   UNL     1      72.772  33.024  54.639  1.00  0.00     0.004 C 
ENDROOT
BRANCH   1   2
ATOM      2  C   UNL     1      72.243  34.356  55.220  1.00  0.00     0.004 C 
BRANCH   2   3
ATOM      3  C   UNL     1      72.200  34.401  56.775  1.00  0.00    -0.009 C 
BRANCH   3   4
ATOM      4  C   UNL     1      70.784  34.837  57.268  1.00  0.00     0.000 C 
ATOM      5  C   UNL     1      69.708  34.664  56.194  1.00  0.00     0.004 C 
ENDBRANCH   3   4
BRANCH   3   6
ATOM      6  C   UNL     1      72.691  33.074  57.451  1.00  0.00    -0.014 C 
ATOM      7  C   UNL     1      74.086  32.650  56.955  1.00  0.00     0.007 C 
ATOM      8  C   UNL     1      72.731  33.196  58.984  1.00  0.00     0.007 C 
ENDBRANCH   3   6
ENDBRANCH   2   3
ENDBRANCH   1   2
BRANCH   1   9
ATOM      9  C   UNL     1      74.322  33.031  54.460  1.00  0.00    -0.011 C 
ATOM     10  C   UNL     1      74.726  31.750  53.702  1.00  0.00     0.008 C 
BRANCH   9  11
ATOM     11  C   UNL     1      74.809  34.344  53.736  1.00  0.00    -0.002 C 
ATOM     12  C   UNL     1      75.398  35.357  54.739  1.00  0.00     0.005 C 
ATOM     13  C   UNL     1      75.889  34.230  52.600  1.00  0.00    -0.026 C 
ATOM     14  C   UNL     1      76.530  36.102  54.049  1.00  0.00     0.005 C 
ATOM     15  C   UNL     1      76.516  35.654  52.589  1.00  0.00    -0.001 C 
ATOM     16  C   UNL     1      76.975  33.171  52.938  1.00  0.00     0.007 C 
ATOM     17  C   UNL     1      75.222  33.920  51.233  1.00  0.00     0.012 C 
ATOM     18  C   UNL     1      77.921  35.813  51.917  1.00  0.00     0.000 C 
ATOM     19  C   UNL     1      78.234  33.295  52.077  1.00  0.00     0.005 C 
ATOM     20  C   UNL     1      78.915  34.666  52.265  1.00  0.00     0.003 C 
ATOM     21  C   UNL     1      77.803  36.113  50.395  1.00  0.00     0.031 C 
ATOM     22  C   UNL     1      80.275  34.826  51.483  1.00  0.00    -0.008 C 
ATOM     23  C   UNL     1      78.905  35.567  49.522  1.00  0.00    -0.027 C 
ATOM     24  C   UNL     1      80.011  34.958  49.990  1.00  0.00    -0.065 C 
ATOM     25  C   UNL     1      81.255  33.630  51.756  1.00  0.00     0.014 C 
ATOM     26  C   UNL     1      80.989  36.124  51.948  1.00  0.00     0.016 C 
ATOM     27  C   UNL     1      81.094  34.520  49.025  1.00  0.00     0.063 C 
ATOM     28  C   UNL     1      81.196  32.534  50.676  1.00  0.00     0.033 C 
ATOM     29  C   UNL     1      81.579  33.071  49.284  1.00  0.00     0.118 C 
BRANCH  29  30
ATOM     30  O   UNL     1      81.054  32.205  48.309  1.00  0.00    -0.393 OA
ATOM     31  H   UNL     1      81.806  31.641  47.987  1.00  0.00     0.210 HD
ENDBRANCH  29  30
ENDBRANCH   9  11
ENDBRANCH   1   9
TORSDOF 7
ENDMDL
MODEL 2
REMARK VINA RESULT:     7.489     14.438     16.503
REMARK INTER + INTRA:          12.672
REMARK INTER:                  10.713
REMARK INTRA:                   1.959
REMARK UNBOUND:                 2.338
REMARK SMILES CC[C@H](CC[C@@H](C)[C@H]1CC[C@H]2[C@@H]3CC=C4C[C@H](O)CC[C@]4(C)[C@@H]3CC[C@@]12C)C(C)C
REMARK SMILES IDX 5 1 4 2 3 3 2 4 1 5 28 6 29 7 30 8 6 9 7 10 8 11 9 12 26 13
REMARK SMILES IDX 10 14 11 15 25 16 27 17 12 18 24 19 23 20 13 21 21 22 14 23
REMARK SMILES IDX 15 24 20 25 22 26 16 27 19 28 17 29 18 30
REMARK H PARENT 18 31
REMARK Flexibility Score: inf
ROOT
ATOM      1  C   UNL     1      83.815  33.357  64.900  1.00  0.00     0.004 C 
ENDROOT
BRANCH   1   2
ATOM      2  C   UNL     1      84.804  33.390  63.711  1.00  0.00     0.004 C 
BRANCH   2   3
ATOM      3  C   UNL     1      85.671  34.680  63.639  1.00  0.00    -0.009 C 
BRANCH   3   4
ATOM      4  C   UNL     1      87.178  34.334  63.857  1.00  0.00     0.000 C 
ATOM      5  C   UNL     1      87.800  35.110  65.019  1.00  0.00     0.004 C 
ENDBRANCH   3   4
BRANCH   3   6
ATOM      6  C   UNL     1      85.430  35.521  62.339  1.00  0.00    -0.014 C 
ATOM      7  C   UNL     1      86.734  36.125  61.785  1.00  0.00     0.007 C 
ATOM      8  C   UNL     1      84.769  34.682  61.231  1.00  0.00     0.007 C 
ENDBRANCH   3   6
ENDBRANCH   2   3
ENDBRANCH   1   2
BRANCH   1   9
ATOM      9  C   UNL     1      84.275  32.376  66.025  1.00  0.00    -0.011 C 
ATOM     10  C   UNL     1      83.406  31.105  65.940  1.00  0.00     0.008 C 
BRANCH   9  11
ATOM     11  C   UNL     1      85.817  32.067  65.917  1.00  0.00    -0.002 C 
ATOM     12  C   UNL     1      86.412  31.681  67.288  1.00  0.00     0.005 C 
ATOM     13  C   UNL     1      86.299  30.935  64.939  1.00  0.00    -0.026 C 
ATOM     14  C   UNL     1      87.504  30.649  67.056  1.00  0.00     0.005 C 
ATOM     15  C   UNL     1      87.675  30.532  65.543  1.00  0.00    -0.001 C 
ATOM     16  C   UNL     1      85.336  29.715  64.946  1.00  0.00     0.007 C 
ATOM     17  C   UNL     1      86.478  31.489  63.501  1.00  0.00     0.012 C 
ATOM     18  C   UNL     1      88.261  29.141  65.128  1.00  0.00     0.000 C 
ATOM     19  C   UNL     1      85.946  28.454  64.330  1.00  0.00     0.005 C 
ATOM     20  C   UNL     1      87.203  28.000  65.101  1.00  0.00     0.003 C 
ATOM     21  C   UNL     1      89.124  29.239  63.837  1.00  0.00     0.031 C 
ATOM     22  C   UNL     1      87.828  26.649  64.581  1.00  0.00    -0.008 C 
ATOM     23  C   UNL     1      89.111  28.031  62.934  1.00  0.00    -0.027 C 
ATOM     24  C   UNL     1      88.508  26.866  63.237  1.00  0.00    -0.065 C 
ATOM     25  C   UNL     1      86.753  25.509  64.464  1.00  0.00     0.014 C 
ATOM     26  C   UNL     1      88.911  26.161  65.580  1.00  0.00     0.016 C 
ATOM     27  C   UNL     1      88.628  25.689  62.290  1.00  0.00     0.063 C 
ATOM     28  C   UNL     1      86.179  25.355  63.044  1.00  0.00     0.033 C 
ATOM     29  C   UNL     1      87.267  25.000  62.014  1.00  0.00     0.118 C 
BRANCH  29  30
ATOM     30  O   UNL     1      86.803  25.344  60.733  1.00  0.00    -0.393 OA
ATOM     31  H   UNL     1      85.869  25.011  60.663  1.00  0.00     0.210 HD
ENDBRANCH  29  30
ENDBRANCH   9  11
ENDBRANCH   1   9
TORSDOF 7
ENDMDL
