MODEL 1
REMARK VINA RESULT:    -4.082      0.000      0.000
REMARK INTER + INTRA:          -8.301
REMARK INTER:                  -6.946
REMARK INTRA:                  -1.355
REMARK UNBOUND:                -1.355
REMARK SMILES CCCCCCCCCCCCCC(=O)[O-]
REMARK SMILES IDX 8 1 9 2 10 3 11 4 12 5 13 6 14 7 15 8 16 9 7 10 6 11 5 12
REMARK SMILES IDX 4 13 3 14 2 15 1 16
REMARK H PARENT
REMARK Flexibility Score: inf
ROOT
ATOM      1  C   UNL     1      12.953 -12.613  13.009  1.00  0.00     0.000 C 
ENDROOT
BRANCH   1   2
ATOM      2  C   UNL     1      13.998 -12.837  11.900  1.00  0.00     0.000 C 
BRANCH   2   3
ATOM      3  C   UNL     1      15.458 -12.947  12.380  1.00  0.00     0.000 C 
BRANCH   3   4
ATOM      4  C   UNL     1      16.343 -11.792  11.879  1.00  0.00     0.000 C 
BRANCH   4   5
ATOM      5  C   UNL     1      16.547 -10.703  12.945  1.00  0.00     0.006 C 
BRANCH   5   6
ATOM      6  C   UNL     1      17.502  -9.594  12.483  1.00  0.00     0.053 C 
BRANCH   6   7
ATOM      7  C   UNL     1      18.129  -8.922  13.663  1.00  0.00     0.041 C 
ATOM      8  O   UNL     1      18.577  -9.608  14.620  1.00  0.00    -0.550 OA
ATOM      9  O   UNL     1      18.174  -7.535  13.731  1.00  0.00    -0.550 OA
ENDBRANCH   6   7
ENDBRANCH   5   6
ENDBRANCH   4   5
ENDBRANCH   3   4
ENDBRANCH   2   3
ENDBRANCH   1   2
BRANCH   1  10
ATOM     10  C   UNL     1      12.004 -11.440  12.710  1.00  0.00     0.000 C 
BRANCH  10  11
ATOM     11  C   UNL     1      12.698 -10.284  11.968  1.00  0.00    -0.000 C 
BRANCH  11  12
ATOM     12  C   UNL     1      13.216  -9.143  12.866  1.00  0.00    -0.000 C 
BRANCH  12  13
ATOM     13  C   UNL     1      14.052  -8.067  12.143  1.00  0.00    -0.000 C 
BRANCH  13  14
ATOM     14  C   UNL     1      14.756  -7.061  13.072  1.00  0.00    -0.000 C 
BRANCH  14  15
ATOM     15  C   UNL     1      13.781  -6.077  13.733  1.00  0.00    -0.003 C 
ATOM     16  C   UNL     1      14.400  -5.436  14.972  1.00  0.00     0.004 C 
ENDBRANCH  14  15
ENDBRANCH  13  14
ENDBRANCH  12  13
ENDBRANCH  11  12
ENDBRANCH  10  11
ENDBRANCH   1  10
TORSDOF 12
ENDMDL
MODEL 2
REMARK VINA RESULT:    -4.016      1.548      4.166
REMARK INTER + INTRA:          -8.188
REMARK INTER:                  -6.974
REMARK INTRA:                  -1.215
REMARK UNBOUND:                -1.355
REMARK SMILES CCCCCCCCCCCCCC(=O)[O-]
REMARK SMILES IDX 8 1 9 2 10 3 11 4 12 5 13 6 14 7 15 8 16 9 7 10 6 11 5 12
REMARK SMILES IDX 4 13 3 14 2 15 1 16
REMARK H PARENT
REMARK Flexibility Score: inf
ROOT
ATOM      1  C   UNL     1      12.943 -12.358  12.991  1.00  0.00     0.000 C 
ENDROOT
BRANCH   1   2
ATOM      2  C   UNL     1      12.418 -11.105  12.265  1.00  0.00     0.000 C 
BRANCH   2   3
ATOM      3  C   UNL     1      12.674  -9.768  12.985  1.00  0.00     0.000 C 
BRANCH   3   4
ATOM      4  C   UNL     1      13.490  -8.777  12.137  1.00  0.00     0.000 C 
BRANCH   4   5
ATOM      5  C   UNL     1      14.468  -7.944  12.983  1.00  0.00     0.006 C 
BRANCH   5   6
ATOM      6  C   UNL     1      14.043  -6.475  13.104  1.00  0.00     0.053 C 
BRANCH   6   7
ATOM      7  C   UNL     1      14.727  -5.828  14.267  1.00  0.00     0.041 C 
ATOM      8  O   UNL     1      14.058  -5.186  15.119  1.00  0.00    -0.550 OA
ATOM      9  O   UNL     1      16.111  -5.892  14.383  1.00  0.00    -0.550 OA
ENDBRANCH   6   7
ENDBRANCH   5   6
ENDBRANCH   4   5
ENDBRANCH   3   4
ENDBRANCH   2   3
ENDBRANCH   1   2
BRANCH   1  10
ATOM     10  C   UNL     1      13.898 -13.197  12.124  1.00  0.00     0.000 C 
BRANCH  10  11
ATOM     11  C   UNL     1      15.350 -13.165  12.633  1.00  0.00    -0.000 C 
BRANCH  11  12
ATOM     12  C   UNL     1      16.232 -12.049  12.039  1.00  0.00    -0.000 C 
BRANCH  12  13
ATOM     13  C   UNL     1      16.682 -10.965  13.039  1.00  0.00    -0.000 C 
BRANCH  13  14
ATOM     14  C   UNL     1      17.436  -9.778  12.413  1.00  0.00    -0.000 C 
BRANCH  14  15
ATOM     15  C   UNL     1      18.091  -8.868  13.463  1.00  0.00    -0.003 C 
ATOM     16  C   UNL     1      18.502  -9.663  14.699  1.00  0.00     0.004 C 
ENDBRANCH  14  15
ENDBRANCH  13  14
ENDBRANCH  12  13
ENDBRANCH  11  12
ENDBRANCH  10  11
ENDBRANCH   1  10
TORSDOF 12
ENDMDL
MODEL 3
REMARK VINA RESULT:    -3.989      2.566      5.897
REMARK INTER + INTRA:          -8.142
REMARK INTER:                  -7.092
REMARK INTRA:                  -1.050
REMARK UNBOUND:                -1.355
REMARK SMILES CCCCCCCCCCCCCC(=O)[O-]
REMARK SMILES IDX 8 1 9 2 10 3 11 4 12 5 13 6 14 7 15 8 16 9 7 10 6 11 5 12
REMARK SMILES IDX 4 13 3 14 2 15 1 16
REMARK H PARENT
REMARK Flexibility Score: inf
ROOT
ATOM      1  C   UNL     1      18.289  -8.667  13.528  1.00  0.00     0.000 C 
ENDROOT
BRANCH   1   2
ATOM      2  C   UNL     1      18.265  -7.469  12.561  1.00  0.00     0.000 C 
BRANCH   2   3
ATOM      3  C   UNL     1      17.831  -6.128  13.181  1.00  0.00     0.000 C 
BRANCH   3   4
ATOM      4  C   UNL     1      17.341  -6.269  14.633  1.00  0.00     0.000 C 
BRANCH   4   5
ATOM      5  C   UNL     1      15.811  -6.176  14.750  1.00  0.00     0.006 C 
BRANCH   5   6
ATOM      6  C   UNL     1      15.176  -5.384  13.600  1.00  0.00     0.053 C 
BRANCH   6   7
ATOM      7  C   UNL     1      13.910  -4.729  14.054  1.00  0.00     0.041 C 
ATOM      8  O   UNL     1      13.585  -4.754  15.270  1.00  0.00    -0.550 OA
ATOM      9  O   UNL     1      13.063  -4.135  13.127  1.00  0.00    -0.550 OA
ENDBRANCH   6   7
ENDBRANCH   5   6
ENDBRANCH   4   5
ENDBRANCH   3   4
ENDBRANCH   2   3
ENDBRANCH   1   2
BRANCH   1  10
ATOM     10  C   UNL     1      17.516  -9.885  12.992  1.00  0.00     0.000 C 
BRANCH  10  11
ATOM     11  C   UNL     1      16.414  -9.500  11.989  1.00  0.00    -0.000 C 
BRANCH  11  12
ATOM     12  C   UNL     1      14.976  -9.545  12.543  1.00  0.00    -0.000 C 
BRANCH  12  13
ATOM     13  C   UNL     1      14.179 -10.818  12.198  1.00  0.00    -0.000 C 
BRANCH  13  14
ATOM     14  C   UNL     1      15.019 -12.105  12.108  1.00  0.00    -0.000 C 
BRANCH  14  15
ATOM     15  C   UNL     1      14.239 -13.357  12.533  1.00  0.00    -0.003 C 
ATOM     16  C   UNL     1      12.916 -12.982  13.196  1.00  0.00     0.004 C 
ENDBRANCH  14  15
ENDBRANCH  13  14
ENDBRANCH  12  13
ENDBRANCH  11  12
ENDBRANCH  10  11
ENDBRANCH   1  10
TORSDOF 12
ENDMDL
MODEL 4
REMARK VINA RESULT:    -3.914      3.258      5.343
REMARK INTER + INTRA:          -8.015
REMARK INTER:                  -7.256
REMARK INTRA:                  -0.759
REMARK UNBOUND:                -1.355
REMARK SMILES CCCCCCCCCCCCCC(=O)[O-]
REMARK SMILES IDX 8 1 9 2 10 3 11 4 12 5 13 6 14 7 15 8 16 9 7 10 6 11 5 12
REMARK SMILES IDX 4 13 3 14 2 15 1 16
REMARK H PARENT
REMARK Flexibility Score: inf
ROOT
ATOM      1  C   UNL     1      17.654  -8.669  14.106  1.00  0.00     0.000 C 
ENDROOT
BRANCH   1   2
ATOM      2  C   UNL     1      17.757  -9.865  13.142  1.00  0.00     0.000 C 
BRANCH   2   3
ATOM      3  C   UNL     1      16.644  -9.956  12.080  1.00  0.00     0.000 C 
BRANCH   3   4
ATOM      4  C   UNL     1      15.257  -9.582  12.631  1.00  0.00     0.000 C 
BRANCH   4   5
ATOM      5  C   UNL     1      14.133 -10.438  12.026  1.00  0.00     0.006 C 
BRANCH   5   6
ATOM      6  C   UNL     1      14.528 -11.913  11.875  1.00  0.00     0.053 C 
BRANCH   6   7
ATOM      7  C   UNL     1      13.675 -12.773  12.754  1.00  0.00     0.041 C 
ATOM      8  O   UNL     1      13.945 -13.994  12.899  1.00  0.00    -0.550 OA
ATOM      9  O   UNL     1      12.552 -12.238  13.372  1.00  0.00    -0.550 OA
ENDBRANCH   6   7
ENDBRANCH   5   6
ENDBRANCH   4   5
ENDBRANCH   3   4
ENDBRANCH   2   3
ENDBRANCH   1   2
BRANCH   1  10
ATOM     10  C   UNL     1      18.116  -7.346  13.471  1.00  0.00     0.000 C 
BRANCH  10  11
ATOM     11  C   UNL     1      17.059  -6.232  13.574  1.00  0.00    -0.000 C 
BRANCH  11  12
ATOM     12  C   UNL     1      16.232  -6.228  14.875  1.00  0.00    -0.000 C 
BRANCH  12  13
ATOM     13  C   UNL     1      17.024  -5.900  16.156  1.00  0.00    -0.000 C 
BRANCH  13  14
ATOM     14  C   UNL     1      16.272  -6.173  17.472  1.00  0.00    -0.000 C 
BRANCH  14  15
ATOM     15  C   UNL     1      16.899  -5.454  18.676  1.00  0.00    -0.003 C 
ATOM     16  C   UNL     1      16.116  -4.193  19.031  1.00  0.00     0.004 C 
ENDBRANCH  14  15
ENDBRANCH  13  14
ENDBRANCH  12  13
ENDBRANCH  11  12
ENDBRANCH  10  11
ENDBRANCH   1  10
TORSDOF 12
ENDMDL
MODEL 5
REMARK VINA RESULT:    -3.891      2.453      5.388
REMARK INTER + INTRA:          -7.975
REMARK INTER:                  -7.059
REMARK INTRA:                  -0.916
REMARK UNBOUND:                -1.355
REMARK SMILES CCCCCCCCCCCCCC(=O)[O-]
REMARK SMILES IDX 8 1 9 2 10 3 11 4 12 5 13 6 14 7 15 8 16 9 7 10 6 11 5 12
REMARK SMILES IDX 4 13 3 14 2 15 1 16
REMARK H PARENT
REMARK Flexibility Score: inf
ROOT
ATOM      1  C   UNL     1      17.814  -9.558  13.420  1.00  0.00     0.000 C 
ENDROOT
BRANCH   1   2
ATOM      2  C   UNL     1      17.936  -8.284  12.562  1.00  0.00     0.000 C 
BRANCH   2   3
ATOM      3  C   UNL     1      17.809  -6.956  13.330  1.00  0.00     0.000 C 
BRANCH   3   4
ATOM      4  C   UNL     1      16.359  -6.630  13.730  1.00  0.00     0.000 C 
BRANCH   4   5
ATOM      5  C   UNL     1      16.275  -5.854  15.055  1.00  0.00     0.006 C 
BRANCH   5   6
ATOM      6  C   UNL     1      17.171  -6.451  16.148  1.00  0.00     0.053 C 
BRANCH   6   7
ATOM      7  C   UNL     1      16.668  -6.065  17.503  1.00  0.00     0.041 C 
ATOM      8  O   UNL     1      16.974  -4.948  17.998  1.00  0.00    -0.550 OA
ATOM      9  O   UNL     1      15.902  -6.959  18.242  1.00  0.00    -0.550 OA
ENDBRANCH   6   7
ENDBRANCH   5   6
ENDBRANCH   4   5
ENDBRANCH   3   4
ENDBRANCH   2   3
ENDBRANCH   1   2
BRANCH   1  10
ATOM     10  C   UNL     1      16.698 -10.501  12.939  1.00  0.00     0.000 C 
BRANCH  10  11
ATOM     11  C   UNL     1      15.750  -9.836  11.925  1.00  0.00    -0.000 C 
BRANCH  11  12
ATOM     12  C   UNL     1      14.475  -9.212  12.527  1.00  0.00    -0.000 C 
BRANCH  12  13
ATOM     13  C   UNL     1      13.289 -10.182  12.702  1.00  0.00    -0.000 C 
BRANCH  13  14
ATOM     14  C   UNL     1      13.465 -11.551  12.020  1.00  0.00    -0.000 C 
BRANCH  14  15
ATOM     15  C   UNL     1      13.094 -12.725  12.938  1.00  0.00    -0.003 C 
ATOM     16  C   UNL     1      14.069 -13.887  12.767  1.00  0.00     0.004 C 
ENDBRANCH  14  15
ENDBRANCH  13  14
ENDBRANCH  12  13
ENDBRANCH  11  12
ENDBRANCH  10  11
ENDBRANCH   1  10
TORSDOF 12
ENDMDL
MODEL 6
REMARK VINA RESULT:    -3.833      3.222      5.413
REMARK INTER + INTRA:          -7.877
REMARK INTER:                  -6.723
REMARK INTRA:                  -1.153
REMARK UNBOUND:                -1.355
REMARK SMILES CCCCCCCCCCCCCC(=O)[O-]
REMARK SMILES IDX 8 1 9 2 10 3 11 4 12 5 13 6 14 7 15 8 16 9 7 10 6 11 5 12
REMARK SMILES IDX 4 13 3 14 2 15 1 16
REMARK H PARENT
REMARK Flexibility Score: inf
ROOT
ATOM      1  C   UNL     1      16.805 -10.002  12.969  1.00  0.00     0.000 C 
ENDROOT
BRANCH   1   2
ATOM      2  C   UNL     1      15.795  -9.605  11.876  1.00  0.00     0.000 C 
BRANCH   2   3
ATOM      3  C   UNL     1      14.454  -9.046  12.387  1.00  0.00     0.000 C 
BRANCH   3   4
ATOM      4  C   UNL     1      14.358  -7.515  12.270  1.00  0.00     0.000 C 
BRANCH   4   5
ATOM      5  C   UNL     1      13.966  -6.847  13.598  1.00  0.00     0.006 C 
BRANCH   5   6
ATOM      6  C   UNL     1      14.447  -5.393  13.693  1.00  0.00     0.053 C 
BRANCH   6   7
ATOM      7  C   UNL     1      13.336  -4.505  14.157  1.00  0.00     0.041 C 
ATOM      8  O   UNL     1      12.569  -3.959  13.320  1.00  0.00    -0.550 OA
ATOM      9  O   UNL     1      13.177  -4.240  15.512  1.00  0.00    -0.550 OA
ENDBRANCH   6   7
ENDBRANCH   5   6
ENDBRANCH   4   5
ENDBRANCH   3   4
ENDBRANCH   2   3
ENDBRANCH   1   2
BRANCH   1  10
ATOM     10  C   UNL     1      18.009  -9.047  13.048  1.00  0.00     0.000 C 
BRANCH  10  11
ATOM     11  C   UNL     1      17.637  -7.662  13.606  1.00  0.00    -0.000 C 
BRANCH  11  12
ATOM     12  C   UNL     1      17.683  -7.537  15.142  1.00  0.00    -0.000 C 
BRANCH  12  13
ATOM     13  C   UNL     1      17.240  -6.172  15.704  1.00  0.00    -0.000 C 
BRANCH  13  14
ATOM     14  C   UNL     1      17.104  -6.114  17.237  1.00  0.00    -0.000 C 
BRANCH  14  15
ATOM     15  C   UNL     1      15.803  -5.439  17.694  1.00  0.00    -0.003 C 
ATOM     16  C   UNL     1      16.029  -4.602  18.950  1.00  0.00     0.004 C 
ENDBRANCH  14  15
ENDBRANCH  13  14
ENDBRANCH  12  13
ENDBRANCH  11  12
ENDBRANCH  10  11
ENDBRANCH   1  10
TORSDOF 12
ENDMDL
MODEL 7
REMARK VINA RESULT:    -3.738      2.151      5.296
REMARK INTER + INTRA:          -7.715
REMARK INTER:                  -6.862
REMARK INTRA:                  -0.853
REMARK UNBOUND:                -1.355
REMARK SMILES CCCCCCCCCCCCCC(=O)[O-]
REMARK SMILES IDX 8 1 9 2 10 3 11 4 12 5 13 6 14 7 15 8 16 9 7 10 6 11 5 12
REMARK SMILES IDX 4 13 3 14 2 15 1 16
REMARK H PARENT
REMARK Flexibility Score: inf
ROOT
ATOM      1  C   UNL     1      17.017  -9.587  12.349  1.00  0.00     0.000 C 
ENDROOT
BRANCH   1   2
ATOM      2  C   UNL     1      17.899  -8.713  13.260  1.00  0.00     0.000 C 
BRANCH   2   3
ATOM      3  C   UNL     1      18.506  -7.465  12.592  1.00  0.00     0.000 C 
BRANCH   3   4
ATOM      4  C   UNL     1      17.486  -6.328  12.407  1.00  0.00     0.000 C 
BRANCH   4   5
ATOM      5  C   UNL     1      16.587  -6.137  13.640  1.00  0.00     0.006 C 
BRANCH   5   6
ATOM      6  C   UNL     1      15.364  -5.257  13.351  1.00  0.00     0.053 C 
BRANCH   6   7
ATOM      7  C   UNL     1      14.154  -5.803  14.042  1.00  0.00     0.041 C 
ATOM      8  O   UNL     1      13.629  -6.877  13.646  1.00  0.00    -0.550 OA
ATOM      9  O   UNL     1      13.575  -5.099  15.090  1.00  0.00    -0.550 OA
ENDBRANCH   6   7
ENDBRANCH   5   6
ENDBRANCH   4   5
ENDBRANCH   3   4
ENDBRANCH   2   3
ENDBRANCH   1   2
BRANCH   1  10
ATOM     10  C   UNL     1      16.764 -10.991  12.927  1.00  0.00     0.000 C 
BRANCH  10  11
ATOM     11  C   UNL     1      15.862 -11.853  12.027  1.00  0.00    -0.000 C 
BRANCH  11  12
ATOM     12  C   UNL     1      15.495 -13.238  12.597  1.00  0.00    -0.000 C 
BRANCH  12  13
ATOM     13  C   UNL     1      13.986 -13.553  12.636  1.00  0.00    -0.000 C 
BRANCH  13  14
ATOM     14  C   UNL     1      13.085 -12.497  11.969  1.00  0.00    -0.000 C 
BRANCH  14  15
ATOM     15  C   UNL     1      12.318 -11.640  12.987  1.00  0.00    -0.003 C 
ATOM     16  C   UNL     1      12.672 -10.163  12.838  1.00  0.00     0.004 C 
ENDBRANCH  14  15
ENDBRANCH  13  14
ENDBRANCH  12  13
ENDBRANCH  11  12
ENDBRANCH  10  11
ENDBRANCH   1  10
TORSDOF 12
ENDMDL
MODEL 8
REMARK VINA RESULT:    -3.635      2.795      5.023
REMARK INTER + INTRA:          -7.541
REMARK INTER:                  -6.633
REMARK INTRA:                  -0.908
REMARK UNBOUND:                -1.355
REMARK SMILES CCCCCCCCCCCCCC(=O)[O-]
REMARK SMILES IDX 8 1 9 2 10 3 11 4 12 5 13 6 14 7 15 8 16 9 7 10 6 11 5 12
REMARK SMILES IDX 4 13 3 14 2 15 1 16
REMARK H PARENT
REMARK Flexibility Score: inf
ROOT
ATOM      1  C   UNL     1      16.155  -9.581  12.904  1.00  0.00     0.000 C 
ENDROOT
BRANCH   1   2
ATOM      2  C   UNL     1      14.956  -8.767  12.381  1.00  0.00     0.000 C 
BRANCH   2   3
ATOM      3  C   UNL     1      13.762  -9.599  11.877  1.00  0.00     0.000 C 
BRANCH   3   4
ATOM      4  C   UNL     1      12.712  -9.864  12.970  1.00  0.00     0.000 C 
BRANCH   4   5
ATOM      5  C   UNL     1      12.298 -11.343  13.042  1.00  0.00     0.006 C 
BRANCH   5   6
ATOM      6  C   UNL     1      12.852 -12.170  11.875  1.00  0.00     0.053 C 
BRANCH   6   7
ATOM      7  C   UNL     1      13.952 -13.068  12.349  1.00  0.00     0.041 C 
ATOM      8  O   UNL     1      13.702 -14.006  13.152  1.00  0.00    -0.550 OA
ATOM      9  O   UNL     1      15.260 -12.837  11.944  1.00  0.00    -0.550 OA
ENDBRANCH   6   7
ENDBRANCH   5   6
ENDBRANCH   4   5
ENDBRANCH   3   4
ENDBRANCH   2   3
ENDBRANCH   1   2
BRANCH   1  10
ATOM     10  C   UNL     1      17.494  -9.141  12.286  1.00  0.00     0.000 C 
BRANCH  10  11
ATOM     11  C   UNL     1      18.343  -8.290  13.247  1.00  0.00    -0.000 C 
BRANCH  11  12
ATOM     12  C   UNL     1      18.232  -6.765  13.049  1.00  0.00    -0.000 C 
BRANCH  12  13
ATOM     13  C   UNL     1      17.539  -6.003  14.196  1.00  0.00    -0.000 C 
BRANCH  13  14
ATOM     14  C   UNL     1      17.387  -6.799  15.505  1.00  0.00    -0.000 C 
BRANCH  14  15
ATOM     15  C   UNL     1      16.328  -6.204  16.445  1.00  0.00    -0.003 C 
ATOM     16  C   UNL     1      16.970  -5.638  17.709  1.00  0.00     0.004 C 
ENDBRANCH  14  15
ENDBRANCH  13  14
ENDBRANCH  12  13
ENDBRANCH  11  12
ENDBRANCH  10  11
ENDBRANCH   1  10
TORSDOF 12
ENDMDL
MODEL 9
REMARK VINA RESULT:    -3.506      2.941      5.092
REMARK INTER + INTRA:          -7.321
REMARK INTER:                  -6.322
REMARK INTRA:                  -0.999
REMARK UNBOUND:                -1.355
REMARK SMILES CCCCCCCCCCCCCC(=O)[O-]
REMARK SMILES IDX 8 1 9 2 10 3 11 4 12 5 13 6 14 7 15 8 16 9 7 10 6 11 5 12
REMARK SMILES IDX 4 13 3 14 2 15 1 16
REMARK H PARENT
REMARK Flexibility Score: inf
ROOT
ATOM      1  C   UNL     1      17.373  -7.899  13.606  1.00  0.00     0.000 C 
ENDROOT
BRANCH   1   2
ATOM      2  C   UNL     1      17.598  -9.171  12.767  1.00  0.00     0.000 C 
BRANCH   2   3
ATOM      3  C   UNL     1      16.378  -9.658  11.963  1.00  0.00     0.000 C 
BRANCH   3   4
ATOM      4  C   UNL     1      15.038  -9.284  12.621  1.00  0.00     0.000 C 
BRANCH   4   5
ATOM      5  C   UNL     1      13.968 -10.372  12.436  1.00  0.00     0.006 C 
BRANCH   5   6
ATOM      6  C   UNL     1      14.572 -11.761  12.192  1.00  0.00     0.053 C 
BRANCH   6   7
ATOM      7  C   UNL     1      13.553 -12.826  12.453  1.00  0.00     0.041 C 
ATOM      8  O   UNL     1      12.333 -12.601  12.238  1.00  0.00    -0.550 OA
ATOM      9  O   UNL     1      13.946 -14.049  12.981  1.00  0.00    -0.550 OA
ENDBRANCH   6   7
ENDBRANCH   5   6
ENDBRANCH   4   5
ENDBRANCH   3   4
ENDBRANCH   2   3
ENDBRANCH   1   2
BRANCH   1  10
ATOM     10  C   UNL     1      18.262  -6.724  13.163  1.00  0.00     0.000 C 
BRANCH  10  11
ATOM     11  C   UNL     1      17.480  -5.407  13.012  1.00  0.00    -0.000 C 
BRANCH  11  12
ATOM     12  C   UNL     1      16.253  -5.473  12.081  1.00  0.00    -0.000 C 
BRANCH  12  13
ATOM     13  C   UNL     1      15.005  -4.721  12.585  1.00  0.00    -0.000 C 
BRANCH  13  14
ATOM     14  C   UNL     1      13.976  -5.595  13.326  1.00  0.00    -0.000 C 
BRANCH  14  15
ATOM     15  C   UNL     1      12.941  -4.767  14.101  1.00  0.00    -0.003 C 
ATOM     16  C   UNL     1      13.475  -4.362  15.472  1.00  0.00     0.004 C 
ENDBRANCH  14  15
ENDBRANCH  13  14
ENDBRANCH  12  13
ENDBRANCH  11  12
ENDBRANCH  10  11
ENDBRANCH   1  10
TORSDOF 12
ENDMDL
