MODEL 1
REMARK VINA RESULT:    -3.499      0.000      0.000
REMARK INTER + INTRA:          -4.492
REMARK INTER:                  -4.215
REMARK INTRA:                  -0.277
REMARK UNBOUND:                -0.277
REMARK SMILES O=c1c(O)c(-c2ccc(O)c(O)c2)oc2cc(O)cc(O)c12
REMARK SMILES IDX 5 1 3 2 2 3 1 4 22 5 20 6 19 7 17 8 16 9 15 10 14 11 6 12
REMARK SMILES IDX 7 13 8 14 9 15 13 16 11 17 10 18 12 20 4 22 21 24 18 26
REMARK H PARENT 10 19 12 21 4 23 21 25 18 27
REMARK Flexibility Score: inf
ROOT
ATOM      1  C   UNL     1     153.417 145.855 132.842  1.00  0.00     0.180 A 
ATOM      2  C   UNL     1     152.890 146.535 131.731  1.00  0.00     0.208 A 
ATOM      3  C   UNL     1     152.007 145.858 130.875  1.00  0.00     0.238 A 
ATOM      4  O   UNL     1     151.495 146.489 129.913  1.00  0.00    -0.285 OA
ATOM      5  C   UNL     1     151.675 144.506 131.130  1.00  0.00     0.111 A 
ATOM      6  C   UNL     1     150.822 143.711 130.307  1.00  0.00     0.134 A 
ATOM      7  C   UNL     1     150.460 142.425 130.726  1.00  0.00     0.093 A 
ATOM      8  C   UNL     1     150.969 141.881 131.904  1.00  0.00     0.123 A 
ATOM      9  C   UNL     1     151.850 142.628 132.687  1.00  0.00     0.094 A 
ATOM     10  C   UNL     1     152.203 143.927 132.314  1.00  0.00     0.146 A 
ATOM     11  O   UNL     1     153.036 144.607 133.092  1.00  0.00    -0.452 OA
ENDROOT
BRANCH   1  12
ATOM     12  C   UNL     1     154.374 146.493 133.776  1.00  0.00     0.025 A 
ATOM     13  C   UNL     1     155.713 146.658 133.385  1.00  0.00     0.016 A 
ATOM     14  C   UNL     1     156.628 147.276 134.241  1.00  0.00     0.051 A 
ATOM     15  C   UNL     1     156.215 147.751 135.492  1.00  0.00     0.157 A 
ATOM     16  C   UNL     1     153.959 146.989 135.024  1.00  0.00     0.062 A 
ATOM     17  C   UNL     1     154.877 147.611 135.883  1.00  0.00     0.158 A 
BRANCH  15  18
ATOM     18  O   UNL     1     157.125 148.366 136.351  1.00  0.00    -0.504 OA
ATOM     19  H   UNL     1     156.936 148.461 137.343  1.00  0.00     0.293 HD
ENDBRANCH  15  18
BRANCH  17  20
ATOM     20  O   UNL     1     154.466 148.096 137.123  1.00  0.00    -0.504 OA
ATOM     21  H   UNL     1     154.273 149.081 137.269  1.00  0.00     0.293 HD
ENDBRANCH  17  20
ENDBRANCH   1  12
BRANCH   2  22
ATOM     22  O   UNL     1     153.213 147.877 131.510  1.00  0.00    -0.502 OA
ATOM     23  H   UNL     1     154.153 148.180 131.287  1.00  0.00     0.293 HD
ENDBRANCH   2  22
BRANCH   6  24
ATOM     24  O   UNL     1     150.331 144.124 129.064  1.00  0.00    -0.507 OA
ATOM     25  H   UNL     1     149.902 145.019 128.885  1.00  0.00     0.293 HD
ENDBRANCH   6  24
BRANCH   8  26
ATOM     26  O   UNL     1     150.599 140.593 132.284  1.00  0.00    -0.508 OA
ATOM     27  H   UNL     1     151.286 139.860 132.411  1.00  0.00     0.293 HD
ENDBRANCH   8  26
TORSDOF 6
ENDMDL
MODEL 2
REMARK VINA RESULT:    -2.963      2.618      6.819
REMARK INTER + INTRA:          -3.846
REMARK INTER:                  -3.659
REMARK INTRA:                  -0.187
REMARK UNBOUND:                -0.277
REMARK SMILES O=c1c(O)c(-c2ccc(O)c(O)c2)oc2cc(O)cc(O)c12
REMARK SMILES IDX 5 1 3 2 2 3 1 4 22 5 20 6 19 7 17 8 16 9 15 10 14 11 6 12
REMARK SMILES IDX 7 13 8 14 9 15 13 16 11 17 10 18 12 20 4 22 21 24 18 26
REMARK H PARENT 10 19 12 21 4 23 21 25 18 27
REMARK Flexibility Score: inf
ROOT
ATOM      1  C   UNL     1     152.999 144.772 134.451  1.00  0.00     0.180 A 
ATOM      2  C   UNL     1     154.257 145.346 134.701  1.00  0.00     0.208 A 
ATOM      3  C   UNL     1     154.322 146.578 135.370  1.00  0.00     0.238 A 
ATOM      4  O   UNL     1     155.454 147.061 135.639  1.00  0.00    -0.285 OA
ATOM      5  C   UNL     1     153.129 147.229 135.768  1.00  0.00     0.111 A 
ATOM      6  C   UNL     1     153.076 148.499 136.417  1.00  0.00     0.134 A 
ATOM      7  C   UNL     1     151.848 148.986 136.881  1.00  0.00     0.093 A 
ATOM      8  C   UNL     1     150.665 148.282 136.663  1.00  0.00     0.123 A 
ATOM      9  C   UNL     1     150.698 147.067 135.977  1.00  0.00     0.094 A 
ATOM     10  C   UNL     1     151.912 146.538 135.533  1.00  0.00     0.146 A 
ATOM     11  O   UNL     1     151.901 145.374 134.894  1.00  0.00    -0.452 OA
ENDROOT
BRANCH   1  12
ATOM     12  C   UNL     1     152.848 143.488 133.728  1.00  0.00     0.025 A 
ATOM     13  C   UNL     1     152.298 143.485 132.435  1.00  0.00     0.016 A 
ATOM     14  C   UNL     1     152.166 142.289 131.726  1.00  0.00     0.051 A 
ATOM     15  C   UNL     1     152.594 141.081 132.292  1.00  0.00     0.157 A 
ATOM     16  C   UNL     1     153.295 142.277 134.284  1.00  0.00     0.062 A 
ATOM     17  C   UNL     1     153.164 141.076 133.572  1.00  0.00     0.158 A 
BRANCH  15  18
ATOM     18  O   UNL     1     152.461 139.884 131.590  1.00  0.00    -0.504 OA
ATOM     19  H   UNL     1     153.086 139.102 131.754  1.00  0.00     0.293 HD
ENDBRANCH  15  18
BRANCH  17  20
ATOM     20  O   UNL     1     153.601 139.875 134.127  1.00  0.00    -0.504 OA
ATOM     21  H   UNL     1     153.776 139.783 135.122  1.00  0.00     0.293 HD
ENDBRANCH  17  20
ENDBRANCH   1  12
BRANCH   2  22
ATOM     22  O   UNL     1     155.423 144.677 134.320  1.00  0.00    -0.502 OA
ATOM     23  H   UNL     1     156.319 144.850 134.760  1.00  0.00     0.293 HD
ENDBRANCH   2  22
BRANCH   6  24
ATOM     24  O   UNL     1     154.187 149.327 136.604  1.00  0.00    -0.507 OA
ATOM     25  H   UNL     1     155.122 149.000 136.792  1.00  0.00     0.293 HD
ENDBRANCH   6  24
BRANCH   8  26
ATOM     26  O   UNL     1     149.459 148.804 137.125  1.00  0.00    -0.508 OA
ATOM     27  H   UNL     1     148.902 148.318 137.818  1.00  0.00     0.293 HD
ENDBRANCH   8  26
TORSDOF 6
ENDMDL
MODEL 3
REMARK VINA RESULT:    -1.853      2.072      7.024
REMARK INTER + INTRA:          -2.509
REMARK INTER:                  -2.329
REMARK INTRA:                  -0.180
REMARK UNBOUND:                -0.277
REMARK SMILES O=c1c(O)c(-c2ccc(O)c(O)c2)oc2cc(O)cc(O)c12
REMARK SMILES IDX 5 1 3 2 2 3 1 4 22 5 20 6 19 7 17 8 16 9 15 10 14 11 6 12
REMARK SMILES IDX 7 13 8 14 9 15 13 16 11 17 10 18 12 20 4 22 21 24 18 26
REMARK H PARENT 10 19 12 21 4 23 21 25 18 27
REMARK Flexibility Score: inf
ROOT
ATOM      1  C   UNL     1     153.247 144.934 134.346  1.00  0.00     0.180 A 
ATOM      2  C   UNL     1     154.589 145.253 134.616  1.00  0.00     0.208 A 
ATOM      3  C   UNL     1     154.879 146.433 135.320  1.00  0.00     0.238 A 
ATOM      4  O   UNL     1     156.079 146.686 135.606  1.00  0.00    -0.285 OA
ATOM      5  C   UNL     1     153.827 147.286 135.730  1.00  0.00     0.111 A 
ATOM      6  C   UNL     1     154.008 148.526 136.414  1.00  0.00     0.134 A 
ATOM      7  C   UNL     1     152.890 149.223 136.887  1.00  0.00     0.093 A 
ATOM      8  C   UNL     1     151.597 148.762 136.645  1.00  0.00     0.123 A 
ATOM      9  C   UNL     1     151.407 147.581 135.926  1.00  0.00     0.094 A 
ATOM     10  C   UNL     1     152.503 146.844 135.472  1.00  0.00     0.146 A 
ATOM     11  O   UNL     1     152.278 145.720 134.801  1.00  0.00    -0.452 OA
ENDROOT
BRANCH   1  12
ATOM     12  C   UNL     1     152.863 143.721 133.587  1.00  0.00     0.025 A 
ATOM     13  C   UNL     1     153.053 142.456 134.165  1.00  0.00     0.016 A 
ATOM     14  C   UNL     1     152.679 141.299 133.476  1.00  0.00     0.051 A 
ATOM     15  C   UNL     1     152.096 141.392 132.206  1.00  0.00     0.157 A 
ATOM     16  C   UNL     1     152.259 143.811 132.320  1.00  0.00     0.062 A 
ATOM     17  C   UNL     1     151.882 142.651 131.628  1.00  0.00     0.158 A 
BRANCH  15  18
ATOM     18  O   UNL     1     151.724 140.242 131.513  1.00  0.00    -0.504 OA
ATOM     19  H   UNL     1     151.301 139.451 131.987  1.00  0.00     0.293 HD
ENDBRANCH  15  18
BRANCH  17  20
ATOM     20  O   UNL     1     151.290 142.740 130.370  1.00  0.00    -0.504 OA
ATOM     21  H   UNL     1     150.840 141.941 129.938  1.00  0.00     0.293 HD
ENDBRANCH  17  20
ENDBRANCH   1  12
BRANCH   2  22
ATOM     22  O   UNL     1     155.611 144.386 134.221  1.00  0.00    -0.502 OA
ATOM     23  H   UNL     1     155.863 144.249 133.250  1.00  0.00     0.293 HD
ENDBRANCH   2  22
BRANCH   6  24
ATOM     24  O   UNL     1     155.254 149.124 136.628  1.00  0.00    -0.507 OA
ATOM     25  H   UNL     1     155.924 149.331 135.903  1.00  0.00     0.293 HD
ENDBRANCH   6  24
BRANCH   8  26
ATOM     26  O   UNL     1     150.507 149.489 137.117  1.00  0.00    -0.508 OA
ATOM     27  H   UNL     1     150.058 150.200 136.552  1.00  0.00     0.293 HD
ENDBRANCH   8  26
TORSDOF 6
ENDMDL
MODEL 4
REMARK VINA RESULT:    -1.707      2.269      3.019
REMARK INTER + INTRA:          -2.333
REMARK INTER:                  -2.481
REMARK INTRA:                   0.147
REMARK UNBOUND:                -0.277
REMARK SMILES O=c1c(O)c(-c2ccc(O)c(O)c2)oc2cc(O)cc(O)c12
REMARK SMILES IDX 5 1 3 2 2 3 1 4 22 5 20 6 19 7 17 8 16 9 15 10 14 11 6 12
REMARK SMILES IDX 7 13 8 14 9 15 13 16 11 17 10 18 12 20 4 22 21 24 18 26
REMARK H PARENT 10 19 12 21 4 23 21 25 18 27
REMARK Flexibility Score: inf
ROOT
ATOM      1  C   UNL     1     151.615 145.732 133.141  1.00  0.00     0.180 A 
ATOM      2  C   UNL     1     151.331 145.947 131.781  1.00  0.00     0.208 A 
ATOM      3  C   UNL     1     151.477 144.880 130.879  1.00  0.00     0.238 A 
ATOM      4  O   UNL     1     151.169 145.063 129.672  1.00  0.00    -0.285 OA
ATOM      5  C   UNL     1     151.920 143.619 131.344  1.00  0.00     0.111 A 
ATOM      6  C   UNL     1     152.142 142.480 130.513  1.00  0.00     0.134 A 
ATOM      7  C   UNL     1     152.454 141.248 131.098  1.00  0.00     0.093 A 
ATOM      8  C   UNL     1     152.618 141.126 132.478  1.00  0.00     0.123 A 
ATOM      9  C   UNL     1     152.462 142.247 133.295  1.00  0.00     0.094 A 
ATOM     10  C   UNL     1     152.115 143.482 132.744  1.00  0.00     0.146 A 
ATOM     11  O   UNL     1     151.965 144.521 133.557  1.00  0.00    -0.452 OA
ENDROOT
BRANCH   1  12
ATOM     12  C   UNL     1     151.510 146.814 134.147  1.00  0.00     0.025 A 
ATOM     13  C   UNL     1     150.400 147.674 134.123  1.00  0.00     0.016 A 
ATOM     14  C   UNL     1     150.269 148.688 135.075  1.00  0.00     0.051 A 
ATOM     15  C   UNL     1     151.238 148.847 136.074  1.00  0.00     0.157 A 
ATOM     16  C   UNL     1     152.470 146.964 135.164  1.00  0.00     0.062 A 
ATOM     17  C   UNL     1     152.338 147.980 136.121  1.00  0.00     0.158 A 
BRANCH  15  18
ATOM     18  O   UNL     1     151.114 149.858 137.025  1.00  0.00    -0.504 OA
ATOM     19  H   UNL     1     150.212 150.261 137.255  1.00  0.00     0.293 HD
ENDBRANCH  15  18
BRANCH  17  20
ATOM     20  O   UNL     1     153.293 148.132 137.125  1.00  0.00    -0.504 OA
ATOM     21  H   UNL     1     153.496 147.387 137.781  1.00  0.00     0.293 HD
ENDBRANCH  17  20
ENDBRANCH   1  12
BRANCH   2  22
ATOM     22  O   UNL     1     150.873 147.193 131.346  1.00  0.00    -0.502 OA
ATOM     23  H   UNL     1     149.985 147.313 130.875  1.00  0.00     0.293 HD
ENDBRANCH   2  22
BRANCH   6  24
ATOM     24  O   UNL     1     152.094 142.513 129.115  1.00  0.00    -0.507 OA
ATOM     25  H   UNL     1     151.271 142.729 128.574  1.00  0.00     0.293 HD
ENDBRANCH   6  24
BRANCH   8  26
ATOM     26  O   UNL     1     152.945 139.888 133.026  1.00  0.00    -0.508 OA
ATOM     27  H   UNL     1     152.523 139.561 133.887  1.00  0.00     0.293 HD
ENDBRANCH   8  26
TORSDOF 6
ENDMDL
MODEL 5
REMARK VINA RESULT:    -1.659      2.075      7.077
REMARK INTER + INTRA:          -2.275
REMARK INTER:                  -1.986
REMARK INTRA:                  -0.289
REMARK UNBOUND:                -0.277
REMARK SMILES O=c1c(O)c(-c2ccc(O)c(O)c2)oc2cc(O)cc(O)c12
REMARK SMILES IDX 5 1 3 2 2 3 1 4 22 5 20 6 19 7 17 8 16 9 15 10 14 11 6 12
REMARK SMILES IDX 7 13 8 14 9 15 13 16 11 17 10 18 12 20 4 22 21 24 18 26
REMARK H PARENT 10 19 12 21 4 23 21 25 18 27
REMARK Flexibility Score: inf
ROOT
ATOM      1  C   UNL     1     152.187 145.925 133.035  1.00  0.00     0.180 A 
ATOM      2  C   UNL     1     153.431 145.549 133.571  1.00  0.00     0.208 A 
ATOM      3  C   UNL     1     153.890 146.185 134.736  1.00  0.00     0.238 A 
ATOM      4  O   UNL     1     154.979 145.807 135.242  1.00  0.00    -0.285 OA
ATOM      5  C   UNL     1     153.108 147.199 135.341  1.00  0.00     0.111 A 
ATOM      6  C   UNL     1     153.494 147.937 136.500  1.00  0.00     0.134 A 
ATOM      7  C   UNL     1     152.585 148.825 137.087  1.00  0.00     0.093 A 
ATOM      8  C   UNL     1     151.330 149.050 136.522  1.00  0.00     0.123 A 
ATOM      9  C   UNL     1     150.965 148.378 135.356  1.00  0.00     0.094 A 
ATOM     10  C   UNL     1     151.836 147.459 134.766  1.00  0.00     0.146 A 
ATOM     11  O   UNL     1     151.447 146.832 133.662  1.00  0.00    -0.452 OA
ENDROOT
BRANCH   1  12
ATOM     12  C   UNL     1     151.648 145.319 131.796  1.00  0.00     0.025 A 
ATOM     13  C   UNL     1     151.807 145.990 130.573  1.00  0.00     0.016 A 
ATOM     14  C   UNL     1     151.326 145.428 129.389  1.00  0.00     0.051 A 
ATOM     15  C   UNL     1     150.690 144.179 129.408  1.00  0.00     0.157 A 
ATOM     16  C   UNL     1     151.027 144.057 131.808  1.00  0.00     0.062 A 
ATOM     17  C   UNL     1     150.545 143.490 130.619  1.00  0.00     0.158 A 
BRANCH  15  18
ATOM     18  O   UNL     1     150.205 143.615 128.229  1.00  0.00    -0.504 OA
ATOM     19  H   UNL     1     150.482 142.685 127.935  1.00  0.00     0.293 HD
ENDBRANCH  15  18
BRANCH  17  20
ATOM     20  O   UNL     1     149.925 142.242 130.633  1.00  0.00    -0.504 OA
ATOM     21  H   UNL     1     150.329 141.445 130.154  1.00  0.00     0.293 HD
ENDBRANCH  17  20
ENDBRANCH   1  12
BRANCH   2  22
ATOM     22  O   UNL     1     154.177 144.531 132.971  1.00  0.00    -0.502 OA
ATOM     23  H   UNL     1     154.492 144.582 132.010  1.00  0.00     0.293 HD
ENDBRANCH   2  22
BRANCH   6  24
ATOM     24  O   UNL     1     154.758 147.856 137.092  1.00  0.00    -0.507 OA
ATOM     25  H   UNL     1     155.032 148.346 137.930  1.00  0.00     0.293 HD
ENDBRANCH   6  24
BRANCH   8  26
ATOM     26  O   UNL     1     150.456 149.952 137.125  1.00  0.00    -0.508 OA
ATOM     27  H   UNL     1     149.534 149.670 137.435  1.00  0.00     0.293 HD
ENDBRANCH   8  26
TORSDOF 6
ENDMDL
