MODEL 1
REMARK VINA RESULT:    11.602      0.000      0.000
REMARK INTER + INTRA:          24.402
REMARK INTER:                  25.168
REMARK INTRA:                  -0.765
REMARK UNBOUND:                -0.765
REMARK SMILES CCCCCCCCCCCCCCCCCCCCCC(=O)[O-]
REMARK SMILES IDX 12 1 11 2 10 3 9 4 8 5 7 6 6 7 5 8 4 9 3 10 2 11 1 12 13 13
REMARK SMILES IDX 14 14 15 15 16 16 17 17 18 18 19 19 20 20 21 21 22 22 23 23
REMARK SMILES IDX 24 24
REMARK H PARENT
REMARK Flexibility Score: inf
ROOT
ATOM      1  C   UNL     1       9.113 -30.325 -12.378  1.00  0.00     0.000 C 
ENDROOT
BRANCH   1   2
ATOM      2  C   UNL     1      10.565 -30.051 -11.944  1.00  0.00     0.000 C 
BRANCH   2   3
ATOM      3  C   UNL     1      10.756 -29.789 -10.439  1.00  0.00     0.000 C 
BRANCH   3   4
ATOM      4  C   UNL     1       9.429 -29.738  -9.669  1.00  0.00    -0.000 C 
BRANCH   4   5
ATOM      5  C   UNL     1       8.846 -28.316  -9.674  1.00  0.00    -0.000 C 
BRANCH   5   6
ATOM      6  C   UNL     1       9.703 -27.321  -8.875  1.00  0.00    -0.000 C 
BRANCH   6   7
ATOM      7  C   UNL     1       9.127 -25.896  -8.900  1.00  0.00    -0.000 C 
BRANCH   7   8
ATOM      8  C   UNL     1       8.288 -25.568  -7.650  1.00  0.00    -0.000 C 
BRANCH   8   9
ATOM      9  C   UNL     1       8.951 -25.923  -6.306  1.00  0.00    -0.000 C 
BRANCH   9  10
ATOM     10  C   UNL     1       8.548 -25.024  -5.122  1.00  0.00    -0.000 C 
BRANCH  10  11
ATOM     11  C   UNL     1       7.586 -23.882  -5.509  1.00  0.00    -0.003 C 
ATOM     12  C   UNL     1       6.125 -24.331  -5.549  1.00  0.00     0.004 C 
ENDBRANCH  10  11
ENDBRANCH   9  10
ENDBRANCH   8   9
ENDBRANCH   7   8
ENDBRANCH   6   7
ENDBRANCH   5   6
ENDBRANCH   4   5
ENDBRANCH   3   4
ENDBRANCH   2   3
ENDBRANCH   1   2
BRANCH   1  13
ATOM     13  C   UNL     1       8.917 -30.252 -13.899  1.00  0.00     0.000 C 
BRANCH  13  14
ATOM     14  C   UNL     1       9.664 -31.396 -14.603  1.00  0.00     0.000 C 
BRANCH  14  15
ATOM     15  C   UNL     1       9.329 -31.502 -16.102  1.00  0.00     0.000 C 
BRANCH  15  16
ATOM     16  C   UNL     1       9.961 -30.415 -16.990  1.00  0.00     0.000 C 
BRANCH  16  17
ATOM     17  C   UNL     1       8.922 -29.611 -17.787  1.00  0.00     0.000 C 
BRANCH  17  18
ATOM     18  C   UNL     1       7.856 -29.015 -16.859  1.00  0.00     0.000 C 
BRANCH  18  19
ATOM     19  C   UNL     1       6.719 -28.377 -17.670  1.00  0.00     0.000 C 
BRANCH  19  20
ATOM     20  C   UNL     1       6.541 -29.019 -19.054  1.00  0.00     0.006 C 
BRANCH  20  21
ATOM     21  C   UNL     1       6.489 -27.984 -20.186  1.00  0.00     0.053 C 
BRANCH  21  22
ATOM     22  C   UNL     1       6.836 -28.621 -21.495  1.00  0.00     0.041 C 
ATOM     23  O   UNL     1       7.594 -29.625 -21.532  1.00  0.00    -0.550 OA
ATOM     24  O   UNL     1       6.360 -28.076 -22.682  1.00  0.00    -0.550 OA
ENDBRANCH  21  22
ENDBRANCH  20  21
ENDBRANCH  19  20
ENDBRANCH  18  19
ENDBRANCH  17  18
ENDBRANCH  16  17
ENDBRANCH  15  16
ENDBRANCH  14  15
ENDBRANCH  13  14
ENDBRANCH   1  13
TORSDOF 20
ENDMDL
MODEL 2
REMARK VINA RESULT:    11.959      5.317     12.175
REMARK INTER + INTRA:          25.176
REMARK INTER:                  25.806
REMARK INTRA:                  -0.630
REMARK UNBOUND:                -0.765
REMARK SMILES CCCCCCCCCCCCCCCCCCCCCC(=O)[O-]
REMARK SMILES IDX 12 1 11 2 10 3 9 4 8 5 7 6 6 7 5 8 4 9 3 10 2 11 1 12 13 13
REMARK SMILES IDX 14 14 15 15 16 16 17 17 18 18 19 19 20 20 21 21 22 22 23 23
REMARK SMILES IDX 24 24
REMARK H PARENT
REMARK Flexibility Score: inf
ROOT
ATOM      1  C   UNL     1       8.971 -29.644 -11.917  1.00  0.00     0.000 C 
ENDROOT
BRANCH   1   2
ATOM      2  C   UNL     1       8.060 -29.954 -13.120  1.00  0.00     0.000 C 
BRANCH   2   3
ATOM      3  C   UNL     1       8.730 -29.809 -14.498  1.00  0.00     0.000 C 
BRANCH   3   4
ATOM      4  C   UNL     1       9.599 -31.020 -14.869  1.00  0.00    -0.000 C 
BRANCH   4   5
ATOM      5  C   UNL     1       9.416 -31.394 -16.348  1.00  0.00    -0.000 C 
BRANCH   5   6
ATOM      6  C   UNL     1       8.724 -30.286 -17.159  1.00  0.00    -0.000 C 
BRANCH   6   7
ATOM      7  C   UNL     1       9.469 -29.959 -18.463  1.00  0.00    -0.000 C 
BRANCH   7   8
ATOM      8  C   UNL     1       8.521 -29.547 -19.606  1.00  0.00    -0.000 C 
BRANCH   8   9
ATOM      9  C   UNL     1       7.135 -29.048 -19.158  1.00  0.00    -0.000 C 
BRANCH   9  10
ATOM     10  C   UNL     1       6.264 -28.448 -20.278  1.00  0.00    -0.000 C 
BRANCH  10  11
ATOM     11  C   UNL     1       6.975 -28.372 -21.645  1.00  0.00    -0.003 C 
ATOM     12  C   UNL     1       6.008 -28.106 -22.798  1.00  0.00     0.004 C 
ENDBRANCH  10  11
ENDBRANCH   9  10
ENDBRANCH   8   9
ENDBRANCH   7   8
ENDBRANCH   6   7
ENDBRANCH   5   6
ENDBRANCH   4   5
ENDBRANCH   3   4
ENDBRANCH   2   3
ENDBRANCH   1   2
BRANCH   1  13
ATOM     13  C   UNL     1       8.186 -29.294 -10.645  1.00  0.00     0.000 C 
BRANCH  13  14
ATOM     14  C   UNL     1       9.130 -29.156  -9.440  1.00  0.00     0.000 C 
BRANCH  14  15
ATOM     15  C   UNL     1       9.916 -27.833  -9.439  1.00  0.00     0.000 C 
BRANCH  15  16
ATOM     16  C   UNL     1       9.187 -26.640  -8.794  1.00  0.00     0.000 C 
BRANCH  16  17
ATOM     17  C   UNL     1       9.182 -26.696  -7.259  1.00  0.00     0.000 C 
BRANCH  17  18
ATOM     18  C   UNL     1       8.712 -25.364  -6.660  1.00  0.00     0.000 C 
BRANCH  18  19
ATOM     19  C   UNL     1       8.812 -25.387  -5.128  1.00  0.00     0.000 C 
BRANCH  19  20
ATOM     20  C   UNL     1      10.263 -25.430  -4.626  1.00  0.00     0.006 C 
BRANCH  20  21
ATOM     21  C   UNL     1      10.829 -26.855  -4.569  1.00  0.00     0.053 C 
BRANCH  21  22
ATOM     22  C   UNL     1      12.315 -26.836  -4.748  1.00  0.00     0.041 C 
ATOM     23  O   UNL     1      13.031 -27.719  -4.207  1.00  0.00    -0.550 OA
ATOM     24  O   UNL     1      12.915 -25.814  -5.474  1.00  0.00    -0.550 OA
ENDBRANCH  21  22
ENDBRANCH  20  21
ENDBRANCH  19  20
ENDBRANCH  18  19
ENDBRANCH  17  18
ENDBRANCH  16  17
ENDBRANCH  15  16
ENDBRANCH  14  15
ENDBRANCH  13  14
ENDBRANCH   1  13
TORSDOF 20
ENDMDL
MODEL 3
REMARK VINA RESULT:    12.483      0.962      1.776
REMARK INTER + INTRA:          26.312
REMARK INTER:                  26.508
REMARK INTRA:                  -0.196
REMARK UNBOUND:                -0.765
REMARK SMILES CCCCCCCCCCCCCCCCCCCCCC(=O)[O-]
REMARK SMILES IDX 12 1 11 2 10 3 9 4 8 5 7 6 6 7 5 8 4 9 3 10 2 11 1 12 13 13
REMARK SMILES IDX 14 14 15 15 16 16 17 17 18 18 19 19 20 20 21 21 22 22 23 23
REMARK SMILES IDX 24 24
REMARK H PARENT
REMARK Flexibility Score: inf
ROOT
ATOM      1  C   UNL     1       9.209 -29.910 -11.675  1.00  0.00     0.000 C 
ENDROOT
BRANCH   1   2
ATOM      2  C   UNL     1       8.247 -29.327 -10.623  1.00  0.00     0.000 C 
BRANCH   2   3
ATOM      3  C   UNL     1       8.893 -28.988  -9.268  1.00  0.00     0.000 C 
BRANCH   3   4
ATOM      4  C   UNL     1      10.124 -28.080  -9.404  1.00  0.00    -0.000 C 
BRANCH   4   5
ATOM      5  C   UNL     1       9.705 -26.611  -9.573  1.00  0.00    -0.000 C 
BRANCH   5   6
ATOM      6  C   UNL     1       8.408 -26.273  -8.820  1.00  0.00    -0.000 C 
BRANCH   6   7
ATOM      7  C   UNL     1       8.614 -25.187  -7.751  1.00  0.00    -0.000 C 
BRANCH   7   8
ATOM      8  C   UNL     1       7.460 -25.122  -6.733  1.00  0.00    -0.000 C 
BRANCH   8   9
ATOM      9  C   UNL     1       7.692 -24.174  -5.542  1.00  0.00    -0.000 C 
BRANCH   9  10
ATOM     10  C   UNL     1       8.943 -24.481  -4.697  1.00  0.00    -0.000 C 
BRANCH  10  11
ATOM     11  C   UNL     1       9.368 -25.964  -4.735  1.00  0.00    -0.003 C 
ATOM     12  C   UNL     1      10.887 -26.142  -4.719  1.00  0.00     0.004 C 
ENDBRANCH  10  11
ENDBRANCH   9  10
ENDBRANCH   8   9
ENDBRANCH   7   8
ENDBRANCH   6   7
ENDBRANCH   5   6
ENDBRANCH   4   5
ENDBRANCH   3   4
ENDBRANCH   2   3
ENDBRANCH   1   2
BRANCH   1  13
ATOM     13  C   UNL     1       8.576 -30.023 -13.070  1.00  0.00     0.000 C 
BRANCH  13  14
ATOM     14  C   UNL     1       9.634 -30.382 -14.124  1.00  0.00     0.000 C 
BRANCH  14  15
ATOM     15  C   UNL     1       9.210 -31.552 -15.030  1.00  0.00     0.000 C 
BRANCH  15  16
ATOM     16  C   UNL     1       9.413 -31.318 -16.538  1.00  0.00     0.000 C 
BRANCH  16  17
ATOM     17  C   UNL     1       9.241 -29.848 -16.947  1.00  0.00     0.000 C 
BRANCH  17  18
ATOM     18  C   UNL     1       8.014 -29.226 -16.267  1.00  0.00     0.000 C 
BRANCH  18  19
ATOM     19  C   UNL     1       7.148 -28.470 -17.285  1.00  0.00     0.000 C 
BRANCH  19  20
ATOM     20  C   UNL     1       7.034 -29.202 -18.630  1.00  0.00     0.006 C 
BRANCH  20  21
ATOM     21  C   UNL     1       6.339 -28.358 -19.708  1.00  0.00     0.053 C 
BRANCH  21  22
ATOM     22  C   UNL     1       6.774 -28.789 -21.073  1.00  0.00     0.041 C 
ATOM     23  O   UNL     1       7.742 -29.582 -21.210  1.00  0.00    -0.550 OA
ATOM     24  O   UNL     1       6.141 -28.277 -22.199  1.00  0.00    -0.550 OA
ENDBRANCH  21  22
ENDBRANCH  20  21
ENDBRANCH  19  20
ENDBRANCH  18  19
ENDBRANCH  17  18
ENDBRANCH  16  17
ENDBRANCH  15  16
ENDBRANCH  14  15
ENDBRANCH  13  14
ENDBRANCH   1  13
TORSDOF 20
ENDMDL
MODEL 4
REMARK VINA RESULT:    12.718      0.817      1.618
REMARK INTER + INTRA:          26.822
REMARK INTER:                  27.385
REMARK INTRA:                  -0.563
REMARK UNBOUND:                -0.765
REMARK SMILES CCCCCCCCCCCCCCCCCCCCCC(=O)[O-]
REMARK SMILES IDX 12 1 11 2 10 3 9 4 8 5 7 6 6 7 5 8 4 9 3 10 2 11 1 12 13 13
REMARK SMILES IDX 14 14 15 15 16 16 17 17 18 18 19 19 20 20 21 21 22 22 23 23
REMARK SMILES IDX 24 24
REMARK H PARENT
REMARK Flexibility Score: inf
ROOT
ATOM      1  C   UNL     1      10.116 -30.013 -12.404  1.00  0.00     0.000 C 
ENDROOT
BRANCH   1   2
ATOM      2  C   UNL     1      10.110 -30.371 -10.906  1.00  0.00     0.000 C 
BRANCH   2   3
ATOM      3  C   UNL     1      10.566 -29.240  -9.965  1.00  0.00     0.000 C 
BRANCH   3   4
ATOM      4  C   UNL     1       9.392 -28.438  -9.384  1.00  0.00    -0.000 C 
BRANCH   4   5
ATOM      5  C   UNL     1       9.772 -26.960  -9.209  1.00  0.00    -0.000 C 
BRANCH   5   6
ATOM      6  C   UNL     1       8.853 -26.224  -8.220  1.00  0.00    -0.000 C 
BRANCH   6   7
ATOM      7  C   UNL     1       9.308 -26.387  -6.760  1.00  0.00    -0.000 C 
BRANCH   7   8
ATOM      8  C   UNL     1       8.635 -25.381  -5.807  1.00  0.00    -0.000 C 
BRANCH   8   9
ATOM      9  C   UNL     1       7.479 -24.571  -6.423  1.00  0.00    -0.000 C 
BRANCH   9  10
ATOM     10  C   UNL     1       6.169 -24.584  -5.613  1.00  0.00    -0.000 C 
BRANCH  10  11
ATOM     11  C   UNL     1       6.172 -23.617  -4.411  1.00  0.00    -0.003 C 
ATOM     12  C   UNL     1       7.439 -23.734  -3.565  1.00  0.00     0.004 C 
ENDBRANCH  10  11
ENDBRANCH   9  10
ENDBRANCH   8   9
ENDBRANCH   7   8
ENDBRANCH   6   7
ENDBRANCH   5   6
ENDBRANCH   4   5
ENDBRANCH   3   4
ENDBRANCH   2   3
ENDBRANCH   1   2
BRANCH   1  13
ATOM     13  C   UNL     1       8.715 -30.049 -13.034  1.00  0.00     0.000 C 
BRANCH  13  14
ATOM     14  C   UNL     1       8.806 -30.126 -14.566  1.00  0.00     0.000 C 
BRANCH  14  15
ATOM     15  C   UNL     1       9.084 -31.549 -15.082  1.00  0.00     0.000 C 
BRANCH  15  16
ATOM     16  C   UNL     1       9.541 -31.634 -16.551  1.00  0.00     0.000 C 
BRANCH  16  17
ATOM     17  C   UNL     1       9.886 -30.264 -17.153  1.00  0.00     0.000 C 
BRANCH  17  18
ATOM     18  C   UNL     1       8.936 -29.913 -18.305  1.00  0.00     0.000 C 
BRANCH  18  19
ATOM     19  C   UNL     1       7.854 -28.926 -17.843  1.00  0.00     0.000 C 
BRANCH  19  20
ATOM     20  C   UNL     1       6.558 -29.037 -18.660  1.00  0.00     0.006 C 
BRANCH  20  21
ATOM     21  C   UNL     1       6.514 -28.054 -19.838  1.00  0.00     0.053 C 
BRANCH  21  22
ATOM     22  C   UNL     1       6.744 -28.773 -21.130  1.00  0.00     0.041 C 
ATOM     23  O   UNL     1       6.481 -28.210 -22.225  1.00  0.00    -0.550 OA
ATOM     24  O   UNL     1       7.205 -30.084 -21.123  1.00  0.00    -0.550 OA
ENDBRANCH  21  22
ENDBRANCH  20  21
ENDBRANCH  19  20
ENDBRANCH  18  19
ENDBRANCH  17  18
ENDBRANCH  16  17
ENDBRANCH  15  16
ENDBRANCH  14  15
ENDBRANCH  13  14
ENDBRANCH   1  13
TORSDOF 20
ENDMDL
MODEL 5
REMARK VINA RESULT:    12.939      5.008     11.745
REMARK INTER + INTRA:          27.303
REMARK INTER:                  26.846
REMARK INTRA:                   0.457
REMARK UNBOUND:                -0.765
REMARK SMILES CCCCCCCCCCCCCCCCCCCCCC(=O)[O-]
REMARK SMILES IDX 12 1 11 2 10 3 9 4 8 5 7 6 6 7 5 8 4 9 3 10 2 11 1 12 13 13
REMARK SMILES IDX 14 14 15 15 16 16 17 17 18 18 19 19 20 20 21 21 22 22 23 23
REMARK SMILES IDX 24 24
REMARK H PARENT
REMARK Flexibility Score: inf
ROOT
ATOM      1  C   UNL     1       9.178 -29.620 -11.955  1.00  0.00     0.000 C 
ENDROOT
BRANCH   1   2
ATOM      2  C   UNL     1       8.416 -30.343 -13.081  1.00  0.00     0.000 C 
BRANCH   2   3
ATOM      3  C   UNL     1       8.865 -29.979 -14.508  1.00  0.00     0.000 C 
BRANCH   3   4
ATOM      4  C   UNL     1       9.685 -31.092 -15.177  1.00  0.00    -0.000 C 
BRANCH   4   5
ATOM      5  C   UNL     1       9.334 -31.212 -16.668  1.00  0.00    -0.000 C 
BRANCH   5   6
ATOM      6  C   UNL     1       9.008 -29.854 -17.312  1.00  0.00    -0.000 C 
BRANCH   6   7
ATOM      7  C   UNL     1       7.610 -29.341 -16.929  1.00  0.00    -0.000 C 
BRANCH   7   8
ATOM      8  C   UNL     1       7.071 -28.284 -17.911  1.00  0.00    -0.000 C 
BRANCH   8   9
ATOM      9  C   UNL     1       6.453 -28.849 -19.204  1.00  0.00    -0.000 C 
BRANCH   9  10
ATOM     10  C   UNL     1       7.358 -28.773 -20.448  1.00  0.00    -0.000 C 
BRANCH  10  11
ATOM     11  C   UNL     1       6.625 -29.084 -21.769  1.00  0.00    -0.003 C 
ATOM     12  C   UNL     1       6.044 -27.834 -22.429  1.00  0.00     0.004 C 
ENDBRANCH  10  11
ENDBRANCH   9  10
ENDBRANCH   8   9
ENDBRANCH   7   8
ENDBRANCH   6   7
ENDBRANCH   5   6
ENDBRANCH   4   5
ENDBRANCH   3   4
ENDBRANCH   2   3
ENDBRANCH   1   2
BRANCH   1  13
ATOM     13  C   UNL     1       8.308 -29.352 -10.717  1.00  0.00     0.000 C 
BRANCH  13  14
ATOM     14  C   UNL     1       9.182 -29.093  -9.480  1.00  0.00     0.000 C 
BRANCH  14  15
ATOM     15  C   UNL     1       9.655 -27.632  -9.371  1.00  0.00     0.000 C 
BRANCH  15  16
ATOM     16  C   UNL     1       8.534 -26.597  -9.158  1.00  0.00     0.000 C 
BRANCH  16  17
ATOM     17  C   UNL     1       8.684 -25.809  -7.849  1.00  0.00     0.000 C 
BRANCH  17  18
ATOM     18  C   UNL     1       9.300 -26.681  -6.748  1.00  0.00     0.000 C 
BRANCH  18  19
ATOM     19  C   UNL     1       8.728 -26.312  -5.371  1.00  0.00     0.000 C 
BRANCH  19  20
ATOM     20  C   UNL     1       8.968 -24.841  -5.001  1.00  0.00     0.006 C 
BRANCH  20  21
ATOM     21  C   UNL     1       7.981 -23.887  -5.687  1.00  0.00     0.053 C 
BRANCH  21  22
ATOM     22  C   UNL     1       6.571 -24.289  -5.389  1.00  0.00     0.041 C 
ATOM     23  O   UNL     1       6.020 -23.926  -4.317  1.00  0.00    -0.550 OA
ATOM     24  O   UNL     1       5.878 -25.107  -6.275  1.00  0.00    -0.550 OA
ENDBRANCH  21  22
ENDBRANCH  20  21
ENDBRANCH  19  20
ENDBRANCH  18  19
ENDBRANCH  17  18
ENDBRANCH  16  17
ENDBRANCH  15  16
ENDBRANCH  14  15
ENDBRANCH  13  14
ENDBRANCH   1  13
TORSDOF 20
ENDMDL
MODEL 6
REMARK VINA RESULT:    13.106      5.051     11.319
REMARK INTER + INTRA:          27.663
REMARK INTER:                  28.086
REMARK INTRA:                  -0.423
REMARK UNBOUND:                -0.765
REMARK SMILES CCCCCCCCCCCCCCCCCCCCCC(=O)[O-]
REMARK SMILES IDX 12 1 11 2 10 3 9 4 8 5 7 6 6 7 5 8 4 9 3 10 2 11 1 12 13 13
REMARK SMILES IDX 14 14 15 15 16 16 17 17 18 18 19 19 20 20 21 21 22 22 23 23
REMARK SMILES IDX 24 24
REMARK H PARENT
REMARK Flexibility Score: inf
ROOT
ATOM      1  C   UNL     1       8.890 -30.704 -14.512  1.00  0.00     0.000 C 
ENDROOT
BRANCH   1   2
ATOM      2  C   UNL     1       8.918 -32.241 -14.611  1.00  0.00     0.000 C 
BRANCH   2   3
ATOM      3  C   UNL     1       9.412 -32.797 -15.959  1.00  0.00     0.000 C 
BRANCH   3   4
ATOM      4  C   UNL     1       8.970 -31.942 -17.155  1.00  0.00    -0.000 C 
BRANCH   4   5
ATOM      5  C   UNL     1       9.795 -30.648 -17.239  1.00  0.00    -0.000 C 
BRANCH   5   6
ATOM      6  C   UNL     1       9.052 -29.517 -17.969  1.00  0.00    -0.000 C 
BRANCH   6   7
ATOM      7  C   UNL     1       7.841 -29.001 -17.176  1.00  0.00    -0.000 C 
BRANCH   7   8
ATOM      8  C   UNL     1       6.629 -28.684 -18.073  1.00  0.00    -0.000 C 
BRANCH   8   9
ATOM      9  C   UNL     1       6.713 -29.243 -19.505  1.00  0.00    -0.000 C 
BRANCH   9  10
ATOM     10  C   UNL     1       6.384 -28.232 -20.621  1.00  0.00    -0.000 C 
BRANCH  10  11
ATOM     11  C   UNL     1       6.778 -28.716 -22.032  1.00  0.00    -0.003 C 
ATOM     12  C   UNL     1       6.446 -27.693 -23.119  1.00  0.00     0.004 C 
ENDBRANCH  10  11
ENDBRANCH   9  10
ENDBRANCH   8   9
ENDBRANCH   7   8
ENDBRANCH   6   7
ENDBRANCH   5   6
ENDBRANCH   4   5
ENDBRANCH   3   4
ENDBRANCH   2   3
ENDBRANCH   1   2
BRANCH   1  13
ATOM     13  C   UNL     1       9.927 -30.147 -13.526  1.00  0.00     0.000 C 
BRANCH  13  14
ATOM     14  C   UNL     1       9.335 -30.040 -12.112  1.00  0.00     0.000 C 
BRANCH  14  15
ATOM     15  C   UNL     1      10.401 -29.781 -11.031  1.00  0.00     0.000 C 
BRANCH  15  16
ATOM     16  C   UNL     1       9.884 -29.825  -9.581  1.00  0.00     0.000 C 
BRANCH  16  17
ATOM     17  C   UNL     1       8.920 -28.677  -9.250  1.00  0.00     0.000 C 
BRANCH  17  18
ATOM     18  C   UNL     1       9.688 -27.394  -8.905  1.00  0.00     0.000 C 
BRANCH  18  19
ATOM     19  C   UNL     1       8.784 -26.160  -9.046  1.00  0.00     0.000 C 
BRANCH  19  20
ATOM     20  C   UNL     1       8.789 -25.273  -7.792  1.00  0.00     0.006 C 
BRANCH  20  21
ATOM     21  C   UNL     1       7.564 -25.505  -6.897  1.00  0.00     0.053 C 
BRANCH  21  22
ATOM     22  C   UNL     1       7.542 -24.517  -5.773  1.00  0.00     0.041 C 
ATOM     23  O   UNL     1       6.559 -23.744  -5.626  1.00  0.00    -0.550 OA
ATOM     24  O   UNL     1       8.631 -24.414  -4.915  1.00  0.00    -0.550 OA
ENDBRANCH  21  22
ENDBRANCH  20  21
ENDBRANCH  19  20
ENDBRANCH  18  19
ENDBRANCH  17  18
ENDBRANCH  16  17
ENDBRANCH  15  16
ENDBRANCH  14  15
ENDBRANCH  13  14
ENDBRANCH   1  13
TORSDOF 20
ENDMDL
MODEL 7
REMARK VINA RESULT:    13.229      5.326     11.935
REMARK INTER + INTRA:          27.931
REMARK INTER:                  28.243
REMARK INTRA:                  -0.312
REMARK UNBOUND:                -0.765
REMARK SMILES CCCCCCCCCCCCCCCCCCCCCC(=O)[O-]
REMARK SMILES IDX 12 1 11 2 10 3 9 4 8 5 7 6 6 7 5 8 4 9 3 10 2 11 1 12 13 13
REMARK SMILES IDX 14 14 15 15 16 16 17 17 18 18 19 19 20 20 21 21 22 22 23 23
REMARK SMILES IDX 24 24
REMARK H PARENT
REMARK Flexibility Score: inf
ROOT
ATOM      1  C   UNL     1       8.960 -29.518 -11.758  1.00  0.00     0.000 C 
ENDROOT
BRANCH   1   2
ATOM      2  C   UNL     1       8.120 -30.031 -12.942  1.00  0.00     0.000 C 
BRANCH   2   3
ATOM      3  C   UNL     1       8.815 -29.957 -14.314  1.00  0.00     0.000 C 
BRANCH   3   4
ATOM      4  C   UNL     1       9.464 -31.287 -14.726  1.00  0.00    -0.000 C 
BRANCH   4   5
ATOM      5  C   UNL     1       9.447 -31.455 -16.254  1.00  0.00    -0.000 C 
BRANCH   5   6
ATOM      6  C   UNL     1       8.926 -30.205 -16.982  1.00  0.00    -0.000 C 
BRANCH   6   7
ATOM      7  C   UNL     1       9.605 -29.993 -18.346  1.00  0.00    -0.000 C 
BRANCH   7   8
ATOM      8  C   UNL     1       8.626 -29.509 -19.433  1.00  0.00    -0.000 C 
BRANCH   8   9
ATOM      9  C   UNL     1       7.328 -28.871 -18.905  1.00  0.00    -0.000 C 
BRANCH   9  10
ATOM     10  C   UNL     1       6.235 -28.642 -19.966  1.00  0.00    -0.000 C 
BRANCH  10  11
ATOM     11  C   UNL     1       6.655 -29.062 -21.391  1.00  0.00    -0.003 C 
ATOM     12  C   UNL     1       6.593 -27.905 -22.388  1.00  0.00     0.004 C 
ENDBRANCH  10  11
ENDBRANCH   9  10
ENDBRANCH   8   9
ENDBRANCH   7   8
ENDBRANCH   6   7
ENDBRANCH   5   6
ENDBRANCH   4   5
ENDBRANCH   3   4
ENDBRANCH   2   3
ENDBRANCH   1   2
BRANCH   1  13
ATOM     13  C   UNL     1       8.129 -29.285 -10.488  1.00  0.00     0.000 C 
BRANCH  13  14
ATOM     14  C   UNL     1       9.037 -29.162  -9.254  1.00  0.00     0.000 C 
BRANCH  14  15
ATOM     15  C   UNL     1       9.968 -27.936  -9.311  1.00  0.00     0.000 C 
BRANCH  15  16
ATOM     16  C   UNL     1       9.254 -26.572  -9.276  1.00  0.00     0.000 C 
BRANCH  16  17
ATOM     17  C   UNL     1       8.622 -26.259  -7.912  1.00  0.00     0.000 C 
BRANCH  17  18
ATOM     18  C   UNL     1       8.510 -24.745  -7.691  1.00  0.00     0.000 C 
BRANCH  18  19
ATOM     19  C   UNL     1       7.411 -24.420  -6.668  1.00  0.00     0.000 C 
BRANCH  19  20
ATOM     20  C   UNL     1       7.840 -24.708  -5.222  1.00  0.00     0.006 C 
BRANCH  20  21
ATOM     21  C   UNL     1       8.773 -25.922  -5.109  1.00  0.00     0.053 C 
BRANCH  21  22
ATOM     22  C   UNL     1      10.054 -25.538  -4.438  1.00  0.00     0.041 C 
ATOM     23  O   UNL     1      10.065 -24.640  -3.557  1.00  0.00    -0.550 OA
ATOM     24  O   UNL     1      11.247 -26.140  -4.821  1.00  0.00    -0.550 OA
ENDBRANCH  21  22
ENDBRANCH  20  21
ENDBRANCH  19  20
ENDBRANCH  18  19
ENDBRANCH  17  18
ENDBRANCH  16  17
ENDBRANCH  15  16
ENDBRANCH  14  15
ENDBRANCH  13  14
ENDBRANCH   1  13
TORSDOF 20
ENDMDL
MODEL 8
REMARK VINA RESULT:    13.390      1.103      1.703
REMARK INTER + INTRA:          28.281
REMARK INTER:                  27.652
REMARK INTRA:                   0.628
REMARK UNBOUND:                -0.765
REMARK SMILES CCCCCCCCCCCCCCCCCCCCCC(=O)[O-]
REMARK SMILES IDX 12 1 11 2 10 3 9 4 8 5 7 6 6 7 5 8 4 9 3 10 2 11 1 12 13 13
REMARK SMILES IDX 14 14 15 15 16 16 17 17 18 18 19 19 20 20 21 21 22 22 23 23
REMARK SMILES IDX 24 24
REMARK H PARENT
REMARK Flexibility Score: inf
ROOT
ATOM      1  C   UNL     1       9.131 -30.090 -13.035  1.00  0.00     0.000 C 
ENDROOT
BRANCH   1   2
ATOM      2  C   UNL     1       7.895 -29.941 -12.128  1.00  0.00     0.000 C 
BRANCH   2   3
ATOM      3  C   UNL     1       8.078 -28.990 -10.931  1.00  0.00     0.000 C 
BRANCH   3   4
ATOM      4  C   UNL     1       8.845 -29.635  -9.768  1.00  0.00    -0.000 C 
BRANCH   4   5
ATOM      5  C   UNL     1       9.176 -28.596  -8.686  1.00  0.00    -0.000 C 
BRANCH   5   6
ATOM      6  C   UNL     1      10.066 -27.457  -9.209  1.00  0.00    -0.000 C 
BRANCH   6   7
ATOM      7  C   UNL     1       9.255 -26.341  -9.890  1.00  0.00    -0.000 C 
BRANCH   7   8
ATOM      8  C   UNL     1       8.282 -25.636  -8.926  1.00  0.00    -0.000 C 
BRANCH   8   9
ATOM      9  C   UNL     1       8.719 -25.624  -7.449  1.00  0.00    -0.000 C 
BRANCH   9  10
ATOM     10  C   UNL     1       7.828 -24.788  -6.511  1.00  0.00    -0.000 C 
BRANCH  10  11
ATOM     11  C   UNL     1       8.350 -24.715  -5.061  1.00  0.00    -0.003 C 
ATOM     12  C   UNL     1       9.446 -25.742  -4.777  1.00  0.00     0.004 C 
ENDBRANCH  10  11
ENDBRANCH   9  10
ENDBRANCH   8   9
ENDBRANCH   7   8
ENDBRANCH   6   7
ENDBRANCH   5   6
ENDBRANCH   4   5
ENDBRANCH   3   4
ENDBRANCH   2   3
ENDBRANCH   1   2
BRANCH   1  13
ATOM     13  C   UNL     1       8.790 -30.024 -14.531  1.00  0.00     0.000 C 
BRANCH  13  14
ATOM     14  C   UNL     1       9.817 -30.808 -15.362  1.00  0.00     0.000 C 
BRANCH  14  15
ATOM     15  C   UNL     1       9.300 -31.178 -16.765  1.00  0.00     0.000 C 
BRANCH  15  16
ATOM     16  C   UNL     1       9.024 -29.983 -17.696  1.00  0.00     0.000 C 
BRANCH  16  17
ATOM     17  C   UNL     1       8.040 -28.968 -17.096  1.00  0.00     0.000 C 
BRANCH  17  18
ATOM     18  C   UNL     1       6.695 -29.002 -17.833  1.00  0.00     0.000 C 
BRANCH  18  19
ATOM     19  C   UNL     1       6.843 -28.477 -19.268  1.00  0.00     0.000 C 
BRANCH  19  20
ATOM     20  C   UNL     1       6.761 -29.591 -20.322  1.00  0.00     0.006 C 
BRANCH  20  21
ATOM     21  C   UNL     1       6.022 -29.152 -21.593  1.00  0.00     0.053 C 
BRANCH  21  22
ATOM     22  C   UNL     1       6.694 -27.964 -22.207  1.00  0.00     0.041 C 
ATOM     23  O   UNL     1       6.123 -27.314 -23.121  1.00  0.00    -0.550 OA
ATOM     24  O   UNL     1       7.974 -27.603 -21.802  1.00  0.00    -0.550 OA
ENDBRANCH  21  22
ENDBRANCH  20  21
ENDBRANCH  19  20
ENDBRANCH  18  19
ENDBRANCH  17  18
ENDBRANCH  16  17
ENDBRANCH  15  16
ENDBRANCH  14  15
ENDBRANCH  13  14
ENDBRANCH   1  13
TORSDOF 20
ENDMDL
MODEL 9
REMARK VINA RESULT:    13.425      5.270     11.796
REMARK INTER + INTRA:          28.356
REMARK INTER:                  29.415
REMARK INTRA:                  -1.058
REMARK UNBOUND:                -0.765
REMARK SMILES CCCCCCCCCCCCCCCCCCCCCC(=O)[O-]
REMARK SMILES IDX 12 1 11 2 10 3 9 4 8 5 7 6 6 7 5 8 4 9 3 10 2 11 1 12 13 13
REMARK SMILES IDX 14 14 15 15 16 16 17 17 18 18 19 19 20 20 21 21 22 22 23 23
REMARK SMILES IDX 24 24
REMARK H PARENT
REMARK Flexibility Score: inf
ROOT
ATOM      1  C   UNL     1       9.152 -28.973  -9.660  1.00  0.00     0.000 C 
ENDROOT
BRANCH   1   2
ATOM      2  C   UNL     1      10.004 -30.118 -10.241  1.00  0.00     0.000 C 
BRANCH   2   3
ATOM      3  C   UNL     1      10.354 -29.975 -11.733  1.00  0.00     0.000 C 
BRANCH   3   4
ATOM      4  C   UNL     1       9.176 -30.312 -12.658  1.00  0.00    -0.000 C 
BRANCH   4   5
ATOM      5  C   UNL     1       9.580 -30.177 -14.134  1.00  0.00    -0.000 C 
BRANCH   5   6
ATOM      6  C   UNL     1       9.117 -31.368 -14.988  1.00  0.00    -0.000 C 
BRANCH   6   7
ATOM      7  C   UNL     1       9.410 -31.169 -16.484  1.00  0.00    -0.000 C 
BRANCH   7   8
ATOM      8  C   UNL     1       9.231 -29.709 -16.940  1.00  0.00    -0.000 C 
BRANCH   8   9
ATOM      9  C   UNL     1       7.823 -29.124 -16.722  1.00  0.00    -0.000 C 
BRANCH   9  10
ATOM     10  C   UNL     1       6.864 -29.270 -17.919  1.00  0.00    -0.000 C 
BRANCH  10  11
ATOM     11  C   UNL     1       7.518 -28.958 -19.281  1.00  0.00    -0.003 C 
ATOM     12  C   UNL     1       6.491 -28.655 -20.372  1.00  0.00     0.004 C 
ENDBRANCH  10  11
ENDBRANCH   9  10
ENDBRANCH   8   9
ENDBRANCH   7   8
ENDBRANCH   6   7
ENDBRANCH   5   6
ENDBRANCH   4   5
ENDBRANCH   3   4
ENDBRANCH   2   3
ENDBRANCH   1   2
BRANCH   1  13
ATOM     13  C   UNL     1       9.966 -27.700  -9.387  1.00  0.00     0.000 C 
BRANCH  13  14
ATOM     14  C   UNL     1       9.044 -26.477  -9.259  1.00  0.00     0.000 C 
BRANCH  14  15
ATOM     15  C   UNL     1       8.842 -26.024  -7.801  1.00  0.00     0.000 C 
BRANCH  15  16
ATOM     16  C   UNL     1       8.248 -24.614  -7.631  1.00  0.00     0.000 C 
BRANCH  16  17
ATOM     17  C   UNL     1       7.774 -24.329  -6.199  1.00  0.00     0.000 C 
BRANCH  17  18
ATOM     18  C   UNL     1       8.086 -25.509  -5.270  1.00  0.00     0.000 C 
BRANCH  18  19
ATOM     19  C   UNL     1       9.241 -25.167  -4.318  1.00  0.00     0.000 C 
BRANCH  19  20
ATOM     20  C   UNL     1      10.386 -26.189  -4.378  1.00  0.00     0.006 C 
BRANCH  20  21
ATOM     21  C   UNL     1      11.576 -25.700  -5.213  1.00  0.00     0.053 C 
BRANCH  21  22
ATOM     22  C   UNL     1      12.735 -26.635  -5.072  1.00  0.00     0.041 C 
ATOM     23  O   UNL     1      13.757 -26.493  -5.793  1.00  0.00    -0.550 OA
ATOM     24  O   UNL     1      12.668 -27.697  -4.177  1.00  0.00    -0.550 OA
ENDBRANCH  21  22
ENDBRANCH  20  21
ENDBRANCH  19  20
ENDBRANCH  18  19
ENDBRANCH  17  18
ENDBRANCH  16  17
ENDBRANCH  15  16
ENDBRANCH  14  15
ENDBRANCH  13  14
ENDBRANCH   1  13
TORSDOF 20
ENDMDL
