MODEL 1
REMARK VINA RESULT:    -5.610      0.000      0.000
REMARK INTER + INTRA:          -6.871
REMARK INTER:                  -6.593
REMARK INTRA:                  -0.278
REMARK UNBOUND:                -0.278
REMARK SMILES O=c1cc(-c2ccc(O)c(O)c2)oc2cc(O)cc(O)c12
REMARK SMILES IDX 4 1 3 2 2 3 1 4 21 5 19 6 18 7 16 8 15 9 14 10 13 11 5 12
REMARK SMILES IDX 6 13 7 14 8 15 12 16 10 17 9 18 11 20 20 22 17 24
REMARK H PARENT 9 19 11 21 20 23 17 25
REMARK Flexibility Score: inf
ROOT
ATOM      1  C   UNL     1       7.933  -2.995   9.584  1.00  0.00     0.138 A 
ATOM      2  C   UNL     1       7.965  -3.944   8.551  1.00  0.00     0.100 A 
ATOM      3  C   UNL     1       7.608  -5.265   8.818  1.00  0.00     0.197 A 
ATOM      4  O   UNL     1       7.706  -6.106   7.886  1.00  0.00    -0.289 OA
ATOM      5  C   UNL     1       7.185  -5.632  10.117  1.00  0.00     0.107 A 
ATOM      6  C   UNL     1       6.759  -6.941  10.494  1.00  0.00     0.134 A 
ATOM      7  C   UNL     1       6.474  -7.214  11.838  1.00  0.00     0.093 A 
ATOM      8  C   UNL     1       6.543  -6.209  12.807  1.00  0.00     0.123 A 
ATOM      9  C   UNL     1       6.907  -4.916  12.440  1.00  0.00     0.094 A 
ATOM     10  C   UNL     1       7.230  -4.621  11.114  1.00  0.00     0.146 A 
ATOM     11  O   UNL     1       7.586  -3.378  10.808  1.00  0.00    -0.456 OA
ENDROOT
BRANCH   1  12
ATOM     12  C   UNL     1       8.303  -1.575   9.356  1.00  0.00     0.021 A 
ATOM     13  C   UNL     1       7.583  -0.816   8.416  1.00  0.00     0.016 A 
ATOM     14  C   UNL     1       7.915   0.519   8.177  1.00  0.00     0.051 A 
ATOM     15  C   UNL     1       8.979   1.117   8.865  1.00  0.00     0.157 A 
ATOM     16  C   UNL     1       9.380  -0.972  10.033  1.00  0.00     0.062 A 
ATOM     17  C   UNL     1       9.717   0.365   9.794  1.00  0.00     0.158 A 
BRANCH  15  18
ATOM     18  O   UNL     1       9.307   2.451   8.626  1.00  0.00    -0.504 OA
ATOM     19  H   UNL     1       8.594   3.169   8.560  1.00  0.00     0.293 HD
ENDBRANCH  15  18
BRANCH  17  20
ATOM     20  O   UNL     1      10.788   0.928  10.485  1.00  0.00    -0.504 OA
ATOM     21  H   UNL     1      11.739   0.596  10.370  1.00  0.00     0.293 HD
ENDBRANCH  17  20
ENDBRANCH   1  12
BRANCH   6  22
ATOM     22  O   UNL     1       6.574  -7.993   9.592  1.00  0.00    -0.507 OA
ATOM     23  H   UNL     1       6.307  -7.883   8.625  1.00  0.00     0.293 HD
ENDBRANCH   6  22
BRANCH   8  24
ATOM     24  O   UNL     1       6.243  -6.487  14.140  1.00  0.00    -0.508 OA
ATOM     25  H   UNL     1       5.750  -7.330  14.408  1.00  0.00     0.293 HD
ENDBRANCH   8  24
TORSDOF 5
ENDMDL
MODEL 2
REMARK VINA RESULT:    -5.390      1.757      7.015
REMARK INTER + INTRA:          -6.613
REMARK INTER:                  -6.297
REMARK INTRA:                  -0.316
REMARK UNBOUND:                -0.278
REMARK SMILES O=c1cc(-c2ccc(O)c(O)c2)oc2cc(O)cc(O)c12
REMARK SMILES IDX 4 1 3 2 2 3 1 4 21 5 19 6 18 7 16 8 15 9 14 10 13 11 5 12
REMARK SMILES IDX 6 13 7 14 8 15 12 16 10 17 9 18 11 20 20 22 17 24
REMARK H PARENT 9 19 11 21 20 23 17 25
REMARK Flexibility Score: inf
ROOT
ATOM      1  C   UNL     1       7.593  -2.560   9.614  1.00  0.00     0.138 A 
ATOM      2  C   UNL     1       6.617  -1.864   8.884  1.00  0.00     0.100 A 
ATOM      3  C   UNL     1       6.809  -0.515   8.587  1.00  0.00     0.197 A 
ATOM      4  O   UNL     1       5.888   0.097   7.985  1.00  0.00    -0.289 OA
ATOM      5  C   UNL     1       7.999   0.133   8.994  1.00  0.00     0.107 A 
ATOM      6  C   UNL     1       8.321   1.494   8.711  1.00  0.00     0.134 A 
ATOM      7  C   UNL     1       9.475   2.060   9.265  1.00  0.00     0.093 A 
ATOM      8  C   UNL     1      10.350   1.296  10.042  1.00  0.00     0.123 A 
ATOM      9  C   UNL     1      10.072  -0.047  10.280  1.00  0.00     0.094 A 
ATOM     10  C   UNL     1       8.911  -0.631   9.770  1.00  0.00     0.146 A 
ATOM     11  O   UNL     1       8.676  -1.913  10.032  1.00  0.00    -0.456 OA
ENDROOT
BRANCH   1  12
ATOM     12  C   UNL     1       7.440  -3.995   9.957  1.00  0.00     0.021 A 
ATOM     13  C   UNL     1       6.189  -4.617   9.792  1.00  0.00     0.016 A 
ATOM     14  C   UNL     1       6.017  -5.964  10.115  1.00  0.00     0.051 A 
ATOM     15  C   UNL     1       7.088  -6.713  10.619  1.00  0.00     0.157 A 
ATOM     16  C   UNL     1       8.509  -4.751  10.477  1.00  0.00     0.062 A 
ATOM     17  C   UNL     1       8.339  -6.101  10.803  1.00  0.00     0.158 A 
BRANCH  15  18
ATOM     18  O   UNL     1       6.913  -8.059  10.938  1.00  0.00    -0.504 OA
ATOM     19  H   UNL     1       7.469  -8.510  11.656  1.00  0.00     0.293 HD
ENDBRANCH  15  18
BRANCH  17  20
ATOM     20  O   UNL     1       9.421  -6.817  11.314  1.00  0.00    -0.504 OA
ATOM     21  H   UNL     1       9.300  -7.597  11.948  1.00  0.00     0.293 HD
ENDBRANCH  17  20
ENDBRANCH   1  12
BRANCH   6  22
ATOM     22  O   UNL     1       7.560   2.320   7.877  1.00  0.00    -0.507 OA
ATOM     23  H   UNL     1       7.222   2.061   6.962  1.00  0.00     0.293 HD
ENDBRANCH   6  22
BRANCH   8  24
ATOM     24  O   UNL     1      11.505   1.865  10.578  1.00  0.00    -0.508 OA
ATOM     25  H   UNL     1      11.668   2.864  10.545  1.00  0.00     0.293 HD
ENDBRANCH   8  24
TORSDOF 5
ENDMDL
MODEL 3
REMARK VINA RESULT:    -4.996      3.051      4.229
REMARK INTER + INTRA:          -6.151
REMARK INTER:                  -5.863
REMARK INTRA:                  -0.288
REMARK UNBOUND:                -0.278
REMARK SMILES O=c1cc(-c2ccc(O)c(O)c2)oc2cc(O)cc(O)c12
REMARK SMILES IDX 4 1 3 2 2 3 1 4 21 5 19 6 18 7 16 8 15 9 14 10 13 11 5 12
REMARK SMILES IDX 6 13 7 14 8 15 12 16 10 17 9 18 11 20 20 22 17 24
REMARK H PARENT 9 19 11 21 20 23 17 25
REMARK Flexibility Score: inf
ROOT
ATOM      1  C   UNL     1       8.067  -5.889  11.189  1.00  0.00     0.138 A 
ATOM      2  C   UNL     1       6.885  -6.496  11.636  1.00  0.00     0.100 A 
ATOM      3  C   UNL     1       6.954  -7.644  12.425  1.00  0.00     0.197 A 
ATOM      4  O   UNL     1       5.875  -8.201  12.758  1.00  0.00    -0.289 OA
ATOM      5  C   UNL     1       8.215  -8.168  12.796  1.00  0.00     0.107 A 
ATOM      6  C   UNL     1       8.406  -9.310  13.631  1.00  0.00     0.134 A 
ATOM      7  C   UNL     1       9.700  -9.806  13.834  1.00  0.00     0.093 A 
ATOM      8  C   UNL     1      10.813  -9.166  13.282  1.00  0.00     0.123 A 
ATOM      9  C   UNL     1      10.640  -8.020  12.509  1.00  0.00     0.094 A 
ATOM     10  C   UNL     1       9.360  -7.521  12.260  1.00  0.00     0.146 A 
ATOM     11  O   UNL     1       9.238  -6.433  11.505  1.00  0.00    -0.456 OA
ENDROOT
BRANCH   1  12
ATOM     12  C   UNL     1       8.052  -4.666  10.348  1.00  0.00     0.021 A 
ATOM     13  C   UNL     1       7.231  -4.622   9.207  1.00  0.00     0.016 A 
ATOM     14  C   UNL     1       7.204  -3.486   8.394  1.00  0.00     0.051 A 
ATOM     15  C   UNL     1       8.004  -2.378   8.701  1.00  0.00     0.157 A 
ATOM     16  C   UNL     1       8.864  -3.553  10.642  1.00  0.00     0.062 A 
ATOM     17  C   UNL     1       8.840  -2.415   9.829  1.00  0.00     0.158 A 
BRANCH  15  18
ATOM     18  O   UNL     1       7.972  -1.245   7.889  1.00  0.00    -0.504 OA
ATOM     19  H   UNL     1       8.055  -0.312   8.277  1.00  0.00     0.293 HD
ENDBRANCH  15  18
BRANCH  17  20
ATOM     20  O   UNL     1       9.657  -1.333  10.154  1.00  0.00    -0.504 OA
ATOM     21  H   UNL     1      10.487  -1.105   9.620  1.00  0.00     0.293 HD
ENDBRANCH  17  20
ENDBRANCH   1  12
BRANCH   6  22
ATOM     22  O   UNL     1       7.372  -9.971  14.299  1.00  0.00    -0.507 OA
ATOM     23  H   UNL     1       7.493 -10.772  14.901  1.00  0.00     0.293 HD
ENDBRANCH   6  22
BRANCH   8  24
ATOM     24  O   UNL     1      12.098  -9.659  13.502  1.00  0.00    -0.508 OA
ATOM     25  H   UNL     1      12.412 -10.525  13.082  1.00  0.00     0.293 HD
ENDBRANCH   8  24
TORSDOF 5
ENDMDL
MODEL 4
REMARK VINA RESULT:    -4.364      2.054      4.034
REMARK INTER + INTRA:          -5.407
REMARK INTER:                  -5.141
REMARK INTRA:                  -0.266
REMARK UNBOUND:                -0.278
REMARK SMILES O=c1cc(-c2ccc(O)c(O)c2)oc2cc(O)cc(O)c12
REMARK SMILES IDX 4 1 3 2 2 3 1 4 21 5 19 6 18 7 16 8 15 9 14 10 13 11 5 12
REMARK SMILES IDX 6 13 7 14 8 15 12 16 10 17 9 18 11 20 20 22 17 24
REMARK H PARENT 9 19 11 21 20 23 17 25
REMARK Flexibility Score: inf
ROOT
ATOM      1  C   UNL     1       7.067  -5.023  11.349  1.00  0.00     0.138 A 
ATOM      2  C   UNL     1       6.860  -4.842  12.724  1.00  0.00     0.100 A 
ATOM      3  C   UNL     1       6.513  -5.934  13.519  1.00  0.00     0.197 A 
ATOM      4  O   UNL     1       6.272  -5.729  14.737  1.00  0.00    -0.289 OA
ATOM      5  C   UNL     1       6.403  -7.220  12.939  1.00  0.00     0.107 A 
ATOM      6  C   UNL     1       6.095  -8.413  13.659  1.00  0.00     0.134 A 
ATOM      7  C   UNL     1       5.898  -9.610  12.960  1.00  0.00     0.093 A 
ATOM      8  C   UNL     1       6.059  -9.669  11.573  1.00  0.00     0.123 A 
ATOM      9  C   UNL     1       6.412  -8.522  10.867  1.00  0.00     0.094 A 
ATOM     10  C   UNL     1       6.581  -7.306  11.532  1.00  0.00     0.146 A 
ATOM     11  O   UNL     1       6.904  -6.231  10.820  1.00  0.00    -0.456 OA
ENDROOT
BRANCH   1  12
ATOM     12  C   UNL     1       7.439  -3.896  10.457  1.00  0.00     0.021 A 
ATOM     13  C   UNL     1       8.713  -3.876   9.863  1.00  0.00     0.016 A 
ATOM     14  C   UNL     1       9.091  -2.823   9.027  1.00  0.00     0.051 A 
ATOM     15  C   UNL     1       8.206  -1.766   8.777  1.00  0.00     0.157 A 
ATOM     16  C   UNL     1       6.560  -2.823  10.212  1.00  0.00     0.062 A 
ATOM     17  C   UNL     1       6.936  -1.766   9.377  1.00  0.00     0.158 A 
BRANCH  15  18
ATOM     18  O   UNL     1       8.585  -0.718   7.939  1.00  0.00    -0.504 OA
ATOM     19  H   UNL     1       8.122   0.183   7.975  1.00  0.00     0.293 HD
ENDBRANCH  15  18
BRANCH  17  20
ATOM     20  O   UNL     1       6.037  -0.723   9.156  1.00  0.00    -0.504 OA
ATOM     21  H   UNL     1       6.346   0.224   8.971  1.00  0.00     0.293 HD
ENDBRANCH  17  20
ENDBRANCH   1  12
BRANCH   6  22
ATOM     22  O   UNL     1       5.997  -8.481  15.052  1.00  0.00    -0.507 OA
ATOM     23  H   UNL     1       5.145  -8.357  15.577  1.00  0.00     0.293 HD
ENDBRANCH   6  22
BRANCH   8  24
ATOM     24  O   UNL     1       5.876 -10.869  10.887  1.00  0.00    -0.508 OA
ATOM     25  H   UNL     1       6.518 -11.169  10.164  1.00  0.00     0.293 HD
ENDBRANCH   8  24
TORSDOF 5
ENDMDL
MODEL 5
REMARK VINA RESULT:    -4.323      3.127      8.088
REMARK INTER + INTRA:          -5.359
REMARK INTER:                  -5.041
REMARK INTRA:                  -0.318
REMARK UNBOUND:                -0.278
REMARK SMILES O=c1cc(-c2ccc(O)c(O)c2)oc2cc(O)cc(O)c12
REMARK SMILES IDX 4 1 3 2 2 3 1 4 21 5 19 6 18 7 16 8 15 9 14 10 13 11 5 12
REMARK SMILES IDX 6 13 7 14 8 15 12 16 10 17 9 18 11 20 20 22 17 24
REMARK H PARENT 9 19 11 21 20 23 17 25
REMARK Flexibility Score: inf
ROOT
ATOM      1  C   UNL     1       7.486  -6.983  12.547  1.00  0.00     0.138 A 
ATOM      2  C   UNL     1       6.586  -5.913  12.654  1.00  0.00     0.100 A 
ATOM      3  C   UNL     1       6.655  -4.859  11.743  1.00  0.00     0.197 A 
ATOM      4  O   UNL     1       5.875  -3.884  11.903  1.00  0.00    -0.289 OA
ATOM      5  C   UNL     1       7.610  -4.893  10.700  1.00  0.00     0.107 A 
ATOM      6  C   UNL     1       7.746  -3.893   9.689  1.00  0.00     0.134 A 
ATOM      7  C   UNL     1       8.804  -3.974   8.776  1.00  0.00     0.093 A 
ATOM      8  C   UNL     1       9.695  -5.051   8.799  1.00  0.00     0.123 A 
ATOM      9  C   UNL     1       9.539  -6.058   9.748  1.00  0.00     0.094 A 
ATOM     10  C   UNL     1       8.515  -5.988  10.694  1.00  0.00     0.146 A 
ATOM     11  O   UNL     1       8.410  -6.963  11.591  1.00  0.00    -0.456 OA
ENDROOT
BRANCH   1  12
ATOM     12  C   UNL     1       7.456  -8.130  13.489  1.00  0.00     0.021 A 
ATOM     13  C   UNL     1       6.463  -8.182  14.483  1.00  0.00     0.016 A 
ATOM     14  C   UNL     1       6.418  -9.247  15.386  1.00  0.00     0.051 A 
ATOM     15  C   UNL     1       7.370 -10.272  15.319  1.00  0.00     0.157 A 
ATOM     16  C   UNL     1       8.418  -9.157  13.436  1.00  0.00     0.062 A 
ATOM     17  C   UNL     1       8.376 -10.223  14.341  1.00  0.00     0.158 A 
BRANCH  15  18
ATOM     18  O   UNL     1       7.320 -11.334  16.221  1.00  0.00    -0.504 OA
ATOM     19  H   UNL     1       6.709 -11.316  17.030  1.00  0.00     0.293 HD
ENDBRANCH  15  18
BRANCH  17  20
ATOM     20  O   UNL     1       9.345 -11.223  14.256  1.00  0.00    -0.504 OA
ATOM     21  H   UNL     1      10.318 -11.015  14.069  1.00  0.00     0.293 HD
ENDBRANCH  17  20
ENDBRANCH   1  12
BRANCH   6  22
ATOM     22  O   UNL     1       6.860  -2.824   9.524  1.00  0.00    -0.507 OA
ATOM     23  H   UNL     1       6.582  -2.437   8.635  1.00  0.00     0.293 HD
ENDBRANCH   6  22
BRANCH   8  24
ATOM     24  O   UNL     1      10.737  -5.131   7.877  1.00  0.00    -0.508 OA
ATOM     25  H   UNL     1      11.099  -4.306   7.414  1.00  0.00     0.293 HD
ENDBRANCH   8  24
TORSDOF 5
ENDMDL
MODEL 6
REMARK VINA RESULT:    -4.320      3.792      5.866
REMARK INTER + INTRA:          -5.355
REMARK INTER:                  -5.045
REMARK INTRA:                  -0.310
REMARK UNBOUND:                -0.278
REMARK SMILES O=c1cc(-c2ccc(O)c(O)c2)oc2cc(O)cc(O)c12
REMARK SMILES IDX 4 1 3 2 2 3 1 4 21 5 19 6 18 7 16 8 15 9 14 10 13 11 5 12
REMARK SMILES IDX 6 13 7 14 8 15 12 16 10 17 9 18 11 20 20 22 17 24
REMARK H PARENT 9 19 11 21 20 23 17 25
REMARK Flexibility Score: inf
ROOT
ATOM      1  C   UNL     1       7.851  -7.458  12.410  1.00  0.00     0.138 A 
ATOM      2  C   UNL     1       6.761  -8.266  12.767  1.00  0.00     0.100 A 
ATOM      3  C   UNL     1       6.989  -9.524  13.326  1.00  0.00     0.197 A 
ATOM      4  O   UNL     1       5.993 -10.251  13.578  1.00  0.00    -0.289 OA
ATOM      5  C   UNL     1       8.315  -9.960  13.559  1.00  0.00     0.107 A 
ATOM      6  C   UNL     1       8.666 -11.206  14.161  1.00  0.00     0.134 A 
ATOM      7  C   UNL     1      10.013 -11.581  14.235  1.00  0.00     0.093 A 
ATOM      8  C   UNL     1      11.024 -10.729  13.782  1.00  0.00     0.123 A 
ATOM      9  C   UNL     1      10.694  -9.489  13.241  1.00  0.00     0.094 A 
ATOM     10  C   UNL     1       9.358  -9.100  13.123  1.00  0.00     0.146 A 
ATOM     11  O   UNL     1       9.086  -7.915  12.588  1.00  0.00    -0.456 OA
ENDROOT
BRANCH   1  12
ATOM     12  C   UNL     1       7.665  -6.112  11.812  1.00  0.00     0.021 A 
ATOM     13  C   UNL     1       6.464  -5.416  12.035  1.00  0.00     0.016 A 
ATOM     14  C   UNL     1       6.262  -4.151  11.477  1.00  0.00     0.051 A 
ATOM     15  C   UNL     1       7.251  -3.564  10.678  1.00  0.00     0.157 A 
ATOM     16  C   UNL     1       8.650  -5.521  10.997  1.00  0.00     0.062 A 
ATOM     17  C   UNL     1       8.449  -4.256  10.435  1.00  0.00     0.158 A 
BRANCH  15  18
ATOM     18  O   UNL     1       7.047  -2.301  10.125  1.00  0.00    -0.504 OA
ATOM     19  H   UNL     1       6.491  -2.172   9.288  1.00  0.00     0.293 HD
ENDBRANCH  15  18
BRANCH  17  20
ATOM     20  O   UNL     1       9.448  -3.703   9.635  1.00  0.00    -0.504 OA
ATOM     21  H   UNL     1       9.578  -3.977   8.668  1.00  0.00     0.293 HD
ENDBRANCH  17  20
ENDBRANCH   1  12
BRANCH   6  22
ATOM     22  O   UNL     1       7.741 -12.091  14.722  1.00  0.00    -0.507 OA
ATOM     23  H   UNL     1       7.920 -13.064  14.920  1.00  0.00     0.293 HD
ENDBRANCH   6  22
BRANCH   8  24
ATOM     24  O   UNL     1      12.363 -11.105  13.873  1.00  0.00    -0.508 OA
ATOM     25  H   UNL     1      13.070 -10.469  14.223  1.00  0.00     0.293 HD
ENDBRANCH   8  24
TORSDOF 5
ENDMDL
MODEL 7
REMARK VINA RESULT:    -4.139      3.742      5.618
REMARK INTER + INTRA:          -5.143
REMARK INTER:                  -4.854
REMARK INTRA:                  -0.288
REMARK UNBOUND:                -0.278
REMARK SMILES O=c1cc(-c2ccc(O)c(O)c2)oc2cc(O)cc(O)c12
REMARK SMILES IDX 4 1 3 2 2 3 1 4 21 5 19 6 18 7 16 8 15 9 14 10 13 11 5 12
REMARK SMILES IDX 6 13 7 14 8 15 12 16 10 17 9 18 11 20 20 22 17 24
REMARK H PARENT 9 19 11 21 20 23 17 25
REMARK Flexibility Score: inf
ROOT
ATOM      1  C   UNL     1       8.571  -7.252  12.350  1.00  0.00     0.138 A 
ATOM      2  C   UNL     1       9.919  -7.632  12.414  1.00  0.00     0.100 A 
ATOM      3  C   UNL     1      10.270  -8.829  13.039  1.00  0.00     0.197 A 
ATOM      4  O   UNL     1      11.493  -9.112  13.135  1.00  0.00    -0.289 OA
ATOM      5  C   UNL     1       9.261  -9.665  13.574  1.00  0.00     0.107 A 
ATOM      6  C   UNL     1       9.498 -10.927  14.198  1.00  0.00     0.134 A 
ATOM      7  C   UNL     1       8.433 -11.612  14.795  1.00  0.00     0.093 A 
ATOM      8  C   UNL     1       7.130 -11.109  14.738  1.00  0.00     0.123 A 
ATOM      9  C   UNL     1       6.881  -9.904  14.086  1.00  0.00     0.094 A 
ATOM     10  C   UNL     1       7.927  -9.181  13.510  1.00  0.00     0.146 A 
ATOM     11  O   UNL     1       7.649  -8.028  12.910  1.00  0.00    -0.456 OA
ENDROOT
BRANCH   1  12
ATOM     12  C   UNL     1       8.143  -5.990  11.696  1.00  0.00     0.021 A 
ATOM     13  C   UNL     1       6.975  -5.343  12.139  1.00  0.00     0.016 A 
ATOM     14  C   UNL     1       6.546  -4.159  11.535  1.00  0.00     0.051 A 
ATOM     15  C   UNL     1       7.270  -3.605  10.473  1.00  0.00     0.157 A 
ATOM     16  C   UNL     1       8.859  -5.434  10.618  1.00  0.00     0.062 A 
ATOM     17  C   UNL     1       8.430  -4.248  10.011  1.00  0.00     0.158 A 
BRANCH  15  18
ATOM     18  O   UNL     1       6.841  -2.421   9.874  1.00  0.00    -0.504 OA
ATOM     19  H   UNL     1       5.928  -2.027  10.072  1.00  0.00     0.293 HD
ENDBRANCH  15  18
BRANCH  17  20
ATOM     20  O   UNL     1       9.166  -3.727   8.947  1.00  0.00    -0.504 OA
ATOM     21  H   UNL     1       8.737  -3.489   8.061  1.00  0.00     0.293 HD
ENDBRANCH  17  20
ENDBRANCH   1  12
BRANCH   6  22
ATOM     22  O   UNL     1      10.745 -11.558  14.234  1.00  0.00    -0.507 OA
ATOM     23  H   UNL     1      10.900 -12.512  14.523  1.00  0.00     0.293 HD
ENDBRANCH   6  22
BRANCH   8  24
ATOM     24  O   UNL     1       6.074 -11.806  15.322  1.00  0.00    -0.508 OA
ATOM     25  H   UNL     1       5.650 -11.496  16.188  1.00  0.00     0.293 HD
ENDBRANCH   8  24
TORSDOF 5
ENDMDL
MODEL 8
REMARK VINA RESULT:    -4.052      1.543      3.235
REMARK INTER + INTRA:          -5.040
REMARK INTER:                  -4.770
REMARK INTRA:                  -0.270
REMARK UNBOUND:                -0.278
REMARK SMILES O=c1cc(-c2ccc(O)c(O)c2)oc2cc(O)cc(O)c12
REMARK SMILES IDX 4 1 3 2 2 3 1 4 21 5 19 6 18 7 16 8 15 9 14 10 13 11 5 12
REMARK SMILES IDX 6 13 7 14 8 15 12 16 10 17 9 18 11 20 20 22 17 24
REMARK H PARENT 9 19 11 21 20 23 17 25
REMARK Flexibility Score: inf
ROOT
ATOM      1  C   UNL     1       7.229  -3.718  10.293  1.00  0.00     0.138 A 
ATOM      2  C   UNL     1       6.941  -3.989  11.639  1.00  0.00     0.100 A 
ATOM      3  C   UNL     1       6.538  -5.271  12.013  1.00  0.00     0.197 A 
ATOM      4  O   UNL     1       6.227  -5.467  13.217  1.00  0.00    -0.289 OA
ATOM      5  C   UNL     1       6.454  -6.295  11.040  1.00  0.00     0.107 A 
ATOM      6  C   UNL     1       6.094  -7.649  11.314  1.00  0.00     0.134 A 
ATOM      7  C   UNL     1       5.931  -8.547  10.253  1.00  0.00     0.093 A 
ATOM      8  C   UNL     1       6.174  -8.156   8.933  1.00  0.00     0.123 A 
ATOM      9  C   UNL     1       6.577  -6.851   8.661  1.00  0.00     0.094 A 
ATOM     10  C   UNL     1       6.716  -5.922   9.695  1.00  0.00     0.146 A 
ATOM     11  O   UNL     1       7.089  -4.684   9.391  1.00  0.00    -0.456 OA
ENDROOT
BRANCH   1  12
ATOM     12  C   UNL     1       7.663  -2.373   9.840  1.00  0.00     0.021 A 
ATOM     13  C   UNL     1       8.968  -1.935  10.124  1.00  0.00     0.016 A 
ATOM     14  C   UNL     1       9.398  -0.670   9.716  1.00  0.00     0.051 A 
ATOM     15  C   UNL     1       8.529   0.183   9.025  1.00  0.00     0.157 A 
ATOM     16  C   UNL     1       6.789  -1.504   9.157  1.00  0.00     0.062 A 
ATOM     17  C   UNL     1       7.217  -0.236   8.749  1.00  0.00     0.158 A 
BRANCH  15  18
ATOM     18  O   UNL     1       8.962   1.444   8.617  1.00  0.00    -0.504 OA
ATOM     19  H   UNL     1       8.359   2.257   8.677  1.00  0.00     0.293 HD
ENDBRANCH  15  18
BRANCH  17  20
ATOM     20  O   UNL     1       6.324   0.595   8.074  1.00  0.00    -0.504 OA
ATOM     21  H   UNL     1       6.100   0.464   7.095  1.00  0.00     0.293 HD
ENDBRANCH  17  20
ENDBRANCH   1  12
BRANCH   6  22
ATOM     22  O   UNL     1       5.912  -8.164  12.601  1.00  0.00    -0.507 OA
ATOM     23  H   UNL     1       6.642  -8.267  13.290  1.00  0.00     0.293 HD
ENDBRANCH   6  22
BRANCH   8  24
ATOM     24  O   UNL     1       6.023  -9.062   7.885  1.00  0.00    -0.508 OA
ATOM     25  H   UNL     1       6.378  -8.862   6.957  1.00  0.00     0.293 HD
ENDBRANCH   8  24
TORSDOF 5
ENDMDL
