MODEL 1
REMARK VINA RESULT:    -5.733      0.000      0.000
REMARK INTER + INTRA:          -7.293
REMARK INTER:                  -6.906
REMARK INTRA:                  -0.387
REMARK UNBOUND:                -0.387
REMARK SMILES O=c1c(O)c(-c2ccc(O)cc2O)oc2cc(O)cc(O)c12
REMARK SMILES IDX 5 1 3 2 2 3 1 4 22 5 20 6 19 7 17 8 16 9 15 10 14 11 6 12
REMARK SMILES IDX 8 13 7 14 9 15 11 16 12 17 10 18 13 20 4 22 21 24 18 26
REMARK H PARENT 10 19 13 21 4 23 21 25 18 27
REMARK Flexibility Score: inf
ROOT
ATOM      1  C   UNL     1      -1.334 -17.357 -25.642  1.00  0.00     0.184 A 
ATOM      2  C   UNL     1      -2.100 -16.183 -25.701  1.00  0.00     0.208 A 
ATOM      3  C   UNL     1      -2.996 -15.903 -24.657  1.00  0.00     0.238 A 
ATOM      4  O   UNL     1      -3.720 -14.875 -24.742  1.00  0.00    -0.285 OA
ATOM      5  C   UNL     1      -3.100 -16.792 -23.562  1.00  0.00     0.111 A 
ATOM      6  C   UNL     1      -3.945 -16.588 -22.428  1.00  0.00     0.134 A 
ATOM      7  C   UNL     1      -4.065 -17.597 -21.466  1.00  0.00     0.093 A 
ATOM      8  C   UNL     1      -3.323 -18.774 -21.558  1.00  0.00     0.123 A 
ATOM      9  C   UNL     1      -2.448 -18.959 -22.630  1.00  0.00     0.094 A 
ATOM     10  C   UNL     1      -2.334 -17.987 -23.627  1.00  0.00     0.146 A 
ATOM     11  O   UNL     1      -1.500 -18.206 -24.636  1.00  0.00    -0.451 OA
ENDROOT
BRANCH   1  12
ATOM     12  C   UNL     1      -0.360 -17.703 -26.699  1.00  0.00     0.063 A 
ATOM     13  C   UNL     1       0.175 -19.000 -28.685  1.00  0.00     0.047 A 
ATOM     14  C   UNL     1      -0.722 -18.646 -27.675  1.00  0.00     0.020 A 
ATOM     15  C   UNL     1       1.452 -18.427 -28.725  1.00  0.00     0.119 A 
ATOM     16  C   UNL     1       1.830 -17.505 -27.743  1.00  0.00     0.093 A 
ATOM     17  C   UNL     1       0.936 -17.149 -26.722  1.00  0.00     0.130 A 
BRANCH  15  18
ATOM     18  O   UNL     1       2.354 -18.769 -29.729  1.00  0.00    -0.508 OA
ATOM     19  H   UNL     1       3.097 -19.440 -29.567  1.00  0.00     0.293 HD
ENDBRANCH  15  18
BRANCH  17  20
ATOM     20  O   UNL     1       1.343 -16.265 -25.722  1.00  0.00    -0.507 OA
ATOM     21  H   UNL     1       1.960 -16.557 -24.973  1.00  0.00     0.293 HD
ENDBRANCH  17  20
ENDBRANCH   1  12
BRANCH   2  22
ATOM     22  O   UNL     1      -1.990 -15.331 -26.804  1.00  0.00    -0.502 OA
ATOM     23  H   UNL     1      -2.026 -14.322 -26.717  1.00  0.00     0.293 HD
ENDBRANCH   2  22
BRANCH   6  24
ATOM     24  O   UNL     1      -4.660 -15.411 -22.191  1.00  0.00    -0.507 OA
ATOM     25  H   UNL     1      -4.500 -14.787 -21.413  1.00  0.00     0.293 HD
ENDBRANCH   6  24
BRANCH   8  26
ATOM     26  O   UNL     1      -3.456 -19.750 -20.573  1.00  0.00    -0.508 OA
ATOM     27  H   UNL     1      -3.639 -20.719 -20.809  1.00  0.00     0.293 HD
ENDBRANCH   8  26
TORSDOF 6
ENDMDL
MODEL 2
REMARK VINA RESULT:    -5.571      1.857      2.529
REMARK INTER + INTRA:          -7.098
REMARK INTER:                  -6.760
REMARK INTRA:                  -0.338
REMARK UNBOUND:                -0.387
REMARK SMILES O=c1c(O)c(-c2ccc(O)cc2O)oc2cc(O)cc(O)c12
REMARK SMILES IDX 5 1 3 2 2 3 1 4 22 5 20 6 19 7 17 8 16 9 15 10 14 11 6 12
REMARK SMILES IDX 8 13 7 14 9 15 11 16 12 17 10 18 13 20 4 22 21 24 18 26
REMARK H PARENT 10 19 13 21 4 23 21 25 18 27
REMARK Flexibility Score: inf
ROOT
ATOM      1  C   UNL     1      -1.369 -17.146 -24.335  1.00  0.00     0.184 A 
ATOM      2  C   UNL     1      -1.630 -16.185 -23.346  1.00  0.00     0.208 A 
ATOM      3  C   UNL     1      -2.385 -16.555 -22.221  1.00  0.00     0.238 A 
ATOM      4  O   UNL     1      -2.662 -15.676 -21.363  1.00  0.00    -0.285 OA
ATOM      5  C   UNL     1      -2.853 -17.885 -22.095  1.00  0.00     0.111 A 
ATOM      6  C   UNL     1      -3.592 -18.382 -20.979  1.00  0.00     0.134 A 
ATOM      7  C   UNL     1      -4.116 -19.679 -21.020  1.00  0.00     0.093 A 
ATOM      8  C   UNL     1      -3.873 -20.521 -22.105  1.00  0.00     0.123 A 
ATOM      9  C   UNL     1      -3.102 -20.067 -23.175  1.00  0.00     0.094 A 
ATOM     10  C   UNL     1      -2.596 -18.764 -23.181  1.00  0.00     0.146 A 
ATOM     11  O   UNL     1      -1.876 -18.366 -24.223  1.00  0.00    -0.451 OA
ENDROOT
BRANCH   1  12
ATOM     12  C   UNL     1      -0.567 -16.826 -25.535  1.00  0.00     0.063 A 
ATOM     13  C   UNL     1       1.531 -17.033 -26.746  1.00  0.00     0.047 A 
ATOM     14  C   UNL     1       0.744 -17.320 -25.629  1.00  0.00     0.020 A 
ATOM     15  C   UNL     1       1.023 -16.235 -27.779  1.00  0.00     0.119 A 
ATOM     16  C   UNL     1      -0.273 -15.719 -27.683  1.00  0.00     0.093 A 
ATOM     17  C   UNL     1      -1.067 -15.998 -26.561  1.00  0.00     0.130 A 
BRANCH  15  18
ATOM     18  O   UNL     1       1.798 -15.945 -28.899  1.00  0.00    -0.508 OA
ATOM     19  H   UNL     1       2.760 -16.254 -28.971  1.00  0.00     0.293 HD
ENDBRANCH  15  18
BRANCH  17  20
ATOM     20  O   UNL     1      -2.341 -15.436 -26.456  1.00  0.00    -0.507 OA
ATOM     21  H   UNL     1      -3.174 -15.959 -26.696  1.00  0.00     0.293 HD
ENDBRANCH  17  20
ENDBRANCH   1  12
BRANCH   2  22
ATOM     22  O   UNL     1      -1.170 -14.875 -23.505  1.00  0.00    -0.502 OA
ATOM     23  H   UNL     1      -0.617 -14.404 -22.799  1.00  0.00     0.293 HD
ENDBRANCH   2  22
BRANCH   6  24
ATOM     24  O   UNL     1      -3.815 -17.656 -19.805  1.00  0.00    -0.507 OA
ATOM     25  H   UNL     1      -4.038 -16.672 -19.771  1.00  0.00     0.293 HD
ENDBRANCH   6  24
BRANCH   8  26
ATOM     26  O   UNL     1      -4.398 -21.812 -22.104  1.00  0.00    -0.508 OA
ATOM     27  H   UNL     1      -5.265 -22.031 -21.627  1.00  0.00     0.293 HD
ENDBRANCH   8  26
TORSDOF 6
ENDMDL
MODEL 3
REMARK VINA RESULT:    -5.498      2.028      6.712
REMARK INTER + INTRA:          -7.009
REMARK INTER:                  -6.615
REMARK INTRA:                  -0.394
REMARK UNBOUND:                -0.387
REMARK SMILES O=c1c(O)c(-c2ccc(O)cc2O)oc2cc(O)cc(O)c12
REMARK SMILES IDX 5 1 3 2 2 3 1 4 22 5 20 6 19 7 17 8 16 9 15 10 14 11 6 12
REMARK SMILES IDX 8 13 7 14 9 15 11 16 12 17 10 18 13 20 4 22 21 24 18 26
REMARK H PARENT 10 19 13 21 4 23 21 25 18 27
REMARK Flexibility Score: inf
ROOT
ATOM      1  C   UNL     1      -2.366 -17.857 -23.361  1.00  0.00     0.184 A 
ATOM      2  C   UNL     1      -1.474 -17.177 -22.518  1.00  0.00     0.208 A 
ATOM      3  C   UNL     1      -0.268 -16.694 -23.051  1.00  0.00     0.238 A 
ATOM      4  O   UNL     1       0.553 -16.133 -22.278  1.00  0.00    -0.285 OA
ATOM      5  C   UNL     1       0.019 -16.883 -24.423  1.00  0.00     0.111 A 
ATOM      6  C   UNL     1       1.191 -16.400 -25.081  1.00  0.00     0.134 A 
ATOM      7  C   UNL     1       1.434 -16.757 -26.412  1.00  0.00     0.093 A 
ATOM      8  C   UNL     1       0.517 -17.522 -27.131  1.00  0.00     0.123 A 
ATOM      9  C   UNL     1      -0.661 -17.950 -26.518  1.00  0.00     0.094 A 
ATOM     10  C   UNL     1      -0.914 -17.641 -25.179  1.00  0.00     0.146 A 
ATOM     11  O   UNL     1      -2.041 -18.077 -24.628  1.00  0.00    -0.451 OA
ENDROOT
BRANCH   1  12
ATOM     12  C   UNL     1      -3.659 -18.376 -22.867  1.00  0.00     0.063 A 
ATOM     13  C   UNL     1      -6.042 -18.031 -22.529  1.00  0.00     0.047 A 
ATOM     14  C   UNL     1      -4.806 -17.574 -22.990  1.00  0.00     0.020 A 
ATOM     15  C   UNL     1      -6.147 -19.290 -21.925  1.00  0.00     0.119 A 
ATOM     16  C   UNL     1      -5.006 -20.085 -21.777  1.00  0.00     0.093 A 
ATOM     17  C   UNL     1      -3.759 -19.630 -22.233  1.00  0.00     0.130 A 
BRANCH  15  18
ATOM     18  O   UNL     1      -7.375 -19.758 -21.465  1.00  0.00    -0.508 OA
ATOM     19  H   UNL     1      -7.883 -19.277 -20.732  1.00  0.00     0.293 HD
ENDBRANCH  15  18
BRANCH  17  20
ATOM     20  O   UNL     1      -2.621 -20.414 -22.034  1.00  0.00    -0.507 OA
ATOM     21  H   UNL     1      -2.666 -21.425 -22.031  1.00  0.00     0.293 HD
ENDBRANCH  17  20
ENDBRANCH   1  12
BRANCH   2  22
ATOM     22  O   UNL     1      -1.775 -17.021 -21.162  1.00  0.00    -0.502 OA
ATOM     23  H   UNL     1      -2.600 -16.527 -20.842  1.00  0.00     0.293 HD
ENDBRANCH   2  22
BRANCH   6  24
ATOM     24  O   UNL     1       2.128 -15.551 -24.482  1.00  0.00    -0.507 OA
ATOM     25  H   UNL     1       2.649 -14.836 -24.968  1.00  0.00     0.293 HD
ENDBRANCH   6  24
BRANCH   8  26
ATOM     26  O   UNL     1       0.784 -17.846 -28.460  1.00  0.00    -0.508 OA
ATOM     27  H   UNL     1       1.233 -17.186 -29.086  1.00  0.00     0.293 HD
ENDBRANCH   8  26
TORSDOF 6
ENDMDL
MODEL 4
REMARK VINA RESULT:    -5.493      1.738      2.489
REMARK INTER + INTRA:          -7.003
REMARK INTER:                  -6.619
REMARK INTRA:                  -0.384
REMARK UNBOUND:                -0.387
REMARK SMILES O=c1c(O)c(-c2ccc(O)cc2O)oc2cc(O)cc(O)c12
REMARK SMILES IDX 5 1 3 2 2 3 1 4 22 5 20 6 19 7 17 8 16 9 15 10 14 11 6 12
REMARK SMILES IDX 8 13 7 14 9 15 11 16 12 17 10 18 13 20 4 22 21 24 18 26
REMARK H PARENT 10 19 13 21 4 23 21 25 18 27
REMARK Flexibility Score: inf
ROOT
ATOM      1  C   UNL     1      -2.280 -17.397 -24.017  1.00  0.00     0.184 A 
ATOM      2  C   UNL     1      -3.117 -16.332 -23.652  1.00  0.00     0.208 A 
ATOM      3  C   UNL     1      -4.241 -16.594 -22.852  1.00  0.00     0.238 A 
ATOM      4  O   UNL     1      -5.018 -15.644 -22.572  1.00  0.00    -0.285 OA
ATOM      5  C   UNL     1      -4.501 -17.915 -22.416  1.00  0.00     0.111 A 
ATOM      6  C   UNL     1      -5.587 -18.290 -21.568  1.00  0.00     0.134 A 
ATOM      7  C   UNL     1      -5.823 -19.644 -21.306  1.00  0.00     0.093 A 
ATOM      8  C   UNL     1      -4.975 -20.633 -21.804  1.00  0.00     0.123 A 
ATOM      9  C   UNL     1      -3.875 -20.275 -22.584  1.00  0.00     0.094 A 
ATOM     10  C   UNL     1      -3.634 -18.934 -22.894  1.00  0.00     0.146 A 
ATOM     11  O   UNL     1      -2.584 -18.634 -23.649  1.00  0.00    -0.451 OA
ENDROOT
BRANCH   1  12
ATOM     12  C   UNL     1      -1.072 -17.187 -24.844  1.00  0.00     0.063 A 
ATOM     13  C   UNL     1       0.001 -17.308 -27.022  1.00  0.00     0.047 A 
ATOM     14  C   UNL     1      -1.123 -17.489 -26.214  1.00  0.00     0.020 A 
ATOM     15  C   UNL     1       1.197 -16.835 -26.469  1.00  0.00     0.119 A 
ATOM     16  C   UNL     1       1.264 -16.554 -25.101  1.00  0.00     0.093 A 
ATOM     17  C   UNL     1       0.141 -16.739 -24.281  1.00  0.00     0.130 A 
BRANCH  15  18
ATOM     18  O   UNL     1       2.323 -16.647 -27.266  1.00  0.00    -0.508 OA
ATOM     19  H   UNL     1       3.247 -16.547 -26.860  1.00  0.00     0.293 HD
ENDBRANCH  15  18
BRANCH  17  20
ATOM     20  O   UNL     1       0.237 -16.501 -22.909  1.00  0.00    -0.507 OA
ATOM     21  H   UNL     1      -0.573 -16.254 -22.354  1.00  0.00     0.293 HD
ENDBRANCH  17  20
ENDBRANCH   1  12
BRANCH   2  22
ATOM     22  O   UNL     1      -2.846 -15.040 -24.112  1.00  0.00    -0.502 OA
ATOM     23  H   UNL     1      -2.429 -14.863 -25.019  1.00  0.00     0.293 HD
ENDBRANCH   2  22
BRANCH   6  24
ATOM     24  O   UNL     1      -6.440 -17.376 -20.943  1.00  0.00    -0.507 OA
ATOM     25  H   UNL     1      -6.144 -16.508 -20.521  1.00  0.00     0.293 HD
ENDBRANCH   6  24
BRANCH   8  26
ATOM     26  O   UNL     1      -5.232 -21.971 -21.510  1.00  0.00    -0.508 OA
ATOM     27  H   UNL     1      -4.564 -22.539 -21.001  1.00  0.00     0.293 HD
ENDBRANCH   8  26
TORSDOF 6
ENDMDL
MODEL 5
REMARK VINA RESULT:    -5.167      1.421      6.681
REMARK INTER + INTRA:          -6.611
REMARK INTER:                  -6.195
REMARK INTRA:                  -0.415
REMARK UNBOUND:                -0.387
REMARK SMILES O=c1c(O)c(-c2ccc(O)cc2O)oc2cc(O)cc(O)c12
REMARK SMILES IDX 5 1 3 2 2 3 1 4 22 5 20 6 19 7 17 8 16 9 15 10 14 11 6 12
REMARK SMILES IDX 8 13 7 14 9 15 11 16 12 17 10 18 13 20 4 22 21 24 18 26
REMARK H PARENT 10 19 13 21 4 23 21 25 18 27
REMARK Flexibility Score: inf
ROOT
ATOM      1  C   UNL     1      -1.524 -17.517 -24.352  1.00  0.00     0.184 A 
ATOM      2  C   UNL     1      -0.394 -16.742 -24.048  1.00  0.00     0.208 A 
ATOM      3  C   UNL     1       0.644 -16.655 -24.990  1.00  0.00     0.238 A 
ATOM      4  O   UNL     1       1.679 -16.003 -24.691  1.00  0.00    -0.285 OA
ATOM      5  C   UNL     1       0.527 -17.329 -26.229  1.00  0.00     0.111 A 
ATOM      6  C   UNL     1       1.497 -17.276 -27.275  1.00  0.00     0.134 A 
ATOM      7  C   UNL     1       1.339 -18.086 -28.406  1.00  0.00     0.093 A 
ATOM      8  C   UNL     1       0.214 -18.896 -28.560  1.00  0.00     0.123 A 
ATOM      9  C   UNL     1      -0.771 -18.910 -27.572  1.00  0.00     0.094 A 
ATOM     10  C   UNL     1      -0.623 -18.141 -26.415  1.00  0.00     0.146 A 
ATOM     11  O   UNL     1      -1.577 -18.191 -25.493  1.00  0.00    -0.451 OA
ENDROOT
BRANCH   1  12
ATOM     12  C   UNL     1      -2.658 -17.637 -23.411  1.00  0.00     0.063 A 
ATOM     13  C   UNL     1      -3.765 -18.886 -21.643  1.00  0.00     0.047 A 
ATOM     14  C   UNL     1      -2.706 -18.738 -22.541  1.00  0.00     0.020 A 
ATOM     15  C   UNL     1      -4.800 -17.942 -21.613  1.00  0.00     0.119 A 
ATOM     16  C   UNL     1      -4.772 -16.856 -22.493  1.00  0.00     0.093 A 
ATOM     17  C   UNL     1      -3.714 -16.704 -23.401  1.00  0.00     0.130 A 
BRANCH  15  18
ATOM     18  O   UNL     1      -5.860 -18.077 -20.720  1.00  0.00    -0.508 OA
ATOM     19  H   UNL     1      -5.794 -17.738 -19.767  1.00  0.00     0.293 HD
ENDBRANCH  15  18
BRANCH  17  20
ATOM     20  O   UNL     1      -3.725 -15.641 -24.306  1.00  0.00    -0.507 OA
ATOM     21  H   UNL     1      -3.962 -14.699 -24.019  1.00  0.00     0.293 HD
ENDBRANCH  17  20
ENDBRANCH   1  12
BRANCH   2  22
ATOM     22  O   UNL     1      -0.297 -16.102 -22.809  1.00  0.00    -0.502 OA
ATOM     23  H   UNL     1       0.380 -16.377 -22.107  1.00  0.00     0.293 HD
ENDBRANCH   2  22
BRANCH   6  24
ATOM     24  O   UNL     1       2.612 -16.433 -27.264  1.00  0.00    -0.507 OA
ATOM     25  H   UNL     1       2.672 -15.566 -26.750  1.00  0.00     0.293 HD
ENDBRANCH   6  24
BRANCH   8  26
ATOM     26  O   UNL     1       0.082 -19.678 -29.706  1.00  0.00    -0.508 OA
ATOM     27  H   UNL     1       0.875 -20.164 -30.110  1.00  0.00     0.293 HD
ENDBRANCH   8  26
TORSDOF 6
ENDMDL
MODEL 6
REMARK VINA RESULT:    -5.162      2.632      3.697
REMARK INTER + INTRA:          -6.604
REMARK INTER:                  -6.261
REMARK INTRA:                  -0.344
REMARK UNBOUND:                -0.387
REMARK SMILES O=c1c(O)c(-c2ccc(O)cc2O)oc2cc(O)cc(O)c12
REMARK SMILES IDX 5 1 3 2 2 3 1 4 22 5 20 6 19 7 17 8 16 9 15 10 14 11 6 12
REMARK SMILES IDX 8 13 7 14 9 15 11 16 12 17 10 18 13 20 4 22 21 24 18 26
REMARK H PARENT 10 19 13 21 4 23 21 25 18 27
REMARK Flexibility Score: inf
ROOT
ATOM      1  C   UNL     1       0.223 -17.135 -25.429  1.00  0.00     0.184 A 
ATOM      2  C   UNL     1       1.464 -16.518 -25.206  1.00  0.00     0.208 A 
ATOM      3  C   UNL     1       1.753 -16.017 -23.926  1.00  0.00     0.238 A 
ATOM      4  O   UNL     1       2.845 -15.416 -23.745  1.00  0.00    -0.285 OA
ATOM      5  C   UNL     1       0.805 -16.157 -22.885  1.00  0.00     0.111 A 
ATOM      6  C   UNL     1       1.008 -15.725 -21.540  1.00  0.00     0.134 A 
ATOM      7  C   UNL     1      -0.049 -15.797 -20.624  1.00  0.00     0.093 A 
ATOM      8  C   UNL     1      -1.278 -16.346 -20.985  1.00  0.00     0.123 A 
ATOM      9  C   UNL     1      -1.470 -16.827 -22.280  1.00  0.00     0.094 A 
ATOM     10  C   UNL     1      -0.447 -16.735 -23.227  1.00  0.00     0.146 A 
ATOM     11  O   UNL     1      -0.672 -17.194 -24.453  1.00  0.00    -0.451 OA
ENDROOT
BRANCH   1  12
ATOM     12  C   UNL     1      -0.137 -17.698 -26.748  1.00  0.00     0.063 A 
ATOM     13  C   UNL     1       0.345 -19.273 -28.536  1.00  0.00     0.047 A 
ATOM     14  C   UNL     1       0.654 -18.723 -27.290  1.00  0.00     0.020 A 
ATOM     15  C   UNL     1      -0.751 -18.796 -29.264  1.00  0.00     0.119 A 
ATOM     16  C   UNL     1      -1.531 -17.758 -28.743  1.00  0.00     0.093 A 
ATOM     17  C   UNL     1      -1.223 -17.196 -27.495  1.00  0.00     0.130 A 
BRANCH  15  18
ATOM     18  O   UNL     1      -1.071 -19.339 -30.506  1.00  0.00    -0.508 OA
ATOM     19  H   UNL     1      -0.363 -19.492 -31.214  1.00  0.00     0.293 HD
ENDBRANCH  15  18
BRANCH  17  20
ATOM     20  O   UNL     1      -1.980 -16.129 -27.010  1.00  0.00    -0.507 OA
ATOM     21  H   UNL     1      -2.967 -16.226 -26.806  1.00  0.00     0.293 HD
ENDBRANCH  17  20
ENDBRANCH   1  12
BRANCH   2  22
ATOM     22  O   UNL     1       2.374 -16.377 -26.257  1.00  0.00    -0.502 OA
ATOM     23  H   UNL     1       2.231 -15.717 -27.014  1.00  0.00     0.293 HD
ENDBRANCH   2  22
BRANCH   6  24
ATOM     24  O   UNL     1       2.226 -15.245 -21.050  1.00  0.00    -0.507 OA
ATOM     25  H   UNL     1       2.843 -15.761 -20.439  1.00  0.00     0.293 HD
ENDBRANCH   6  24
BRANCH   8  26
ATOM     26  O   UNL     1      -2.303 -16.416 -20.042  1.00  0.00    -0.508 OA
ATOM     27  H   UNL     1      -2.397 -17.211 -19.420  1.00  0.00     0.293 HD
ENDBRANCH   8  26
TORSDOF 6
ENDMDL
MODEL 7
REMARK VINA RESULT:    -4.675      3.110      6.174
REMARK INTER + INTRA:          -6.018
REMARK INTER:                  -5.631
REMARK INTRA:                  -0.387
REMARK UNBOUND:                -0.387
REMARK SMILES O=c1c(O)c(-c2ccc(O)cc2O)oc2cc(O)cc(O)c12
REMARK SMILES IDX 5 1 3 2 2 3 1 4 22 5 20 6 19 7 17 8 16 9 15 10 14 11 6 12
REMARK SMILES IDX 8 13 7 14 9 15 11 16 12 17 10 18 13 20 4 22 21 24 18 26
REMARK H PARENT 10 19 13 21 4 23 21 25 18 27
REMARK Flexibility Score: inf
ROOT
ATOM      1  C   UNL     1      -1.536 -17.173 -23.349  1.00  0.00     0.184 A 
ATOM      2  C   UNL     1      -0.955 -17.014 -24.617  1.00  0.00     0.208 A 
ATOM      3  C   UNL     1       0.341 -16.483 -24.709  1.00  0.00     0.238 A 
ATOM      4  O   UNL     1       0.836 -16.292 -25.851  1.00  0.00    -0.285 OA
ATOM      5  C   UNL     1       1.044 -16.135 -23.531  1.00  0.00     0.111 A 
ATOM      6  C   UNL     1       2.378 -15.628 -23.502  1.00  0.00     0.134 A 
ATOM      7  C   UNL     1       2.927 -15.195 -22.290  1.00  0.00     0.093 A 
ATOM      8  C   UNL     1       2.218 -15.313 -21.095  1.00  0.00     0.123 A 
ATOM      9  C   UNL     1       0.936 -15.863 -21.101  1.00  0.00     0.094 A 
ATOM     10  C   UNL     1       0.346 -16.270 -22.301  1.00  0.00     0.146 A 
ATOM     11  O   UNL     1      -0.880 -16.777 -22.266  1.00  0.00    -0.451 OA
ENDROOT
BRANCH   1  12
ATOM     12  C   UNL     1      -2.891 -17.741 -23.182  1.00  0.00     0.063 A 
ATOM     13  C   UNL     1      -4.291 -19.688 -22.780  1.00  0.00     0.047 A 
ATOM     14  C   UNL     1      -3.026 -19.118 -22.938  1.00  0.00     0.020 A 
ATOM     15  C   UNL     1      -5.439 -18.893 -22.878  1.00  0.00     0.119 A 
ATOM     16  C   UNL     1      -5.315 -17.526 -23.144  1.00  0.00     0.093 A 
ATOM     17  C   UNL     1      -4.048 -16.946 -23.310  1.00  0.00     0.130 A 
BRANCH  15  18
ATOM     18  O   UNL     1      -6.705 -19.450 -22.719  1.00  0.00    -0.508 OA
ATOM     19  H   UNL     1      -7.502 -18.884 -22.449  1.00  0.00     0.293 HD
ENDBRANCH  15  18
BRANCH  17  20
ATOM     20  O   UNL     1      -3.941 -15.590 -23.624  1.00  0.00    -0.507 OA
ATOM     21  H   UNL     1      -3.900 -14.879 -22.904  1.00  0.00     0.293 HD
ENDBRANCH  17  20
ENDBRANCH   1  12
BRANCH   2  22
ATOM     22  O   UNL     1      -1.680 -17.348 -25.764  1.00  0.00    -0.502 OA
ATOM     23  H   UNL     1      -2.440 -16.776 -26.113  1.00  0.00     0.293 HD
ENDBRANCH   2  22
BRANCH   6  24
ATOM     24  O   UNL     1       3.209 -15.553 -24.625  1.00  0.00    -0.507 OA
ATOM     25  H   UNL     1       2.887 -15.585 -25.581  1.00  0.00     0.293 HD
ENDBRANCH   6  24
BRANCH   8  26
ATOM     26  O   UNL     1       2.802 -14.886 -19.904  1.00  0.00    -0.508 OA
ATOM     27  H   UNL     1       2.534 -15.283 -19.010  1.00  0.00     0.293 HD
ENDBRANCH   8  26
TORSDOF 6
ENDMDL
MODEL 8
REMARK VINA RESULT:    -4.573      2.125      3.918
REMARK INTER + INTRA:          -5.896
REMARK INTER:                  -5.494
REMARK INTRA:                  -0.402
REMARK UNBOUND:                -0.387
REMARK SMILES O=c1c(O)c(-c2ccc(O)cc2O)oc2cc(O)cc(O)c12
REMARK SMILES IDX 5 1 3 2 2 3 1 4 22 5 20 6 19 7 17 8 16 9 15 10 14 11 6 12
REMARK SMILES IDX 8 13 7 14 9 15 11 16 12 17 10 18 13 20 4 22 21 24 18 26
REMARK H PARENT 10 19 13 21 4 23 21 25 18 27
REMARK Flexibility Score: inf
ROOT
ATOM      1  C   UNL     1      -2.727 -17.339 -23.465  1.00  0.00     0.184 A 
ATOM      2  C   UNL     1      -2.018 -17.342 -22.254  1.00  0.00     0.208 A 
ATOM      3  C   UNL     1      -2.627 -17.882 -21.111  1.00  0.00     0.238 A 
ATOM      4  O   UNL     1      -2.007 -17.833 -20.015  1.00  0.00    -0.285 OA
ATOM      5  C   UNL     1      -3.930 -18.428 -21.199  1.00  0.00     0.111 A 
ATOM      6  C   UNL     1      -4.628 -19.040 -20.114  1.00  0.00     0.134 A 
ATOM      7  C   UNL     1      -5.962 -19.428 -20.283  1.00  0.00     0.093 A 
ATOM      8  C   UNL     1      -6.603 -19.290 -21.513  1.00  0.00     0.123 A 
ATOM      9  C   UNL     1      -5.912 -18.749 -22.598  1.00  0.00     0.094 A 
ATOM     10  C   UNL     1      -4.591 -18.317 -22.451  1.00  0.00     0.146 A 
ATOM     11  O   UNL     1      -3.972 -17.797 -23.504  1.00  0.00    -0.451 OA
ENDROOT
BRANCH   1  12
ATOM     12  C   UNL     1      -2.138 -16.801 -24.709  1.00  0.00     0.063 A 
ATOM     13  C   UNL     1      -0.472 -16.991 -26.470  1.00  0.00     0.047 A 
ATOM     14  C   UNL     1      -1.056 -17.476 -25.298  1.00  0.00     0.020 A 
ATOM     15  C   UNL     1      -0.952 -15.817 -27.063  1.00  0.00     0.119 A 
ATOM     16  C   UNL     1      -2.013 -15.125 -26.470  1.00  0.00     0.093 A 
ATOM     17  C   UNL     1      -2.601 -15.602 -25.289  1.00  0.00     0.130 A 
BRANCH  15  18
ATOM     18  O   UNL     1      -0.380 -15.326 -28.234  1.00  0.00    -0.508 OA
ATOM     19  H   UNL     1       0.382 -15.811 -28.693  1.00  0.00     0.293 HD
ENDBRANCH  15  18
BRANCH  17  20
ATOM     20  O   UNL     1      -3.627 -14.875 -24.683  1.00  0.00    -0.507 OA
ATOM     21  H   UNL     1      -4.583 -14.927 -25.013  1.00  0.00     0.293 HD
ENDBRANCH  17  20
ENDBRANCH   1  12
BRANCH   2  22
ATOM     22  O   UNL     1      -0.740 -16.780 -22.192  1.00  0.00    -0.502 OA
ATOM     23  H   UNL     1       0.086 -17.272 -22.511  1.00  0.00     0.293 HD
ENDBRANCH   2  22
BRANCH   6  24
ATOM     24  O   UNL     1      -4.053 -19.309 -18.869  1.00  0.00    -0.507 OA
ATOM     25  H   UNL     1      -3.194 -19.822 -18.731  1.00  0.00     0.293 HD
ENDBRANCH   6  24
BRANCH   8  26
ATOM     26  O   UNL     1      -7.927 -19.702 -21.649  1.00  0.00    -0.508 OA
ATOM     27  H   UNL     1      -8.387 -19.720 -22.552  1.00  0.00     0.293 HD
ENDBRANCH   8  26
TORSDOF 6
ENDMDL
