MODEL 1
REMARK VINA RESULT:     3.637      0.000      0.000
REMARK INTER + INTRA:           7.212
REMARK INTER:                   7.889
REMARK INTRA:                  -0.677
REMARK UNBOUND:                -0.677
REMARK SMILES CCCCCCCCCCCCCCCCCCCCCC(=O)[O-]
REMARK SMILES IDX 12 1 11 2 10 3 9 4 8 5 7 6 6 7 5 8 4 9 3 10 2 11 1 12 13 13
REMARK SMILES IDX 14 14 15 15 16 16 17 17 18 18 19 19 20 20 21 21 22 22 23 23
REMARK SMILES IDX 24 24
REMARK H PARENT
REMARK Flexibility Score: inf
ROOT
ATOM      1  C   UNL     1       2.744 -27.460  -7.198  1.00  0.00     0.000 C 
ENDROOT
BRANCH   1   2
ATOM      2  C   UNL     1       2.378 -26.172  -6.438  1.00  0.00     0.000 C 
BRANCH   2   3
ATOM      3  C   UNL     1       1.571 -25.181  -7.305  1.00  0.00     0.000 C 
BRANCH   3   4
ATOM      4  C   UNL     1       0.997 -23.986  -6.522  1.00  0.00    -0.000 C 
BRANCH   4   5
ATOM      5  C   UNL     1      -0.196 -23.276  -7.186  1.00  0.00    -0.000 C 
BRANCH   5   6
ATOM      6  C   UNL     1      -0.560 -21.949  -6.498  1.00  0.00    -0.000 C 
BRANCH   6   7
ATOM      7  C   UNL     1      -0.939 -22.128  -5.018  1.00  0.00    -0.000 C 
BRANCH   7   8
ATOM      8  C   UNL     1      -2.428 -22.474  -4.799  1.00  0.00    -0.000 C 
BRANCH   8   9
ATOM      9  C   UNL     1      -3.325 -21.883  -5.900  1.00  0.00    -0.000 C 
BRANCH   9  10
ATOM     10  C   UNL     1      -3.479 -20.358  -5.789  1.00  0.00    -0.000 C 
BRANCH  10  11
ATOM     11  C   UNL     1      -4.688 -19.824  -6.571  1.00  0.00    -0.003 C 
ATOM     12  C   UNL     1      -5.056 -18.413  -6.120  1.00  0.00     0.004 C 
ENDBRANCH  10  11
ENDBRANCH   9  10
ENDBRANCH   8   9
ENDBRANCH   7   8
ENDBRANCH   6   7
ENDBRANCH   5   6
ENDBRANCH   4   5
ENDBRANCH   3   4
ENDBRANCH   2   3
ENDBRANCH   1   2
BRANCH   1  13
ATOM     13  C   UNL     1       2.118 -28.716  -6.571  1.00  0.00     0.000 C 
BRANCH  13  14
ATOM     14  C   UNL     1       2.580 -30.013  -7.252  1.00  0.00     0.000 C 
BRANCH  14  15
ATOM     15  C   UNL     1       3.207 -30.974  -6.233  1.00  0.00     0.000 C 
BRANCH  15  16
ATOM     16  C   UNL     1       2.246 -32.125  -5.898  1.00  0.00     0.000 C 
BRANCH  16  17
ATOM     17  C   UNL     1       0.799 -31.651  -5.689  1.00  0.00     0.000 C 
BRANCH  17  18
ATOM     18  C   UNL     1       0.604 -30.914  -4.352  1.00  0.00     0.000 C 
BRANCH  18  19
ATOM     19  C   UNL     1      -0.578 -31.470  -3.541  1.00  0.00     0.000 C 
BRANCH  19  20
ATOM     20  C   UNL     1      -1.698 -32.028  -4.439  1.00  0.00     0.006 C 
BRANCH  20  21
ATOM     21  C   UNL     1      -2.942 -31.129  -4.439  1.00  0.00     0.053 C 
BRANCH  21  22
ATOM     22  C   UNL     1      -3.592 -31.074  -5.788  1.00  0.00     0.041 C 
ATOM     23  O   UNL     1      -4.462 -30.199  -6.037  1.00  0.00    -0.550 OA
ATOM     24  O   UNL     1      -3.217 -31.973  -6.780  1.00  0.00    -0.550 OA
ENDBRANCH  21  22
ENDBRANCH  20  21
ENDBRANCH  19  20
ENDBRANCH  18  19
ENDBRANCH  17  18
ENDBRANCH  16  17
ENDBRANCH  15  16
ENDBRANCH  14  15
ENDBRANCH  13  14
ENDBRANCH   1  13
TORSDOF 20
ENDMDL
MODEL 2
REMARK VINA RESULT:     4.628      3.051      8.950
REMARK INTER + INTRA:           9.362
REMARK INTER:                  10.345
REMARK INTRA:                  -0.983
REMARK UNBOUND:                -0.677
REMARK SMILES CCCCCCCCCCCCCCCCCCCCCC(=O)[O-]
REMARK SMILES IDX 12 1 11 2 10 3 9 4 8 5 7 6 6 7 5 8 4 9 3 10 2 11 1 12 13 13
REMARK SMILES IDX 14 14 15 15 16 16 17 17 18 18 19 19 20 20 21 21 22 22 23 23
REMARK SMILES IDX 24 24
REMARK H PARENT
REMARK Flexibility Score: inf
ROOT
ATOM      1  C   UNL     1       3.091 -26.592  -6.682  1.00  0.00     0.000 C 
ENDROOT
BRANCH   1   2
ATOM      2  C   UNL     1       2.721 -28.077  -6.513  1.00  0.00     0.000 C 
BRANCH   2   3
ATOM      3  C   UNL     1       2.987 -28.904  -7.790  1.00  0.00     0.000 C 
BRANCH   3   4
ATOM      4  C   UNL     1       2.739 -30.414  -7.622  1.00  0.00    -0.000 C 
BRANCH   4   5
ATOM      5  C   UNL     1       2.962 -30.964  -6.203  1.00  0.00    -0.000 C 
BRANCH   5   6
ATOM      6  C   UNL     1       1.732 -31.703  -5.648  1.00  0.00    -0.000 C 
BRANCH   6   7
ATOM      7  C   UNL     1       0.855 -30.811  -4.752  1.00  0.00    -0.000 C 
BRANCH   7   8
ATOM      8  C   UNL     1      -0.199 -31.594  -3.942  1.00  0.00    -0.000 C 
BRANCH   8   9
ATOM      9  C   UNL     1      -1.415 -31.982  -4.801  1.00  0.00    -0.000 C 
BRANCH   9  10
ATOM     10  C   UNL     1      -2.728 -32.001  -4.003  1.00  0.00    -0.000 C 
BRANCH  10  11
ATOM     11  C   UNL     1      -3.881 -31.302  -4.737  1.00  0.00    -0.003 C 
ATOM     12  C   UNL     1      -3.614 -31.227  -6.238  1.00  0.00     0.004 C 
ENDBRANCH  10  11
ENDBRANCH   9  10
ENDBRANCH   8   9
ENDBRANCH   7   8
ENDBRANCH   6   7
ENDBRANCH   5   6
ENDBRANCH   4   5
ENDBRANCH   3   4
ENDBRANCH   2   3
ENDBRANCH   1   2
BRANCH   1  13
ATOM     13  C   UNL     1       3.644 -25.969  -5.391  1.00  0.00     0.000 C 
BRANCH  13  14
ATOM     14  C   UNL     1       3.838 -24.449  -5.501  1.00  0.00     0.000 C 
BRANCH  14  15
ATOM     15  C   UNL     1       2.817 -23.701  -4.633  1.00  0.00     0.000 C 
BRANCH  15  16
ATOM     16  C   UNL     1       1.380 -24.019  -5.076  1.00  0.00     0.000 C 
BRANCH  16  17
ATOM     17  C   UNL     1       0.609 -22.772  -5.536  1.00  0.00     0.000 C 
BRANCH  17  18
ATOM     18  C   UNL     1      -0.596 -22.454  -4.633  1.00  0.00     0.000 C 
BRANCH  18  19
ATOM     19  C   UNL     1      -1.938 -22.765  -5.314  1.00  0.00     0.000 C 
BRANCH  19  20
ATOM     20  C   UNL     1      -2.266 -21.777  -6.449  1.00  0.00     0.006 C 
BRANCH  20  21
ATOM     21  C   UNL     1      -2.957 -20.508  -5.931  1.00  0.00     0.053 C 
BRANCH  21  22
ATOM     22  C   UNL     1      -4.403 -20.460  -6.321  1.00  0.00     0.041 C 
ATOM     23  O   UNL     1      -5.124 -19.490  -5.965  1.00  0.00    -0.550 OA
ATOM     24  O   UNL     1      -4.950 -21.474  -7.099  1.00  0.00    -0.550 OA
ENDBRANCH  21  22
ENDBRANCH  20  21
ENDBRANCH  19  20
ENDBRANCH  18  19
ENDBRANCH  17  18
ENDBRANCH  16  17
ENDBRANCH  15  16
ENDBRANCH  14  15
ENDBRANCH  13  14
ENDBRANCH   1  13
TORSDOF 20
ENDMDL
MODEL 3
REMARK VINA RESULT:     4.842      1.119      2.019
REMARK INTER + INTRA:           9.826
REMARK INTER:                  10.228
REMARK INTRA:                  -0.401
REMARK UNBOUND:                -0.677
REMARK SMILES CCCCCCCCCCCCCCCCCCCCCC(=O)[O-]
REMARK SMILES IDX 12 1 11 2 10 3 9 4 8 5 7 6 6 7 5 8 4 9 3 10 2 11 1 12 13 13
REMARK SMILES IDX 14 14 15 15 16 16 17 17 18 18 19 19 20 20 21 21 22 22 23 23
REMARK SMILES IDX 24 24
REMARK H PARENT
REMARK Flexibility Score: inf
ROOT
ATOM      1  C   UNL     1       3.693 -25.195  -5.211  1.00  0.00     0.000 C 
ENDROOT
BRANCH   1   2
ATOM      2  C   UNL     1       3.032 -23.821  -5.425  1.00  0.00     0.000 C 
BRANCH   2   3
ATOM      3  C   UNL     1       1.506 -23.853  -5.189  1.00  0.00     0.000 C 
BRANCH   3   4
ATOM      4  C   UNL     1       0.674 -23.376  -6.394  1.00  0.00    -0.000 C 
BRANCH   4   5
ATOM      5  C   UNL     1      -0.487 -22.425  -6.056  1.00  0.00    -0.000 C 
BRANCH   5   6
ATOM      6  C   UNL     1      -0.610 -22.145  -4.548  1.00  0.00    -0.000 C 
BRANCH   6   7
ATOM      7  C   UNL     1      -1.882 -21.358  -4.189  1.00  0.00    -0.000 C 
BRANCH   7   8
ATOM      8  C   UNL     1      -2.586 -20.731  -5.410  1.00  0.00    -0.000 C 
BRANCH   8   9
ATOM      9  C   UNL     1      -3.933 -21.412  -5.712  1.00  0.00    -0.000 C 
BRANCH   9  10
ATOM     10  C   UNL     1      -4.422 -21.157  -7.146  1.00  0.00    -0.000 C 
BRANCH  10  11
ATOM     11  C   UNL     1      -5.123 -19.799  -7.303  1.00  0.00    -0.003 C 
ATOM     12  C   UNL     1      -4.899 -18.919  -6.076  1.00  0.00     0.004 C 
ENDBRANCH  10  11
ENDBRANCH   9  10
ENDBRANCH   8   9
ENDBRANCH   7   8
ENDBRANCH   6   7
ENDBRANCH   5   6
ENDBRANCH   4   5
ENDBRANCH   3   4
ENDBRANCH   2   3
ENDBRANCH   1   2
BRANCH   1  13
ATOM     13  C   UNL     1       3.623 -26.087  -6.461  1.00  0.00     0.000 C 
BRANCH  13  14
ATOM     14  C   UNL     1       2.306 -26.872  -6.557  1.00  0.00     0.000 C 
BRANCH  14  15
ATOM     15  C   UNL     1       2.557 -28.307  -7.038  1.00  0.00     0.000 C 
BRANCH  15  16
ATOM     16  C   UNL     1       2.554 -29.292  -5.859  1.00  0.00     0.000 C 
BRANCH  16  17
ATOM     17  C   UNL     1       2.566 -30.761  -6.310  1.00  0.00     0.000 C 
BRANCH  17  18
ATOM     18  C   UNL     1       1.946 -31.707  -5.265  1.00  0.00     0.000 C 
BRANCH  18  19
ATOM     19  C   UNL     1       0.467 -32.011  -5.552  1.00  0.00     0.000 C 
BRANCH  19  20
ATOM     20  C   UNL     1      -0.481 -31.314  -4.559  1.00  0.00     0.006 C 
BRANCH  20  21
ATOM     21  C   UNL     1      -1.768 -32.117  -4.325  1.00  0.00     0.053 C 
BRANCH  21  22
ATOM     22  C   UNL     1      -2.832 -31.772  -5.322  1.00  0.00     0.041 C 
ATOM     23  O   UNL     1      -3.924 -31.275  -4.937  1.00  0.00    -0.550 OA
ATOM     24  O   UNL     1      -2.608 -31.974  -6.679  1.00  0.00    -0.550 OA
ENDBRANCH  21  22
ENDBRANCH  20  21
ENDBRANCH  19  20
ENDBRANCH  18  19
ENDBRANCH  17  18
ENDBRANCH  16  17
ENDBRANCH  15  16
ENDBRANCH  14  15
ENDBRANCH  13  14
ENDBRANCH   1  13
TORSDOF 20
ENDMDL
MODEL 4
REMARK VINA RESULT:     4.931      2.572      3.212
REMARK INTER + INTRA:          10.019
REMARK INTER:                  10.906
REMARK INTRA:                  -0.888
REMARK UNBOUND:                -0.677
REMARK SMILES CCCCCCCCCCCCCCCCCCCCCC(=O)[O-]
REMARK SMILES IDX 12 1 11 2 10 3 9 4 8 5 7 6 6 7 5 8 4 9 3 10 2 11 1 12 13 13
REMARK SMILES IDX 14 14 15 15 16 16 17 17 18 18 19 19 20 20 21 21 22 22 23 23
REMARK SMILES IDX 24 24
REMARK H PARENT
REMARK Flexibility Score: inf
ROOT
ATOM      1  C   UNL     1       3.500 -26.389  -5.475  1.00  0.00     0.000 C 
ENDROOT
BRANCH   1   2
ATOM      2  C   UNL     1       3.997 -24.937  -5.598  1.00  0.00     0.000 C 
BRANCH   2   3
ATOM      3  C   UNL     1       3.086 -23.933  -4.858  1.00  0.00     0.000 C 
BRANCH   3   4
ATOM      4  C   UNL     1       1.590 -24.080  -5.190  1.00  0.00    -0.000 C 
BRANCH   4   5
ATOM      5  C   UNL     1       0.896 -22.799  -5.683  1.00  0.00    -0.000 C 
BRANCH   5   6
ATOM      6  C   UNL     1      -0.107 -23.062  -6.819  1.00  0.00    -0.000 C 
BRANCH   6   7
ATOM      7  C   UNL     1      -1.315 -22.110  -6.782  1.00  0.00    -0.000 C 
BRANCH   7   8
ATOM      8  C   UNL     1      -1.783 -21.761  -5.353  1.00  0.00    -0.000 C 
BRANCH   8   9
ATOM      9  C   UNL     1      -3.079 -20.932  -5.357  1.00  0.00    -0.000 C 
BRANCH   9  10
ATOM     10  C   UNL     1      -4.135 -21.481  -6.331  1.00  0.00    -0.000 C 
BRANCH  10  11
ATOM     11  C   UNL     1      -5.073 -20.390  -6.867  1.00  0.00    -0.003 C 
ATOM     12  C   UNL     1      -4.756 -19.034  -6.241  1.00  0.00     0.004 C 
ENDBRANCH  10  11
ENDBRANCH   9  10
ENDBRANCH   8   9
ENDBRANCH   7   8
ENDBRANCH   6   7
ENDBRANCH   5   6
ENDBRANCH   4   5
ENDBRANCH   3   4
ENDBRANCH   2   3
ENDBRANCH   1   2
BRANCH   1  13
ATOM     13  C   UNL     1       2.940 -26.938  -6.796  1.00  0.00     0.000 C 
BRANCH  13  14
ATOM     14  C   UNL     1       2.272 -28.311  -6.633  1.00  0.00     0.000 C 
BRANCH  14  15
ATOM     15  C   UNL     1       2.880 -29.336  -7.599  1.00  0.00     0.000 C 
BRANCH  15  16
ATOM     16  C   UNL     1       2.766 -30.761  -7.034  1.00  0.00     0.000 C 
BRANCH  16  17
ATOM     17  C   UNL     1       2.191 -30.792  -5.609  1.00  0.00     0.000 C 
BRANCH  17  18
ATOM     18  C   UNL     1       1.056 -31.820  -5.451  1.00  0.00     0.000 C 
BRANCH  18  19
ATOM     19  C   UNL     1      -0.190 -31.221  -4.780  1.00  0.00     0.000 C 
BRANCH  19  20
ATOM     20  C   UNL     1      -0.197 -31.430  -3.254  1.00  0.00     0.006 C 
BRANCH  20  21
ATOM     21  C   UNL     1       1.132 -31.016  -2.607  1.00  0.00     0.053 C 
BRANCH  21  22
ATOM     22  C   UNL     1       0.974 -30.723  -1.146  1.00  0.00     0.041 C 
ATOM     23  O   UNL     1       0.477 -31.587  -0.376  1.00  0.00    -0.550 OA
ATOM     24  O   UNL     1       1.401 -29.505  -0.629  1.00  0.00    -0.550 OA
ENDBRANCH  21  22
ENDBRANCH  20  21
ENDBRANCH  19  20
ENDBRANCH  18  19
ENDBRANCH  17  18
ENDBRANCH  16  17
ENDBRANCH  15  16
ENDBRANCH  14  15
ENDBRANCH  13  14
ENDBRANCH   1  13
TORSDOF 20
ENDMDL
MODEL 5
REMARK VINA RESULT:     4.951      3.297      9.242
REMARK INTER + INTRA:          10.062
REMARK INTER:                  10.504
REMARK INTRA:                  -0.442
REMARK UNBOUND:                -0.677
REMARK SMILES CCCCCCCCCCCCCCCCCCCCCC(=O)[O-]
REMARK SMILES IDX 12 1 11 2 10 3 9 4 8 5 7 6 6 7 5 8 4 9 3 10 2 11 1 12 13 13
REMARK SMILES IDX 14 14 15 15 16 16 17 17 18 18 19 19 20 20 21 21 22 22 23 23
REMARK SMILES IDX 24 24
REMARK H PARENT
REMARK Flexibility Score: inf
ROOT
ATOM      1  C   UNL     1       2.414 -28.451  -6.794  1.00  0.00     0.000 C 
ENDROOT
BRANCH   1   2
ATOM      2  C   UNL     1       2.962 -29.678  -7.546  1.00  0.00     0.000 C 
BRANCH   2   3
ATOM      3  C   UNL     1       3.221 -30.880  -6.611  1.00  0.00     0.000 C 
BRANCH   3   4
ATOM      4  C   UNL     1       1.995 -31.788  -6.401  1.00  0.00    -0.000 C 
BRANCH   4   5
ATOM      5  C   UNL     1       1.261 -31.601  -5.062  1.00  0.00    -0.000 C 
BRANCH   5   6
ATOM      6  C   UNL     1      -0.233 -31.961  -5.145  1.00  0.00    -0.000 C 
BRANCH   6   7
ATOM      7  C   UNL     1      -1.109 -31.086  -4.233  1.00  0.00    -0.000 C 
BRANCH   7   8
ATOM      8  C   UNL     1      -0.897 -31.355  -2.728  1.00  0.00    -0.000 C 
BRANCH   8   9
ATOM      9  C   UNL     1       0.529 -30.998  -2.274  1.00  0.00    -0.000 C 
BRANCH   9  10
ATOM     10  C   UNL     1       0.843 -31.492  -0.853  1.00  0.00    -0.000 C 
BRANCH  10  11
ATOM     11  C   UNL     1       1.542 -30.427   0.005  1.00  0.00    -0.003 C 
ATOM     12  C   UNL     1       1.496 -29.058  -0.669  1.00  0.00     0.004 C 
ENDBRANCH  10  11
ENDBRANCH   9  10
ENDBRANCH   8   9
ENDBRANCH   7   8
ENDBRANCH   6   7
ENDBRANCH   5   6
ENDBRANCH   4   5
ENDBRANCH   3   4
ENDBRANCH   2   3
ENDBRANCH   1   2
BRANCH   1  13
ATOM     13  C   UNL     1       2.844 -27.123  -7.437  1.00  0.00     0.000 C 
BRANCH  13  14
ATOM     14  C   UNL     1       2.428 -25.899  -6.606  1.00  0.00     0.000 C 
BRANCH  14  15
ATOM     15  C   UNL     1       1.124 -25.291  -7.140  1.00  0.00     0.000 C 
BRANCH  15  16
ATOM     16  C   UNL     1       0.815 -23.956  -6.445  1.00  0.00     0.000 C 
BRANCH  16  17
ATOM     17  C   UNL     1      -0.108 -23.052  -7.278  1.00  0.00     0.000 C 
BRANCH  17  18
ATOM     18  C   UNL     1      -0.684 -21.881  -6.461  1.00  0.00     0.000 C 
BRANCH  18  19
ATOM     19  C   UNL     1      -1.380 -22.350  -5.174  1.00  0.00     0.000 C 
BRANCH  19  20
ATOM     20  C   UNL     1      -2.626 -21.510  -4.837  1.00  0.00     0.006 C 
BRANCH  20  21
ATOM     21  C   UNL     1      -3.836 -21.896  -5.699  1.00  0.00     0.053 C 
BRANCH  21  22
ATOM     22  C   UNL     1      -4.357 -20.731  -6.485  1.00  0.00     0.041 C 
ATOM     23  O   UNL     1      -4.944 -20.918  -7.583  1.00  0.00    -0.550 OA
ATOM     24  O   UNL     1      -4.219 -19.439  -5.991  1.00  0.00    -0.550 OA
ENDBRANCH  21  22
ENDBRANCH  20  21
ENDBRANCH  19  20
ENDBRANCH  18  19
ENDBRANCH  17  18
ENDBRANCH  16  17
ENDBRANCH  15  16
ENDBRANCH  14  15
ENDBRANCH  13  14
ENDBRANCH   1  13
TORSDOF 20
ENDMDL
MODEL 6
REMARK VINA RESULT:     5.237      2.844      3.482
REMARK INTER + INTRA:          10.683
REMARK INTER:                  11.438
REMARK INTRA:                  -0.755
REMARK UNBOUND:                -0.677
REMARK SMILES CCCCCCCCCCCCCCCCCCCCCC(=O)[O-]
REMARK SMILES IDX 12 1 11 2 10 3 9 4 8 5 7 6 6 7 5 8 4 9 3 10 2 11 1 12 13 13
REMARK SMILES IDX 14 14 15 15 16 16 17 17 18 18 19 19 20 20 21 21 22 22 23 23
REMARK SMILES IDX 24 24
REMARK H PARENT
REMARK Flexibility Score: inf
ROOT
ATOM      1  C   UNL     1       2.384 -28.824  -6.521  1.00  0.00     0.000 C 
ENDROOT
BRANCH   1   2
ATOM      2  C   UNL     1       2.714 -27.542  -7.308  1.00  0.00     0.000 C 
BRANCH   2   3
ATOM      3  C   UNL     1       2.451 -26.259  -6.489  1.00  0.00     0.000 C 
BRANCH   3   4
ATOM      4  C   UNL     1       1.499 -25.262  -7.174  1.00  0.00    -0.000 C 
BRANCH   4   5
ATOM      5  C   UNL     1       1.131 -24.024  -6.339  1.00  0.00    -0.000 C 
BRANCH   5   6
ATOM      6  C   UNL     1       0.046 -23.158  -7.001  1.00  0.00    -0.000 C 
BRANCH   6   7
ATOM      7  C   UNL     1      -0.696 -22.259  -5.995  1.00  0.00    -0.000 C 
BRANCH   7   8
ATOM      8  C   UNL     1      -2.231 -22.414  -6.043  1.00  0.00    -0.000 C 
BRANCH   8   9
ATOM      9  C   UNL     1      -2.952 -21.175  -5.484  1.00  0.00    -0.000 C 
BRANCH   9  10
ATOM     10  C   UNL     1      -4.457 -21.169  -5.799  1.00  0.00    -0.000 C 
BRANCH  10  11
ATOM     11  C   UNL     1      -4.840 -20.116  -6.848  1.00  0.00    -0.003 C 
ATOM     12  C   UNL     1      -5.078 -18.754  -6.201  1.00  0.00     0.004 C 
ENDBRANCH  10  11
ENDBRANCH   9  10
ENDBRANCH   8   9
ENDBRANCH   7   8
ENDBRANCH   6   7
ENDBRANCH   5   6
ENDBRANCH   4   5
ENDBRANCH   3   4
ENDBRANCH   2   3
ENDBRANCH   1   2
BRANCH   1  13
ATOM     13  C   UNL     1       2.729 -30.103  -7.300  1.00  0.00     0.000 C 
BRANCH  13  14
ATOM     14  C   UNL     1       3.188 -31.249  -6.387  1.00  0.00     0.000 C 
BRANCH  14  15
ATOM     15  C   UNL     1       1.990 -32.063  -5.883  1.00  0.00     0.000 C 
BRANCH  15  16
ATOM     16  C   UNL     1       1.300 -31.357  -4.705  1.00  0.00     0.000 C 
BRANCH  16  17
ATOM     17  C   UNL     1      -0.225 -31.542  -4.710  1.00  0.00     0.000 C 
BRANCH  17  18
ATOM     18  C   UNL     1      -0.895 -30.972  -3.447  1.00  0.00     0.000 C 
BRANCH  18  19
ATOM     19  C   UNL     1      -0.863 -31.958  -2.269  1.00  0.00     0.000 C 
BRANCH  19  20
ATOM     20  C   UNL     1      -0.297 -31.325  -0.985  1.00  0.00     0.006 C 
BRANCH  20  21
ATOM     21  C   UNL     1       1.204 -31.024  -1.100  1.00  0.00     0.053 C 
BRANCH  21  22
ATOM     22  C   UNL     1       1.563 -29.721  -0.454  1.00  0.00     0.041 C 
ATOM     23  O   UNL     1       1.407 -28.638  -1.079  1.00  0.00    -0.550 OA
ATOM     24  O   UNL     1       2.047 -29.699   0.849  1.00  0.00    -0.550 OA
ENDBRANCH  21  22
ENDBRANCH  20  21
ENDBRANCH  19  20
ENDBRANCH  18  19
ENDBRANCH  17  18
ENDBRANCH  16  17
ENDBRANCH  15  16
ENDBRANCH  14  15
ENDBRANCH  13  14
ENDBRANCH   1  13
TORSDOF 20
ENDMDL
