MODEL 1
REMARK VINA RESULT:    -5.889      0.000      0.000
REMARK INTER + INTRA:          -6.470
REMARK INTER:                  -6.405
REMARK INTRA:                  -0.065
REMARK UNBOUND:                -0.065
REMARK SMILES COc1cc2ccc(=O)oc2cc1O
REMARK SMILES IDX 3 1 13 2 12 3 11 4 5 5 4 6 6 7 7 8 8 9 9 10 10 11 2 12 1 13
REMARK SMILES IDX 14 14
REMARK H PARENT 14 15
REMARK Flexibility Score: inf
ROOT
ATOM      1  C   UNL     1      -0.628   4.669  13.333  1.00  0.00     0.161 A 
ATOM      2  C   UNL     1      -1.065   4.418  14.648  1.00  0.00     0.161 A 
ATOM      3  C   UNL     1      -1.428   3.123  15.036  1.00  0.00     0.098 A 
ATOM      4  C   UNL     1      -1.361   2.067  14.125  1.00  0.00     0.142 A 
ATOM      5  C   UNL     1      -0.925   2.307  12.805  1.00  0.00     0.022 A 
ATOM      6  C   UNL     1      -0.561   3.603  12.413  1.00  0.00     0.062 A 
ATOM      7  C   UNL     1      -0.868   1.229  11.916  1.00  0.00     0.019 A 
ATOM      8  C   UNL     1      -1.241  -0.040  12.353  1.00  0.00     0.094 A 
ATOM      9  C   UNL     1      -1.664  -0.203  13.677  1.00  0.00     0.336 A 
ATOM     10  O   UNL     1      -2.004  -1.342  14.093  1.00  0.00    -0.246 OA
ATOM     11  O   UNL     1      -1.708   0.839  14.503  1.00  0.00    -0.423 OA
ENDROOT
BRANCH   1  12
ATOM     12  O   UNL     1      -0.272   5.980  12.976  1.00  0.00    -0.493 OA
ATOM     13  C   UNL     1       1.066   6.459  12.892  1.00  0.00     0.278 C 
ENDBRANCH   1  12
BRANCH   2  14
ATOM     14  O   UNL     1      -1.146   5.446  15.587  1.00  0.00    -0.504 OA
ATOM     15  H   UNL     1      -0.368   6.068  15.776  1.00  0.00     0.293 HD
ENDBRANCH   2  14
TORSDOF 2
ENDMDL
MODEL 2
REMARK VINA RESULT:    -5.569      1.490      5.343
REMARK INTER + INTRA:          -6.123
REMARK INTER:                  -6.079
REMARK INTRA:                  -0.044
REMARK UNBOUND:                -0.065
REMARK SMILES COc1cc2ccc(=O)oc2cc1O
REMARK SMILES IDX 3 1 13 2 12 3 11 4 5 5 4 6 6 7 7 8 8 9 9 10 10 11 2 12 1 13
REMARK SMILES IDX 14 14
REMARK H PARENT 14 15
REMARK Flexibility Score: inf
ROOT
ATOM      1  C   UNL     1      -1.110   1.097  12.999  1.00  0.00     0.161 A 
ATOM      2  C   UNL     1      -0.973   1.768  11.768  1.00  0.00     0.161 A 
ATOM      3  C   UNL     1      -0.843   3.160  11.733  1.00  0.00     0.098 A 
ATOM      4  C   UNL     1      -0.847   3.900  12.919  1.00  0.00     0.142 A 
ATOM      5  C   UNL     1      -0.984   3.239  14.156  1.00  0.00     0.022 A 
ATOM      6  C   UNL     1      -1.114   1.843  14.194  1.00  0.00     0.062 A 
ATOM      7  C   UNL     1      -0.984   4.007  15.325  1.00  0.00     0.019 A 
ATOM      8  C   UNL     1      -0.852   5.391  15.236  1.00  0.00     0.094 A 
ATOM      9  C   UNL     1      -0.721   5.979  13.972  1.00  0.00     0.336 A 
ATOM     10  O   UNL     1      -0.600   7.227  13.869  1.00  0.00    -0.246 OA
ATOM     11  O   UNL     1      -0.724   5.225  12.876  1.00  0.00    -0.423 OA
ENDROOT
BRANCH   1  12
ATOM     12  O   UNL     1      -1.238  -0.302  12.997  1.00  0.00    -0.493 OA
ATOM     13  C   UNL     1      -1.735  -1.069  14.088  1.00  0.00     0.278 C 
ENDBRANCH   1  12
BRANCH   2  14
ATOM     14  O   UNL     1      -0.964   1.064  10.563  1.00  0.00    -0.504 OA
ATOM     15  H   UNL     1      -1.054   1.526   9.666  1.00  0.00     0.293 HD
ENDBRANCH   2  14
TORSDOF 2
ENDMDL
MODEL 3
REMARK VINA RESULT:    -5.488      1.605      2.573
REMARK INTER + INTRA:          -6.035
REMARK INTER:                  -5.991
REMARK INTRA:                  -0.044
REMARK UNBOUND:                -0.065
REMARK SMILES COc1cc2ccc(=O)oc2cc1O
REMARK SMILES IDX 3 1 13 2 12 3 11 4 5 5 4 6 6 7 7 8 8 9 9 10 10 11 2 12 1 13
REMARK SMILES IDX 14 14
REMARK H PARENT 14 15
REMARK Flexibility Score: inf
ROOT
ATOM      1  C   UNL     1      -1.322   4.644  12.562  1.00  0.00     0.161 A 
ATOM      2  C   UNL     1      -0.718   4.020  11.453  1.00  0.00     0.161 A 
ATOM      3  C   UNL     1      -0.586   2.627  11.412  1.00  0.00     0.098 A 
ATOM      4  C   UNL     1      -1.052   1.841  12.469  1.00  0.00     0.142 A 
ATOM      5  C   UNL     1      -1.659   2.456  13.584  1.00  0.00     0.022 A 
ATOM      6  C   UNL     1      -1.793   3.851  13.628  1.00  0.00     0.062 A 
ATOM      7  C   UNL     1      -2.116   1.643  14.626  1.00  0.00     0.019 A 
ATOM      8  C   UNL     1      -1.959   0.260  14.535  1.00  0.00     0.094 A 
ATOM      9  C   UNL     1      -1.348  -0.279  13.398  1.00  0.00     0.336 A 
ATOM     10  O   UNL     1      -1.198  -1.524  13.296  1.00  0.00    -0.246 OA
ATOM     11  O   UNL     1      -0.922   0.518  12.421  1.00  0.00    -0.423 OA
ENDROOT
BRANCH   1  12
ATOM     12  O   UNL     1      -1.439   6.044  12.571  1.00  0.00    -0.493 OA
ATOM     13  C   UNL     1      -1.796   6.817  13.711  1.00  0.00     0.278 C 
ENDBRANCH   1  12
BRANCH   2  14
ATOM     14  O   UNL     1      -0.240   4.770  10.379  1.00  0.00    -0.504 OA
ATOM     15  H   UNL     1      -0.801   5.481   9.924  1.00  0.00     0.293 HD
ENDBRANCH   2  14
TORSDOF 2
ENDMDL
MODEL 4
REMARK VINA RESULT:    -5.198      1.291      4.953
REMARK INTER + INTRA:          -5.719
REMARK INTER:                  -5.732
REMARK INTRA:                   0.013
REMARK UNBOUND:                -0.065
REMARK SMILES COc1cc2ccc(=O)oc2cc1O
REMARK SMILES IDX 3 1 13 2 12 3 11 4 5 5 4 6 6 7 7 8 8 9 9 10 10 11 2 12 1 13
REMARK SMILES IDX 14 14
REMARK H PARENT 14 15
REMARK Flexibility Score: inf
ROOT
ATOM      1  C   UNL     1      -1.656   0.824  13.483  1.00  0.00     0.161 A 
ATOM      2  C   UNL     1      -2.578   1.410  14.372  1.00  0.00     0.161 A 
ATOM      3  C   UNL     1      -2.469   2.764  14.709  1.00  0.00     0.098 A 
ATOM      4  C   UNL     1      -1.447   3.548  14.168  1.00  0.00     0.142 A 
ATOM      5  C   UNL     1      -0.519   2.970  13.278  1.00  0.00     0.022 A 
ATOM      6  C   UNL     1      -0.625   1.614  12.937  1.00  0.00     0.062 A 
ATOM      7  C   UNL     1       0.493   3.780  12.752  1.00  0.00     0.019 A 
ATOM      8  C   UNL     1       0.557   5.123  13.121  1.00  0.00     0.094 A 
ATOM      9  C   UNL     1      -0.399   5.627  14.011  1.00  0.00     0.336 A 
ATOM     10  O   UNL     1      -0.359   6.837  14.356  1.00  0.00    -0.246 OA
ATOM     11  O   UNL     1      -1.351   4.834  14.495  1.00  0.00    -0.423 OA
ENDROOT
BRANCH   1  12
ATOM     12  O   UNL     1      -1.794  -0.538  13.165  1.00  0.00    -0.493 OA
ATOM     13  C   UNL     1      -1.384  -1.609  14.008  1.00  0.00     0.278 C 
ENDBRANCH   1  12
BRANCH   2  14
ATOM     14  O   UNL     1      -3.612   0.661  14.932  1.00  0.00    -0.504 OA
ATOM     15  H   UNL     1      -3.584   0.333  15.891  1.00  0.00     0.293 HD
ENDBRANCH   2  14
TORSDOF 2
ENDMDL
MODEL 5
REMARK VINA RESULT:    -5.166      1.900      4.836
REMARK INTER + INTRA:          -5.684
REMARK INTER:                  -5.622
REMARK INTRA:                  -0.063
REMARK UNBOUND:                -0.065
REMARK SMILES COc1cc2ccc(=O)oc2cc1O
REMARK SMILES IDX 3 1 13 2 12 3 11 4 5 5 4 6 6 7 7 8 8 9 9 10 10 11 2 12 1 13
REMARK SMILES IDX 14 14
REMARK H PARENT 14 15
REMARK Flexibility Score: inf
ROOT
ATOM      1  C   UNL     1      -1.701   1.550  13.932  1.00  0.00     0.161 A 
ATOM      2  C   UNL     1      -2.624   2.454  14.492  1.00  0.00     0.161 A 
ATOM      3  C   UNL     1      -2.841   3.702  13.896  1.00  0.00     0.098 A 
ATOM      4  C   UNL     1      -2.146   4.064  12.740  1.00  0.00     0.142 A 
ATOM      5  C   UNL     1      -1.219   3.166  12.170  1.00  0.00     0.022 A 
ATOM      6  C   UNL     1      -0.999   1.915  12.765  1.00  0.00     0.062 A 
ATOM      7  C   UNL     1      -0.539   3.556  11.012  1.00  0.00     0.019 A 
ATOM      8  C   UNL     1      -0.792   4.810  10.459  1.00  0.00     0.094 A 
ATOM      9  C   UNL     1      -1.725   5.648  11.079  1.00  0.00     0.336 A 
ATOM     10  O   UNL     1      -1.969   6.785  10.595  1.00  0.00    -0.246 OA
ATOM     11  O   UNL     1      -2.359   5.252  12.180  1.00  0.00    -0.423 OA
ENDROOT
BRANCH   1  12
ATOM     12  O   UNL     1      -1.507   0.306  14.555  1.00  0.00    -0.493 OA
ATOM     13  C   UNL     1      -1.938  -0.941  14.021  1.00  0.00     0.278 C 
ENDBRANCH   1  12
BRANCH   2  14
ATOM     14  O   UNL     1      -3.337   2.130  15.646  1.00  0.00    -0.504 OA
ATOM     15  H   UNL     1      -3.391   1.182  16.000  1.00  0.00     0.293 HD
ENDBRANCH   2  14
TORSDOF 2
ENDMDL
MODEL 6
REMARK VINA RESULT:    -4.985      3.534      5.148
REMARK INTER + INTRA:          -5.487
REMARK INTER:                  -5.437
REMARK INTRA:                  -0.050
REMARK UNBOUND:                -0.065
REMARK SMILES COc1cc2ccc(=O)oc2cc1O
REMARK SMILES IDX 3 1 13 2 12 3 11 4 5 5 4 6 6 7 7 8 8 9 9 10 10 11 2 12 1 13
REMARK SMILES IDX 14 14
REMARK H PARENT 14 15
REMARK Flexibility Score: inf
ROOT
ATOM      1  C   UNL     1      -1.042   3.536  13.066  1.00  0.00     0.161 A 
ATOM      2  C   UNL     1      -0.726   3.312  11.712  1.00  0.00     0.161 A 
ATOM      3  C   UNL     1      -1.618   3.696  10.705  1.00  0.00     0.098 A 
ATOM      4  C   UNL     1      -2.832   4.306  11.031  1.00  0.00     0.142 A 
ATOM      5  C   UNL     1      -3.159   4.535  12.383  1.00  0.00     0.022 A 
ATOM      6  C   UNL     1      -2.267   4.152  13.395  1.00  0.00     0.062 A 
ATOM      7  C   UNL     1      -4.381   5.148  12.679  1.00  0.00     0.019 A 
ATOM      8  C   UNL     1      -5.235   5.510  11.638  1.00  0.00     0.094 A 
ATOM      9  C   UNL     1      -4.843   5.251  10.320  1.00  0.00     0.336 A 
ATOM     10  O   UNL     1      -5.599   5.571   9.365  1.00  0.00    -0.246 OA
ATOM     11  O   UNL     1      -3.675   4.667  10.067  1.00  0.00    -0.423 OA
ENDROOT
BRANCH   1  12
ATOM     12  O   UNL     1      -0.123   3.139  14.051  1.00  0.00    -0.493 OA
ATOM     13  C   UNL     1      -0.468   2.439  15.241  1.00  0.00     0.278 C 
ENDBRANCH   1  12
BRANCH   2  14
ATOM     14  O   UNL     1       0.476   2.706  11.346  1.00  0.00    -0.504 OA
ATOM     15  H   UNL     1       0.948   2.036  11.942  1.00  0.00     0.293 HD
ENDBRANCH   2  14
TORSDOF 2
ENDMDL
MODEL 7
REMARK VINA RESULT:    -4.895      2.376      5.573
REMARK INTER + INTRA:          -5.389
REMARK INTER:                  -5.324
REMARK INTRA:                  -0.065
REMARK UNBOUND:                -0.065
REMARK SMILES COc1cc2ccc(=O)oc2cc1O
REMARK SMILES IDX 3 1 13 2 12 3 11 4 5 5 4 6 6 7 7 8 8 9 9 10 10 11 2 12 1 13
REMARK SMILES IDX 14 14
REMARK H PARENT 14 15
REMARK Flexibility Score: inf
ROOT
ATOM      1  C   UNL     1      -1.318   2.029  12.998  1.00  0.00     0.161 A 
ATOM      2  C   UNL     1      -1.134   1.873  11.610  1.00  0.00     0.161 A 
ATOM      3  C   UNL     1      -1.373   2.943  10.741  1.00  0.00     0.098 A 
ATOM      4  C   UNL     1      -1.797   4.178  11.239  1.00  0.00     0.142 A 
ATOM      5  C   UNL     1      -1.985   4.345  12.627  1.00  0.00     0.022 A 
ATOM      6  C   UNL     1      -1.746   3.275  13.501  1.00  0.00     0.062 A 
ATOM      7  C   UNL     1      -2.409   5.593  13.096  1.00  0.00     0.019 A 
ATOM      8  C   UNL     1      -2.634   6.626  12.188  1.00  0.00     0.094 A 
ATOM      9  C   UNL     1      -2.427   6.386  10.825  1.00  0.00     0.336 A 
ATOM     10  O   UNL     1      -2.623   7.306   9.988  1.00  0.00    -0.246 OA
ATOM     11  O   UNL     1      -2.022   5.190  10.406  1.00  0.00    -0.423 OA
ENDROOT
BRANCH   1  12
ATOM     12  O   UNL     1      -1.069   0.935  13.842  1.00  0.00    -0.493 OA
ATOM     13  C   UNL     1      -2.077   0.101  14.403  1.00  0.00     0.278 C 
ENDBRANCH   1  12
BRANCH   2  14
ATOM     14  O   UNL     1      -0.712   0.657  11.074  1.00  0.00    -0.504 OA
ATOM     15  H   UNL     1       0.208   0.535  10.667  1.00  0.00     0.293 HD
ENDBRANCH   2  14
TORSDOF 2
ENDMDL
MODEL 8
REMARK VINA RESULT:    -4.806      1.453      4.802
REMARK INTER + INTRA:          -5.292
REMARK INTER:                  -5.249
REMARK INTRA:                  -0.043
REMARK UNBOUND:                -0.065
REMARK SMILES COc1cc2ccc(=O)oc2cc1O
REMARK SMILES IDX 3 1 13 2 12 3 11 4 5 5 4 6 6 7 7 8 8 9 9 10 10 11 2 12 1 13
REMARK SMILES IDX 14 14
REMARK H PARENT 14 15
REMARK Flexibility Score: inf
ROOT
ATOM      1  C   UNL     1      -1.322   2.336  14.250  1.00  0.00     0.161 A 
ATOM      2  C   UNL     1      -0.944   3.438  15.042  1.00  0.00     0.161 A 
ATOM      3  C   UNL     1      -0.647   4.668  14.444  1.00  0.00     0.098 A 
ATOM      4  C   UNL     1      -0.720   4.816  13.057  1.00  0.00     0.142 A 
ATOM      5  C   UNL     1      -1.096   3.719  12.255  1.00  0.00     0.022 A 
ATOM      6  C   UNL     1      -1.396   2.485  12.851  1.00  0.00     0.062 A 
ATOM      7  C   UNL     1      -1.161   3.898  10.869  1.00  0.00     0.019 A 
ATOM      8  C   UNL     1      -0.854   5.143  10.324  1.00  0.00     0.094 A 
ATOM      9  C   UNL     1      -0.489   6.186  11.183  1.00  0.00     0.336 A 
ATOM     10  O   UNL     1      -0.208   7.319  10.711  1.00  0.00    -0.246 OA
ATOM     11  O   UNL     1      -0.435   5.989  12.497  1.00  0.00    -0.423 OA
ENDROOT
BRANCH   1  12
ATOM     12  O   UNL     1      -1.614   1.116  14.883  1.00  0.00    -0.493 OA
ATOM     13  C   UNL     1      -2.034  -0.064  14.207  1.00  0.00     0.278 C 
ENDBRANCH   1  12
BRANCH   2  14
ATOM     14  O   UNL     1      -0.860   3.330  16.430  1.00  0.00    -0.504 OA
ATOM     15  H   UNL     1      -1.571   3.705  17.046  1.00  0.00     0.293 HD
ENDBRANCH   2  14
TORSDOF 2
ENDMDL
MODEL 9
REMARK VINA RESULT:    -4.797     10.083     11.420
REMARK INTER + INTRA:          -5.283
REMARK INTER:                  -5.239
REMARK INTRA:                  -0.044
REMARK UNBOUND:                -0.065
REMARK SMILES COc1cc2ccc(=O)oc2cc1O
REMARK SMILES IDX 3 1 13 2 12 3 11 4 5 5 4 6 6 7 7 8 8 9 9 10 10 11 2 12 1 13
REMARK SMILES IDX 14 14
REMARK H PARENT 14 15
REMARK Flexibility Score: inf
ROOT
ATOM      1  C   UNL     1      -9.896  -0.028   9.498  1.00  0.00     0.161 A 
ATOM      2  C   UNL     1      -9.729   0.788  10.633  1.00  0.00     0.161 A 
ATOM      3  C   UNL     1      -9.956   2.167  10.551  1.00  0.00     0.098 A 
ATOM      4  C   UNL     1     -10.349   2.748   9.343  1.00  0.00     0.142 A 
ATOM      5  C   UNL     1     -10.518   1.940   8.200  1.00  0.00     0.022 A 
ATOM      6  C   UNL     1     -10.293   0.558   8.279  1.00  0.00     0.062 A 
ATOM      7  C   UNL     1     -10.913   2.550   7.005  1.00  0.00     0.019 A 
ATOM      8  C   UNL     1     -11.125   3.928   6.977  1.00  0.00     0.094 A 
ATOM      9  C   UNL     1     -10.937   4.666   8.151  1.00  0.00     0.336 A 
ATOM     10  O   UNL     1     -11.124   5.911   8.147  1.00  0.00    -0.246 OA
ATOM     11  O   UNL     1     -10.561   4.060   9.274  1.00  0.00    -0.423 OA
ENDROOT
BRANCH   1  12
ATOM     12  O   UNL     1      -9.661  -1.408   9.615  1.00  0.00    -0.493 OA
ATOM     13  C   UNL     1      -9.509  -2.298   8.515  1.00  0.00     0.278 C 
ENDBRANCH   1  12
BRANCH   2  14
ATOM     14  O   UNL     1      -9.338   0.245  11.857  1.00  0.00    -0.504 OA
ATOM     15  H   UNL     1      -8.669  -0.513  11.923  1.00  0.00     0.293 HD
ENDBRANCH   2  14
TORSDOF 2
ENDMDL
