MODEL 1
REMARK VINA RESULT:    -4.535      0.000      0.000
REMARK INTER + INTRA:          -4.535
REMARK INTER:                  -4.535
REMARK INTRA:                   0.000
REMARK UNBOUND:                 0.000
REMARK SMILES CC1(C)O[C@]2(C)CC[C@H]1CC2
REMARK SMILES IDX 1 1 2 2 9 3 10 4 11 5 5 6 4 7 7 8 8 9 6 10 3 11
REMARK H PARENT
REMARK Flexibility Score: inf
ROOT
ATOM      1  C   UNL     1      21.115   2.085 104.063  1.00  0.00     0.042 C 
ATOM      2  C   UNL     1      22.216   2.756 103.213  1.00  0.00     0.066 C 
ATOM      3  C   UNL     1      22.865   3.963 103.992  1.00  0.00     0.021 C 
ATOM      4  C   UNL     1      23.921   4.627 103.076  1.00  0.00     0.009 C 
ATOM      5  C   UNL     1      23.277   4.945 101.705  1.00  0.00     0.035 C 
ATOM      6  C   UNL     1      21.766   4.578 101.736  1.00  0.00     0.066 C 
ATOM      7  O   UNL     1      21.628   3.176 101.973  1.00  0.00    -0.369 OA
ATOM      8  C   UNL     1      21.078   5.361 102.890  1.00  0.00     0.035 C 
ATOM      9  C   UNL     1      21.774   5.034 104.233  1.00  0.00     0.009 C 
ATOM     10  C   UNL     1      21.108   4.919 100.394  1.00  0.00     0.042 C 
ATOM     11  C   UNL     1      23.275   1.676 102.901  1.00  0.00     0.042 C 
ENDROOT
TORSDOF 0
ENDMDL
MODEL 2
REMARK VINA RESULT:    -4.008      0.985      3.291
REMARK INTER + INTRA:          -4.008
REMARK INTER:                  -4.008
REMARK INTRA:                   0.000
REMARK UNBOUND:                 0.000
REMARK SMILES CC1(C)O[C@]2(C)CC[C@H]1CC2
REMARK SMILES IDX 1 1 2 2 9 3 10 4 11 5 5 6 4 7 7 8 8 9 6 10 3 11
REMARK H PARENT
REMARK Flexibility Score: inf
ROOT
ATOM      1  C   UNL     1      22.819   5.403 100.941  1.00  0.00     0.042 C 
ATOM      2  C   UNL     1      22.064   4.860 102.175  1.00  0.00     0.066 C 
ATOM      3  C   UNL     1      22.919   5.061 103.484  1.00  0.00     0.021 C 
ATOM      4  C   UNL     1      22.140   4.455 104.676  1.00  0.00     0.009 C 
ATOM      5  C   UNL     1      21.725   3.005 104.327  1.00  0.00     0.035 C 
ATOM      6  C   UNL     1      22.305   2.611 102.940  1.00  0.00     0.066 C 
ATOM      7  O   UNL     1      21.765   3.476 101.941  1.00  0.00    -0.369 OA
ATOM      8  C   UNL     1      23.852   2.774 102.973  1.00  0.00     0.035 C 
ATOM      9  C   UNL     1      24.217   4.229 103.354  1.00  0.00     0.009 C 
ATOM     10  C   UNL     1      21.930   1.165 102.596  1.00  0.00     0.042 C 
ATOM     11  C   UNL     1      20.730   5.631 102.271  1.00  0.00     0.042 C 
ENDROOT
TORSDOF 0
ENDMDL
MODEL 3
REMARK VINA RESULT:    -3.941      9.287     10.773
REMARK INTER + INTRA:          -3.941
REMARK INTER:                  -3.941
REMARK INTRA:                   0.000
REMARK UNBOUND:                 0.000
REMARK SMILES CC1(C)O[C@]2(C)CC[C@H]1CC2
REMARK SMILES IDX 1 1 2 2 9 3 10 4 11 5 5 6 4 7 7 8 8 9 6 10 3 11
REMARK H PARENT
REMARK Flexibility Score: inf
ROOT
ATOM      1  C   UNL     1      33.479   5.229 103.726  1.00  0.00     0.042 C 
ATOM      2  C   UNL     1      32.407   4.373 103.016  1.00  0.00     0.066 C 
ATOM      3  C   UNL     1      32.820   2.851 103.015  1.00  0.00     0.021 C 
ATOM      4  C   UNL     1      31.739   2.051 102.249  1.00  0.00     0.009 C 
ATOM      5  C   UNL     1      31.500   2.713 100.869  1.00  0.00     0.035 C 
ATOM      6  C   UNL     1      32.486   3.900 100.677  1.00  0.00     0.066 C 
ATOM      7  O   UNL     1      32.241   4.882 101.684  1.00  0.00    -0.369 OA
ATOM      8  C   UNL     1      33.944   3.375 100.818  1.00  0.00     0.035 C 
ATOM      9  C   UNL     1      34.125   2.698 102.199  1.00  0.00     0.009 C 
ATOM     10  C   UNL     1      32.282   4.543  99.300  1.00  0.00     0.042 C 
ATOM     11  C   UNL     1      31.079   4.578 103.777  1.00  0.00     0.042 C 
ENDROOT
TORSDOF 0
ENDMDL
MODEL 4
REMARK VINA RESULT:    -3.771      1.229      2.528
REMARK INTER + INTRA:          -3.771
REMARK INTER:                  -3.771
REMARK INTRA:                   0.000
REMARK UNBOUND:                 0.000
REMARK SMILES CC1(C)O[C@]2(C)CC[C@H]1CC2
REMARK SMILES IDX 1 1 2 2 9 3 10 4 11 5 5 6 4 7 7 8 8 9 6 10 3 11
REMARK H PARENT
REMARK Flexibility Score: inf
ROOT
ATOM      1  C   UNL     1      22.548   5.304 105.431  1.00  0.00     0.042 C 
ATOM      2  C   UNL     1      21.843   4.412 104.385  1.00  0.00     0.066 C 
ATOM      3  C   UNL     1      22.822   3.295 103.853  1.00  0.00     0.021 C 
ATOM      4  C   UNL     1      22.082   2.468 102.775  1.00  0.00     0.009 C 
ATOM      5  C   UNL     1      21.479   3.429 101.722  1.00  0.00     0.035 C 
ATOM      6  C   UNL     1      21.895   4.893 102.046  1.00  0.00     0.066 C 
ATOM      7  O   UNL     1      21.373   5.257 103.324  1.00  0.00    -0.369 OA
ATOM      8  C   UNL     1      23.447   4.982 102.084  1.00  0.00     0.035 C 
ATOM      9  C   UNL     1      24.003   3.983 103.129  1.00  0.00     0.009 C 
ATOM     10  C   UNL     1      21.333   5.852 100.991  1.00  0.00     0.042 C 
ATOM     11  C   UNL     1      20.616   3.779 105.075  1.00  0.00     0.042 C 
ENDROOT
TORSDOF 0
ENDMDL
MODEL 5
REMARK VINA RESULT:    -3.742      8.580     10.199
REMARK INTER + INTRA:          -3.742
REMARK INTER:                  -3.742
REMARK INTRA:                   0.000
REMARK UNBOUND:                 0.000
REMARK SMILES CC1(C)O[C@]2(C)CC[C@H]1CC2
REMARK SMILES IDX 1 1 2 2 9 3 10 4 11 5 5 6 4 7 7 8 8 9 6 10 3 11
REMARK H PARENT
REMARK Flexibility Score: inf
ROOT
ATOM      1  C   UNL     1      30.048   6.003 104.505  1.00  0.00     0.042 C 
ATOM      2  C   UNL     1      30.731   4.618 104.454  1.00  0.00     0.066 C 
ATOM      3  C   UNL     1      31.714   4.436 105.674  1.00  0.00     0.021 C 
ATOM      4  C   UNL     1      32.406   3.058 105.544  1.00  0.00     0.009 C 
ATOM      5  C   UNL     1      33.018   2.928 104.128  1.00  0.00     0.035 C 
ATOM      6  C   UNL     1      32.814   4.256 103.343  1.00  0.00     0.066 C 
ATOM      7  O   UNL     1      31.416   4.506 103.197  1.00  0.00    -0.369 OA
ATOM      8  C   UNL     1      33.461   5.422 104.144  1.00  0.00     0.035 C 
ATOM      9  C   UNL     1      32.838   5.493 105.560  1.00  0.00     0.009 C 
ATOM     10  C   UNL     1      33.445   4.153 101.950  1.00  0.00     0.042 C 
ATOM     11  C   UNL     1      29.614   3.554 104.490  1.00  0.00     0.042 C 
ENDROOT
TORSDOF 0
ENDMDL
MODEL 6
REMARK VINA RESULT:    -3.643      7.754      9.336
REMARK INTER + INTRA:          -3.643
REMARK INTER:                  -3.643
REMARK INTRA:                   0.000
REMARK UNBOUND:                 0.000
REMARK SMILES CC1(C)O[C@]2(C)CC[C@H]1CC2
REMARK SMILES IDX 1 1 2 2 9 3 10 4 11 5 5 6 4 7 7 8 8 9 6 10 3 11
REMARK H PARENT
REMARK Flexibility Score: inf
ROOT
ATOM      1  C   UNL     1      20.988  -7.020 101.306  1.00  0.00     0.042 C 
ATOM      2  C   UNL     1      21.793  -5.736 101.603  1.00  0.00     0.066 C 
ATOM      3  C   UNL     1      20.968  -4.454 101.197  1.00  0.00     0.021 C 
ATOM      4  C   UNL     1      21.841  -3.205 101.467  1.00  0.00     0.009 C 
ATOM      5  C   UNL     1      23.220  -3.392 100.789  1.00  0.00     0.035 C 
ATOM      6  C   UNL     1      23.237  -4.726  99.989  1.00  0.00     0.066 C 
ATOM      7  O   UNL     1      23.037  -5.817 100.890  1.00  0.00    -0.369 OA
ATOM      8  C   UNL     1      22.081  -4.707  98.948  1.00  0.00     0.035 C 
ATOM      9  C   UNL     1      20.729  -4.489  99.669  1.00  0.00     0.009 C 
ATOM     10  C   UNL     1      24.586  -4.909  99.285  1.00  0.00     0.042 C 
ATOM     11  C   UNL     1      22.105  -5.729 103.115  1.00  0.00     0.042 C 
ENDROOT
TORSDOF 0
ENDMDL
MODEL 7
REMARK VINA RESULT:    -3.631     11.886     13.560
REMARK INTER + INTRA:          -3.631
REMARK INTER:                  -3.631
REMARK INTRA:                   0.000
REMARK UNBOUND:                 0.000
REMARK SMILES CC1(C)O[C@]2(C)CC[C@H]1CC2
REMARK SMILES IDX 1 1 2 2 9 3 10 4 11 5 5 6 4 7 7 8 8 9 6 10 3 11
REMARK H PARENT
REMARK Flexibility Score: inf
ROOT
ATOM      1  C   UNL     1      30.342  -5.546  94.263  1.00  0.00     0.042 C 
ATOM      2  C   UNL     1      28.842  -5.430  93.911  1.00  0.00     0.066 C 
ATOM      3  C   UNL     1      28.517  -4.002  93.325  1.00  0.00     0.021 C 
ATOM      4  C   UNL     1      26.997  -3.925  93.040  1.00  0.00     0.009 C 
ATOM      5  C   UNL     1      26.220  -4.354  94.308  1.00  0.00     0.035 C 
ATOM      6  C   UNL     1      27.218  -4.630  95.469  1.00  0.00     0.066 C 
ATOM      7  O   UNL     1      28.084  -5.704  95.099  1.00  0.00    -0.369 OA
ATOM      8  C   UNL     1      28.068  -3.352  95.721  1.00  0.00     0.035 C 
ATOM      9  C   UNL     1      28.802  -2.946  94.419  1.00  0.00     0.009 C 
ATOM     10  C   UNL     1      26.459  -5.024  96.741  1.00  0.00     0.042 C 
ATOM     11  C   UNL     1      28.528  -6.530  92.875  1.00  0.00     0.042 C 
ENDROOT
TORSDOF 0
ENDMDL
MODEL 8
REMARK VINA RESULT:    -3.626      9.122     10.190
REMARK INTER + INTRA:          -3.626
REMARK INTER:                  -3.626
REMARK INTRA:                   0.000
REMARK UNBOUND:                 0.000
REMARK SMILES CC1(C)O[C@]2(C)CC[C@H]1CC2
REMARK SMILES IDX 1 1 2 2 9 3 10 4 11 5 5 6 4 7 7 8 8 9 6 10 3 11
REMARK H PARENT
REMARK Flexibility Score: inf
ROOT
ATOM      1  C   UNL     1      30.750   2.902 106.676  1.00  0.00     0.042 C 
ATOM      2  C   UNL     1      32.014   3.512 106.031  1.00  0.00     0.066 C 
ATOM      3  C   UNL     1      32.068   5.069 106.272  1.00  0.00     0.021 C 
ATOM      4  C   UNL     1      33.323   5.632 105.563  1.00  0.00     0.009 C 
ATOM      5  C   UNL     1      33.333   5.152 104.091  1.00  0.00     0.035 C 
ATOM      6  C   UNL     1      32.038   4.344 103.792  1.00  0.00     0.066 C 
ATOM      7  O   UNL     1      32.000   3.190 104.632  1.00  0.00    -0.369 OA
ATOM      8  C   UNL     1      30.802   5.238 104.097  1.00  0.00     0.035 C 
ATOM      9  C   UNL     1      30.852   5.717 105.568  1.00  0.00     0.009 C 
ATOM     10  C   UNL     1      32.020   3.891 102.328  1.00  0.00     0.042 C 
ATOM     11  C   UNL     1      33.236   2.818 106.671  1.00  0.00     0.042 C 
ENDROOT
TORSDOF 0
ENDMDL
MODEL 9
REMARK VINA RESULT:    -3.620      7.906     10.220
REMARK INTER + INTRA:          -3.620
REMARK INTER:                  -3.620
REMARK INTRA:                   0.000
REMARK UNBOUND:                 0.000
REMARK SMILES CC1(C)O[C@]2(C)CC[C@H]1CC2
REMARK SMILES IDX 1 1 2 2 9 3 10 4 11 5 5 6 4 7 7 8 8 9 6 10 3 11
REMARK H PARENT
REMARK Flexibility Score: inf
ROOT
ATOM      1  C   UNL     1      20.647  -3.702 101.126  1.00  0.00     0.042 C 
ATOM      2  C   UNL     1      22.001  -4.436 101.250  1.00  0.00     0.066 C 
ATOM      3  C   UNL     1      22.163  -5.504 100.100  1.00  0.00     0.021 C 
ATOM      4  C   UNL     1      23.509  -6.241 100.303  1.00  0.00     0.009 C 
ATOM      5  C   UNL     1      23.588  -6.762 101.758  1.00  0.00     0.035 C 
ATOM      6  C   UNL     1      22.257  -6.454 102.501  1.00  0.00     0.066 C 
ATOM      7  O   UNL     1      22.063  -5.039 102.550  1.00  0.00    -0.369 OA
ATOM      8  C   UNL     1      21.079  -7.104 101.721  1.00  0.00     0.035 C 
ATOM      9  C   UNL     1      21.059  -6.574 100.266  1.00  0.00     0.009 C 
ATOM     10  C   UNL     1      22.310  -6.995 103.935  1.00  0.00     0.042 C 
ATOM     11  C   UNL     1      23.111  -3.367 101.162  1.00  0.00     0.042 C 
ENDROOT
TORSDOF 0
ENDMDL
