MODEL 1
REMARK VINA RESULT:    -4.916      0.000      0.000
REMARK INTER + INTRA:         -10.622
REMARK INTER:                  -8.940
REMARK INTRA:                  -1.683
REMARK UNBOUND:                -1.683
REMARK SMILES CCCCCCCCCCCCCCCC(=O)[O-]
REMARK SMILES IDX 9 1 10 2 11 3 12 4 13 5 14 6 15 7 16 8 17 9 18 10 8 11 7 12
REMARK SMILES IDX 6 13 5 14 4 15 3 16 2 17 1 18
REMARK H PARENT
REMARK Flexibility Score: inf
ROOT
ATOM      1  C   UNL     1      41.474  18.206   9.245  1.00  0.00     0.000 C 
ENDROOT
BRANCH   1   2
ATOM      2  C   UNL     1      41.950  18.945   7.982  1.00  0.00     0.000 C 
BRANCH   2   3
ATOM      3  C   UNL     1      41.506  20.416   7.954  1.00  0.00     0.000 C 
BRANCH   3   4
ATOM      4  C   UNL     1      42.555  21.367   8.553  1.00  0.00     0.000 C 
BRANCH   4   5
ATOM      5  C   UNL     1      41.968  22.154   9.734  1.00  0.00     0.000 C 
BRANCH   5   6
ATOM      6  C   UNL     1      42.418  21.602  11.096  1.00  0.00     0.006 C 
BRANCH   6   7
ATOM      7  C   UNL     1      42.897  22.704  12.052  1.00  0.00     0.053 C 
BRANCH   7   8
ATOM      8  C   UNL     1      43.037  22.165  13.440  1.00  0.00     0.041 C 
ATOM      9  O   UNL     1      42.346  22.642  14.378  1.00  0.00    -0.550 OA
ATOM     10  O   UNL     1      43.967  21.169  13.708  1.00  0.00    -0.550 OA
ENDBRANCH   7   8
ENDBRANCH   6   7
ENDBRANCH   5   6
ENDBRANCH   4   5
ENDBRANCH   3   4
ENDBRANCH   2   3
ENDBRANCH   1   2
BRANCH   1  11
ATOM     11  C   UNL     1      40.196  18.820   9.839  1.00  0.00     0.000 C 
BRANCH  11  12
ATOM     12  C   UNL     1      40.115  18.663  11.365  1.00  0.00    -0.000 C 
BRANCH  12  13
ATOM     13  C   UNL     1      41.142  17.638  11.866  1.00  0.00    -0.000 C 
BRANCH  13  14
ATOM     14  C   UNL     1      42.232  18.271  12.744  1.00  0.00    -0.000 C 
BRANCH  14  15
ATOM     15  C   UNL     1      43.648  18.028  12.199  1.00  0.00    -0.000 C 
BRANCH  15  16
ATOM     16  C   UNL     1      44.284  16.792  12.854  1.00  0.00    -0.000 C 
BRANCH  16  17
ATOM     17  C   UNL     1      44.323  15.579  11.914  1.00  0.00    -0.003 C 
ATOM     18  C   UNL     1      45.275  14.486  12.398  1.00  0.00     0.004 C 
ENDBRANCH  16  17
ENDBRANCH  15  16
ENDBRANCH  14  15
ENDBRANCH  13  14
ENDBRANCH  12  13
ENDBRANCH  11  12
ENDBRANCH   1  11
TORSDOF 14
ENDMDL
MODEL 2
REMARK VINA RESULT:    -4.807      2.629      4.082
REMARK INTER + INTRA:         -10.424
REMARK INTER:                  -8.505
REMARK INTRA:                  -1.919
REMARK UNBOUND:                -1.683
REMARK SMILES CCCCCCCCCCCCCCCC(=O)[O-]
REMARK SMILES IDX 9 1 10 2 11 3 12 4 13 5 14 6 15 7 16 8 17 9 18 10 8 11 7 12
REMARK SMILES IDX 6 13 5 14 4 15 3 16 2 17 1 18
REMARK H PARENT
REMARK Flexibility Score: inf
ROOT
ATOM      1  C   UNL     1      41.700  22.054  10.367  1.00  0.00     0.000 C 
ENDROOT
BRANCH   1   2
ATOM      2  C   UNL     1      41.645  21.760   8.858  1.00  0.00     0.000 C 
BRANCH   2   3
ATOM      3  C   UNL     1      42.109  20.336   8.515  1.00  0.00     0.000 C 
BRANCH   3   4
ATOM      4  C   UNL     1      41.035  19.274   8.803  1.00  0.00     0.000 C 
BRANCH   4   5
ATOM      5  C   UNL     1      41.549  18.235   9.810  1.00  0.00     0.000 C 
BRANCH   5   6
ATOM      6  C   UNL     1      40.549  17.967  10.947  1.00  0.00     0.006 C 
BRANCH   6   7
ATOM      7  C   UNL     1      39.588  19.140  11.178  1.00  0.00     0.053 C 
BRANCH   7   8
ATOM      8  C   UNL     1      38.177  18.715  10.927  1.00  0.00     0.041 C 
ATOM      9  O   UNL     1      37.810  18.382   9.769  1.00  0.00    -0.550 OA
ATOM     10  O   UNL     1      37.250  18.734  11.963  1.00  0.00    -0.550 OA
ENDBRANCH   7   8
ENDBRANCH   6   7
ENDBRANCH   5   6
ENDBRANCH   4   5
ENDBRANCH   3   4
ENDBRANCH   2   3
ENDBRANCH   1   2
BRANCH   1  11
ATOM     11  C   UNL     1      43.083  21.766  10.973  1.00  0.00     0.000 C 
BRANCH  11  12
ATOM     12  C   UNL     1      43.070  21.763  12.510  1.00  0.00    -0.000 C 
BRANCH  12  13
ATOM     13  C   UNL     1      42.921  20.335  13.054  1.00  0.00    -0.000 C 
BRANCH  13  14
ATOM     14  C   UNL     1      43.887  19.343  12.387  1.00  0.00    -0.000 C 
BRANCH  14  15
ATOM     15  C   UNL     1      43.600  17.884  12.778  1.00  0.00    -0.000 C 
BRANCH  15  16
ATOM     16  C   UNL     1      44.677  16.944  12.216  1.00  0.00    -0.000 C 
BRANCH  16  17
ATOM     17  C   UNL     1      44.249  15.469  12.249  1.00  0.00    -0.003 C 
ATOM     18  C   UNL     1      45.438  14.508  12.232  1.00  0.00     0.004 C 
ENDBRANCH  16  17
ENDBRANCH  15  16
ENDBRANCH  14  15
ENDBRANCH  13  14
ENDBRANCH  12  13
ENDBRANCH  11  12
ENDBRANCH   1  11
TORSDOF 14
ENDMDL
MODEL 3
REMARK VINA RESULT:    -4.776      2.876      5.443
REMARK INTER + INTRA:         -10.367
REMARK INTER:                  -8.630
REMARK INTRA:                  -1.737
REMARK UNBOUND:                -1.683
REMARK SMILES CCCCCCCCCCCCCCCC(=O)[O-]
REMARK SMILES IDX 9 1 10 2 11 3 12 4 13 5 14 6 15 7 16 8 17 9 18 10 8 11 7 12
REMARK SMILES IDX 6 13 5 14 4 15 3 16 2 17 1 18
REMARK H PARENT
REMARK Flexibility Score: inf
ROOT
ATOM      1  C   UNL     1      44.282  19.502  12.344  1.00  0.00     0.000 C 
ENDROOT
BRANCH   1   2
ATOM      2  C   UNL     1      43.495  20.391  13.322  1.00  0.00     0.000 C 
BRANCH   2   3
ATOM      3  C   UNL     1      42.446  21.265  12.615  1.00  0.00     0.000 C 
BRANCH   3   4
ATOM      4  C   UNL     1      43.053  22.150  11.513  1.00  0.00     0.000 C 
BRANCH   4   5
ATOM      5  C   UNL     1      42.072  22.317  10.343  1.00  0.00     0.000 C 
BRANCH   5   6
ATOM      6  C   UNL     1      42.563  21.634   9.057  1.00  0.00     0.006 C 
BRANCH   6   7
ATOM      7  C   UNL     1      41.504  20.712   8.437  1.00  0.00     0.053 C 
BRANCH   7   8
ATOM      8  C   UNL     1      42.153  19.686   7.563  1.00  0.00     0.041 C 
ATOM      9  O   UNL     1      42.890  20.043   6.607  1.00  0.00    -0.550 OA
ATOM     10  O   UNL     1      41.904  18.335   7.773  1.00  0.00    -0.550 OA
ENDBRANCH   7   8
ENDBRANCH   6   7
ENDBRANCH   5   6
ENDBRANCH   4   5
ENDBRANCH   3   4
ENDBRANCH   2   3
ENDBRANCH   1   2
BRANCH   1  11
ATOM     11  C   UNL     1      43.775  18.050  12.331  1.00  0.00     0.000 C 
BRANCH  11  12
ATOM     12  C   UNL     1      42.639  17.826  11.321  1.00  0.00    -0.000 C 
BRANCH  12  13
ATOM     13  C   UNL     1      41.287  17.698  12.037  1.00  0.00    -0.000 C 
BRANCH  13  14
ATOM     14  C   UNL     1      40.093  17.919  11.096  1.00  0.00    -0.000 C 
BRANCH  14  15
ATOM     15  C   UNL     1      39.560  19.360  11.144  1.00  0.00    -0.000 C 
BRANCH  15  16
ATOM     16  C   UNL     1      38.045  19.392  10.889  1.00  0.00    -0.000 C 
BRANCH  16  17
ATOM     17  C   UNL     1      37.285  18.344  11.715  1.00  0.00    -0.003 C 
ATOM     18  C   UNL     1      35.809  18.695  11.901  1.00  0.00     0.004 C 
ENDBRANCH  16  17
ENDBRANCH  15  16
ENDBRANCH  14  15
ENDBRANCH  13  14
ENDBRANCH  12  13
ENDBRANCH  11  12
ENDBRANCH   1  11
TORSDOF 14
ENDMDL
MODEL 4
REMARK VINA RESULT:    -4.742      3.870      5.822
REMARK INTER + INTRA:         -10.306
REMARK INTER:                  -8.635
REMARK INTRA:                  -1.671
REMARK UNBOUND:                -1.683
REMARK SMILES CCCCCCCCCCCCCCCC(=O)[O-]
REMARK SMILES IDX 9 1 10 2 11 3 12 4 13 5 14 6 15 7 16 8 17 9 18 10 8 11 7 12
REMARK SMILES IDX 6 13 5 14 4 15 3 16 2 17 1 18
REMARK H PARENT
REMARK Flexibility Score: inf
ROOT
ATOM      1  C   UNL     1      43.070  22.221  12.376  1.00  0.00     0.000 C 
ENDROOT
BRANCH   1   2
ATOM      2  C   UNL     1      42.626  22.487  10.927  1.00  0.00     0.000 C 
BRANCH   2   3
ATOM      3  C   UNL     1      42.944  21.315   9.986  1.00  0.00     0.000 C 
BRANCH   3   4
ATOM      4  C   UNL     1      42.616  21.625   8.516  1.00  0.00     0.000 C 
BRANCH   4   5
ATOM      5  C   UNL     1      42.330  20.334   7.735  1.00  0.00     0.000 C 
BRANCH   5   6
ATOM      6  C   UNL     1      43.031  20.302   6.367  1.00  0.00     0.006 C 
BRANCH   6   7
ATOM      7  C   UNL     1      44.057  21.431   6.202  1.00  0.00     0.053 C 
BRANCH   7   8
ATOM      8  C   UNL     1      44.770  21.300   4.894  1.00  0.00     0.041 C 
ATOM      9  O   UNL     1      45.457  22.257   4.448  1.00  0.00    -0.550 OA
ATOM     10  O   UNL     1      44.638  20.139   4.143  1.00  0.00    -0.550 OA
ENDBRANCH   7   8
ENDBRANCH   6   7
ENDBRANCH   5   6
ENDBRANCH   4   5
ENDBRANCH   3   4
ENDBRANCH   2   3
ENDBRANCH   1   2
BRANCH   1  11
ATOM     11  C   UNL     1      43.028  20.728  12.740  1.00  0.00     0.000 C 
BRANCH  11  12
ATOM     12  C   UNL     1      41.906  20.390  13.733  1.00  0.00    -0.000 C 
BRANCH  12  13
ATOM     13  C   UNL     1      40.918  19.386  13.122  1.00  0.00    -0.000 C 
BRANCH  13  14
ATOM     14  C   UNL     1      41.600  18.375  12.187  1.00  0.00    -0.000 C 
BRANCH  14  15
ATOM     15  C   UNL     1      40.921  18.290  10.810  1.00  0.00    -0.000 C 
BRANCH  15  16
ATOM     16  C   UNL     1      39.805  19.337  10.684  1.00  0.00    -0.000 C 
BRANCH  16  17
ATOM     17  C   UNL     1      38.460  18.720  10.273  1.00  0.00    -0.003 C 
ATOM     18  C   UNL     1      37.426  18.752  11.399  1.00  0.00     0.004 C 
ENDBRANCH  16  17
ENDBRANCH  15  16
ENDBRANCH  14  15
ENDBRANCH  13  14
ENDBRANCH  12  13
ENDBRANCH  11  12
ENDBRANCH   1  11
TORSDOF 14
ENDMDL
MODEL 5
REMARK VINA RESULT:    -4.724      2.303      5.647
REMARK INTER + INTRA:         -10.272
REMARK INTER:                  -8.334
REMARK INTRA:                  -1.939
REMARK UNBOUND:                -1.683
REMARK SMILES CCCCCCCCCCCCCCCC(=O)[O-]
REMARK SMILES IDX 9 1 10 2 11 3 12 4 13 5 14 6 15 7 16 8 17 9 18 10 8 11 7 12
REMARK SMILES IDX 6 13 5 14 4 15 3 16 2 17 1 18
REMARK H PARENT
REMARK Flexibility Score: inf
ROOT
ATOM      1  C   UNL     1      43.139  21.912  10.869  1.00  0.00     0.000 C 
ENDROOT
BRANCH   1   2
ATOM      2  C   UNL     1      42.902  22.482  12.278  1.00  0.00     0.000 C 
BRANCH   2   3
ATOM      3  C   UNL     1      42.763  21.383  13.345  1.00  0.00     0.000 C 
BRANCH   3   4
ATOM      4  C   UNL     1      42.919  19.968  12.766  1.00  0.00     0.000 C 
BRANCH   4   5
ATOM      5  C   UNL     1      41.647  19.139  12.996  1.00  0.00     0.000 C 
BRANCH   5   6
ATOM      6  C   UNL     1      41.687  17.781  12.278  1.00  0.00     0.006 C 
BRANCH   6   7
ATOM      7  C   UNL     1      43.026  17.523  11.574  1.00  0.00     0.053 C 
BRANCH   7   8
ATOM      8  C   UNL     1      43.850  16.553  12.360  1.00  0.00     0.041 C 
ATOM      9  O   UNL     1      44.209  15.462  11.845  1.00  0.00    -0.550 OA
ATOM     10  O   UNL     1      44.181  16.833  13.681  1.00  0.00    -0.550 OA
ENDBRANCH   7   8
ENDBRANCH   6   7
ENDBRANCH   5   6
ENDBRANCH   4   5
ENDBRANCH   3   4
ENDBRANCH   2   3
ENDBRANCH   1   2
BRANCH   1  11
ATOM     11  C   UNL     1      42.252  22.581   9.806  1.00  0.00     0.000 C 
BRANCH  11  12
ATOM     12  C   UNL     1      41.712  21.585   8.769  1.00  0.00    -0.000 C 
BRANCH  12  13
ATOM     13  C   UNL     1      41.706  20.157   9.333  1.00  0.00    -0.000 C 
BRANCH  13  14
ATOM     14  C   UNL     1      40.347  19.459   9.169  1.00  0.00    -0.000 C 
BRANCH  14  15
ATOM     15  C   UNL     1      39.372  19.786  10.311  1.00  0.00    -0.000 C 
BRANCH  15  16
ATOM     16  C   UNL     1      38.279  18.712  10.423  1.00  0.00    -0.000 C 
BRANCH  16  17
ATOM     17  C   UNL     1      37.618  18.683  11.809  1.00  0.00    -0.003 C 
ATOM     18  C   UNL     1      36.092  18.659  11.737  1.00  0.00     0.004 C 
ENDBRANCH  16  17
ENDBRANCH  15  16
ENDBRANCH  14  15
ENDBRANCH  13  14
ENDBRANCH  12  13
ENDBRANCH  11  12
ENDBRANCH   1  11
TORSDOF 14
ENDMDL
MODEL 6
REMARK VINA RESULT:    -4.699      3.295      5.505
REMARK INTER + INTRA:         -10.228
REMARK INTER:                  -8.350
REMARK INTRA:                  -1.878
REMARK UNBOUND:                -1.683
REMARK SMILES CCCCCCCCCCCCCCCC(=O)[O-]
REMARK SMILES IDX 9 1 10 2 11 3 12 4 13 5 14 6 15 7 16 8 17 9 18 10 8 11 7 12
REMARK SMILES IDX 6 13 5 14 4 15 3 16 2 17 1 18
REMARK H PARENT
REMARK Flexibility Score: inf
ROOT
ATOM      1  C   UNL     1      42.989  21.671  12.537  1.00  0.00     0.000 C 
ENDROOT
BRANCH   1   2
ATOM      2  C   UNL     1      43.097  21.571  11.006  1.00  0.00     0.000 C 
BRANCH   2   3
ATOM      3  C   UNL     1      41.831  22.067  10.289  1.00  0.00     0.000 C 
BRANCH   3   4
ATOM      4  C   UNL     1      41.919  21.929   8.760  1.00  0.00     0.000 C 
BRANCH   4   5
ATOM      5  C   UNL     1      41.993  20.451   8.348  1.00  0.00     0.000 C 
BRANCH   5   6
ATOM      6  C   UNL     1      42.690  20.247   6.993  1.00  0.00     0.006 C 
BRANCH   6   7
ATOM      7  C   UNL     1      43.760  21.311   6.713  1.00  0.00     0.053 C 
BRANCH   7   8
ATOM      8  C   UNL     1      44.782  20.784   5.758  1.00  0.00     0.041 C 
ATOM      9  O   UNL     1      44.423  20.162   4.723  1.00  0.00    -0.550 OA
ATOM     10  O   UNL     1      46.136  20.935   6.035  1.00  0.00    -0.550 OA
ENDBRANCH   7   8
ENDBRANCH   6   7
ENDBRANCH   5   6
ENDBRANCH   4   5
ENDBRANCH   3   4
ENDBRANCH   2   3
ENDBRANCH   1   2
BRANCH   1  11
ATOM     11  C   UNL     1      43.468  20.394  13.245  1.00  0.00     0.000 C 
BRANCH  11  12
ATOM     12  C   UNL     1      43.946  19.313  12.263  1.00  0.00    -0.000 C 
BRANCH  12  13
ATOM     13  C   UNL     1      43.056  18.065  12.347  1.00  0.00    -0.000 C 
BRANCH  13  14
ATOM     14  C   UNL     1      42.134  17.911  11.127  1.00  0.00    -0.000 C 
BRANCH  14  15
ATOM     15  C   UNL     1      40.647  17.861  11.512  1.00  0.00    -0.000 C 
BRANCH  15  16
ATOM     16  C   UNL     1      40.062  19.278  11.622  1.00  0.00    -0.000 C 
BRANCH  16  17
ATOM     17  C   UNL     1      38.873  19.501  10.676  1.00  0.00    -0.003 C 
ATOM     18  C   UNL     1      37.610  18.770  11.130  1.00  0.00     0.004 C 
ENDBRANCH  16  17
ENDBRANCH  15  16
ENDBRANCH  14  15
ENDBRANCH  13  14
ENDBRANCH  12  13
ENDBRANCH  11  12
ENDBRANCH   1  11
TORSDOF 14
ENDMDL
MODEL 7
REMARK VINA RESULT:    -4.675      3.632      4.633
REMARK INTER + INTRA:         -10.184
REMARK INTER:                  -8.589
REMARK INTRA:                  -1.595
REMARK UNBOUND:                -1.683
REMARK SMILES CCCCCCCCCCCCCCCC(=O)[O-]
REMARK SMILES IDX 9 1 10 2 11 3 12 4 13 5 14 6 15 7 16 8 17 9 18 10 8 11 7 12
REMARK SMILES IDX 6 13 5 14 4 15 3 16 2 17 1 18
REMARK H PARENT
REMARK Flexibility Score: inf
ROOT
ATOM      1  C   UNL     1      41.685  19.503   8.306  1.00  0.00     0.000 C 
ENDROOT
BRANCH   1   2
ATOM      2  C   UNL     1      40.777  20.697   8.647  1.00  0.00     0.000 C 
BRANCH   2   3
ATOM      3  C   UNL     1      41.557  21.884   9.237  1.00  0.00     0.000 C 
BRANCH   3   4
ATOM      4  C   UNL     1      43.080  21.713   9.118  1.00  0.00     0.000 C 
BRANCH   4   5
ATOM      5  C   UNL     1      43.639  22.567   7.971  1.00  0.00     0.000 C 
BRANCH   5   6
ATOM      6  C   UNL     1      44.610  21.787   7.070  1.00  0.00     0.006 C 
BRANCH   6   7
ATOM      7  C   UNL     1      43.904  21.112   5.886  1.00  0.00     0.053 C 
BRANCH   7   8
ATOM      8  C   UNL     1      44.830  21.012   4.716  1.00  0.00     0.041 C 
ATOM      9  O   UNL     1      45.014  19.905   4.145  1.00  0.00    -0.550 OA
ATOM     10  O   UNL     1      45.529  22.133   4.284  1.00  0.00    -0.550 OA
ENDBRANCH   7   8
ENDBRANCH   6   7
ENDBRANCH   5   6
ENDBRANCH   4   5
ENDBRANCH   3   4
ENDBRANCH   2   3
ENDBRANCH   1   2
BRANCH   1  11
ATOM     11  C   UNL     1      41.486  18.319   9.266  1.00  0.00     0.000 C 
BRANCH  11  12
ATOM     12  C   UNL     1      40.321  18.537  10.244  1.00  0.00    -0.000 C 
BRANCH  12  13
ATOM     13  C   UNL     1      40.731  18.165  11.676  1.00  0.00    -0.000 C 
BRANCH  13  14
ATOM     14  C   UNL     1      41.420  19.322  12.416  1.00  0.00    -0.000 C 
BRANCH  14  15
ATOM     15  C   UNL     1      42.855  18.979  12.847  1.00  0.00    -0.000 C 
BRANCH  15  16
ATOM     16  C   UNL     1      43.068  17.458  12.881  1.00  0.00    -0.000 C 
BRANCH  16  17
ATOM     17  C   UNL     1      44.335  17.021  12.131  1.00  0.00    -0.003 C 
ATOM     18  C   UNL     1      44.563  15.511  12.184  1.00  0.00     0.004 C 
ENDBRANCH  16  17
ENDBRANCH  15  16
ENDBRANCH  14  15
ENDBRANCH  13  14
ENDBRANCH  12  13
ENDBRANCH  11  12
ENDBRANCH   1  11
TORSDOF 14
ENDMDL
MODEL 8
REMARK VINA RESULT:    -4.661      2.731      5.783
REMARK INTER + INTRA:         -10.159
REMARK INTER:                  -8.156
REMARK INTRA:                  -2.002
REMARK UNBOUND:                -1.683
REMARK SMILES CCCCCCCCCCCCCCCC(=O)[O-]
REMARK SMILES IDX 9 1 10 2 11 3 12 4 13 5 14 6 15 7 16 8 17 9 18 10 8 11 7 12
REMARK SMILES IDX 6 13 5 14 4 15 3 16 2 17 1 18
REMARK H PARENT
REMARK Flexibility Score: inf
ROOT
ATOM      1  C   UNL     1      43.797  20.643  13.355  1.00  0.00     0.000 C 
ENDROOT
BRANCH   1   2
ATOM      2  C   UNL     1      43.886  19.645  12.187  1.00  0.00     0.000 C 
BRANCH   2   3
ATOM      3  C   UNL     1      43.820  18.182  12.653  1.00  0.00     0.000 C 
BRANCH   3   4
ATOM      4  C   UNL     1      43.160  17.257  11.617  1.00  0.00     0.000 C 
BRANCH   4   5
ATOM      5  C   UNL     1      41.982  17.960  10.927  1.00  0.00     0.000 C 
BRANCH   5   6
ATOM      6  C   UNL     1      40.698  17.931  11.771  1.00  0.00     0.006 C 
BRANCH   6   7
ATOM      7  C   UNL     1      39.813  19.164  11.544  1.00  0.00     0.053 C 
BRANCH   7   8
ATOM      8  C   UNL     1      38.457  18.752  11.068  1.00  0.00     0.041 C 
ATOM      9  O   UNL     1      37.546  18.490  11.897  1.00  0.00    -0.550 OA
ATOM     10  O   UNL     1      38.211  18.611   9.707  1.00  0.00    -0.550 OA
ENDBRANCH   7   8
ENDBRANCH   6   7
ENDBRANCH   5   6
ENDBRANCH   4   5
ENDBRANCH   3   4
ENDBRANCH   2   3
ENDBRANCH   1   2
BRANCH   1  11
ATOM     11  C   UNL     1      42.606  21.605  13.217  1.00  0.00     0.000 C 
BRANCH  11  12
ATOM     12  C   UNL     1      42.998  22.950  12.587  1.00  0.00    -0.000 C 
BRANCH  12  13
ATOM     13  C   UNL     1      42.342  23.122  11.209  1.00  0.00    -0.000 C 
BRANCH  13  14
ATOM     14  C   UNL     1      43.364  23.125  10.061  1.00  0.00    -0.000 C 
BRANCH  14  15
ATOM     15  C   UNL     1      43.268  21.870   9.179  1.00  0.00    -0.000 C 
BRANCH  15  16
ATOM     16  C   UNL     1      41.849  21.282   9.215  1.00  0.00    -0.000 C 
BRANCH  16  17
ATOM     17  C   UNL     1      41.608  20.252   8.101  1.00  0.00    -0.003 C 
ATOM     18  C   UNL     1      42.668  20.313   7.001  1.00  0.00     0.004 C 
ENDBRANCH  16  17
ENDBRANCH  15  16
ENDBRANCH  14  15
ENDBRANCH  13  14
ENDBRANCH  12  13
ENDBRANCH  11  12
ENDBRANCH   1  11
TORSDOF 14
ENDMDL
MODEL 9
REMARK VINA RESULT:    -4.524      3.669      5.167
REMARK INTER + INTRA:          -9.910
REMARK INTER:                  -8.079
REMARK INTRA:                  -1.831
REMARK UNBOUND:                -1.683
REMARK SMILES CCCCCCCCCCCCCCCC(=O)[O-]
REMARK SMILES IDX 9 1 10 2 11 3 12 4 13 5 14 6 15 7 16 8 17 9 18 10 8 11 7 12
REMARK SMILES IDX 6 13 5 14 4 15 3 16 2 17 1 18
REMARK H PARENT
REMARK Flexibility Score: inf
ROOT
ATOM      1  C   UNL     1      41.297  19.550   8.506  1.00  0.00     0.000 C 
ENDROOT
BRANCH   1   2
ATOM      2  C   UNL     1      40.791  20.763   9.306  1.00  0.00     0.000 C 
BRANCH   2   3
ATOM      3  C   UNL     1      41.708  21.989   9.165  1.00  0.00     0.000 C 
BRANCH   3   4
ATOM      4  C   UNL     1      43.093  21.635   8.599  1.00  0.00     0.000 C 
BRANCH   4   5
ATOM      5  C   UNL     1      43.813  22.892   8.088  1.00  0.00     0.000 C 
BRANCH   5   6
ATOM      6  C   UNL     1      44.198  22.792   6.604  1.00  0.00     0.006 C 
BRANCH   6   7
ATOM      7  C   UNL     1      44.223  21.344   6.096  1.00  0.00     0.053 C 
BRANCH   7   8
ATOM      8  C   UNL     1      44.848  21.278   4.739  1.00  0.00     0.041 C 
ATOM      9  O   UNL     1      44.650  20.280   3.997  1.00  0.00    -0.550 OA
ATOM     10  O   UNL     1      45.691  22.297   4.312  1.00  0.00    -0.550 OA
ENDBRANCH   7   8
ENDBRANCH   6   7
ENDBRANCH   5   6
ENDBRANCH   4   5
ENDBRANCH   3   4
ENDBRANCH   2   3
ENDBRANCH   1   2
BRANCH   1  11
ATOM     11  C   UNL     1      41.528  18.316   9.392  1.00  0.00     0.000 C 
BRANCH  11  12
ATOM     12  C   UNL     1      40.589  18.272  10.608  1.00  0.00    -0.000 C 
BRANCH  12  13
ATOM     13  C   UNL     1      41.342  17.818  11.866  1.00  0.00    -0.000 C 
BRANCH  13  14
ATOM     14  C   UNL     1      42.807  17.451  11.581  1.00  0.00    -0.000 C 
BRANCH  14  15
ATOM     15  C   UNL     1      43.798  18.269  12.424  1.00  0.00    -0.000 C 
BRANCH  15  16
ATOM     16  C   UNL     1      43.122  19.524  13.000  1.00  0.00    -0.000 C 
BRANCH  16  17
ATOM     17  C   UNL     1      43.491  20.800  12.229  1.00  0.00    -0.003 C 
ATOM     18  C   UNL     1      42.780  22.041  12.766  1.00  0.00     0.004 C 
ENDBRANCH  16  17
ENDBRANCH  15  16
ENDBRANCH  14  15
ENDBRANCH  13  14
ENDBRANCH  12  13
ENDBRANCH  11  12
ENDBRANCH   1  11
TORSDOF 14
ENDMDL
