MODEL 1
REMARK VINA RESULT:    -5.420      0.000      0.000
REMARK INTER + INTRA:          -6.498
REMARK INTER:                  -6.370
REMARK INTRA:                  -0.128
REMARK UNBOUND:                -0.128
REMARK SMILES O=C([O-])C=Cc1ccc(O)c(O)c1
REMARK SMILES IDX 6 1 13 2 7 3 11 4 8 5 9 6 5 7 4 8 2 9 1 10 3 11 12 12 10 14
REMARK H PARENT 12 13 10 15
REMARK Flexibility Score: inf
ROOT
ATOM      1  C   UNL     1       8.780  15.539 -21.767  1.00  0.00    -0.022 A 
ATOM      2  C   UNL     1       9.452  16.550 -21.051  1.00  0.00     0.058 A 
ATOM      3  C   UNL     1       7.982  14.624 -21.061  1.00  0.00     0.012 A 
ATOM      4  C   UNL     1       9.307  16.653 -19.659  1.00  0.00     0.157 A 
ATOM      5  C   UNL     1       7.836  14.729 -19.675  1.00  0.00     0.051 A 
ATOM      6  C   UNL     1       8.494  15.744 -18.971  1.00  0.00     0.157 A 
ENDROOT
BRANCH   1   7
ATOM      7  C   UNL     1       8.911  15.381 -23.237  1.00  0.00     0.010 C 
ATOM      8  C   UNL     1       9.891  15.937 -23.961  1.00  0.00     0.025 C 
BRANCH   8   9
ATOM      9  C   UNL     1       9.974  15.762 -25.420  1.00  0.00     0.064 C 
ATOM     10  O   UNL     1       8.945  15.930 -26.125  1.00  0.00    -0.545 OA
ATOM     11  O   UNL     1      11.172  15.418 -26.034  1.00  0.00    -0.545 OA
ENDBRANCH   8   9
ENDBRANCH   1   7
BRANCH   4  12
ATOM     12  O   UNL     1       9.970  17.655 -18.952  1.00  0.00    -0.504 OA
ATOM     13  H   UNL     1      10.932  17.544 -18.651  1.00  0.00     0.293 HD
ENDBRANCH   4  12
BRANCH   6  14
ATOM     14  O   UNL     1       8.350  15.852 -17.590  1.00  0.00    -0.504 OA
ATOM     15  H   UNL     1       7.541  15.474 -17.109  1.00  0.00     0.293 HD
ENDBRANCH   6  14
TORSDOF 4
ENDMDL
MODEL 2
REMARK VINA RESULT:    -5.189      0.899      1.739
REMARK INTER + INTRA:          -6.227
REMARK INTER:                  -6.089
REMARK INTRA:                  -0.138
REMARK UNBOUND:                -0.128
REMARK SMILES O=C([O-])C=Cc1ccc(O)c(O)c1
REMARK SMILES IDX 6 1 13 2 7 3 11 4 8 5 9 6 5 7 4 8 2 9 1 10 3 11 12 12 10 14
REMARK H PARENT 12 13 10 15
REMARK Flexibility Score: inf
ROOT
ATOM      1  C   UNL     1       8.746  15.566 -21.753  1.00  0.00    -0.022 A 
ATOM      2  C   UNL     1       8.751  14.466 -20.871  1.00  0.00     0.058 A 
ATOM      3  C   UNL     1       8.548  16.854 -21.229  1.00  0.00     0.012 A 
ATOM      4  C   UNL     1       8.587  14.659 -19.491  1.00  0.00     0.157 A 
ATOM      5  C   UNL     1       8.388  17.046 -19.854  1.00  0.00     0.051 A 
ATOM      6  C   UNL     1       8.409  15.951 -18.982  1.00  0.00     0.157 A 
ENDROOT
BRANCH   1   7
ATOM      7  C   UNL     1       8.904  15.413 -23.221  1.00  0.00     0.010 C 
ATOM      8  C   UNL     1       9.865  16.015 -23.933  1.00  0.00     0.025 C 
BRANCH   8   9
ATOM      9  C   UNL     1       9.976  15.843 -25.391  1.00  0.00     0.064 C 
ATOM     10  O   UNL     1       8.993  16.119 -26.125  1.00  0.00    -0.545 OA
ATOM     11  O   UNL     1      11.152  15.381 -25.971  1.00  0.00    -0.545 OA
ENDBRANCH   8   9
ENDBRANCH   1   7
BRANCH   4  12
ATOM     12  O   UNL     1       8.595  13.570 -18.620  1.00  0.00    -0.504 OA
ATOM     13  H   UNL     1       8.739  12.624 -18.955  1.00  0.00     0.293 HD
ENDBRANCH   4  12
BRANCH   6  14
ATOM     14  O   UNL     1       8.249  16.138 -17.611  1.00  0.00    -0.504 OA
ATOM     15  H   UNL     1       7.333  16.135 -17.178  1.00  0.00     0.293 HD
ENDBRANCH   6  14
TORSDOF 4
ENDMDL
MODEL 3
REMARK VINA RESULT:    -4.938      2.809      3.564
REMARK INTER + INTRA:          -5.932
REMARK INTER:                  -5.788
REMARK INTRA:                  -0.144
REMARK UNBOUND:                -0.128
REMARK SMILES O=C([O-])C=Cc1ccc(O)c(O)c1
REMARK SMILES IDX 6 1 13 2 7 3 11 4 8 5 9 6 5 7 4 8 2 9 1 10 3 11 12 12 10 14
REMARK H PARENT 12 13 10 15
REMARK Flexibility Score: inf
ROOT
ATOM      1  C   UNL     1       9.031  13.883 -20.653  1.00  0.00    -0.022 A 
ATOM      2  C   UNL     1       9.162  12.482 -20.570  1.00  0.00     0.058 A 
ATOM      3  C   UNL     1       9.257  14.654 -19.502  1.00  0.00     0.012 A 
ATOM      4  C   UNL     1       9.537  11.872 -19.364  1.00  0.00     0.157 A 
ATOM      5  C   UNL     1       9.633  14.047 -18.301  1.00  0.00     0.051 A 
ATOM      6  C   UNL     1       9.776  12.656 -18.229  1.00  0.00     0.157 A 
ENDROOT
BRANCH   1   7
ATOM      7  C   UNL     1       8.626  14.574 -21.903  1.00  0.00     0.010 C 
ATOM      8  C   UNL     1       9.075  15.783 -22.265  1.00  0.00     0.025 C 
BRANCH   8   9
ATOM      9  C   UNL     1       8.636  16.435 -23.509  1.00  0.00     0.064 C 
ATOM     10  O   UNL     1       8.164  17.600 -23.466  1.00  0.00    -0.545 OA
ATOM     11  O   UNL     1       8.737  15.785 -24.733  1.00  0.00    -0.545 OA
ENDBRANCH   8   9
ENDBRANCH   1   7
BRANCH   4  12
ATOM     12  O   UNL     1       9.669  10.487 -19.284  1.00  0.00    -0.504 OA
ATOM     13  H   UNL     1       8.908   9.866 -19.534  1.00  0.00     0.293 HD
ENDBRANCH   4  12
BRANCH   6  14
ATOM     14  O   UNL     1      10.151  12.047 -17.033  1.00  0.00    -0.504 OA
ATOM     15  H   UNL     1      10.051  11.048 -16.892  1.00  0.00     0.293 HD
ENDBRANCH   6  14
TORSDOF 4
ENDMDL
MODEL 4
REMARK VINA RESULT:    -4.825      2.409      2.930
REMARK INTER + INTRA:          -5.799
REMARK INTER:                  -5.651
REMARK INTRA:                  -0.147
REMARK UNBOUND:                -0.128
REMARK SMILES O=C([O-])C=Cc1ccc(O)c(O)c1
REMARK SMILES IDX 6 1 13 2 7 3 11 4 8 5 9 6 5 7 4 8 2 9 1 10 3 11 12 12 10 14
REMARK H PARENT 12 13 10 15
REMARK Flexibility Score: inf
ROOT
ATOM      1  C   UNL     1       9.040  14.459 -20.718  1.00  0.00    -0.022 A 
ATOM      2  C   UNL     1       9.390  14.670 -19.368  1.00  0.00     0.058 A 
ATOM      3  C   UNL     1       8.951  13.142 -21.197  1.00  0.00     0.012 A 
ATOM      4  C   UNL     1       9.620  13.582 -18.514  1.00  0.00     0.157 A 
ATOM      5  C   UNL     1       9.178  12.058 -20.345  1.00  0.00     0.051 A 
ATOM      6  C   UNL     1       9.510  12.274 -19.002  1.00  0.00     0.157 A 
ENDROOT
BRANCH   1   7
ATOM      7  C   UNL     1       8.798  15.577 -21.664  1.00  0.00     0.010 C 
ATOM      8  C   UNL     1       9.173  15.560 -22.950  1.00  0.00     0.025 C 
BRANCH   8   9
ATOM      9  C   UNL     1       8.922  16.697 -23.848  1.00  0.00     0.064 C 
ATOM     10  O   UNL     1       8.132  17.608 -23.490  1.00  0.00    -0.545 OA
ATOM     11  O   UNL     1       9.546  16.784 -25.087  1.00  0.00    -0.545 OA
ENDBRANCH   8   9
ENDBRANCH   1   7
BRANCH   4  12
ATOM     12  O   UNL     1       9.963  13.792 -17.179  1.00  0.00    -0.504 OA
ATOM     13  H   UNL     1      10.016  14.724 -16.786  1.00  0.00     0.293 HD
ENDBRANCH   4  12
BRANCH   6  14
ATOM     14  O   UNL     1       9.736  11.196 -18.149  1.00  0.00    -0.504 OA
ATOM     15  H   UNL     1       9.237  10.320 -18.257  1.00  0.00     0.293 HD
ENDBRANCH   6  14
TORSDOF 4
ENDMDL
MODEL 5
REMARK VINA RESULT:    -4.804      3.194      5.272
REMARK INTER + INTRA:          -5.774
REMARK INTER:                  -5.647
REMARK INTRA:                  -0.127
REMARK UNBOUND:                -0.128
REMARK SMILES O=C([O-])C=Cc1ccc(O)c(O)c1
REMARK SMILES IDX 6 1 13 2 7 3 11 4 8 5 9 6 5 7 4 8 2 9 1 10 3 11 12 12 10 14
REMARK H PARENT 12 13 10 15
REMARK Flexibility Score: inf
ROOT
ATOM      1  C   UNL     1       8.424  15.896 -20.139  1.00  0.00    -0.022 A 
ATOM      2  C   UNL     1       8.844  14.958 -19.175  1.00  0.00     0.058 A 
ATOM      3  C   UNL     1       8.403  15.518 -21.491  1.00  0.00     0.012 A 
ATOM      4  C   UNL     1       9.212  13.660 -19.559  1.00  0.00     0.157 A 
ATOM      5  C   UNL     1       8.767  14.224 -21.872  1.00  0.00     0.051 A 
ATOM      6  C   UNL     1       9.169  13.291 -20.909  1.00  0.00     0.157 A 
ENDROOT
BRANCH   1   7
ATOM      7  C   UNL     1       8.036  17.285 -19.784  1.00  0.00     0.010 C 
ATOM      8  C   UNL     1       8.753  18.075 -18.974  1.00  0.00     0.025 C 
BRANCH   8   9
ATOM      9  C   UNL     1       8.323  19.442 -18.641  1.00  0.00     0.064 C 
ATOM     10  O   UNL     1       7.095  19.713 -18.599  1.00  0.00    -0.545 OA
ATOM     11  O   UNL     1       9.251  20.440 -18.369  1.00  0.00    -0.545 OA
ENDBRANCH   8   9
ENDBRANCH   1   7
BRANCH   4  12
ATOM     12  O   UNL     1       9.624  12.731 -18.604  1.00  0.00    -0.504 OA
ATOM     13  H   UNL     1      10.246  11.967 -18.841  1.00  0.00     0.293 HD
ENDBRANCH   4  12
BRANCH   6  14
ATOM     14  O   UNL     1       9.533  12.000 -21.285  1.00  0.00    -0.504 OA
ATOM     15  H   UNL     1       9.380  11.659 -22.228  1.00  0.00     0.293 HD
ENDBRANCH   6  14
TORSDOF 4
ENDMDL
MODEL 6
REMARK VINA RESULT:    -4.706      1.645      2.069
REMARK INTER + INTRA:          -5.659
REMARK INTER:                  -5.532
REMARK INTRA:                  -0.127
REMARK UNBOUND:                -0.128
REMARK SMILES O=C([O-])C=Cc1ccc(O)c(O)c1
REMARK SMILES IDX 6 1 13 2 7 3 11 4 8 5 9 6 5 7 4 8 2 9 1 10 3 11 12 12 10 14
REMARK H PARENT 12 13 10 15
REMARK Flexibility Score: inf
ROOT
ATOM      1  C   UNL     1       8.801  16.191 -20.205  1.00  0.00    -0.022 A 
ATOM      2  C   UNL     1      10.010  15.923 -19.530  1.00  0.00     0.058 A 
ATOM      3  C   UNL     1       7.587  15.957 -19.540  1.00  0.00     0.012 A 
ATOM      4  C   UNL     1       9.997  15.455 -18.208  1.00  0.00     0.157 A 
ATOM      5  C   UNL     1       7.575  15.493 -18.222  1.00  0.00     0.051 A 
ATOM      6  C   UNL     1       8.779  15.243 -17.552  1.00  0.00     0.157 A 
ENDROOT
BRANCH   1   7
ATOM      7  C   UNL     1       8.761  16.676 -21.608  1.00  0.00     0.010 C 
ATOM      8  C   UNL     1       9.091  15.924 -22.666  1.00  0.00     0.025 C 
BRANCH   8   9
ATOM      9  C   UNL     1       9.047  16.452 -24.039  1.00  0.00     0.064 C 
ATOM     10  O   UNL     1       9.354  17.654 -24.251  1.00  0.00    -0.545 OA
ATOM     11  O   UNL     1       8.674  15.644 -25.106  1.00  0.00    -0.545 OA
ENDBRANCH   8   9
ENDBRANCH   1   7
BRANCH   4  12
ATOM     12  O   UNL     1      11.193  15.193 -17.541  1.00  0.00    -0.504 OA
ATOM     13  H   UNL     1      11.346  15.498 -16.587  1.00  0.00     0.293 HD
ENDBRANCH   4  12
BRANCH   6  14
ATOM     14  O   UNL     1       8.772  14.781 -16.237  1.00  0.00    -0.504 OA
ATOM     15  H   UNL     1       7.966  14.307 -15.846  1.00  0.00     0.293 HD
ENDBRANCH   6  14
TORSDOF 4
ENDMDL
MODEL 7
REMARK VINA RESULT:    -4.613      3.068      5.492
REMARK INTER + INTRA:          -5.549
REMARK INTER:                  -5.398
REMARK INTRA:                  -0.151
REMARK UNBOUND:                -0.128
REMARK SMILES O=C([O-])C=Cc1ccc(O)c(O)c1
REMARK SMILES IDX 6 1 13 2 7 3 11 4 8 5 9 6 5 7 4 8 2 9 1 10 3 11 12 12 10 14
REMARK H PARENT 12 13 10 15
REMARK Flexibility Score: inf
ROOT
ATOM      1  C   UNL     1       9.075  14.429 -19.946  1.00  0.00    -0.022 A 
ATOM      2  C   UNL     1       8.719  15.736 -19.556  1.00  0.00     0.058 A 
ATOM      3  C   UNL     1       9.054  14.099 -21.310  1.00  0.00     0.012 A 
ATOM      4  C   UNL     1       8.374  16.696 -20.519  1.00  0.00     0.157 A 
ATOM      5  C   UNL     1       8.713  15.056 -22.269  1.00  0.00     0.051 A 
ATOM      6  C   UNL     1       8.375  16.357 -21.877  1.00  0.00     0.157 A 
ENDROOT
BRANCH   1   7
ATOM      7  C   UNL     1       9.436  13.374 -18.965  1.00  0.00     0.010 C 
ATOM      8  C   UNL     1       9.495  12.070 -19.262  1.00  0.00     0.025 C 
BRANCH   8   9
ATOM      9  C   UNL     1       9.847  11.058 -18.254  1.00  0.00     0.064 C 
ATOM     10  O   UNL     1      10.262   9.929 -18.625  1.00  0.00    -0.545 OA
ATOM     11  O   UNL     1       9.730  11.328 -16.895  1.00  0.00    -0.545 OA
ENDBRANCH   8   9
ENDBRANCH   1   7
BRANCH   4  12
ATOM     12  O   UNL     1       8.025  17.990 -20.133  1.00  0.00    -0.504 OA
ATOM     13  H   UNL     1       7.483  18.165 -19.294  1.00  0.00     0.293 HD
ENDBRANCH   4  12
BRANCH   6  14
ATOM     14  O   UNL     1       8.035  17.315 -22.830  1.00  0.00    -0.504 OA
ATOM     15  H   UNL     1       7.124  17.322 -23.275  1.00  0.00     0.293 HD
ENDBRANCH   6  14
TORSDOF 4
ENDMDL
MODEL 8
REMARK VINA RESULT:    -4.494      3.076      6.192
REMARK INTER + INTRA:          -5.409
REMARK INTER:                  -5.286
REMARK INTRA:                  -0.123
REMARK UNBOUND:                -0.128
REMARK SMILES O=C([O-])C=Cc1ccc(O)c(O)c1
REMARK SMILES IDX 6 1 13 2 7 3 11 4 8 5 9 6 5 7 4 8 2 9 1 10 3 11 12 12 10 14
REMARK H PARENT 12 13 10 15
REMARK Flexibility Score: inf
ROOT
ATOM      1  C   UNL     1       9.458  15.150 -18.960  1.00  0.00    -0.022 A 
ATOM      2  C   UNL     1       8.952  14.480 -20.092  1.00  0.00     0.058 A 
ATOM      3  C   UNL     1       9.505  16.553 -18.966  1.00  0.00     0.012 A 
ATOM      4  C   UNL     1       8.480  15.206 -21.196  1.00  0.00     0.157 A 
ATOM      5  C   UNL     1       9.032  17.276 -20.065  1.00  0.00     0.051 A 
ATOM      6  C   UNL     1       8.516  16.605 -21.181  1.00  0.00     0.157 A 
ENDROOT
BRANCH   1   7
ATOM      7  C   UNL     1       9.980  14.428 -17.772  1.00  0.00     0.010 C 
ATOM      8  C   UNL     1       9.944  13.096 -17.636  1.00  0.00     0.025 C 
BRANCH   8   9
ATOM      9  C   UNL     1      10.463  12.423 -16.434  1.00  0.00     0.064 C 
ATOM     10  O   UNL     1       9.761  12.389 -15.390  1.00  0.00    -0.545 OA
ATOM     11  O   UNL     1      11.716  11.822 -16.433  1.00  0.00    -0.545 OA
ENDBRANCH   8   9
ENDBRANCH   1   7
BRANCH   4  12
ATOM     12  O   UNL     1       7.977  14.542 -22.314  1.00  0.00    -0.504 OA
ATOM     13  H   UNL     1       7.456  15.032 -23.032  1.00  0.00     0.293 HD
ENDBRANCH   4  12
BRANCH   6  14
ATOM     14  O   UNL     1       8.044  17.322 -22.278  1.00  0.00    -0.504 OA
ATOM     15  H   UNL     1       7.781  18.297 -22.202  1.00  0.00     0.293 HD
ENDBRANCH   6  14
TORSDOF 4
ENDMDL
MODEL 9
REMARK VINA RESULT:    -4.443      2.082      3.012
REMARK INTER + INTRA:          -5.350
REMARK INTER:                  -5.217
REMARK INTRA:                  -0.133
REMARK UNBOUND:                -0.128
REMARK SMILES O=C([O-])C=Cc1ccc(O)c(O)c1
REMARK SMILES IDX 6 1 13 2 7 3 11 4 8 5 9 6 5 7 4 8 2 9 1 10 3 11 12 12 10 14
REMARK H PARENT 12 13 10 15
REMARK Flexibility Score: inf
ROOT
ATOM      1  C   UNL     1       9.078  15.673 -19.835  1.00  0.00    -0.022 A 
ATOM      2  C   UNL     1       8.227  14.713 -19.252  1.00  0.00     0.058 A 
ATOM      3  C   UNL     1      10.280  15.998 -19.186  1.00  0.00     0.012 A 
ATOM      4  C   UNL     1       8.589  14.075 -18.056  1.00  0.00     0.157 A 
ATOM      5  C   UNL     1      10.641  15.360 -17.996  1.00  0.00     0.051 A 
ATOM      6  C   UNL     1       9.799  14.396 -17.429  1.00  0.00     0.157 A 
ENDROOT
BRANCH   1   7
ATOM      7  C   UNL     1       8.736  16.384 -21.093  1.00  0.00     0.010 C 
ATOM      8  C   UNL     1       9.315  16.129 -22.274  1.00  0.00     0.025 C 
BRANCH   8   9
ATOM      9  C   UNL     1       8.951  16.868 -23.493  1.00  0.00     0.064 C 
ATOM     10  O   UNL     1       7.956  17.637 -23.479  1.00  0.00    -0.545 OA
ATOM     11  O   UNL     1       9.691  16.732 -24.662  1.00  0.00    -0.545 OA
ENDBRANCH   8   9
ENDBRANCH   1   7
BRANCH   4  12
ATOM     12  O   UNL     1       7.747  13.123 -17.481  1.00  0.00    -0.504 OA
ATOM     13  H   UNL     1       6.776  13.038 -17.757  1.00  0.00     0.293 HD
ENDBRANCH   4  12
BRANCH   6  14
ATOM     14  O   UNL     1      10.155  13.758 -16.243  1.00  0.00    -0.504 OA
ATOM     15  H   UNL     1       9.618  12.980 -15.878  1.00  0.00     0.293 HD
ENDBRANCH   6  14
TORSDOF 4
ENDMDL
