MODEL 1
REMARK VINA RESULT:    -7.144      0.000      0.000
REMARK INTER + INTRA:          -8.938
REMARK INTER:                  -8.606
REMARK INTRA:                  -0.332
REMARK UNBOUND:                -0.332
REMARK SMILES O=c1c(O)c(-c2ccc(O)c(O)c2)oc2cc(O)cc(O)c12
REMARK SMILES IDX 5 1 3 2 2 3 1 4 22 5 20 6 19 7 17 8 16 9 15 10 14 11 6 12
REMARK SMILES IDX 7 13 8 14 9 15 13 16 11 17 10 18 12 20 4 22 21 24 18 26
REMARK H PARENT 10 19 12 21 4 23 21 25 18 27
REMARK Flexibility Score: inf
ROOT
ATOM      1  C   UNL     1     165.575 154.822 151.217  1.00  0.00     0.180 A 
ATOM      2  C   UNL     1     164.515 153.902 151.333  1.00  0.00     0.208 A 
ATOM      3  C   UNL     1     164.741 152.561 150.986  1.00  0.00     0.238 A 
ATOM      4  O   UNL     1     163.802 151.725 151.097  1.00  0.00    -0.285 OA
ATOM      5  C   UNL     1     166.009 152.167 150.512  1.00  0.00     0.111 A 
ATOM      6  C   UNL     1     166.316 150.836 150.137  1.00  0.00     0.134 A 
ATOM      7  C   UNL     1     167.600 150.525 149.666  1.00  0.00     0.093 A 
ATOM      8  C   UNL     1     168.580 151.516 149.561  1.00  0.00     0.123 A 
ATOM      9  C   UNL     1     168.282 152.831 149.930  1.00  0.00     0.094 A 
ATOM     10  C   UNL     1     167.008 153.161 150.404  1.00  0.00     0.146 A 
ATOM     11  O   UNL     1     166.753 154.417 150.752  1.00  0.00    -0.452 OA
ENDROOT
BRANCH   1  12
ATOM     12  C   UNL     1     165.421 156.249 151.582  1.00  0.00     0.025 A 
ATOM     13  C   UNL     1     165.075 157.181 150.590  1.00  0.00     0.016 A 
ATOM     14  C   UNL     1     164.945 158.535 150.906  1.00  0.00     0.051 A 
ATOM     15  C   UNL     1     165.173 158.981 152.214  1.00  0.00     0.157 A 
ATOM     16  C   UNL     1     165.670 156.703 152.889  1.00  0.00     0.062 A 
ATOM     17  C   UNL     1     165.542 158.059 153.209  1.00  0.00     0.158 A 
BRANCH  15  18
ATOM     18  O   UNL     1     165.040 160.333 152.528  1.00  0.00    -0.504 OA
ATOM     19  H   UNL     1     165.534 160.747 153.309  1.00  0.00     0.293 HD
ENDBRANCH  15  18
BRANCH  17  20
ATOM     20  O   UNL     1     165.790 158.473 154.517  1.00  0.00    -0.504 OA
ATOM     21  H   UNL     1     165.976 159.441 154.750  1.00  0.00     0.293 HD
ENDBRANCH  17  20
ENDBRANCH   1  12
BRANCH   2  22
ATOM     22  O   UNL     1     163.254 154.328 151.759  1.00  0.00    -0.502 OA
ATOM     23  H   UNL     1     162.824 153.983 152.609  1.00  0.00     0.293 HD
ENDBRANCH   2  22
BRANCH   6  24
ATOM     24  O   UNL     1     165.359 149.825 150.230  1.00  0.00    -0.507 OA
ATOM     25  H   UNL     1     165.252 149.269 151.071  1.00  0.00     0.293 HD
ENDBRANCH   6  24
BRANCH   8  26
ATOM     26  O   UNL     1     169.846 151.181 149.088  1.00  0.00    -0.508 OA
ATOM     27  H   UNL     1     170.643 151.791 149.230  1.00  0.00     0.293 HD
ENDBRANCH   8  26
TORSDOF 6
ENDMDL
MODEL 2
REMARK VINA RESULT:    -6.990      2.026      7.184
REMARK INTER + INTRA:          -8.752
REMARK INTER:                  -8.428
REMARK INTRA:                  -0.324
REMARK UNBOUND:                -0.332
REMARK SMILES O=c1c(O)c(-c2ccc(O)c(O)c2)oc2cc(O)cc(O)c12
REMARK SMILES IDX 5 1 3 2 2 3 1 4 22 5 20 6 19 7 17 8 16 9 15 10 14 11 6 12
REMARK SMILES IDX 7 13 8 14 9 15 13 16 11 17 10 18 12 20 4 22 21 24 18 26
REMARK H PARENT 10 19 12 21 4 23 21 25 18 27
REMARK Flexibility Score: inf
ROOT
ATOM      1  C   UNL     1     166.542 151.335 149.646  1.00  0.00     0.180 A 
ATOM      2  C   UNL     1     165.317 150.811 150.105  1.00  0.00     0.208 A 
ATOM      3  C   UNL     1     164.396 151.678 150.713  1.00  0.00     0.238 A 
ATOM      4  O   UNL     1     163.290 151.223 151.118  1.00  0.00    -0.285 OA
ATOM      5  C   UNL     1     164.719 153.042 150.871  1.00  0.00     0.111 A 
ATOM      6  C   UNL     1     163.848 153.979 151.477  1.00  0.00     0.134 A 
ATOM      7  C   UNL     1     164.247 155.317 151.605  1.00  0.00     0.093 A 
ATOM      8  C   UNL     1     165.497 155.736 151.141  1.00  0.00     0.123 A 
ATOM      9  C   UNL     1     166.361 154.815 150.541  1.00  0.00     0.094 A 
ATOM     10  C   UNL     1     165.981 153.476 150.403  1.00  0.00     0.146 A 
ATOM     11  O   UNL     1     166.819 152.623 149.825  1.00  0.00    -0.452 OA
ENDROOT
BRANCH   1  12
ATOM     12  C   UNL     1     167.557 150.488 148.977  1.00  0.00     0.025 A 
ATOM     13  C   UNL     1     167.510 150.328 147.583  1.00  0.00     0.016 A 
ATOM     14  C   UNL     1     168.444 149.518 146.932  1.00  0.00     0.051 A 
ATOM     15  C   UNL     1     169.428 148.843 147.666  1.00  0.00     0.157 A 
ATOM     16  C   UNL     1     168.533 149.793 149.713  1.00  0.00     0.062 A 
ATOM     17  C   UNL     1     169.468 148.979 149.065  1.00  0.00     0.158 A 
BRANCH  15  18
ATOM     18  O   UNL     1     170.360 148.037 147.014  1.00  0.00    -0.504 OA
ATOM     19  H   UNL     1     170.972 148.409 146.298  1.00  0.00     0.293 HD
ENDBRANCH  15  18
BRANCH  17  20
ATOM     20  O   UNL     1     170.426 148.310 149.825  1.00  0.00    -0.504 OA
ATOM     21  H   UNL     1     170.241 147.997 150.771  1.00  0.00     0.293 HD
ENDBRANCH  17  20
ENDBRANCH   1  12
BRANCH   2  22
ATOM     22  O   UNL     1     165.042 149.447 149.981  1.00  0.00    -0.502 OA
ATOM     23  H   UNL     1     165.250 148.926 149.138  1.00  0.00     0.293 HD
ENDBRANCH   2  22
BRANCH   6  24
ATOM     24  O   UNL     1     162.593 153.592 151.950  1.00  0.00    -0.507 OA
ATOM     25  H   UNL     1     162.394 152.632 152.209  1.00  0.00     0.293 HD
ENDBRANCH   6  24
BRANCH   8  26
ATOM     26  O   UNL     1     165.869 157.071 151.281  1.00  0.00    -0.508 OA
ATOM     27  H   UNL     1     165.935 157.690 150.482  1.00  0.00     0.293 HD
ENDBRANCH   8  26
TORSDOF 6
ENDMDL
MODEL 3
REMARK VINA RESULT:    -6.704      2.682      4.967
REMARK INTER + INTRA:          -8.408
REMARK INTER:                  -8.542
REMARK INTRA:                   0.134
REMARK UNBOUND:                -0.332
REMARK SMILES O=c1c(O)c(-c2ccc(O)c(O)c2)oc2cc(O)cc(O)c12
REMARK SMILES IDX 5 1 3 2 2 3 1 4 22 5 20 6 19 7 17 8 16 9 15 10 14 11 6 12
REMARK SMILES IDX 7 13 8 14 9 15 13 16 11 17 10 18 12 20 4 22 21 24 18 26
REMARK H PARENT 10 19 12 21 4 23 21 25 18 27
REMARK Flexibility Score: inf
ROOT
ATOM      1  C   UNL     1     167.195 151.880 149.719  1.00  0.00     0.180 A 
ATOM      2  C   UNL     1     167.977 152.610 148.802  1.00  0.00     0.208 A 
ATOM      3  C   UNL     1     169.118 152.005 148.253  1.00  0.00     0.238 A 
ATOM      4  O   UNL     1     169.821 152.645 147.423  1.00  0.00    -0.285 OA
ATOM      5  C   UNL     1     169.470 150.696 148.642  1.00  0.00     0.111 A 
ATOM      6  C   UNL     1     170.606 150.018 148.139  1.00  0.00     0.134 A 
ATOM      7  C   UNL     1     170.893 148.718 148.582  1.00  0.00     0.093 A 
ATOM      8  C   UNL     1     170.069 148.086 149.517  1.00  0.00     0.123 A 
ATOM      9  C   UNL     1     168.945 148.751 150.016  1.00  0.00     0.094 A 
ATOM     10  C   UNL     1     168.641 150.046 149.586  1.00  0.00     0.146 A 
ATOM     11  O   UNL     1     167.565 150.653 150.073  1.00  0.00    -0.452 OA
ENDROOT
BRANCH   1  12
ATOM     12  C   UNL     1     165.966 152.442 150.326  1.00  0.00     0.025 A 
ATOM     13  C   UNL     1     164.816 151.642 150.419  1.00  0.00     0.016 A 
ATOM     14  C   UNL     1     163.639 152.157 150.969  1.00  0.00     0.051 A 
ATOM     15  C   UNL     1     163.589 153.483 151.418  1.00  0.00     0.157 A 
ATOM     16  C   UNL     1     165.907 153.778 150.758  1.00  0.00     0.062 A 
ATOM     17  C   UNL     1     164.729 154.298 151.307  1.00  0.00     0.158 A 
BRANCH  15  18
ATOM     18  O   UNL     1     162.415 153.993 151.968  1.00  0.00    -0.504 OA
ATOM     19  H   UNL     1     161.679 154.375 151.385  1.00  0.00     0.293 HD
ENDBRANCH  15  18
BRANCH  17  20
ATOM     20  O   UNL     1     164.708 155.626 151.731  1.00  0.00    -0.504 OA
ATOM     21  H   UNL     1     165.472 156.036 152.256  1.00  0.00     0.293 HD
ENDBRANCH  17  20
ENDBRANCH   1  12
BRANCH   2  22
ATOM     22  O   UNL     1     167.634 153.924 148.471  1.00  0.00    -0.502 OA
ATOM     23  H   UNL     1     168.288 154.692 148.557  1.00  0.00     0.293 HD
ENDBRANCH   2  22
BRANCH   6  24
ATOM     24  O   UNL     1     171.448 150.622 147.205  1.00  0.00    -0.507 OA
ATOM     25  H   UNL     1     172.264 150.146 146.836  1.00  0.00     0.293 HD
ENDBRANCH   6  24
BRANCH   8  26
ATOM     26  O   UNL     1     170.377 146.796 149.942  1.00  0.00    -0.508 OA
ATOM     27  H   UNL     1     170.306 146.001 149.317  1.00  0.00     0.293 HD
ENDBRANCH   8  26
TORSDOF 6
ENDMDL
MODEL 4
REMARK VINA RESULT:    -6.661      2.445      4.148
REMARK INTER + INTRA:          -8.356
REMARK INTER:                  -8.038
REMARK INTRA:                  -0.318
REMARK UNBOUND:                -0.332
REMARK SMILES O=c1c(O)c(-c2ccc(O)c(O)c2)oc2cc(O)cc(O)c12
REMARK SMILES IDX 5 1 3 2 2 3 1 4 22 5 20 6 19 7 17 8 16 9 15 10 14 11 6 12
REMARK SMILES IDX 7 13 8 14 9 15 13 16 11 17 10 18 12 20 4 22 21 24 18 26
REMARK H PARENT 10 19 12 21 4 23 21 25 18 27
REMARK Flexibility Score: inf
ROOT
ATOM      1  C   UNL     1     166.723 152.211 149.158  1.00  0.00     0.180 A 
ATOM      2  C   UNL     1     166.263 151.804 147.890  1.00  0.00     0.208 A 
ATOM      3  C   UNL     1     166.959 150.792 147.209  1.00  0.00     0.238 A 
ATOM      4  O   UNL     1     166.550 150.412 146.077  1.00  0.00    -0.285 OA
ATOM      5  C   UNL     1     168.108 150.221 147.794  1.00  0.00     0.111 A 
ATOM      6  C   UNL     1     168.868 149.201 147.171  1.00  0.00     0.134 A 
ATOM      7  C   UNL     1     170.005 148.691 147.814  1.00  0.00     0.093 A 
ATOM      8  C   UNL     1     170.397 149.179 149.064  1.00  0.00     0.123 A 
ATOM      9  C   UNL     1     169.650 150.186 149.682  1.00  0.00     0.094 A 
ATOM     10  C   UNL     1     168.512 150.707 149.058  1.00  0.00     0.146 A 
ATOM     11  O   UNL     1     167.819 151.660 149.671  1.00  0.00    -0.452 OA
ENDROOT
BRANCH   1  12
ATOM     12  C   UNL     1     166.032 153.257 149.946  1.00  0.00     0.025 A 
ATOM     13  C   UNL     1     166.555 154.560 149.970  1.00  0.00     0.016 A 
ATOM     14  C   UNL     1     165.932 155.558 150.723  1.00  0.00     0.051 A 
ATOM     15  C   UNL     1     164.787 155.266 151.475  1.00  0.00     0.157 A 
ATOM     16  C   UNL     1     164.895 152.962 150.719  1.00  0.00     0.062 A 
ATOM     17  C   UNL     1     164.270 153.959 151.476  1.00  0.00     0.158 A 
BRANCH  15  18
ATOM     18  O   UNL     1     164.166 156.265 152.224  1.00  0.00    -0.504 OA
ATOM     19  H   UNL     1     164.696 157.016 152.647  1.00  0.00     0.293 HD
ENDBRANCH  15  18
BRANCH  17  20
ATOM     20  O   UNL     1     163.140 153.632 152.225  1.00  0.00    -0.504 OA
ATOM     21  H   UNL     1     162.398 153.050 151.854  1.00  0.00     0.293 HD
ENDBRANCH  17  20
ENDBRANCH   1  12
BRANCH   2  22
ATOM     22  O   UNL     1     165.151 152.420 147.311  1.00  0.00    -0.502 OA
ATOM     23  H   UNL     1     164.203 152.113 147.496  1.00  0.00     0.293 HD
ENDBRANCH   2  22
BRANCH   6  24
ATOM     24  O   UNL     1     168.502 148.693 145.924  1.00  0.00    -0.507 OA
ATOM     25  H   UNL     1     168.838 147.794 145.596  1.00  0.00     0.293 HD
ENDBRANCH   6  24
BRANCH   8  26
ATOM     26  O   UNL     1     171.531 148.656 149.680  1.00  0.00    -0.508 OA
ATOM     27  H   UNL     1     171.795 147.684 149.566  1.00  0.00     0.293 HD
ENDBRANCH   8  26
TORSDOF 6
ENDMDL
MODEL 5
REMARK VINA RESULT:    -6.617      2.948      8.505
REMARK INTER + INTRA:          -8.304
REMARK INTER:                  -7.977
REMARK INTRA:                  -0.327
REMARK UNBOUND:                -0.332
REMARK SMILES O=c1c(O)c(-c2ccc(O)c(O)c2)oc2cc(O)cc(O)c12
REMARK SMILES IDX 5 1 3 2 2 3 1 4 22 5 20 6 19 7 17 8 16 9 15 10 14 11 6 12
REMARK SMILES IDX 7 13 8 14 9 15 13 16 11 17 10 18 12 20 4 22 21 24 18 26
REMARK H PARENT 10 19 12 21 4 23 21 25 18 27
REMARK Flexibility Score: inf
ROOT
ATOM      1  C   UNL     1     167.388 149.697 150.006  1.00  0.00     0.180 A 
ATOM      2  C   UNL     1     168.286 150.645 149.475  1.00  0.00     0.208 A 
ATOM      3  C   UNL     1     167.951 152.006 149.542  1.00  0.00     0.238 A 
ATOM      4  O   UNL     1     168.751 152.865 149.079  1.00  0.00    -0.285 OA
ATOM      5  C   UNL     1     166.724 152.396 150.118  1.00  0.00     0.111 A 
ATOM      6  C   UNL     1     166.311 153.747 150.220  1.00  0.00     0.134 A 
ATOM      7  C   UNL     1     165.070 154.052 150.798  1.00  0.00     0.093 A 
ATOM      8  C   UNL     1     164.236 153.037 151.274  1.00  0.00     0.123 A 
ATOM      9  C   UNL     1     164.639 151.702 151.176  1.00  0.00     0.094 A 
ATOM     10  C   UNL     1     165.873 151.377 150.604  1.00  0.00     0.146 A 
ATOM     11  O   UNL     1     166.234 150.101 150.528  1.00  0.00    -0.452 OA
ENDROOT
BRANCH   1  12
ATOM     12  C   UNL     1     167.679 148.246 149.991  1.00  0.00     0.025 A 
ATOM     13  C   UNL     1     167.279 147.474 148.887  1.00  0.00     0.016 A 
ATOM     14  C   UNL     1     167.523 146.099 148.860  1.00  0.00     0.051 A 
ATOM     15  C   UNL     1     168.157 145.471 149.940  1.00  0.00     0.157 A 
ATOM     16  C   UNL     1     168.295 147.609 151.082  1.00  0.00     0.062 A 
ATOM     17  C   UNL     1     168.540 146.231 151.059  1.00  0.00     0.158 A 
BRANCH  15  18
ATOM     18  O   UNL     1     168.401 144.099 149.908  1.00  0.00    -0.504 OA
ATOM     19  H   UNL     1     168.900 143.668 149.140  1.00  0.00     0.293 HD
ENDBRANCH  15  18
BRANCH  17  20
ATOM     20  O   UNL     1     169.160 145.634 152.156  1.00  0.00    -0.504 OA
ATOM     21  H   UNL     1     169.999 146.017 152.574  1.00  0.00     0.293 HD
ENDBRANCH  17  20
ENDBRANCH   1  12
BRANCH   2  22
ATOM     22  O   UNL     1     169.472 150.230 148.866  1.00  0.00    -0.502 OA
ATOM     23  H   UNL     1     169.697 149.252 148.727  1.00  0.00     0.293 HD
ENDBRANCH   2  22
BRANCH   6  24
ATOM     24  O   UNL     1     167.121 154.783 149.754  1.00  0.00    -0.507 OA
ATOM     25  H   UNL     1     166.768 155.727 149.645  1.00  0.00     0.293 HD
ENDBRANCH   6  24
BRANCH   8  26
ATOM     26  O   UNL     1     163.008 153.368 151.843  1.00  0.00    -0.508 OA
ATOM     27  H   UNL     1     162.837 153.258 152.835  1.00  0.00     0.293 HD
ENDBRANCH   8  26
TORSDOF 6
ENDMDL
MODEL 6
REMARK VINA RESULT:    -6.611      2.770      4.751
REMARK INTER + INTRA:          -8.296
REMARK INTER:                  -7.977
REMARK INTRA:                  -0.318
REMARK UNBOUND:                -0.332
REMARK SMILES O=c1c(O)c(-c2ccc(O)c(O)c2)oc2cc(O)cc(O)c12
REMARK SMILES IDX 5 1 3 2 2 3 1 4 22 5 20 6 19 7 17 8 16 9 15 10 14 11 6 12
REMARK SMILES IDX 7 13 8 14 9 15 13 16 11 17 10 18 12 20 4 22 21 24 18 26
REMARK H PARENT 10 19 12 21 4 23 21 25 18 27
REMARK Flexibility Score: inf
ROOT
ATOM      1  C   UNL     1     165.530 150.601 150.080  1.00  0.00     0.180 A 
ATOM      2  C   UNL     1     164.900 150.099 148.924  1.00  0.00     0.208 A 
ATOM      3  C   UNL     1     165.255 148.824 148.459  1.00  0.00     0.238 A 
ATOM      4  O   UNL     1     164.690 148.360 147.430  1.00  0.00    -0.285 OA
ATOM      5  C   UNL     1     166.243 148.082 149.139  1.00  0.00     0.111 A 
ATOM      6  C   UNL     1     166.660 146.792 148.732  1.00  0.00     0.134 A 
ATOM      7  C   UNL     1     167.656 146.122 149.458  1.00  0.00     0.093 A 
ATOM      8  C   UNL     1     168.241 146.715 150.580  1.00  0.00     0.123 A 
ATOM      9  C   UNL     1     167.832 147.989 150.987  1.00  0.00     0.094 A 
ATOM     10  C   UNL     1     166.840 148.673 150.277  1.00  0.00     0.146 A 
ATOM     11  O   UNL     1     166.467 149.880 150.688  1.00  0.00    -0.452 OA
ENDROOT
BRANCH   1  12
ATOM     12  C   UNL     1     165.196 151.929 150.644  1.00  0.00     0.025 A 
ATOM     13  C   UNL     1     164.093 152.055 151.504  1.00  0.00     0.016 A 
ATOM     14  C   UNL     1     163.745 153.301 152.031  1.00  0.00     0.051 A 
ATOM     15  C   UNL     1     164.485 154.442 151.695  1.00  0.00     0.157 A 
ATOM     16  C   UNL     1     165.923 153.080 150.292  1.00  0.00     0.062 A 
ATOM     17  C   UNL     1     165.576 154.330 150.816  1.00  0.00     0.158 A 
BRANCH  15  18
ATOM     18  O   UNL     1     164.137 155.684 152.224  1.00  0.00    -0.504 OA
ATOM     19  H   UNL     1     164.244 156.537 151.688  1.00  0.00     0.293 HD
ENDBRANCH  15  18
BRANCH  17  20
ATOM     20  O   UNL     1     166.324 155.448 150.451  1.00  0.00    -0.504 OA
ATOM     21  H   UNL     1     167.287 155.376 150.144  1.00  0.00     0.293 HD
ENDBRANCH  17  20
ENDBRANCH   1  12
BRANCH   2  22
ATOM     22  O   UNL     1     163.961 150.875 148.239  1.00  0.00    -0.502 OA
ATOM     23  H   UNL     1     163.025 151.030 148.593  1.00  0.00     0.293 HD
ENDBRANCH   2  22
BRANCH   6  24
ATOM     24  O   UNL     1     166.095 146.173 147.617  1.00  0.00    -0.507 OA
ATOM     25  H   UNL     1     165.465 145.384 147.707  1.00  0.00     0.293 HD
ENDBRANCH   6  24
BRANCH   8  26
ATOM     26  O   UNL     1     169.229 146.029 151.283  1.00  0.00    -0.508 OA
ATOM     27  H   UNL     1     169.978 146.518 151.759  1.00  0.00     0.293 HD
ENDBRANCH   8  26
TORSDOF 6
ENDMDL
MODEL 7
REMARK VINA RESULT:    -6.553      5.022      7.826
REMARK INTER + INTRA:          -8.227
REMARK INTER:                  -7.934
REMARK INTRA:                  -0.293
REMARK UNBOUND:                -0.332
REMARK SMILES O=c1c(O)c(-c2ccc(O)c(O)c2)oc2cc(O)cc(O)c12
REMARK SMILES IDX 5 1 3 2 2 3 1 4 22 5 20 6 19 7 17 8 16 9 15 10 14 11 6 12
REMARK SMILES IDX 7 13 8 14 9 15 13 16 11 17 10 18 12 20 4 22 21 24 18 26
REMARK H PARENT 10 19 12 21 4 23 21 25 18 27
REMARK Flexibility Score: inf
ROOT
ATOM      1  C   UNL     1     168.750 148.611 149.785  1.00  0.00     0.180 A 
ATOM      2  C   UNL     1     169.660 147.756 149.132  1.00  0.00     0.208 A 
ATOM      3  C   UNL     1     169.800 146.438 149.593  1.00  0.00     0.238 A 
ATOM      4  O   UNL     1     170.604 145.659 149.010  1.00  0.00    -0.285 OA
ATOM      5  C   UNL     1     169.050 146.003 150.705  1.00  0.00     0.111 A 
ATOM      6  C   UNL     1     169.136 144.692 151.233  1.00  0.00     0.134 A 
ATOM      7  C   UNL     1     168.362 144.339 152.348  1.00  0.00     0.093 A 
ATOM      8  C   UNL     1     167.506 145.269 152.944  1.00  0.00     0.123 A 
ATOM      9  C   UNL     1     167.416 146.564 152.426  1.00  0.00     0.094 A 
ATOM     10  C   UNL     1     168.178 146.935 151.314  1.00  0.00     0.146 A 
ATOM     11  O   UNL     1     168.070 148.171 150.839  1.00  0.00    -0.452 OA
ENDROOT
BRANCH   1  12
ATOM     12  C   UNL     1     168.532 150.008 149.346  1.00  0.00     0.025 A 
ATOM     13  C   UNL     1     169.443 151.004 149.736  1.00  0.00     0.016 A 
ATOM     14  C   UNL     1     169.246 152.332 149.351  1.00  0.00     0.051 A 
ATOM     15  C   UNL     1     168.128 152.689 148.586  1.00  0.00     0.157 A 
ATOM     16  C   UNL     1     167.400 150.373 148.596  1.00  0.00     0.062 A 
ATOM     17  C   UNL     1     167.199 151.703 148.211  1.00  0.00     0.158 A 
BRANCH  15  18
ATOM     18  O   UNL     1     167.936 154.015 148.201  1.00  0.00    -0.504 OA
ATOM     19  H   UNL     1     168.586 154.488 147.585  1.00  0.00     0.293 HD
ENDBRANCH  15  18
BRANCH  17  20
ATOM     20  O   UNL     1     166.069 152.028 147.461  1.00  0.00    -0.504 OA
ATOM     21  H   UNL     1     165.862 152.980 147.183  1.00  0.00     0.293 HD
ENDBRANCH  17  20
ENDBRANCH   1  12
BRANCH   2  22
ATOM     22  O   UNL     1     170.428 148.226 148.064  1.00  0.00    -0.502 OA
ATOM     23  H   UNL     1     170.220 147.990 147.101  1.00  0.00     0.293 HD
ENDBRANCH   2  22
BRANCH   6  24
ATOM     24  O   UNL     1     169.982 143.741 150.660  1.00  0.00    -0.507 OA
ATOM     25  H   UNL     1     170.132 143.696 149.659  1.00  0.00     0.293 HD
ENDBRANCH   6  24
BRANCH   8  26
ATOM     26  O   UNL     1     166.749 144.893 154.051  1.00  0.00    -0.508 OA
ATOM     27  H   UNL     1     166.163 144.066 154.037  1.00  0.00     0.293 HD
ENDBRANCH   8  26
TORSDOF 6
ENDMDL
MODEL 8
REMARK VINA RESULT:    -6.546      2.854      8.166
REMARK INTER + INTRA:          -8.217
REMARK INTER:                  -7.885
REMARK INTRA:                  -0.332
REMARK UNBOUND:                -0.332
REMARK SMILES O=c1c(O)c(-c2ccc(O)c(O)c2)oc2cc(O)cc(O)c12
REMARK SMILES IDX 5 1 3 2 2 3 1 4 22 5 20 6 19 7 17 8 16 9 15 10 14 11 6 12
REMARK SMILES IDX 7 13 8 14 9 15 13 16 11 17 10 18 12 20 4 22 21 24 18 26
REMARK H PARENT 10 19 12 21 4 23 21 25 18 27
REMARK Flexibility Score: inf
ROOT
ATOM      1  C   UNL     1     167.758 150.996 148.719  1.00  0.00     0.180 A 
ATOM      2  C   UNL     1     168.338 152.266 148.906  1.00  0.00     0.208 A 
ATOM      3  C   UNL     1     167.622 153.239 149.621  1.00  0.00     0.238 A 
ATOM      4  O   UNL     1     168.136 154.377 149.804  1.00  0.00    -0.285 OA
ATOM      5  C   UNL     1     166.338 152.935 150.118  1.00  0.00     0.111 A 
ATOM      6  C   UNL     1     165.551 153.860 150.845  1.00  0.00     0.134 A 
ATOM      7  C   UNL     1     164.278 153.485 151.299  1.00  0.00     0.093 A 
ATOM      8  C   UNL     1     163.778 152.206 151.040  1.00  0.00     0.123 A 
ATOM      9  C   UNL     1     164.551 151.288 150.323  1.00  0.00     0.094 A 
ATOM     10  C   UNL     1     165.824 151.643 149.864  1.00  0.00     0.146 A 
ATOM     11  O   UNL     1     166.539 150.750 149.190  1.00  0.00    -0.452 OA
ENDROOT
BRANCH   1  12
ATOM     12  C   UNL     1     168.459 149.912 147.993  1.00  0.00     0.025 A 
ATOM     13  C   UNL     1     168.253 149.762 146.612  1.00  0.00     0.016 A 
ATOM     14  C   UNL     1     168.886 148.734 145.910  1.00  0.00     0.051 A 
ATOM     15  C   UNL     1     169.722 147.830 146.579  1.00  0.00     0.157 A 
ATOM     16  C   UNL     1     169.281 148.990 148.665  1.00  0.00     0.062 A 
ATOM     17  C   UNL     1     169.915 147.958 147.965  1.00  0.00     0.158 A 
BRANCH  15  18
ATOM     18  O   UNL     1     170.354 146.807 145.875  1.00  0.00    -0.504 OA
ATOM     19  H   UNL     1     170.058 146.543 144.943  1.00  0.00     0.293 HD
ENDBRANCH  15  18
BRANCH  17  20
ATOM     20  O   UNL     1     170.729 147.067 148.663  1.00  0.00    -0.504 OA
ATOM     21  H   UNL     1     170.969 147.206 149.638  1.00  0.00     0.293 HD
ENDBRANCH  17  20
ENDBRANCH   1  12
BRANCH   2  22
ATOM     22  O   UNL     1     169.591 152.557 148.361  1.00  0.00    -0.502 OA
ATOM     23  H   UNL     1     170.318 153.023 148.890  1.00  0.00     0.293 HD
ENDBRANCH   2  22
BRANCH   6  24
ATOM     24  O   UNL     1     166.021 155.145 151.119  1.00  0.00    -0.507 OA
ATOM     25  H   UNL     1     166.040 155.515 152.063  1.00  0.00     0.293 HD
ENDBRANCH   6  24
BRANCH   8  26
ATOM     26  O   UNL     1     162.510 151.858 151.501  1.00  0.00    -0.508 OA
ATOM     27  H   UNL     1     161.714 151.806 150.875  1.00  0.00     0.293 HD
ENDBRANCH   8  26
TORSDOF 6
ENDMDL
MODEL 9
REMARK VINA RESULT:    -6.474      2.620      4.605
REMARK INTER + INTRA:          -8.131
REMARK INTER:                  -7.884
REMARK INTRA:                  -0.247
REMARK UNBOUND:                -0.332
REMARK SMILES O=c1c(O)c(-c2ccc(O)c(O)c2)oc2cc(O)cc(O)c12
REMARK SMILES IDX 5 1 3 2 2 3 1 4 22 5 20 6 19 7 17 8 16 9 15 10 14 11 6 12
REMARK SMILES IDX 7 13 8 14 9 15 13 16 11 17 10 18 12 20 4 22 21 24 18 26
REMARK H PARENT 10 19 12 21 4 23 21 25 18 27
REMARK Flexibility Score: inf
ROOT
ATOM      1  C   UNL     1     166.477 151.454 149.442  1.00  0.00     0.180 A 
ATOM      2  C   UNL     1     166.339 151.448 148.039  1.00  0.00     0.208 A 
ATOM      3  C   UNL     1     167.078 150.520 147.290  1.00  0.00     0.238 A 
ATOM      4  O   UNL     1     166.955 150.498 146.034  1.00  0.00    -0.285 OA
ATOM      5  C   UNL     1     167.953 149.630 147.948  1.00  0.00     0.111 A 
ATOM      6  C   UNL     1     168.735 148.668 147.265  1.00  0.00     0.134 A 
ATOM      7  C   UNL     1     169.589 147.824 147.991  1.00  0.00     0.093 A 
ATOM      8  C   UNL     1     169.677 147.925 149.382  1.00  0.00     0.123 A 
ATOM      9  C   UNL     1     168.906 148.873 150.061  1.00  0.00     0.094 A 
ATOM     10  C   UNL     1     168.047 149.722 149.355  1.00  0.00     0.146 A 
ATOM     11  O   UNL     1     167.323 150.611 150.026  1.00  0.00    -0.452 OA
ENDROOT
BRANCH   1  12
ATOM     12  C   UNL     1     165.718 152.390 150.302  1.00  0.00     0.025 A 
ATOM     13  C   UNL     1     164.617 151.915 151.034  1.00  0.00     0.016 A 
ATOM     14  C   UNL     1     163.872 152.784 151.835  1.00  0.00     0.051 A 
ATOM     15  C   UNL     1     164.206 154.142 151.906  1.00  0.00     0.157 A 
ATOM     16  C   UNL     1     166.037 153.758 150.359  1.00  0.00     0.062 A 
ATOM     17  C   UNL     1     165.292 154.631 151.159  1.00  0.00     0.158 A 
BRANCH  15  18
ATOM     18  O   UNL     1     163.463 155.006 152.709  1.00  0.00    -0.504 OA
ATOM     19  H   UNL     1     163.397 154.873 153.711  1.00  0.00     0.293 HD
ENDBRANCH  15  18
BRANCH  17  20
ATOM     20  O   UNL     1     165.641 155.981 151.196  1.00  0.00    -0.504 OA
ATOM     21  H   UNL     1     166.544 156.312 150.876  1.00  0.00     0.293 HD
ENDBRANCH  17  20
ENDBRANCH   1  12
BRANCH   2  22
ATOM     22  O   UNL     1     165.503 152.373 147.409  1.00  0.00    -0.502 OA
ATOM     23  H   UNL     1     165.485 153.352 147.667  1.00  0.00     0.293 HD
ENDBRANCH   2  22
BRANCH   6  24
ATOM     24  O   UNL     1     168.671 148.543 145.877  1.00  0.00    -0.507 OA
ATOM     25  H   UNL     1     168.088 149.152 145.314  1.00  0.00     0.293 HD
ENDBRANCH   6  24
BRANCH   8  26
ATOM     26  O   UNL     1     170.533 147.076 150.079  1.00  0.00    -0.508 OA
ATOM     27  H   UNL     1     170.476 146.974 151.085  1.00  0.00     0.293 HD
ENDBRANCH   8  26
TORSDOF 6
ENDMDL
