MODEL 1
REMARK VINA RESULT:    -4.601      0.000      0.000
REMARK INTER + INTRA:          -9.278
REMARK INTER:                  -8.366
REMARK INTRA:                  -0.912
REMARK UNBOUND:                -0.912
REMARK SMILES CCCCCCCCCCCCCCCC(=O)[O-]
REMARK SMILES IDX 9 1 10 2 11 3 12 4 13 5 14 6 15 7 16 8 17 9 18 10 8 11 7 12
REMARK SMILES IDX 6 13 5 14 4 15 3 16 2 17 1 18
REMARK H PARENT
REMARK Flexibility Score: inf
ROOT
ATOM      1  C   UNL     1       7.506  -4.611  -4.272  1.00  0.00     0.000 C 
ENDROOT
BRANCH   1   2
ATOM      2  C   UNL     1       8.393  -5.482  -3.361  1.00  0.00     0.000 C 
BRANCH   2   3
ATOM      3  C   UNL     1       8.764  -6.865  -3.933  1.00  0.00     0.000 C 
BRANCH   3   4
ATOM      4  C   UNL     1       8.044  -8.058  -3.277  1.00  0.00     0.000 C 
BRANCH   4   5
ATOM      5  C   UNL     1       8.075  -8.004  -1.740  1.00  0.00     0.000 C 
BRANCH   5   6
ATOM      6  C   UNL     1       7.860  -9.384  -1.092  1.00  0.00     0.006 C 
BRANCH   6   7
ATOM      7  C   UNL     1       8.150  -9.429   0.417  1.00  0.00     0.053 C 
BRANCH   7   8
ATOM      8  C   UNL     1       6.918  -9.722   1.218  1.00  0.00     0.041 C 
ATOM      9  O   UNL     1       5.778  -9.530   0.720  1.00  0.00    -0.550 OA
ATOM     10  O   UNL     1       7.031 -10.238   2.502  1.00  0.00    -0.550 OA
ENDBRANCH   7   8
ENDBRANCH   6   7
ENDBRANCH   5   6
ENDBRANCH   4   5
ENDBRANCH   3   4
ENDBRANCH   2   3
ENDBRANCH   1   2
BRANCH   1  11
ATOM     11  C   UNL     1       8.276  -3.724  -5.269  1.00  0.00     0.000 C 
BRANCH  11  12
ATOM     12  C   UNL     1       7.976  -4.075  -6.733  1.00  0.00    -0.000 C 
BRANCH  12  13
ATOM     13  C   UNL     1       9.118  -4.900  -7.345  1.00  0.00    -0.000 C 
BRANCH  13  14
ATOM     14  C   UNL     1       8.733  -6.371  -7.567  1.00  0.00    -0.000 C 
BRANCH  14  15
ATOM     15  C   UNL     1       7.709  -6.550  -8.701  1.00  0.00    -0.000 C 
BRANCH  15  16
ATOM     16  C   UNL     1       7.943  -7.835  -9.510  1.00  0.00    -0.000 C 
BRANCH  16  17
ATOM     17  C   UNL     1       6.634  -8.479  -9.989  1.00  0.00    -0.003 C 
ATOM     18  C   UNL     1       5.949  -9.239  -8.857  1.00  0.00     0.004 C 
ENDBRANCH  16  17
ENDBRANCH  15  16
ENDBRANCH  14  15
ENDBRANCH  13  14
ENDBRANCH  12  13
ENDBRANCH  11  12
ENDBRANCH   1  11
TORSDOF 14
ENDMDL
MODEL 2
REMARK VINA RESULT:    -4.447      1.422      2.395
REMARK INTER + INTRA:          -8.998
REMARK INTER:                  -7.826
REMARK INTRA:                  -1.172
REMARK UNBOUND:                -0.912
REMARK SMILES CCCCCCCCCCCCCCCC(=O)[O-]
REMARK SMILES IDX 9 1 10 2 11 3 12 4 13 5 14 6 15 7 16 8 17 9 18 10 8 11 7 12
REMARK SMILES IDX 6 13 5 14 4 15 3 16 2 17 1 18
REMARK H PARENT
REMARK Flexibility Score: inf
ROOT
ATOM      1  C   UNL     1       7.608  -4.118  -6.241  1.00  0.00     0.000 C 
ENDROOT
BRANCH   1   2
ATOM      2  C   UNL     1       7.516  -3.970  -4.710  1.00  0.00     0.000 C 
BRANCH   2   3
ATOM      3  C   UNL     1       8.801  -4.327  -3.936  1.00  0.00     0.000 C 
BRANCH   3   4
ATOM      4  C   UNL     1       8.707  -5.591  -3.061  1.00  0.00     0.000 C 
BRANCH   4   5
ATOM      5  C   UNL     1       8.359  -6.853  -3.869  1.00  0.00     0.000 C 
BRANCH   5   6
ATOM      6  C   UNL     1       8.599  -8.151  -3.077  1.00  0.00     0.006 C 
BRANCH   6   7
ATOM      7  C   UNL     1       7.783  -8.264  -1.779  1.00  0.00     0.053 C 
BRANCH   7   8
ATOM      8  C   UNL     1       8.420  -9.193  -0.792  1.00  0.00     0.041 C 
ATOM      9  O   UNL     1       8.911  -8.743   0.276  1.00  0.00    -0.550 OA
ATOM     10  O   UNL     1       8.443 -10.560  -1.038  1.00  0.00    -0.550 OA
ENDBRANCH   7   8
ENDBRANCH   6   7
ENDBRANCH   5   6
ENDBRANCH   4   5
ENDBRANCH   3   4
ENDBRANCH   2   3
ENDBRANCH   1   2
BRANCH   1  11
ATOM     11  C   UNL     1       9.017  -4.433  -6.778  1.00  0.00     0.000 C 
BRANCH  11  12
ATOM     12  C   UNL     1       9.119  -5.835  -7.396  1.00  0.00    -0.000 C 
BRANCH  12  13
ATOM     13  C   UNL     1       7.887  -6.146  -8.257  1.00  0.00    -0.000 C 
BRANCH  13  14
ATOM     14  C   UNL     1       8.047  -7.437  -9.076  1.00  0.00    -0.000 C 
BRANCH  14  15
ATOM     15  C   UNL     1       8.196  -8.685  -8.189  1.00  0.00    -0.000 C 
BRANCH  15  16
ATOM     16  C   UNL     1       6.874  -9.450  -8.021  1.00  0.00    -0.000 C 
BRANCH  16  17
ATOM     17  C   UNL     1       5.865  -9.138  -9.136  1.00  0.00    -0.003 C 
ATOM     18  C   UNL     1       4.482  -9.682  -8.793  1.00  0.00     0.004 C 
ENDBRANCH  16  17
ENDBRANCH  15  16
ENDBRANCH  14  15
ENDBRANCH  13  14
ENDBRANCH  12  13
ENDBRANCH  11  12
ENDBRANCH   1  11
TORSDOF 14
ENDMDL
MODEL 3
REMARK VINA RESULT:    -4.353      3.231      7.369
REMARK INTER + INTRA:          -8.828
REMARK INTER:                  -7.918
REMARK INTRA:                  -0.909
REMARK UNBOUND:                -0.912
REMARK SMILES CCCCCCCCCCCCCCCC(=O)[O-]
REMARK SMILES IDX 9 1 10 2 11 3 12 4 13 5 14 6 15 7 16 8 17 9 18 10 8 11 7 12
REMARK SMILES IDX 6 13 5 14 4 15 3 16 2 17 1 18
REMARK H PARENT
REMARK Flexibility Score: inf
ROOT
ATOM      1  C   UNL     1       7.588  -4.441  -4.902  1.00  0.00     0.000 C 
ENDROOT
BRANCH   1   2
ATOM      2  C   UNL     1       7.974  -3.631  -6.156  1.00  0.00     0.000 C 
BRANCH   2   3
ATOM      3  C   UNL     1       8.762  -4.412  -7.226  1.00  0.00     0.000 C 
BRANCH   3   4
ATOM      4  C   UNL     1       8.726  -5.944  -7.075  1.00  0.00     0.000 C 
BRANCH   4   5
ATOM      5  C   UNL     1       8.828  -6.680  -8.422  1.00  0.00     0.000 C 
BRANCH   5   6
ATOM      6  C   UNL     1       7.451  -6.961  -9.052  1.00  0.00     0.006 C 
BRANCH   6   7
ATOM      7  C   UNL     1       7.278  -8.390  -9.589  1.00  0.00     0.053 C 
BRANCH   7   8
ATOM      8  C   UNL     1       6.587  -9.282  -8.603  1.00  0.00     0.041 C 
ATOM      9  O   UNL     1       7.261  -9.992  -7.811  1.00  0.00    -0.550 OA
ATOM     10  O   UNL     1       5.200  -9.304  -8.538  1.00  0.00    -0.550 OA
ENDBRANCH   7   8
ENDBRANCH   6   7
ENDBRANCH   5   6
ENDBRANCH   4   5
ENDBRANCH   3   4
ENDBRANCH   2   3
ENDBRANCH   1   2
BRANCH   1  11
ATOM     11  C   UNL     1       8.620  -4.398  -3.760  1.00  0.00     0.000 C 
BRANCH  11  12
ATOM     12  C   UNL     1       8.745  -5.737  -3.019  1.00  0.00    -0.000 C 
BRANCH  12  13
ATOM     13  C   UNL     1       8.075  -6.868  -3.814  1.00  0.00    -0.000 C 
BRANCH  13  14
ATOM     14  C   UNL     1       8.269  -8.246  -3.161  1.00  0.00    -0.000 C 
BRANCH  14  15
ATOM     15  C   UNL     1       8.472  -8.156  -1.639  1.00  0.00    -0.000 C 
BRANCH  15  16
ATOM     16  C   UNL     1       7.595  -9.154  -0.867  1.00  0.00    -0.000 C 
BRANCH  16  17
ATOM     17  C   UNL     1       8.118  -9.428   0.550  1.00  0.00    -0.003 C 
ATOM     18  C   UNL     1       6.977  -9.784   1.498  1.00  0.00     0.004 C 
ENDBRANCH  16  17
ENDBRANCH  15  16
ENDBRANCH  14  15
ENDBRANCH  13  14
ENDBRANCH  12  13
ENDBRANCH  11  12
ENDBRANCH   1  11
TORSDOF 14
ENDMDL
MODEL 4
REMARK VINA RESULT:    -4.343      4.153      9.421
REMARK INTER + INTRA:          -8.809
REMARK INTER:                  -8.179
REMARK INTRA:                  -0.630
REMARK UNBOUND:                -0.912
REMARK SMILES CCCCCCCCCCCCCCCC(=O)[O-]
REMARK SMILES IDX 9 1 10 2 11 3 12 4 13 5 14 6 15 7 16 8 17 9 18 10 8 11 7 12
REMARK SMILES IDX 6 13 5 14 4 15 3 16 2 17 1 18
REMARK H PARENT
REMARK Flexibility Score: inf
ROOT
ATOM      1  C   UNL     1       8.412  -9.964  -1.560  1.00  0.00     0.000 C 
ENDROOT
BRANCH   1   2
ATOM      2  C   UNL     1       8.236  -8.968  -2.723  1.00  0.00     0.000 C 
BRANCH   2   3
ATOM      3  C   UNL     1       8.324  -7.479  -2.333  1.00  0.00     0.000 C 
BRANCH   3   4
ATOM      4  C   UNL     1       8.932  -6.557  -3.405  1.00  0.00     0.000 C 
BRANCH   4   5
ATOM      5  C   UNL     1       8.583  -5.076  -3.188  1.00  0.00     0.000 C 
BRANCH   5   6
ATOM      6  C   UNL     1       8.400  -4.307  -4.510  1.00  0.00     0.006 C 
BRANCH   6   7
ATOM      7  C   UNL     1       8.913  -5.051  -5.753  1.00  0.00     0.053 C 
BRANCH   7   8
ATOM      8  C   UNL     1       8.039  -4.821  -6.948  1.00  0.00     0.041 C 
ATOM      9  O   UNL     1       7.369  -3.759  -7.048  1.00  0.00    -0.550 OA
ATOM     10  O   UNL     1       7.991  -5.764  -7.966  1.00  0.00    -0.550 OA
ENDBRANCH   7   8
ENDBRANCH   6   7
ENDBRANCH   5   6
ENDBRANCH   4   5
ENDBRANCH   3   4
ENDBRANCH   2   3
ENDBRANCH   1   2
BRANCH   1  11
ATOM     11  C   UNL     1       8.236  -9.357  -0.155  1.00  0.00     0.000 C 
BRANCH  11  12
ATOM     12  C   UNL     1       8.902 -10.198   0.944  1.00  0.00    -0.000 C 
BRANCH  12  13
ATOM     13  C   UNL     1       7.856 -10.741   1.929  1.00  0.00    -0.000 C 
BRANCH  13  14
ATOM     14  C   UNL     1       6.593  -9.868   1.992  1.00  0.00    -0.000 C 
BRANCH  14  15
ATOM     15  C   UNL     1       5.324 -10.684   2.294  1.00  0.00    -0.000 C 
BRANCH  15  16
ATOM     16  C   UNL     1       4.924 -10.625   3.776  1.00  0.00    -0.000 C 
BRANCH  16  17
ATOM     17  C   UNL     1       3.437 -10.297   3.974  1.00  0.00    -0.003 C 
ATOM     18  C   UNL     1       3.253  -8.883   4.516  1.00  0.00     0.004 C 
ENDBRANCH  16  17
ENDBRANCH  15  16
ENDBRANCH  14  15
ENDBRANCH  13  14
ENDBRANCH  12  13
ENDBRANCH  11  12
ENDBRANCH   1  11
TORSDOF 14
ENDMDL
MODEL 5
REMARK VINA RESULT:    -4.266      0.927      1.211
REMARK INTER + INTRA:          -8.669
REMARK INTER:                  -7.869
REMARK INTRA:                  -0.800
REMARK UNBOUND:                -0.912
REMARK SMILES CCCCCCCCCCCCCCCC(=O)[O-]
REMARK SMILES IDX 9 1 10 2 11 3 12 4 13 5 14 6 15 7 16 8 17 9 18 10 8 11 7 12
REMARK SMILES IDX 6 13 5 14 4 15 3 16 2 17 1 18
REMARK H PARENT
REMARK Flexibility Score: inf
ROOT
ATOM      1  C   UNL     1       7.523  -4.164  -4.948  1.00  0.00     0.000 C 
ENDROOT
BRANCH   1   2
ATOM      2  C   UNL     1       8.560  -4.286  -3.814  1.00  0.00     0.000 C 
BRANCH   2   3
ATOM      3  C   UNL     1       9.124  -5.703  -3.589  1.00  0.00     0.000 C 
BRANCH   3   4
ATOM      4  C   UNL     1       8.073  -6.829  -3.571  1.00  0.00     0.000 C 
BRANCH   4   5
ATOM      5  C   UNL     1       8.555  -8.084  -2.824  1.00  0.00     0.000 C 
BRANCH   5   6
ATOM      6  C   UNL     1       7.656  -8.446  -1.627  1.00  0.00     0.006 C 
BRANCH   6   7
ATOM      7  C   UNL     1       8.421  -8.806  -0.344  1.00  0.00     0.053 C 
BRANCH   7   8
ATOM      8  C   UNL     1       7.589  -9.622   0.598  1.00  0.00     0.041 C 
ATOM      9  O   UNL     1       6.343  -9.452   0.652  1.00  0.00    -0.550 OA
ATOM     10  O   UNL     1       8.187 -10.592   1.391  1.00  0.00    -0.550 OA
ENDBRANCH   7   8
ENDBRANCH   6   7
ENDBRANCH   5   6
ENDBRANCH   4   5
ENDBRANCH   3   4
ENDBRANCH   2   3
ENDBRANCH   1   2
BRANCH   1  11
ATOM     11  C   UNL     1       8.071  -3.590  -6.269  1.00  0.00     0.000 C 
BRANCH  11  12
ATOM     12  C   UNL     1       8.804  -4.641  -7.116  1.00  0.00    -0.000 C 
BRANCH  12  13
ATOM     13  C   UNL     1       7.832  -5.723  -7.608  1.00  0.00    -0.000 C 
BRANCH  13  14
ATOM     14  C   UNL     1       8.482  -6.691  -8.610  1.00  0.00    -0.000 C 
BRANCH  14  15
ATOM     15  C   UNL     1       7.451  -7.577  -9.331  1.00  0.00    -0.000 C 
BRANCH  15  16
ATOM     16  C   UNL     1       7.324  -8.970  -8.695  1.00  0.00    -0.000 C 
BRANCH  16  17
ATOM     17  C   UNL     1       6.243  -9.829  -9.367  1.00  0.00    -0.003 C 
ATOM     18  C   UNL     1       4.861  -9.511  -8.806  1.00  0.00     0.004 C 
ENDBRANCH  16  17
ENDBRANCH  15  16
ENDBRANCH  14  15
ENDBRANCH  13  14
ENDBRANCH  12  13
ENDBRANCH  11  12
ENDBRANCH   1  11
TORSDOF 14
ENDMDL
MODEL 6
REMARK VINA RESULT:    -4.263      3.822      6.914
REMARK INTER + INTRA:          -8.664
REMARK INTER:                  -7.210
REMARK INTRA:                  -1.454
REMARK UNBOUND:                -0.912
REMARK SMILES CCCCCCCCCCCCCCCC(=O)[O-]
REMARK SMILES IDX 9 1 10 2 11 3 12 4 13 5 14 6 15 7 16 8 17 9 18 10 8 11 7 12
REMARK SMILES IDX 6 13 5 14 4 15 3 16 2 17 1 18
REMARK H PARENT
REMARK Flexibility Score: inf
ROOT
ATOM      1  C   UNL     1       7.711  -4.019  -6.461  1.00  0.00     0.000 C 
ENDROOT
BRANCH   1   2
ATOM      2  C   UNL     1       8.991  -4.627  -7.067  1.00  0.00     0.000 C 
BRANCH   2   3
ATOM      3  C   UNL     1       8.928  -6.141  -7.351  1.00  0.00     0.000 C 
BRANCH   3   4
ATOM      4  C   UNL     1       7.987  -6.552  -8.499  1.00  0.00     0.000 C 
BRANCH   4   5
ATOM      5  C   UNL     1       8.353  -7.914  -9.114  1.00  0.00     0.000 C 
BRANCH   5   6
ATOM      6  C   UNL     1       7.170  -8.900  -9.121  1.00  0.00     0.006 C 
BRANCH   6   7
ATOM      7  C   UNL     1       6.130  -8.637 -10.222  1.00  0.00     0.053 C 
BRANCH   7   8
ATOM      8  C   UNL     1       4.770  -9.135  -9.842  1.00  0.00     0.041 C 
ATOM      9  O   UNL     1       3.841  -9.150 -10.692  1.00  0.00    -0.550 OA
ATOM     10  O   UNL     1       4.537  -9.611  -8.559  1.00  0.00    -0.550 OA
ENDBRANCH   7   8
ENDBRANCH   6   7
ENDBRANCH   5   6
ENDBRANCH   4   5
ENDBRANCH   3   4
ENDBRANCH   2   3
ENDBRANCH   1   2
BRANCH   1  11
ATOM     11  C   UNL     1       7.664  -4.009  -4.921  1.00  0.00     0.000 C 
BRANCH  11  12
ATOM     12  C   UNL     1       9.060  -4.020  -4.282  1.00  0.00    -0.000 C 
BRANCH  12  13
ATOM     13  C   UNL     1       9.121  -5.016  -3.115  1.00  0.00    -0.000 C 
BRANCH  13  14
ATOM     14  C   UNL     1       8.017  -6.082  -3.187  1.00  0.00    -0.000 C 
BRANCH  14  15
ATOM     15  C   UNL     1       8.383  -7.367  -2.424  1.00  0.00    -0.000 C 
BRANCH  15  16
ATOM     16  C   UNL     1       8.061  -8.639  -3.222  1.00  0.00    -0.000 C 
BRANCH  16  17
ATOM     17  C   UNL     1       8.226  -8.445  -4.736  1.00  0.00    -0.003 C 
ATOM     18  C   UNL     1       7.719  -9.660  -5.505  1.00  0.00     0.004 C 
ENDBRANCH  16  17
ENDBRANCH  15  16
ENDBRANCH  14  15
ENDBRANCH  13  14
ENDBRANCH  12  13
ENDBRANCH  11  12
ENDBRANCH   1  11
TORSDOF 14
ENDMDL
MODEL 7
REMARK VINA RESULT:    -4.238      1.064      2.028
REMARK INTER + INTRA:          -8.618
REMARK INTER:                  -7.967
REMARK INTRA:                  -0.651
REMARK UNBOUND:                -0.912
REMARK SMILES CCCCCCCCCCCCCCCC(=O)[O-]
REMARK SMILES IDX 9 1 10 2 11 3 12 4 13 5 14 6 15 7 16 8 17 9 18 10 8 11 7 12
REMARK SMILES IDX 6 13 5 14 4 15 3 16 2 17 1 18
REMARK H PARENT
REMARK Flexibility Score: inf
ROOT
ATOM      1  C   UNL     1       8.527  -6.152  -3.847  1.00  0.00     0.000 C 
ENDROOT
BRANCH   1   2
ATOM      2  C   UNL     1       8.441  -6.803  -2.453  1.00  0.00     0.000 C 
BRANCH   2   3
ATOM      3  C   UNL     1       8.231  -8.330  -2.452  1.00  0.00     0.000 C 
BRANCH   3   4
ATOM      4  C   UNL     1       7.712  -8.919  -1.128  1.00  0.00     0.000 C 
BRANCH   4   5
ATOM      5  C   UNL     1       8.792  -9.690  -0.352  1.00  0.00     0.000 C 
BRANCH   5   6
ATOM      6  C   UNL     1       8.295 -10.197   1.015  1.00  0.00     0.006 C 
BRANCH   6   7
ATOM      7  C   UNL     1       6.894  -9.701   1.406  1.00  0.00     0.053 C 
BRANCH   7   8
ATOM      8  C   UNL     1       6.309 -10.496   2.532  1.00  0.00     0.041 C 
ATOM      9  O   UNL     1       7.009 -10.779   3.539  1.00  0.00    -0.550 OA
ATOM     10  O   UNL     1       4.980 -10.897   2.483  1.00  0.00    -0.550 OA
ENDBRANCH   7   8
ENDBRANCH   6   7
ENDBRANCH   5   6
ENDBRANCH   4   5
ENDBRANCH   3   4
ENDBRANCH   2   3
ENDBRANCH   1   2
BRANCH   1  11
ATOM     11  C   UNL     1       8.202  -4.647  -3.881  1.00  0.00     0.000 C 
BRANCH  11  12
ATOM     12  C   UNL     1       7.377  -4.243  -5.113  1.00  0.00    -0.000 C 
BRANCH  12  13
ATOM     13  C   UNL     1       8.250  -3.505  -6.139  1.00  0.00    -0.000 C 
BRANCH  13  14
ATOM     14  C   UNL     1       8.869  -4.451  -7.179  1.00  0.00    -0.000 C 
BRANCH  14  15
ATOM     15  C   UNL     1       7.945  -5.630  -7.532  1.00  0.00    -0.000 C 
BRANCH  15  16
ATOM     16  C   UNL     1       8.531  -6.531  -8.630  1.00  0.00    -0.000 C 
BRANCH  16  17
ATOM     17  C   UNL     1       8.143  -8.006  -8.453  1.00  0.00    -0.003 C 
ATOM     18  C   UNL     1       7.119  -8.434  -9.500  1.00  0.00     0.004 C 
ENDBRANCH  16  17
ENDBRANCH  15  16
ENDBRANCH  14  15
ENDBRANCH  13  14
ENDBRANCH  12  13
ENDBRANCH  11  12
ENDBRANCH   1  11
TORSDOF 14
ENDMDL
MODEL 8
REMARK VINA RESULT:    -3.978      1.782      3.804
REMARK INTER + INTRA:          -8.145
REMARK INTER:                  -7.215
REMARK INTRA:                  -0.930
REMARK UNBOUND:                -0.912
REMARK SMILES CCCCCCCCCCCCCCCC(=O)[O-]
REMARK SMILES IDX 9 1 10 2 11 3 12 4 13 5 14 6 15 7 16 8 17 9 18 10 8 11 7 12
REMARK SMILES IDX 6 13 5 14 4 15 3 16 2 17 1 18
REMARK H PARENT
REMARK Flexibility Score: inf
ROOT
ATOM      1  C   UNL     1       8.000  -7.655  -3.243  1.00  0.00     0.000 C 
ENDROOT
BRANCH   1   2
ATOM      2  C   UNL     1       8.371  -8.233  -1.863  1.00  0.00     0.000 C 
BRANCH   2   3
ATOM      3  C   UNL     1       9.112  -9.585  -1.895  1.00  0.00     0.000 C 
BRANCH   3   4
ATOM      4  C   UNL     1       9.010 -10.416  -0.603  1.00  0.00     0.000 C 
BRANCH   4   5
ATOM      5  C   UNL     1       8.685  -9.562   0.634  1.00  0.00     0.000 C 
BRANCH   5   6
ATOM      6  C   UNL     1       7.269  -9.822   1.181  1.00  0.00     0.006 C 
BRANCH   6   7
ATOM      7  C   UNL     1       7.227 -10.697   2.444  1.00  0.00     0.053 C 
BRANCH   7   8
ATOM      8  C   UNL     1       5.953 -10.518   3.211  1.00  0.00     0.041 C 
ATOM      9  O   UNL     1       4.849 -10.813   2.683  1.00  0.00    -0.550 OA
ATOM     10  O   UNL     1       5.989 -10.055   4.520  1.00  0.00    -0.550 OA
ENDBRANCH   7   8
ENDBRANCH   6   7
ENDBRANCH   5   6
ENDBRANCH   4   5
ENDBRANCH   3   4
ENDBRANCH   2   3
ENDBRANCH   1   2
BRANCH   1  11
ATOM     11  C   UNL     1       7.991  -8.679  -4.394  1.00  0.00     0.000 C 
BRANCH  11  12
ATOM     12  C   UNL     1       9.122  -8.447  -5.407  1.00  0.00    -0.000 C 
BRANCH  12  13
ATOM     13  C   UNL     1       8.556  -8.195  -6.812  1.00  0.00    -0.000 C 
BRANCH  13  14
ATOM     14  C   UNL     1       8.992  -6.839  -7.392  1.00  0.00    -0.000 C 
BRANCH  14  15
ATOM     15  C   UNL     1       9.058  -5.733  -6.324  1.00  0.00    -0.000 C 
BRANCH  15  16
ATOM     16  C   UNL     1       8.487  -4.397  -6.824  1.00  0.00    -0.000 C 
BRANCH  16  17
ATOM     17  C   UNL     1       7.704  -3.646  -5.737  1.00  0.00    -0.003 C 
ATOM     18  C   UNL     1       7.840  -4.337  -4.384  1.00  0.00     0.004 C 
ENDBRANCH  16  17
ENDBRANCH  15  16
ENDBRANCH  14  15
ENDBRANCH  13  14
ENDBRANCH  12  13
ENDBRANCH  11  12
ENDBRANCH   1  11
TORSDOF 14
ENDMDL
MODEL 9
REMARK VINA RESULT:    -3.896      4.874      7.291
REMARK INTER + INTRA:          -7.997
REMARK INTER:                  -6.709
REMARK INTRA:                  -1.288
REMARK UNBOUND:                -0.912
REMARK SMILES CCCCCCCCCCCCCCCC(=O)[O-]
REMARK SMILES IDX 9 1 10 2 11 3 12 4 13 5 14 6 15 7 16 8 17 9 18 10 8 11 7 12
REMARK SMILES IDX 6 13 5 14 4 15 3 16 2 17 1 18
REMARK H PARENT
REMARK Flexibility Score: inf
ROOT
ATOM      1  C   UNL     1       8.002  -8.434  -4.910  1.00  0.00     0.000 C 
ENDROOT
BRANCH   1   2
ATOM      2  C   UNL     1       8.422  -9.904  -5.108  1.00  0.00     0.000 C 
BRANCH   2   3
ATOM      3  C   UNL     1       7.984 -10.538  -6.444  1.00  0.00     0.000 C 
BRANCH   3   4
ATOM      4  C   UNL     1       7.378  -9.557  -7.465  1.00  0.00     0.000 C 
BRANCH   4   5
ATOM      5  C   UNL     1       6.438 -10.245  -8.469  1.00  0.00     0.000 C 
BRANCH   5   6
ATOM      6  C   UNL     1       5.035  -9.611  -8.502  1.00  0.00     0.006 C 
BRANCH   6   7
ATOM      7  C   UNL     1       4.107 -10.178  -9.588  1.00  0.00     0.053 C 
BRANCH   7   8
ATOM      8  C   UNL     1       3.872  -9.198 -10.696  1.00  0.00     0.041 C 
ATOM      9  O   UNL     1       2.717  -8.742 -10.904  1.00  0.00    -0.550 OA
ATOM     10  O   UNL     1       4.934  -8.762 -11.476  1.00  0.00    -0.550 OA
ENDBRANCH   7   8
ENDBRANCH   6   7
ENDBRANCH   5   6
ENDBRANCH   4   5
ENDBRANCH   3   4
ENDBRANCH   2   3
ENDBRANCH   1   2
BRANCH   1  11
ATOM     11  C   UNL     1       9.013  -7.571  -4.133  1.00  0.00     0.000 C 
BRANCH  11  12
ATOM     12  C   UNL     1       8.344  -6.655  -3.097  1.00  0.00    -0.000 C 
BRANCH  12  13
ATOM     13  C   UNL     1       8.514  -5.178  -3.480  1.00  0.00    -0.000 C 
BRANCH  13  14
ATOM     14  C   UNL     1       7.400  -4.676  -4.413  1.00  0.00    -0.000 C 
BRANCH  14  15
ATOM     15  C   UNL     1       7.915  -3.679  -5.466  1.00  0.00    -0.000 C 
BRANCH  15  16
ATOM     16  C   UNL     1       7.943  -4.277  -6.880  1.00  0.00    -0.000 C 
BRANCH  16  17
ATOM     17  C   UNL     1       9.101  -5.266  -7.081  1.00  0.00    -0.003 C 
ATOM     18  C   UNL     1       8.747  -6.323  -8.122  1.00  0.00     0.004 C 
ENDBRANCH  16  17
ENDBRANCH  15  16
ENDBRANCH  14  15
ENDBRANCH  13  14
ENDBRANCH  12  13
ENDBRANCH  11  12
ENDBRANCH   1  11
TORSDOF 14
ENDMDL
