MODEL 1
REMARK VINA RESULT:    -4.321      0.000      0.000
REMARK INTER + INTRA:          -9.113
REMARK INTER:                  -7.351
REMARK INTRA:                  -1.761
REMARK UNBOUND:                -1.761
REMARK SMILES CCCCCCCCCCCCCC(=O)[O-]
REMARK SMILES IDX 8 1 9 2 10 3 11 4 12 5 13 6 14 7 15 8 16 9 7 10 6 11 5 12
REMARK SMILES IDX 4 13 3 14 2 15 1 16
REMARK H PARENT
REMARK Flexibility Score: inf
ROOT
ATOM      1  C   UNL     1      29.490  -7.099  -3.559  1.00  0.00     0.000 C 
ENDROOT
BRANCH   1   2
ATOM      2  C   UNL     1      30.101  -5.734  -3.216  1.00  0.00     0.000 C 
BRANCH   2   3
ATOM      3  C   UNL     1      30.125  -4.817  -4.444  1.00  0.00     0.000 C 
BRANCH   3   4
ATOM      4  C   UNL     1      29.459  -3.467  -4.135  1.00  0.00     0.000 C 
BRANCH   4   5
ATOM      5  C   UNL     1      29.658  -2.438  -5.259  1.00  0.00     0.006 C 
BRANCH   5   6
ATOM      6  C   UNL     1      28.417  -2.286  -6.148  1.00  0.00     0.053 C 
BRANCH   6   7
ATOM      7  C   UNL     1      28.152  -0.842  -6.430  1.00  0.00     0.041 C 
ATOM      8  O   UNL     1      28.073  -0.015  -5.483  1.00  0.00    -0.550 OA
ATOM      9  O   UNL     1      27.944  -0.415  -7.735  1.00  0.00    -0.550 OA
ENDBRANCH   6   7
ENDBRANCH   5   6
ENDBRANCH   4   5
ENDBRANCH   3   4
ENDBRANCH   2   3
ENDBRANCH   1   2
BRANCH   1  10
ATOM     10  C   UNL     1      29.895  -7.546  -4.969  1.00  0.00     0.000 C 
BRANCH  10  11
ATOM     11  C   UNL     1      28.809  -8.432  -5.597  1.00  0.00    -0.000 C 
BRANCH  11  12
ATOM     12  C   UNL     1      28.096  -7.750  -6.778  1.00  0.00    -0.000 C 
BRANCH  12  13
ATOM     13  C   UNL     1      26.747  -7.131  -6.374  1.00  0.00    -0.000 C 
BRANCH  13  14
ATOM     14  C   UNL     1      26.829  -5.609  -6.154  1.00  0.00    -0.000 C 
BRANCH  14  15
ATOM     15  C   UNL     1      26.423  -5.133  -4.747  1.00  0.00    -0.003 C 
ATOM     16  C   UNL     1      26.053  -6.282  -3.809  1.00  0.00     0.004 C 
ENDBRANCH  14  15
ENDBRANCH  13  14
ENDBRANCH  12  13
ENDBRANCH  11  12
ENDBRANCH  10  11
ENDBRANCH   1  10
TORSDOF 12
ENDMDL
MODEL 2
REMARK VINA RESULT:    -4.297      3.010      5.423
REMARK INTER + INTRA:          -9.073
REMARK INTER:                  -7.253
REMARK INTRA:                  -1.820
REMARK UNBOUND:                -1.761
REMARK SMILES CCCCCCCCCCCCCC(=O)[O-]
REMARK SMILES IDX 8 1 9 2 10 3 11 4 12 5 13 6 14 7 15 8 16 9 7 10 6 11 5 12
REMARK SMILES IDX 4 13 3 14 2 15 1 16
REMARK H PARENT
REMARK Flexibility Score: inf
ROOT
ATOM      1  C   UNL     1      26.344  -4.324  -4.745  1.00  0.00     0.000 C 
ENDROOT
BRANCH   1   2
ATOM      2  C   UNL     1      26.821  -5.103  -3.512  1.00  0.00     0.000 C 
BRANCH   2   3
ATOM      3  C   UNL     1      26.945  -6.600  -3.819  1.00  0.00     0.000 C 
BRANCH   3   4
ATOM      4  C   UNL     1      28.403  -7.067  -3.696  1.00  0.00     0.000 C 
BRANCH   4   5
ATOM      5  C   UNL     1      29.116  -7.145  -5.055  1.00  0.00     0.006 C 
BRANCH   5   6
ATOM      6  C   UNL     1      28.671  -8.354  -5.888  1.00  0.00     0.053 C 
BRANCH   6   7
ATOM      7  C   UNL     1      28.008  -7.903  -7.150  1.00  0.00     0.041 C 
ATOM      8  O   UNL     1      28.583  -8.061  -8.259  1.00  0.00    -0.550 OA
ATOM      9  O   UNL     1      26.776  -7.264  -7.098  1.00  0.00    -0.550 OA
ENDBRANCH   6   7
ENDBRANCH   5   6
ENDBRANCH   4   5
ENDBRANCH   3   4
ENDBRANCH   2   3
ENDBRANCH   1   2
BRANCH   1  10
ATOM     10  C   UNL     1      27.495  -4.099  -5.734  1.00  0.00     0.000 C 
BRANCH  10  11
ATOM     11  C   UNL     1      28.466  -3.030  -5.211  1.00  0.00    -0.000 C 
BRANCH  11  12
ATOM     12  C   UNL     1      29.857  -3.601  -4.886  1.00  0.00    -0.000 C 
BRANCH  12  13
ATOM     13  C   UNL     1      30.125  -3.675  -3.373  1.00  0.00    -0.000 C 
BRANCH  13  14
ATOM     14  C   UNL     1      29.606  -2.441  -2.613  1.00  0.00    -0.000 C 
BRANCH  14  15
ATOM     15  C   UNL     1      28.724  -2.754  -1.390  1.00  0.00    -0.003 C 
ATOM     16  C   UNL     1      27.345  -2.100  -1.463  1.00  0.00     0.004 C 
ENDBRANCH  14  15
ENDBRANCH  13  14
ENDBRANCH  12  13
ENDBRANCH  11  12
ENDBRANCH  10  11
ENDBRANCH   1  10
TORSDOF 12
ENDMDL
MODEL 3
REMARK VINA RESULT:    -4.261      3.265      5.575
REMARK INTER + INTRA:          -9.012
REMARK INTER:                  -7.366
REMARK INTRA:                  -1.646
REMARK UNBOUND:                -1.761
REMARK SMILES CCCCCCCCCCCCCC(=O)[O-]
REMARK SMILES IDX 8 1 9 2 10 3 11 4 12 5 13 6 14 7 15 8 16 9 7 10 6 11 5 12
REMARK SMILES IDX 4 13 3 14 2 15 1 16
REMARK H PARENT
REMARK Flexibility Score: inf
ROOT
ATOM      1  C   UNL     1      26.391  -4.501  -4.935  1.00  0.00     0.000 C 
ENDROOT
BRANCH   1   2
ATOM      2  C   UNL     1      26.658  -5.610  -3.910  1.00  0.00     0.000 C 
BRANCH   2   3
ATOM      3  C   UNL     1      28.149  -5.691  -3.561  1.00  0.00     0.000 C 
BRANCH   3   4
ATOM      4  C   UNL     1      28.656  -7.138  -3.652  1.00  0.00     0.000 C 
BRANCH   4   5
ATOM      5  C   UNL     1      29.474  -7.400  -4.927  1.00  0.00     0.006 C 
BRANCH   5   6
ATOM      6  C   UNL     1      28.895  -8.540  -5.776  1.00  0.00     0.053 C 
BRANCH   6   7
ATOM      7  C   UNL     1      28.052  -7.991  -6.881  1.00  0.00     0.041 C 
ATOM      8  O   UNL     1      26.901  -7.541  -6.637  1.00  0.00    -0.550 OA
ATOM      9  O   UNL     1      28.516  -8.018  -8.190  1.00  0.00    -0.550 OA
ENDBRANCH   6   7
ENDBRANCH   5   6
ENDBRANCH   4   5
ENDBRANCH   3   4
ENDBRANCH   2   3
ENDBRANCH   1   2
BRANCH   1  10
ATOM     10  C   UNL     1      27.682  -4.095  -5.658  1.00  0.00     0.000 C 
BRANCH  10  11
ATOM     11  C   UNL     1      27.844  -2.568  -5.676  1.00  0.00    -0.000 C 
BRANCH  11  12
ATOM     12  C   UNL     1      27.009  -1.870  -4.589  1.00  0.00    -0.000 C 
BRANCH  12  13
ATOM     13  C   UNL     1      27.815  -0.813  -3.815  1.00  0.00    -0.000 C 
BRANCH  13  14
ATOM     14  C   UNL     1      27.744  -1.005  -2.289  1.00  0.00    -0.000 C 
BRANCH  14  15
ATOM     15  C   UNL     1      27.954  -2.452  -1.805  1.00  0.00    -0.003 C 
ATOM     16  C   UNL     1      26.699  -3.064  -1.184  1.00  0.00     0.004 C 
ENDBRANCH  14  15
ENDBRANCH  13  14
ENDBRANCH  12  13
ENDBRANCH  11  12
ENDBRANCH  10  11
ENDBRANCH   1  10
TORSDOF 12
ENDMDL
MODEL 4
REMARK VINA RESULT:    -4.251      9.357     11.631
REMARK INTER + INTRA:          -8.995
REMARK INTER:                  -7.776
REMARK INTRA:                  -1.220
REMARK UNBOUND:                -1.761
REMARK SMILES CCCCCCCCCCCCCC(=O)[O-]
REMARK SMILES IDX 8 1 9 2 10 3 11 4 12 5 13 6 14 7 15 8 16 9 7 10 6 11 5 12
REMARK SMILES IDX 4 13 3 14 2 15 1 16
REMARK H PARENT
REMARK Flexibility Score: inf
ROOT
ATOM      1  C   UNL     1      19.241  -2.433  -5.597  1.00  0.00     0.000 C 
ENDROOT
BRANCH   1   2
ATOM      2  C   UNL     1      18.752  -1.432  -6.652  1.00  0.00     0.000 C 
BRANCH   2   3
ATOM      3  C   UNL     1      17.233  -1.245  -6.570  1.00  0.00     0.000 C 
BRANCH   3   4
ATOM      4  C   UNL     1      16.875   0.218  -6.265  1.00  0.00     0.000 C 
BRANCH   4   5
ATOM      5  C   UNL     1      16.415   0.424  -4.813  1.00  0.00     0.006 C 
BRANCH   5   6
ATOM      6  C   UNL     1      15.757  -0.828  -4.218  1.00  0.00     0.053 C 
BRANCH   6   7
ATOM      7  C   UNL     1      16.494  -1.275  -2.997  1.00  0.00     0.041 C 
ATOM      8  O   UNL     1      17.433  -2.109  -3.093  1.00  0.00    -0.550 OA
ATOM      9  O   UNL     1      16.115  -0.807  -1.745  1.00  0.00    -0.550 OA
ENDBRANCH   6   7
ENDBRANCH   5   6
ENDBRANCH   4   5
ENDBRANCH   3   4
ENDBRANCH   2   3
ENDBRANCH   1   2
BRANCH   1  10
ATOM     10  C   UNL     1      20.258  -1.783  -4.651  1.00  0.00     0.000 C 
BRANCH  10  11
ATOM     11  C   UNL     1      20.012  -0.271  -4.536  1.00  0.00    -0.000 C 
BRANCH  11  12
ATOM     12  C   UNL     1      21.318   0.539  -4.469  1.00  0.00    -0.000 C 
BRANCH  12  13
ATOM     13  C   UNL     1      22.011   0.653  -5.838  1.00  0.00    -0.000 C 
BRANCH  13  14
ATOM     14  C   UNL     1      21.061   1.124  -6.953  1.00  0.00    -0.000 C 
BRANCH  14  15
ATOM     15  C   UNL     1      21.372   0.564  -8.353  1.00  0.00    -0.003 C 
ATOM     16  C   UNL     1      22.668   1.118  -8.945  1.00  0.00     0.004 C 
ENDBRANCH  14  15
ENDBRANCH  13  14
ENDBRANCH  12  13
ENDBRANCH  11  12
ENDBRANCH  10  11
ENDBRANCH   1  10
TORSDOF 12
ENDMDL
MODEL 5
REMARK VINA RESULT:    -4.142      2.593      3.139
REMARK INTER + INTRA:          -8.809
REMARK INTER:                  -6.949
REMARK INTRA:                  -1.861
REMARK UNBOUND:                -1.761
REMARK SMILES CCCCCCCCCCCCCC(=O)[O-]
REMARK SMILES IDX 8 1 9 2 10 3 11 4 12 5 13 6 14 7 15 8 16 9 7 10 6 11 5 12
REMARK SMILES IDX 4 13 3 14 2 15 1 16
REMARK H PARENT
REMARK Flexibility Score: inf
ROOT
ATOM      1  C   UNL     1      30.123  -6.391  -4.582  1.00  0.00     0.000 C 
ENDROOT
BRANCH   1   2
ATOM      2  C   UNL     1      29.675  -5.123  -3.844  1.00  0.00     0.000 C 
BRANCH   2   3
ATOM      3  C   UNL     1      29.730  -3.900  -4.766  1.00  0.00     0.000 C 
BRANCH   3   4
ATOM      4  C   UNL     1      28.973  -2.713  -4.151  1.00  0.00     0.000 C 
BRANCH   4   5
ATOM      5  C   UNL     1      28.336  -3.056  -2.795  1.00  0.00     0.006 C 
BRANCH   5   6
ATOM      6  C   UNL     1      27.417  -1.943  -2.275  1.00  0.00     0.053 C 
BRANCH   6   7
ATOM      7  C   UNL     1      27.577  -1.782  -0.797  1.00  0.00     0.041 C 
ATOM      8  O   UNL     1      28.083  -2.709  -0.110  1.00  0.00    -0.550 OA
ATOM      9  O   UNL     1      27.123  -0.630  -0.169  1.00  0.00    -0.550 OA
ENDBRANCH   6   7
ENDBRANCH   5   6
ENDBRANCH   4   5
ENDBRANCH   3   4
ENDBRANCH   2   3
ENDBRANCH   1   2
BRANCH   1  10
ATOM     10  C   UNL     1      29.293  -7.605  -4.146  1.00  0.00     0.000 C 
BRANCH  10  11
ATOM     11  C   UNL     1      28.895  -8.460  -5.358  1.00  0.00    -0.000 C 
BRANCH  11  12
ATOM     12  C   UNL     1      28.286  -7.627  -6.498  1.00  0.00    -0.000 C 
BRANCH  12  13
ATOM     13  C   UNL     1      26.847  -7.174  -6.194  1.00  0.00    -0.000 C 
BRANCH  13  14
ATOM     14  C   UNL     1      26.690  -5.643  -6.189  1.00  0.00    -0.000 C 
BRANCH  14  15
ATOM     15  C   UNL     1      26.099  -5.054  -4.895  1.00  0.00    -0.003 C 
ATOM     16  C   UNL     1      26.164  -6.020  -3.713  1.00  0.00     0.004 C 
ENDBRANCH  14  15
ENDBRANCH  13  14
ENDBRANCH  12  13
ENDBRANCH  11  12
ENDBRANCH  10  11
ENDBRANCH   1  10
TORSDOF 12
ENDMDL
MODEL 6
REMARK VINA RESULT:    -4.140      8.861     10.724
REMARK INTER + INTRA:          -8.805
REMARK INTER:                  -7.484
REMARK INTRA:                  -1.321
REMARK UNBOUND:                -1.761
REMARK SMILES CCCCCCCCCCCCCC(=O)[O-]
REMARK SMILES IDX 8 1 9 2 10 3 11 4 12 5 13 6 14 7 15 8 16 9 7 10 6 11 5 12
REMARK SMILES IDX 4 13 3 14 2 15 1 16
REMARK H PARENT
REMARK Flexibility Score: inf
ROOT
ATOM      1  C   UNL     1      19.396  -2.657  -4.489  1.00  0.00     0.000 C 
ENDROOT
BRANCH   1   2
ATOM      2  C   UNL     1      20.030  -1.822  -5.609  1.00  0.00     0.000 C 
BRANCH   2   3
ATOM      3  C   UNL     1      20.147  -0.350  -5.200  1.00  0.00     0.000 C 
BRANCH   3   4
ATOM      4  C   UNL     1      21.620   0.073  -5.085  1.00  0.00     0.000 C 
BRANCH   4   5
ATOM      5  C   UNL     1      22.026   1.098  -6.156  1.00  0.00     0.006 C 
BRANCH   5   6
ATOM      6  C   UNL     1      21.059   1.123  -7.347  1.00  0.00     0.053 C 
BRANCH   6   7
ATOM      7  C   UNL     1      21.659   0.417  -8.520  1.00  0.00     0.041 C 
ATOM      8  O   UNL     1      22.410   1.039  -9.318  1.00  0.00    -0.550 OA
ATOM      9  O   UNL     1      21.352  -0.916  -8.762  1.00  0.00    -0.550 OA
ENDBRANCH   6   7
ENDBRANCH   5   6
ENDBRANCH   4   5
ENDBRANCH   3   4
ENDBRANCH   2   3
ENDBRANCH   1   2
BRANCH   1  10
ATOM     10  C   UNL     1      18.892  -1.762  -3.351  1.00  0.00     0.000 C 
BRANCH  10  11
ATOM     11  C   UNL     1      17.431  -2.084  -3.004  1.00  0.00    -0.000 C 
BRANCH  11  12
ATOM     12  C   UNL     1      16.504  -0.865  -3.149  1.00  0.00    -0.000 C 
BRANCH  12  13
ATOM     13  C   UNL     1      15.891  -0.754  -4.555  1.00  0.00    -0.000 C 
BRANCH  13  14
ATOM     14  C   UNL     1      15.820   0.697  -5.064  1.00  0.00    -0.000 C 
BRANCH  14  15
ATOM     15  C   UNL     1      16.282   0.899  -6.519  1.00  0.00    -0.003 C 
ATOM     16  C   UNL     1      17.166  -0.238  -7.030  1.00  0.00     0.004 C 
ENDBRANCH  14  15
ENDBRANCH  13  14
ENDBRANCH  12  13
ENDBRANCH  11  12
ENDBRANCH  10  11
ENDBRANCH   1  10
TORSDOF 12
ENDMDL
MODEL 7
REMARK VINA RESULT:    -4.056      9.430     11.555
REMARK INTER + INTRA:          -8.662
REMARK INTER:                  -7.334
REMARK INTRA:                  -1.328
REMARK UNBOUND:                -1.761
REMARK SMILES CCCCCCCCCCCCCC(=O)[O-]
REMARK SMILES IDX 8 1 9 2 10 3 11 4 12 5 13 6 14 7 15 8 16 9 7 10 6 11 5 12
REMARK SMILES IDX 4 13 3 14 2 15 1 16
REMARK H PARENT
REMARK Flexibility Score: inf
ROOT
ATOM      1  C   UNL     1      19.062  -2.813  -4.299  1.00  0.00     0.000 C 
ENDROOT
BRANCH   1   2
ATOM      2  C   UNL     1      18.543  -2.012  -3.098  1.00  0.00     0.000 C 
BRANCH   2   3
ATOM      3  C   UNL     1      17.020  -1.851  -3.160  1.00  0.00     0.000 C 
BRANCH   3   4
ATOM      4  C   UNL     1      16.634  -0.404  -3.501  1.00  0.00     0.000 C 
BRANCH   4   5
ATOM      5  C   UNL     1      15.631  -0.317  -4.663  1.00  0.00     0.006 C 
BRANCH   5   6
ATOM      6  C   UNL     1      16.006   0.761  -5.688  1.00  0.00     0.053 C 
BRANCH   6   7
ATOM      7  C   UNL     1      16.638   0.139  -6.891  1.00  0.00     0.041 C 
ATOM      8  O   UNL     1      16.714   0.782  -7.972  1.00  0.00    -0.550 OA
ATOM      9  O   UNL     1      17.102  -1.169  -6.836  1.00  0.00    -0.550 OA
ENDBRANCH   6   7
ENDBRANCH   5   6
ENDBRANCH   4   5
ENDBRANCH   3   4
ENDBRANCH   2   3
ENDBRANCH   1   2
BRANCH   1  10
ATOM     10  C   UNL     1      20.093  -2.005  -5.097  1.00  0.00     0.000 C 
BRANCH  10  11
ATOM     11  C   UNL     1      20.327  -0.630  -4.456  1.00  0.00    -0.000 C 
BRANCH  11  12
ATOM     12  C   UNL     1      19.755   0.523  -5.299  1.00  0.00    -0.000 C 
BRANCH  12  13
ATOM     13  C   UNL     1      20.785   1.100  -6.285  1.00  0.00    -0.000 C 
BRANCH  13  14
ATOM     14  C   UNL     1      20.366   0.931  -7.756  1.00  0.00    -0.000 C 
BRANCH  14  15
ATOM     15  C   UNL     1      21.381   0.181  -8.639  1.00  0.00    -0.003 C 
ATOM     16  C   UNL     1      22.638   0.999  -8.932  1.00  0.00     0.004 C 
ENDBRANCH  14  15
ENDBRANCH  13  14
ENDBRANCH  12  13
ENDBRANCH  11  12
ENDBRANCH  10  11
ENDBRANCH   1  10
TORSDOF 12
ENDMDL
MODEL 8
REMARK VINA RESULT:    -4.011      2.594      4.129
REMARK INTER + INTRA:          -8.586
REMARK INTER:                  -6.874
REMARK INTRA:                  -1.712
REMARK UNBOUND:                -1.761
REMARK SMILES CCCCCCCCCCCCCC(=O)[O-]
REMARK SMILES IDX 8 1 9 2 10 3 11 4 12 5 13 6 14 7 15 8 16 9 7 10 6 11 5 12
REMARK SMILES IDX 4 13 3 14 2 15 1 16
REMARK H PARENT
REMARK Flexibility Score: inf
ROOT
ATOM      1  C   UNL     1      26.765  -4.231  -4.726  1.00  0.00     0.000 C 
ENDROOT
BRANCH   1   2
ATOM      2  C   UNL     1      27.815  -3.663  -5.690  1.00  0.00     0.000 C 
BRANCH   2   3
ATOM      3  C   UNL     1      27.800  -2.130  -5.680  1.00  0.00     0.000 C 
BRANCH   3   4
ATOM      4  C   UNL     1      27.104  -1.596  -4.419  1.00  0.00     0.000 C 
BRANCH   4   5
ATOM      5  C   UNL     1      28.086  -0.952  -3.428  1.00  0.00     0.006 C 
BRANCH   5   6
ATOM      6  C   UNL     1      27.566  -0.970  -1.985  1.00  0.00     0.053 C 
BRANCH   6   7
ATOM      7  C   UNL     1      27.689  -2.343  -1.404  1.00  0.00     0.041 C 
ATOM      8  O   UNL     1      28.825  -2.855  -1.224  1.00  0.00    -0.550 OA
ATOM      9  O   UNL     1      26.548  -3.077  -1.106  1.00  0.00    -0.550 OA
ENDBRANCH   6   7
ENDBRANCH   5   6
ENDBRANCH   4   5
ENDBRANCH   3   4
ENDBRANCH   2   3
ENDBRANCH   1   2
BRANCH   1  10
ATOM     10  C   UNL     1      27.397  -5.224  -3.744  1.00  0.00     0.000 C 
BRANCH  10  11
ATOM     11  C   UNL     1      28.930  -5.179  -3.829  1.00  0.00    -0.000 C 
BRANCH  11  12
ATOM     12  C   UNL     1      29.557  -6.576  -3.980  1.00  0.00    -0.000 C 
BRANCH  12  13
ATOM     13  C   UNL     1      28.536  -7.634  -4.432  1.00  0.00    -0.000 C 
BRANCH  13  14
ATOM     14  C   UNL     1      28.915  -8.298  -5.769  1.00  0.00    -0.000 C 
BRANCH  14  15
ATOM     15  C   UNL     1      28.101  -7.819  -6.986  1.00  0.00    -0.003 C 
ATOM     16  C   UNL     1      26.717  -7.291  -6.611  1.00  0.00     0.004 C 
ENDBRANCH  14  15
ENDBRANCH  13  14
ENDBRANCH  12  13
ENDBRANCH  11  12
ENDBRANCH  10  11
ENDBRANCH   1  10
TORSDOF 12
ENDMDL
MODEL 9
REMARK VINA RESULT:    -3.972      9.211     11.093
REMARK INTER + INTRA:          -8.521
REMARK INTER:                  -7.003
REMARK INTRA:                  -1.518
REMARK UNBOUND:                -1.761
REMARK SMILES CCCCCCCCCCCCCC(=O)[O-]
REMARK SMILES IDX 8 1 9 2 10 3 11 4 12 5 13 6 14 7 15 8 16 9 7 10 6 11 5 12
REMARK SMILES IDX 4 13 3 14 2 15 1 16
REMARK H PARENT
REMARK Flexibility Score: inf
ROOT
ATOM      1  C   UNL     1      19.620  -2.610  -4.404  1.00  0.00     0.000 C 
ENDROOT
BRANCH   1   2
ATOM      2  C   UNL     1      18.799  -2.247  -5.648  1.00  0.00     0.000 C 
BRANCH   2   3
ATOM      3  C   UNL     1      19.656  -2.325  -6.916  1.00  0.00     0.000 C 
BRANCH   3   4
ATOM      4  C   UNL     1      19.804  -0.941  -7.566  1.00  0.00     0.000 C 
BRANCH   4   5
ATOM      5  C   UNL     1      20.998  -0.150  -7.009  1.00  0.00     0.006 C 
BRANCH   5   6
ATOM      6  C   UNL     1      20.569   1.123  -6.268  1.00  0.00     0.053 C 
BRANCH   6   7
ATOM      7  C   UNL     1      20.883   1.009  -4.810  1.00  0.00     0.041 C 
ATOM      8  O   UNL     1      22.074   0.865  -4.428  1.00  0.00    -0.550 OA
ATOM      9  O   UNL     1      19.856   1.012  -3.875  1.00  0.00    -0.550 OA
ENDBRANCH   6   7
ENDBRANCH   5   6
ENDBRANCH   4   5
ENDBRANCH   3   4
ENDBRANCH   2   3
ENDBRANCH   1   2
BRANCH   1  10
ATOM     10  C   UNL     1      18.895  -2.185  -3.121  1.00  0.00     0.000 C 
BRANCH  10  11
ATOM     11  C   UNL     1      17.374  -2.157  -3.334  1.00  0.00    -0.000 C 
BRANCH  11  12
ATOM     12  C   UNL     1      16.813  -0.728  -3.421  1.00  0.00    -0.000 C 
BRANCH  12  13
ATOM     13  C   UNL     1      15.568  -0.637  -4.320  1.00  0.00    -0.000 C 
BRANCH  13  14
ATOM     14  C   UNL     1      15.546   0.637  -5.185  1.00  0.00    -0.000 C 
BRANCH  14  15
ATOM     15  C   UNL     1      16.860   0.941  -5.928  1.00  0.00    -0.003 C 
ATOM     16  C   UNL     1      16.723   0.850  -7.448  1.00  0.00     0.004 C 
ENDBRANCH  14  15
ENDBRANCH  13  14
ENDBRANCH  12  13
ENDBRANCH  11  12
ENDBRANCH  10  11
ENDBRANCH   1  10
TORSDOF 12
ENDMDL
