MODEL 1
REMARK VINA RESULT:    -6.929      0.000      0.000
REMARK INTER + INTRA:          -8.440
REMARK INTER:                  -8.144
REMARK INTRA:                  -0.296
REMARK UNBOUND:                -0.296
REMARK SMILES O=c1c(O)c(-c2ccc(O)cc2)oc2cc(O)cc(O)c12
REMARK SMILES IDX 5 1 3 2 2 3 1 4 21 5 19 6 18 7 16 8 15 9 14 10 13 11 6 12
REMARK SMILES IDX 7 13 8 14 9 15 12 16 11 17 10 18 4 20 20 22 17 24
REMARK H PARENT 10 19 4 21 20 23 17 25
REMARK Flexibility Score: inf
ROOT
ATOM      1  C   UNL     1       3.310 -11.758 -40.312  1.00  0.00     0.180 A 
ATOM      2  C   UNL     1       3.039 -11.404 -41.648  1.00  0.00     0.208 A 
ATOM      3  C   UNL     1       4.100 -11.361 -42.566  1.00  0.00     0.238 A 
ATOM      4  O   UNL     1       3.872 -11.035 -43.762  1.00  0.00    -0.285 OA
ATOM      5  C   UNL     1       5.404 -11.690 -42.142  1.00  0.00     0.111 A 
ATOM      6  C   UNL     1       6.526 -11.676 -43.004  1.00  0.00     0.134 A 
ATOM      7  C   UNL     1       7.790 -12.026 -42.507  1.00  0.00     0.093 A 
ATOM      8  C   UNL     1       7.953 -12.390 -41.169  1.00  0.00     0.123 A 
ATOM      9  C   UNL     1       6.849 -12.405 -40.311  1.00  0.00     0.094 A 
ATOM     10  C   UNL     1       5.581 -12.058 -40.787  1.00  0.00     0.146 A 
ATOM     11  O   UNL     1       4.549 -12.076 -39.950  1.00  0.00    -0.452 OA
ENDROOT
BRANCH   1  12
ATOM     12  C   UNL     1       2.248 -11.807 -39.280  1.00  0.00     0.021 A 
ATOM     13  C   UNL     1       1.951 -10.688 -38.481  1.00  0.00     0.016 A 
ATOM     14  C   UNL     1       0.960 -10.766 -37.497  1.00  0.00     0.047 A 
ATOM     15  C   UNL     1       0.266 -11.962 -37.289  1.00  0.00     0.115 A 
ATOM     16  C   UNL     1       1.561 -13.011 -39.052  1.00  0.00     0.016 A 
ATOM     17  C   UNL     1       0.571 -13.086 -38.068  1.00  0.00     0.047 A 
BRANCH  15  18
ATOM     18  O   UNL     1      -0.719 -12.024 -36.306  1.00  0.00    -0.508 OA
ATOM     19  H   UNL     1      -0.830 -12.843 -35.720  1.00  0.00     0.293 HD
ENDBRANCH  15  18
ENDBRANCH   1  12
BRANCH   2  20
ATOM     20  O   UNL     1       1.730 -11.130 -42.055  1.00  0.00    -0.502 OA
ATOM     21  H   UNL     1       1.518 -10.451 -42.775  1.00  0.00     0.293 HD
ENDBRANCH   2  20
BRANCH   6  22
ATOM     22  O   UNL     1       6.395 -11.318 -44.347  1.00  0.00    -0.507 OA
ATOM     23  H   UNL     1       7.075 -11.602 -45.042  1.00  0.00     0.293 HD
ENDBRANCH   6  22
BRANCH   8  24
ATOM     24  O   UNL     1       9.220 -12.734 -40.700  1.00  0.00    -0.508 OA
ATOM     25  H   UNL     1       9.519 -12.500 -39.761  1.00  0.00     0.293 HD
ENDBRANCH   8  24
TORSDOF 5
ENDMDL
MODEL 2
REMARK VINA RESULT:    -6.914      4.326      6.347
REMARK INTER + INTRA:          -8.423
REMARK INTER:                  -8.173
REMARK INTRA:                  -0.250
REMARK UNBOUND:                -0.296
REMARK SMILES O=c1c(O)c(-c2ccc(O)cc2)oc2cc(O)cc(O)c12
REMARK SMILES IDX 5 1 3 2 2 3 1 4 21 5 19 6 18 7 16 8 15 9 14 10 13 11 6 12
REMARK SMILES IDX 7 13 8 14 9 15 12 16 11 17 10 18 4 20 20 22 17 24
REMARK H PARENT 10 19 4 21 20 23 17 25
REMARK Flexibility Score: inf
ROOT
ATOM      1  C   UNL     1       0.093 -10.431 -40.683  1.00  0.00     0.180 A 
ATOM      2  C   UNL     1      -0.901 -10.400 -41.680  1.00  0.00     0.208 A 
ATOM      3  C   UNL     1      -1.256  -9.165 -42.245  1.00  0.00     0.238 A 
ATOM      4  O   UNL     1      -2.153  -9.123 -43.130  1.00  0.00    -0.285 OA
ATOM      5  C   UNL     1      -0.600  -7.990 -41.823  1.00  0.00     0.111 A 
ATOM      6  C   UNL     1      -0.895  -6.708 -42.344  1.00  0.00     0.134 A 
ATOM      7  C   UNL     1      -0.190  -5.588 -41.878  1.00  0.00     0.093 A 
ATOM      8  C   UNL     1       0.801  -5.725 -40.904  1.00  0.00     0.123 A 
ATOM      9  C   UNL     1       1.096  -6.989 -40.384  1.00  0.00     0.094 A 
ATOM     10  C   UNL     1       0.405  -8.118 -40.834  1.00  0.00     0.146 A 
ATOM     11  O   UNL     1       0.701  -9.305 -40.320  1.00  0.00    -0.452 OA
ENDROOT
BRANCH   1  12
ATOM     12  C   UNL     1       0.509 -11.691 -40.025  1.00  0.00     0.021 A 
ATOM     13  C   UNL     1      -0.295 -12.308 -39.049  1.00  0.00     0.016 A 
ATOM     14  C   UNL     1       0.130 -13.485 -38.425  1.00  0.00     0.047 A 
ATOM     15  C   UNL     1       1.364 -14.052 -38.755  1.00  0.00     0.115 A 
ATOM     16  C   UNL     1       1.757 -12.255 -40.337  1.00  0.00     0.016 A 
ATOM     17  C   UNL     1       2.179 -13.432 -39.712  1.00  0.00     0.047 A 
BRANCH  15  18
ATOM     18  O   UNL     1       1.773 -15.225 -38.125  1.00  0.00    -0.508 OA
ATOM     19  H   UNL     1       2.388 -15.206 -37.319  1.00  0.00     0.293 HD
ENDBRANCH  15  18
ENDBRANCH   1  12
BRANCH   2  20
ATOM     20  O   UNL     1      -1.502 -11.584 -42.116  1.00  0.00    -0.502 OA
ATOM     21  H   UNL     1      -1.008 -12.270 -42.673  1.00  0.00     0.293 HD
ENDBRANCH   2  20
BRANCH   6  22
ATOM     22  O   UNL     1      -1.879  -6.539 -43.320  1.00  0.00    -0.507 OA
ATOM     23  H   UNL     1      -1.657  -6.189 -44.245  1.00  0.00     0.293 HD
ENDBRANCH   6  22
BRANCH   8  24
ATOM     24  O   UNL     1       1.487  -4.597 -40.459  1.00  0.00    -0.508 OA
ATOM     25  H   UNL     1       1.138  -3.662 -40.632  1.00  0.00     0.293 HD
ENDBRANCH   8  24
TORSDOF 5
ENDMDL
MODEL 3
REMARK VINA RESULT:    -6.771      3.314      6.470
REMARK INTER + INTRA:          -8.254
REMARK INTER:                  -7.991
REMARK INTRA:                  -0.263
REMARK UNBOUND:                -0.296
REMARK SMILES O=c1c(O)c(-c2ccc(O)cc2)oc2cc(O)cc(O)c12
REMARK SMILES IDX 5 1 3 2 2 3 1 4 21 5 19 6 18 7 16 8 15 9 14 10 13 11 6 12
REMARK SMILES IDX 7 13 8 14 9 15 12 16 11 17 10 18 4 20 20 22 17 24
REMARK H PARENT 10 19 4 21 20 23 17 25
REMARK Flexibility Score: inf
ROOT
ATOM      1  C   UNL     1       2.268  -9.347 -40.791  1.00  0.00     0.180 A 
ATOM      2  C   UNL     1       2.928 -10.458 -41.349  1.00  0.00     0.208 A 
ATOM      3  C   UNL     1       2.760 -11.718 -40.751  1.00  0.00     0.238 A 
ATOM      4  O   UNL     1       3.354 -12.719 -41.234  1.00  0.00    -0.285 OA
ATOM      5  C   UNL     1       1.922 -11.848 -39.624  1.00  0.00     0.111 A 
ATOM      6  C   UNL     1       1.695 -13.080 -38.965  1.00  0.00     0.134 A 
ATOM      7  C   UNL     1       0.840 -13.128 -37.855  1.00  0.00     0.093 A 
ATOM      8  C   UNL     1       0.208 -11.972 -37.392  1.00  0.00     0.123 A 
ATOM      9  C   UNL     1       0.428 -10.752 -38.037  1.00  0.00     0.094 A 
ATOM     10  C   UNL     1       1.278 -10.682 -39.145  1.00  0.00     0.146 A 
ATOM     11  O   UNL     1       1.475  -9.509 -39.737  1.00  0.00    -0.452 OA
ENDROOT
BRANCH   1  12
ATOM     12  C   UNL     1       2.411  -7.984 -41.353  1.00  0.00     0.021 A 
ATOM     13  C   UNL     1       3.258  -7.031 -40.757  1.00  0.00     0.016 A 
ATOM     14  C   UNL     1       3.358  -5.742 -41.291  1.00  0.00     0.047 A 
ATOM     15  C   UNL     1       2.607  -5.386 -42.415  1.00  0.00     0.115 A 
ATOM     16  C   UNL     1       1.644  -7.612 -42.469  1.00  0.00     0.016 A 
ATOM     17  C   UNL     1       1.747  -6.323 -43.001  1.00  0.00     0.047 A 
BRANCH  15  18
ATOM     18  O   UNL     1       2.718  -4.099 -42.937  1.00  0.00    -0.508 OA
ATOM     19  H   UNL     1       2.194  -3.323 -42.547  1.00  0.00     0.293 HD
ENDBRANCH  15  18
ENDBRANCH   1  12
BRANCH   2  20
ATOM     20  O   UNL     1       3.714 -10.312 -42.496  1.00  0.00    -0.502 OA
ATOM     21  H   UNL     1       4.646  -9.917 -42.468  1.00  0.00     0.293 HD
ENDBRANCH   2  20
BRANCH   6  22
ATOM     22  O   UNL     1       2.311 -14.253 -39.405  1.00  0.00    -0.507 OA
ATOM     23  H   UNL     1       1.789 -14.986 -39.871  1.00  0.00     0.293 HD
ENDBRANCH   6  22
BRANCH   8  24
ATOM     24  O   UNL     1      -0.638 -12.048 -36.287  1.00  0.00    -0.508 OA
ATOM     25  H   UNL     1      -0.377 -12.562 -35.454  1.00  0.00     0.293 HD
ENDBRANCH   8  24
TORSDOF 5
ENDMDL
MODEL 4
REMARK VINA RESULT:    -6.651      5.515      6.919
REMARK INTER + INTRA:          -8.114
REMARK INTER:                  -7.850
REMARK INTRA:                  -0.263
REMARK UNBOUND:                -0.296
REMARK SMILES O=c1c(O)c(-c2ccc(O)cc2)oc2cc(O)cc(O)c12
REMARK SMILES IDX 5 1 3 2 2 3 1 4 21 5 19 6 18 7 16 8 15 9 14 10 13 11 6 12
REMARK SMILES IDX 7 13 8 14 9 15 12 16 11 17 10 18 4 20 20 22 17 24
REMARK H PARENT 10 19 4 21 20 23 17 25
REMARK Flexibility Score: inf
ROOT
ATOM      1  C   UNL     1       7.020  -8.462 -40.835  1.00  0.00     0.180 A 
ATOM      2  C   UNL     1       6.310  -7.482 -41.553  1.00  0.00     0.208 A 
ATOM      3  C   UNL     1       6.500  -6.130 -41.224  1.00  0.00     0.238 A 
ATOM      4  O   UNL     1       5.862  -5.243 -41.853  1.00  0.00    -0.285 OA
ATOM      5  C   UNL     1       7.407  -5.782 -40.202  1.00  0.00     0.111 A 
ATOM      6  C   UNL     1       7.660  -4.445 -39.812  1.00  0.00     0.134 A 
ATOM      7  C   UNL     1       8.584  -4.180 -38.791  1.00  0.00     0.093 A 
ATOM      8  C   UNL     1       9.261  -5.223 -38.155  1.00  0.00     0.123 A 
ATOM      9  C   UNL     1       9.015  -6.547 -38.535  1.00  0.00     0.094 A 
ATOM     10  C   UNL     1       8.096  -6.831 -39.549  1.00  0.00     0.146 A 
ATOM     11  O   UNL     1       7.878  -8.097 -39.887  1.00  0.00    -0.452 OA
ENDROOT
BRANCH   1  12
ATOM     12  C   UNL     1       6.859  -9.909 -41.109  1.00  0.00     0.021 A 
ATOM     13  C   UNL     1       6.064 -10.728 -40.286  1.00  0.00     0.016 A 
ATOM     14  C   UNL     1       5.947 -12.096 -40.551  1.00  0.00     0.047 A 
ATOM     15  C   UNL     1       6.630 -12.665 -41.630  1.00  0.00     0.115 A 
ATOM     16  C   UNL     1       7.558 -10.492 -42.179  1.00  0.00     0.016 A 
ATOM     17  C   UNL     1       7.438 -11.860 -42.443  1.00  0.00     0.047 A 
BRANCH  15  18
ATOM     18  O   UNL     1       6.502 -14.029 -41.883  1.00  0.00    -0.508 OA
ATOM     19  H   UNL     1       5.869 -14.609 -41.345  1.00  0.00     0.293 HD
ENDBRANCH  15  18
ENDBRANCH   1  12
BRANCH   2  20
ATOM     20  O   UNL     1       5.454  -7.849 -42.595  1.00  0.00    -0.502 OA
ATOM     21  H   UNL     1       5.474  -7.394 -43.499  1.00  0.00     0.293 HD
ENDBRANCH   2  20
BRANCH   6  22
ATOM     22  O   UNL     1       7.001  -3.381 -40.430  1.00  0.00    -0.507 OA
ATOM     23  H   UNL     1       6.005  -3.231 -40.314  1.00  0.00     0.293 HD
ENDBRANCH   6  22
BRANCH   8  24
ATOM     24  O   UNL     1      10.175  -4.933 -37.144  1.00  0.00    -0.508 OA
ATOM     25  H   UNL     1      11.147  -5.210 -37.214  1.00  0.00     0.293 HD
ENDBRANCH   8  24
TORSDOF 5
ENDMDL
MODEL 5
REMARK VINA RESULT:    -6.647      1.691      3.738
REMARK INTER + INTRA:          -8.109
REMARK INTER:                  -7.831
REMARK INTRA:                  -0.277
REMARK UNBOUND:                -0.296
REMARK SMILES O=c1c(O)c(-c2ccc(O)cc2)oc2cc(O)cc(O)c12
REMARK SMILES IDX 5 1 3 2 2 3 1 4 21 5 19 6 18 7 16 8 15 9 14 10 13 11 6 12
REMARK SMILES IDX 7 13 8 14 9 15 12 16 11 17 10 18 4 20 20 22 17 24
REMARK H PARENT 10 19 4 21 20 23 17 25
REMARK Flexibility Score: inf
ROOT
ATOM      1  C   UNL     1       2.656 -11.524 -40.784  1.00  0.00     0.180 A 
ATOM      2  C   UNL     1       3.958 -12.050 -40.884  1.00  0.00     0.208 A 
ATOM      3  C   UNL     1       4.697 -11.814 -42.055  1.00  0.00     0.238 A 
ATOM      4  O   UNL     1       5.860 -12.289 -42.161  1.00  0.00    -0.285 OA
ATOM      5  C   UNL     1       4.133 -11.042 -43.092  1.00  0.00     0.111 A 
ATOM      6  C   UNL     1       4.811 -10.755 -44.300  1.00  0.00     0.134 A 
ATOM      7  C   UNL     1       4.185  -9.972 -45.281  1.00  0.00     0.093 A 
ATOM      8  C   UNL     1       2.897  -9.470 -45.076  1.00  0.00     0.123 A 
ATOM      9  C   UNL     1       2.221  -9.752 -43.885  1.00  0.00     0.094 A 
ATOM     10  C   UNL     1       2.828 -10.532 -42.896  1.00  0.00     0.146 A 
ATOM     11  O   UNL     1       2.162 -10.788 -41.776  1.00  0.00    -0.452 OA
ENDROOT
BRANCH   1  12
ATOM     12  C   UNL     1       1.807 -11.745 -39.591  1.00  0.00     0.021 A 
ATOM     13  C   UNL     1       1.103 -12.949 -39.405  1.00  0.00     0.016 A 
ATOM     14  C   UNL     1       0.289 -13.126 -38.282  1.00  0.00     0.047 A 
ATOM     15  C   UNL     1       0.157 -12.102 -37.340  1.00  0.00     0.115 A 
ATOM     16  C   UNL     1       1.653 -10.713 -38.651  1.00  0.00     0.016 A 
ATOM     17  C   UNL     1       0.839 -10.893 -37.528  1.00  0.00     0.047 A 
BRANCH  15  18
ATOM     18  O   UNL     1      -0.657 -12.293 -36.226  1.00  0.00    -0.508 OA
ATOM     19  H   UNL     1      -1.651 -12.468 -36.321  1.00  0.00     0.293 HD
ENDBRANCH  15  18
ENDBRANCH   1  12
BRANCH   2  20
ATOM     20  O   UNL     1       4.513 -12.770 -39.823  1.00  0.00    -0.502 OA
ATOM     21  H   UNL     1       5.509 -12.935 -39.741  1.00  0.00     0.293 HD
ENDBRANCH   2  20
BRANCH   6  22
ATOM     22  O   UNL     1       6.099 -11.239 -44.533  1.00  0.00    -0.507 OA
ATOM     23  H   UNL     1       6.818 -10.660 -44.951  1.00  0.00     0.293 HD
ENDBRANCH   6  22
BRANCH   8  24
ATOM     24  O   UNL     1       2.297  -8.694 -46.066  1.00  0.00    -0.508 OA
ATOM     25  H   UNL     1       2.848  -8.168 -46.734  1.00  0.00     0.293 HD
ENDBRANCH   8  24
TORSDOF 5
ENDMDL
MODEL 6
REMARK VINA RESULT:    -6.614      4.722      6.774
REMARK INTER + INTRA:          -8.070
REMARK INTER:                  -7.813
REMARK INTRA:                  -0.258
REMARK UNBOUND:                -0.296
REMARK SMILES O=c1c(O)c(-c2ccc(O)cc2)oc2cc(O)cc(O)c12
REMARK SMILES IDX 5 1 3 2 2 3 1 4 21 5 19 6 18 7 16 8 15 9 14 10 13 11 6 12
REMARK SMILES IDX 7 13 8 14 9 15 12 16 11 17 10 18 4 20 20 22 17 24
REMARK H PARENT 10 19 4 21 20 23 17 25
REMARK Flexibility Score: inf
ROOT
ATOM      1  C   UNL     1       8.437  -9.807 -40.190  1.00  0.00     0.180 A 
ATOM      2  C   UNL     1       9.510  -9.830 -41.102  1.00  0.00     0.208 A 
ATOM      3  C   UNL     1      10.481  -8.817 -41.032  1.00  0.00     0.238 A 
ATOM      4  O   UNL     1      11.440  -8.820 -41.849  1.00  0.00    -0.285 OA
ATOM      5  C   UNL     1      10.374  -7.816 -40.044  1.00  0.00     0.111 A 
ATOM      6  C   UNL     1      11.311  -6.764 -39.903  1.00  0.00     0.134 A 
ATOM      7  C   UNL     1      11.140  -5.812 -38.888  1.00  0.00     0.093 A 
ATOM      8  C   UNL     1      10.054  -5.890 -38.012  1.00  0.00     0.123 A 
ATOM      9  C   UNL     1       9.125  -6.926 -38.147  1.00  0.00     0.094 A 
ATOM     10  C   UNL     1       9.277  -7.885 -39.154  1.00  0.00     0.146 A 
ATOM     11  O   UNL     1       8.377  -8.856 -39.263  1.00  0.00    -0.452 OA
ENDROOT
BRANCH   1  12
ATOM     12  C   UNL     1       7.364 -10.828 -40.213  1.00  0.00     0.021 A 
ATOM     13  C   UNL     1       7.554 -12.104 -39.652  1.00  0.00     0.016 A 
ATOM     14  C   UNL     1       6.535 -13.059 -39.707  1.00  0.00     0.047 A 
ATOM     15  C   UNL     1       5.321 -12.758 -40.332  1.00  0.00     0.115 A 
ATOM     16  C   UNL     1       6.150 -10.539 -40.857  1.00  0.00     0.016 A 
ATOM     17  C   UNL     1       5.131 -11.497 -40.910  1.00  0.00     0.047 A 
BRANCH  15  18
ATOM     18  O   UNL     1       4.314 -13.720 -40.378  1.00  0.00    -0.508 OA
ATOM     19  H   UNL     1       3.427 -13.579 -39.908  1.00  0.00     0.293 HD
ENDBRANCH  15  18
ENDBRANCH   1  12
BRANCH   2  20
ATOM     20  O   UNL     1       9.620 -10.860 -42.040  1.00  0.00    -0.502 OA
ATOM     21  H   UNL     1      10.514 -11.196 -42.373  1.00  0.00     0.293 HD
ENDBRANCH   2  20
BRANCH   6  22
ATOM     22  O   UNL     1      12.407  -6.660 -40.760  1.00  0.00    -0.507 OA
ATOM     23  H   UNL     1      12.444  -7.160 -41.641  1.00  0.00     0.293 HD
ENDBRANCH   6  22
BRANCH   8  24
ATOM     24  O   UNL     1       9.908  -4.932 -37.012  1.00  0.00    -0.508 OA
ATOM     25  H   UNL     1       9.002  -4.543 -36.779  1.00  0.00     0.293 HD
ENDBRANCH   8  24
TORSDOF 5
ENDMDL
MODEL 7
REMARK VINA RESULT:    -6.613      5.922      7.319
REMARK INTER + INTRA:          -8.068
REMARK INTER:                  -7.852
REMARK INTRA:                  -0.216
REMARK UNBOUND:                -0.296
REMARK SMILES O=c1c(O)c(-c2ccc(O)cc2)oc2cc(O)cc(O)c12
REMARK SMILES IDX 5 1 3 2 2 3 1 4 21 5 19 6 18 7 16 8 15 9 14 10 13 11 6 12
REMARK SMILES IDX 7 13 8 14 9 15 12 16 11 17 10 18 4 20 20 22 17 24
REMARK H PARENT 10 19 4 21 20 23 17 25
REMARK Flexibility Score: inf
ROOT
ATOM      1  C   UNL     1       5.945  -6.298 -41.791  1.00  0.00     0.180 A 
ATOM      2  C   UNL     1       4.641  -5.847 -42.070  1.00  0.00     0.208 A 
ATOM      3  C   UNL     1       3.916  -6.464 -43.102  1.00  0.00     0.238 A 
ATOM      4  O   UNL     1       2.751  -6.063 -43.367  1.00  0.00    -0.285 OA
ATOM      5  C   UNL     1       4.496  -7.530 -43.820  1.00  0.00     0.111 A 
ATOM      6  C   UNL     1       3.832  -8.209 -44.870  1.00  0.00     0.134 A 
ATOM      7  C   UNL     1       4.474  -9.266 -45.531  1.00  0.00     0.093 A 
ATOM      8  C   UNL     1       5.762  -9.659 -45.162  1.00  0.00     0.123 A 
ATOM      9  C   UNL     1       6.424  -8.992 -44.127  1.00  0.00     0.094 A 
ATOM     10  C   UNL     1       5.802  -7.934 -43.456  1.00  0.00     0.146 A 
ATOM     11  O   UNL     1       6.455  -7.315 -42.480  1.00  0.00    -0.452 OA
ENDROOT
BRANCH   1  12
ATOM     12  C   UNL     1       6.780  -5.685 -40.733  1.00  0.00     0.021 A 
ATOM     13  C   UNL     1       7.317  -4.392 -40.878  1.00  0.00     0.016 A 
ATOM     14  C   UNL     1       8.122  -3.844 -39.875  1.00  0.00     0.047 A 
ATOM     15  C   UNL     1       8.413  -4.582 -38.724  1.00  0.00     0.115 A 
ATOM     16  C   UNL     1       7.093  -6.428 -39.583  1.00  0.00     0.016 A 
ATOM     17  C   UNL     1       7.899  -5.877 -38.580  1.00  0.00     0.047 A 
BRANCH  15  18
ATOM     18  O   UNL     1       9.216  -4.022 -37.732  1.00  0.00    -0.508 OA
ATOM     19  H   UNL     1      10.208  -3.874 -37.877  1.00  0.00     0.293 HD
ENDBRANCH  15  18
ENDBRANCH   1  12
BRANCH   2  20
ATOM     20  O   UNL     1       4.070  -4.821 -41.311  1.00  0.00    -0.502 OA
ATOM     21  H   UNL     1       3.264  -4.297 -41.628  1.00  0.00     0.293 HD
ENDBRANCH   2  20
BRANCH   6  22
ATOM     22  O   UNL     1       2.543  -7.841 -45.260  1.00  0.00    -0.507 OA
ATOM     23  H   UNL     1       2.055  -8.322 -46.007  1.00  0.00     0.293 HD
ENDBRANCH   6  22
BRANCH   8  24
ATOM     24  O   UNL     1       6.378 -10.713 -45.834  1.00  0.00    -0.508 OA
ATOM     25  H   UNL     1       6.852 -11.456 -45.334  1.00  0.00     0.293 HD
ENDBRANCH   8  24
TORSDOF 5
ENDMDL
MODEL 8
REMARK VINA RESULT:    -6.610      5.648      8.011
REMARK INTER + INTRA:          -8.066
REMARK INTER:                  -7.794
REMARK INTRA:                  -0.272
REMARK UNBOUND:                -0.296
REMARK SMILES O=c1c(O)c(-c2ccc(O)cc2)oc2cc(O)cc(O)c12
REMARK SMILES IDX 5 1 3 2 2 3 1 4 21 5 19 6 18 7 16 8 15 9 14 10 13 11 6 12
REMARK SMILES IDX 7 13 8 14 9 15 12 16 11 17 10 18 4 20 20 22 17 24
REMARK H PARENT 10 19 4 21 20 23 17 25
REMARK Flexibility Score: inf
ROOT
ATOM      1  C   UNL     1       8.863  -8.714 -40.791  1.00  0.00     0.180 A 
ATOM      2  C   UNL     1      10.258  -8.571 -40.665  1.00  0.00     0.208 A 
ATOM      3  C   UNL     1      10.791  -7.290 -40.445  1.00  0.00     0.238 A 
ATOM      4  O   UNL     1      12.039  -7.148 -40.341  1.00  0.00    -0.285 OA
ATOM      5  C   UNL     1       9.924  -6.184 -40.334  1.00  0.00     0.111 A 
ATOM      6  C   UNL     1      10.379  -4.862 -40.108  1.00  0.00     0.134 A 
ATOM      7  C   UNL     1       9.452  -3.816 -40.001  1.00  0.00     0.093 A 
ATOM      8  C   UNL     1       8.082  -4.064 -40.114  1.00  0.00     0.123 A 
ATOM      9  C   UNL     1       7.626  -5.366 -40.338  1.00  0.00     0.094 A 
ATOM     10  C   UNL     1       8.534  -6.424 -40.449  1.00  0.00     0.146 A 
ATOM     11  O   UNL     1       8.075  -7.650 -40.667  1.00  0.00    -0.452 OA
ENDROOT
BRANCH   1  12
ATOM     12  C   UNL     1       8.227 -10.027 -41.044  1.00  0.00     0.021 A 
ATOM     13  C   UNL     1       7.978 -10.935 -39.998  1.00  0.00     0.016 A 
ATOM     14  C   UNL     1       7.398 -12.179 -40.265  1.00  0.00     0.047 A 
ATOM     15  C   UNL     1       7.073 -12.538 -41.577  1.00  0.00     0.115 A 
ATOM     16  C   UNL     1       7.917 -10.403 -42.362  1.00  0.00     0.016 A 
ATOM     17  C   UNL     1       7.336 -11.648 -42.625  1.00  0.00     0.047 A 
BRANCH  15  18
ATOM     18  O   UNL     1       6.494 -13.780 -41.826  1.00  0.00    -0.508 OA
ATOM     19  H   UNL     1       5.596 -13.862 -42.288  1.00  0.00     0.293 HD
ENDBRANCH  15  18
ENDBRANCH   1  12
BRANCH   2  20
ATOM     20  O   UNL     1      11.093  -9.690 -40.729  1.00  0.00    -0.502 OA
ATOM     21  H   UNL     1      12.099  -9.612 -40.803  1.00  0.00     0.293 HD
ENDBRANCH   2  20
BRANCH   6  22
ATOM     22  O   UNL     1      11.741  -4.583 -39.989  1.00  0.00    -0.507 OA
ATOM     23  H   UNL     1      12.077  -3.652 -39.773  1.00  0.00     0.293 HD
ENDBRANCH   6  22
BRANCH   8  24
ATOM     24  O   UNL     1       7.181  -3.006 -40.003  1.00  0.00    -0.508 OA
ATOM     25  H   UNL     1       7.253  -2.325 -39.256  1.00  0.00     0.293 HD
ENDBRANCH   8  24
TORSDOF 5
ENDMDL
MODEL 9
REMARK VINA RESULT:    -6.564      4.662      8.530
REMARK INTER + INTRA:          -8.011
REMARK INTER:                  -7.713
REMARK INTRA:                  -0.298
REMARK UNBOUND:                -0.296
REMARK SMILES O=c1c(O)c(-c2ccc(O)cc2)oc2cc(O)cc(O)c12
REMARK SMILES IDX 5 1 3 2 2 3 1 4 21 5 19 6 18 7 16 8 15 9 14 10 13 11 6 12
REMARK SMILES IDX 7 13 8 14 9 15 12 16 11 17 10 18 4 20 20 22 17 24
REMARK H PARENT 10 19 4 21 20 23 17 25
REMARK Flexibility Score: inf
ROOT
ATOM      1  C   UNL     1       1.937  -8.117 -43.542  1.00  0.00     0.180 A 
ATOM      2  C   UNL     1       1.716  -6.793 -43.119  1.00  0.00     0.208 A 
ATOM      3  C   UNL     1       0.506  -6.478 -42.479  1.00  0.00     0.238 A 
ATOM      4  O   UNL     1       0.292  -5.293 -42.106  1.00  0.00    -0.285 OA
ATOM      5  C   UNL     1      -0.448  -7.492 -42.255  1.00  0.00     0.111 A 
ATOM      6  C   UNL     1      -1.689  -7.260 -41.615  1.00  0.00     0.134 A 
ATOM      7  C   UNL     1      -2.582  -8.324 -41.421  1.00  0.00     0.093 A 
ATOM      8  C   UNL     1      -2.259  -9.612 -41.853  1.00  0.00     0.123 A 
ATOM      9  C   UNL     1      -1.036  -9.848 -42.487  1.00  0.00     0.094 A 
ATOM     10  C   UNL     1      -0.132  -8.800 -42.691  1.00  0.00     0.146 A 
ATOM     11  O   UNL     1       1.021  -9.050 -43.301  1.00  0.00    -0.452 OA
ENDROOT
BRANCH   1  12
ATOM     12  C   UNL     1       3.178  -8.523 -44.240  1.00  0.00     0.021 A 
ATOM     13  C   UNL     1       3.283  -8.466 -45.642  1.00  0.00     0.016 A 
ATOM     14  C   UNL     1       4.457  -8.877 -46.281  1.00  0.00     0.047 A 
ATOM     15  C   UNL     1       5.533  -9.362 -45.531  1.00  0.00     0.115 A 
ATOM     16  C   UNL     1       4.256  -9.031 -43.496  1.00  0.00     0.016 A 
ATOM     17  C   UNL     1       5.429  -9.441 -44.137  1.00  0.00     0.047 A 
BRANCH  15  18
ATOM     18  O   UNL     1       6.697  -9.768 -46.182  1.00  0.00    -0.508 OA
ATOM     19  H   UNL     1       6.866 -10.742 -46.405  1.00  0.00     0.293 HD
ENDBRANCH  15  18
ENDBRANCH   1  12
BRANCH   2  20
ATOM     20  O   UNL     1       2.698  -5.816 -43.309  1.00  0.00    -0.502 OA
ATOM     21  H   UNL     1       3.102  -5.298 -42.539  1.00  0.00     0.293 HD
ENDBRANCH   2  20
BRANCH   6  22
ATOM     22  O   UNL     1      -2.040  -5.984 -41.171  1.00  0.00    -0.507 OA
ATOM     23  H   UNL     1      -2.032  -5.183 -41.792  1.00  0.00     0.293 HD
ENDBRANCH   6  22
BRANCH   8  24
ATOM     24  O   UNL     1      -3.164 -10.652 -41.648  1.00  0.00    -0.508 OA
ATOM     25  H   UNL     1      -3.089 -11.269 -40.847  1.00  0.00     0.293 HD
ENDBRANCH   8  24
TORSDOF 5
ENDMDL
