MODEL 1
REMARK VINA RESULT:    -5.644      0.000      0.000
REMARK INTER + INTRA:          -5.746
REMARK INTER:                  -6.139
REMARK INTRA:                   0.393
REMARK UNBOUND:                 0.393
REMARK SMILES C[C@@H]1[C@@H](C)CC[C@]2(C(=O)[O-])CC[C@@]3(C)C(=CC[C@@H]4[C@@]5(C)CC[C@@H](O)C(C)(C)[C@@H]5CC[C@@]43C)[C@@H]12
REMARK SMILES IDX 7 1 6 2 11 3 33 4 5 5 12 6 15 7 2 8 3 9 13 10 16 11 1 12
REMARK SMILES IDX 4 13 14 14 31 15 17 16 18 17 30 18 32 19 19 20 29 21 28 22
REMARK SMILES IDX 21 23 20 24 25 25 22 26 23 27 26 28 27 29 8 30 9 31 10 32
REMARK SMILES IDX 24 33
REMARK H PARENT 24 34
REMARK Flexibility Score: inf
ROOT
ATOM      1  C   UNL     1       0.428 -37.346  44.764  1.00  0.00     0.017 C 
ATOM      2  C   UNL     1       0.601 -36.159  45.787  1.00  0.00     0.014 C 
ATOM      3  C   UNL     1      -0.965 -38.058  45.012  1.00  0.00     0.014 C 
ATOM      4  C   UNL     1       1.607 -38.374  44.928  1.00  0.00     0.030 C 
ATOM      5  C   UNL     1       2.002 -36.012  46.400  1.00  0.00     0.004 C 
ATOM      6  C   UNL     1      -0.871 -39.572  45.300  1.00  0.00     0.013 C 
ATOM      7  C   UNL     1       1.329 -39.632  44.075  1.00  0.00    -0.063 C 
ATOM      8  C   UNL     1       3.041 -37.736  44.806  1.00  0.00    -0.003 C 
ATOM      9  C   UNL     1       3.135 -36.294  45.406  1.00  0.00    -0.011 C 
ATOM     10  C   UNL     1      -0.030 -40.333  44.218  1.00  0.00    -0.006 C 
ATOM     11  C   UNL     1       2.250 -40.201  43.269  1.00  0.00    -0.027 C 
ATOM     12  C   UNL     1       4.080 -38.633  45.520  1.00  0.00     0.008 C 
ATOM     13  C   UNL     1       3.250 -35.194  44.336  1.00  0.00     0.008 C 
ATOM     14  C   UNL     1      -0.818 -40.177  42.873  1.00  0.00     0.017 C 
ATOM     15  C   UNL     1       0.237 -41.877  44.596  1.00  0.00    -0.020 C 
ATOM     16  C   UNL     1       2.002 -41.534  42.624  1.00  0.00     0.032 C 
ATOM     17  C   UNL     1       1.356 -42.539  43.629  1.00  0.00     0.006 C 
ATOM     18  C   UNL     1      -1.125 -42.668  44.596  1.00  0.00     0.008 C 
ATOM     19  C   UNL     1       0.791 -41.942  46.063  1.00  0.00     0.012 C 
ATOM     20  C   UNL     1       0.974 -43.951  43.005  1.00  0.00    -0.025 C 
ATOM     21  C   UNL     1      -1.045 -44.213  44.608  1.00  0.00     0.005 C 
ATOM     22  C   UNL     1       0.320 -44.786  44.168  1.00  0.00     0.003 C 
ATOM     23  C   UNL     1       2.244 -44.715  42.478  1.00  0.00     0.010 C 
ATOM     24  C   UNL     1       0.026 -43.773  41.779  1.00  0.00     0.012 C 
ATOM     25  C   UNL     1       0.422 -46.360  44.047  1.00  0.00    -0.006 C 
ATOM     26  C   UNL     1       2.887 -45.628  43.523  1.00  0.00     0.033 C 
ATOM     27  C   UNL     1       1.950 -46.782  43.939  1.00  0.00     0.120 C 
ATOM     28  C   UNL     1      -0.226 -47.019  45.299  1.00  0.00     0.014 C 
ATOM     29  C   UNL     1      -0.345 -46.922  42.823  1.00  0.00     0.014 C 
ENDROOT
BRANCH   1  30
ATOM     30  C   UNL     1       0.400 -36.775  43.345  1.00  0.00     0.048 C 
ATOM     31  O   UNL     1      -0.530 -35.997  42.998  1.00  0.00    -0.550 OA
ATOM     32  O   UNL     1       1.357 -37.125  42.397  1.00  0.00    -0.550 OA
ENDBRANCH   1  30
BRANCH  27  33
ATOM     33  O   UNL     1       2.441 -47.292  45.157  1.00  0.00    -0.393 OA
ATOM     34  H   UNL     1       3.427 -47.177  45.155  1.00  0.00     0.210 HD
ENDBRANCH  27  33
TORSDOF 2
ENDMDL
MODEL 2
REMARK VINA RESULT:    -5.545      1.941      7.953
REMARK INTER + INTRA:          -5.637
REMARK INTER:                  -6.011
REMARK INTRA:                   0.374
REMARK UNBOUND:                 0.393
REMARK SMILES C[C@@H]1[C@@H](C)CC[C@]2(C(=O)[O-])CC[C@@]3(C)C(=CC[C@@H]4[C@@]5(C)CC[C@@H](O)C(C)(C)[C@@H]5CC[C@@]43C)[C@@H]12
REMARK SMILES IDX 7 1 6 2 11 3 33 4 5 5 12 6 15 7 2 8 3 9 13 10 16 11 1 12
REMARK SMILES IDX 4 13 14 14 31 15 17 16 18 17 30 18 32 19 19 20 29 21 28 22
REMARK SMILES IDX 21 23 20 24 25 25 22 26 23 27 26 28 27 29 8 30 9 31 10 32
REMARK SMILES IDX 24 33
REMARK H PARENT 24 34
REMARK Flexibility Score: inf
ROOT
ATOM      1  C   UNL     1       1.517 -44.510  43.080  1.00  0.00     0.017 C 
ATOM      2  C   UNL     1       2.470 -45.765  43.043  1.00  0.00     0.014 C 
ATOM      3  C   UNL     1       1.877 -43.538  41.880  1.00  0.00     0.014 C 
ATOM      4  C   UNL     1       1.665 -43.761  44.454  1.00  0.00     0.030 C 
ATOM      5  C   UNL     1       2.997 -46.236  44.407  1.00  0.00     0.004 C 
ATOM      6  C   UNL     1       2.232 -42.098  42.304  1.00  0.00     0.013 C 
ATOM      7  C   UNL     1       0.891 -42.424  44.411  1.00  0.00    -0.063 C 
ATOM      8  C   UNL     1       1.433 -44.675  45.715  1.00  0.00    -0.003 C 
ATOM      9  C   UNL     1       1.956 -46.138  45.529  1.00  0.00    -0.011 C 
ATOM     10  C   UNL     1       1.144 -41.466  43.238  1.00  0.00    -0.006 C 
ATOM     11  C   UNL     1       0.065 -42.013  45.395  1.00  0.00    -0.027 C 
ATOM     12  C   UNL     1       2.132 -44.058  46.950  1.00  0.00     0.008 C 
ATOM     13  C   UNL     1       0.829 -47.173  45.363  1.00  0.00     0.008 C 
ATOM     14  C   UNL     1      -0.162 -41.374  42.377  1.00  0.00     0.017 C 
ATOM     15  C   UNL     1       1.581 -40.036  43.841  1.00  0.00    -0.020 C 
ATOM     16  C   UNL     1      -0.500 -40.622  45.406  1.00  0.00     0.032 C 
ATOM     17  C   UNL     1       0.587 -39.566  45.031  1.00  0.00     0.006 C 
ATOM     18  C   UNL     1       1.694 -38.980  42.678  1.00  0.00     0.008 C 
ATOM     19  C   UNL     1       3.016 -40.175  44.460  1.00  0.00     0.012 C 
ATOM     20  C   UNL     1       0.054 -38.070  44.929  1.00  0.00    -0.025 C 
ATOM     21  C   UNL     1       1.777 -37.489  43.082  1.00  0.00     0.005 C 
ATOM     22  C   UNL     1       1.291 -37.188  44.517  1.00  0.00     0.003 C 
ATOM     23  C   UNL     1      -0.505 -37.558  46.306  1.00  0.00     0.010 C 
ATOM     24  C   UNL     1      -1.125 -37.974  43.911  1.00  0.00     0.012 C 
ATOM     25  C   UNL     1       1.241 -35.665  44.943  1.00  0.00    -0.006 C 
ATOM     26  C   UNL     1       0.546 -36.863  47.173  1.00  0.00     0.033 C 
ATOM     27  C   UNL     1       1.070 -35.565  46.520  1.00  0.00     0.120 C 
ATOM     28  C   UNL     1       2.558 -34.962  44.505  1.00  0.00     0.014 C 
ATOM     29  C   UNL     1       0.090 -34.885  44.259  1.00  0.00     0.014 C 
ENDROOT
BRANCH   1  30
ATOM     30  C   UNL     1       0.075 -44.977  42.869  1.00  0.00     0.048 C 
ATOM     31  O   UNL     1      -0.201 -45.757  41.918  1.00  0.00    -0.550 OA
ATOM     32  O   UNL     1      -0.963 -44.529  43.679  1.00  0.00    -0.550 OA
ENDBRANCH   1  30
BRANCH  27  33
ATOM     33  O   UNL     1       2.282 -35.242  47.160  1.00  0.00    -0.393 OA
ATOM     34  H   UNL     1       2.233 -34.287  47.430  1.00  0.00     0.210 HD
ENDBRANCH  27  33
TORSDOF 2
ENDMDL
MODEL 3
REMARK VINA RESULT:    -5.522      5.024      7.971
REMARK INTER + INTRA:          -5.613
REMARK INTER:                  -6.079
REMARK INTRA:                   0.467
REMARK UNBOUND:                 0.393
REMARK SMILES C[C@@H]1[C@@H](C)CC[C@]2(C(=O)[O-])CC[C@@]3(C)C(=CC[C@@H]4[C@@]5(C)CC[C@@H](O)C(C)(C)[C@@H]5CC[C@@]43C)[C@@H]12
REMARK SMILES IDX 7 1 6 2 11 3 33 4 5 5 12 6 15 7 2 8 3 9 13 10 16 11 1 12
REMARK SMILES IDX 4 13 14 14 31 15 17 16 18 17 30 18 32 19 19 20 29 21 28 22
REMARK SMILES IDX 21 23 20 24 25 25 22 26 23 27 26 28 27 29 8 30 9 31 10 32
REMARK SMILES IDX 24 33
REMARK H PARENT 24 34
REMARK Flexibility Score: inf
ROOT
ATOM      1  C   UNL     1       9.155 -38.899  46.293  1.00  0.00     0.017 C 
ATOM      2  C   UNL     1      10.038 -38.264  45.152  1.00  0.00     0.014 C 
ATOM      3  C   UNL     1       8.724 -40.366  45.875  1.00  0.00     0.014 C 
ATOM      4  C   UNL     1       7.885 -38.008  46.551  1.00  0.00     0.030 C 
ATOM      5  C   UNL     1       9.748 -36.790  44.833  1.00  0.00     0.004 C 
ATOM      6  C   UNL     1       7.200 -40.609  45.862  1.00  0.00     0.013 C 
ATOM      7  C   UNL     1       6.922 -38.732  47.517  1.00  0.00    -0.063 C 
ATOM      8  C   UNL     1       8.210 -36.500  46.869  1.00  0.00    -0.003 C 
ATOM      9  C   UNL     1       9.441 -35.947  46.076  1.00  0.00    -0.011 C 
ATOM     10  C   UNL     1       6.517 -40.179  47.205  1.00  0.00    -0.006 C 
ATOM     11  C   UNL     1       6.347 -38.131  48.581  1.00  0.00    -0.027 C 
ATOM     12  C   UNL     1       6.982 -35.616  46.544  1.00  0.00     0.008 C 
ATOM     13  C   UNL     1      10.688 -35.738  46.954  1.00  0.00     0.008 C 
ATOM     14  C   UNL     1       7.115 -41.115  48.311  1.00  0.00     0.017 C 
ATOM     15  C   UNL     1       4.907 -40.251  47.147  1.00  0.00    -0.020 C 
ATOM     16  C   UNL     1       5.262 -38.810  49.366  1.00  0.00     0.032 C 
ATOM     17  C   UNL     1       4.235 -39.512  48.422  1.00  0.00     0.006 C 
ATOM     18  C   UNL     1       4.446 -41.749  46.988  1.00  0.00     0.008 C 
ATOM     19  C   UNL     1       4.422 -39.495  45.861  1.00  0.00     0.012 C 
ATOM     20  C   UNL     1       3.099 -40.336  49.172  1.00  0.00    -0.025 C 
ATOM     21  C   UNL     1       2.953 -42.060  47.242  1.00  0.00     0.005 C 
ATOM     22  C   UNL     1       2.203 -40.976  48.047  1.00  0.00     0.003 C 
ATOM     23  C   UNL     1       2.206 -39.406  50.072  1.00  0.00     0.010 C 
ATOM     24  C   UNL     1       3.728 -41.400  50.125  1.00  0.00     0.012 C 
ATOM     25  C   UNL     1       0.704 -41.295  48.440  1.00  0.00    -0.006 C 
ATOM     26  C   UNL     1       0.979 -38.848  49.348  1.00  0.00     0.033 C 
ATOM     27  C   UNL     1      -0.007 -39.963  48.935  1.00  0.00     0.120 C 
ATOM     28  C   UNL     1      -0.044 -41.870  47.203  1.00  0.00     0.014 C 
ATOM     29  C   UNL     1       0.587 -42.372  49.549  1.00  0.00     0.014 C 
ENDROOT
BRANCH   1  30
ATOM     30  C   UNL     1       9.999 -39.019  47.563  1.00  0.00     0.048 C 
ATOM     31  O   UNL     1      11.250 -39.161  47.476  1.00  0.00    -0.550 OA
ATOM     32  O   UNL     1       9.421 -39.019  48.829  1.00  0.00    -0.550 OA
ENDBRANCH   1  30
BRANCH  27  33
ATOM     33  O   UNL     1      -0.851 -39.421  47.948  1.00  0.00    -0.393 OA
ATOM     34  H   UNL     1      -0.303 -39.266  47.135  1.00  0.00     0.210 HD
ENDBRANCH  27  33
TORSDOF 2
ENDMDL
MODEL 4
REMARK VINA RESULT:    -5.382      4.354      6.628
REMARK INTER + INTRA:          -5.461
REMARK INTER:                  -5.841
REMARK INTRA:                   0.380
REMARK UNBOUND:                 0.393
REMARK SMILES C[C@@H]1[C@@H](C)CC[C@]2(C(=O)[O-])CC[C@@]3(C)C(=CC[C@@H]4[C@@]5(C)CC[C@@H](O)C(C)(C)[C@@H]5CC[C@@]43C)[C@@H]12
REMARK SMILES IDX 7 1 6 2 11 3 33 4 5 5 12 6 15 7 2 8 3 9 13 10 16 11 1 12
REMARK SMILES IDX 4 13 14 14 31 15 17 16 18 17 30 18 32 19 19 20 29 21 28 22
REMARK SMILES IDX 21 23 20 24 25 25 22 26 23 27 26 28 27 29 8 30 9 31 10 32
REMARK SMILES IDX 24 33
REMARK H PARENT 24 34
REMARK Flexibility Score: inf
ROOT
ATOM      1  C   UNL     1       7.803 -38.392  47.638  1.00  0.00     0.017 C 
ATOM      2  C   UNL     1       8.848 -37.668  46.705  1.00  0.00     0.014 C 
ATOM      3  C   UNL     1       8.257 -39.892  47.875  1.00  0.00     0.014 C 
ATOM      4  C   UNL     1       6.375 -38.349  46.982  1.00  0.00     0.030 C 
ATOM      5  C   UNL     1       8.250 -36.750  45.629  1.00  0.00     0.004 C 
ATOM      6  C   UNL     1       7.210 -40.952  47.473  1.00  0.00     0.013 C 
ATOM      7  C   UNL     1       5.398 -39.232  47.792  1.00  0.00    -0.063 C 
ATOM      8  C   UNL     1       5.880 -36.902  46.608  1.00  0.00    -0.003 C 
ATOM      9  C   UNL     1       7.028 -35.960  46.113  1.00  0.00    -0.011 C 
ATOM     10  C   UNL     1       5.807 -40.676  48.114  1.00  0.00    -0.006 C 
ATOM     11  C   UNL     1       4.164 -38.828  48.159  1.00  0.00    -0.027 C 
ATOM     12  C   UNL     1       4.801 -36.982  45.501  1.00  0.00     0.008 C 
ATOM     13  C   UNL     1       7.411 -34.875  47.135  1.00  0.00     0.008 C 
ATOM     14  C   UNL     1       6.008 -40.805  49.663  1.00  0.00     0.017 C 
ATOM     15  C   UNL     1       4.655 -41.660  47.562  1.00  0.00    -0.020 C 
ATOM     16  C   UNL     1       3.178 -39.788  48.760  1.00  0.00     0.032 C 
ATOM     17  C   UNL     1       3.181 -41.152  48.000  1.00  0.00     0.006 C 
ATOM     18  C   UNL     1       4.957 -43.139  48.013  1.00  0.00     0.008 C 
ATOM     19  C   UNL     1       4.704 -41.653  45.993  1.00  0.00     0.012 C 
ATOM     20  C   UNL     1       2.229 -42.263  48.626  1.00  0.00    -0.025 C 
ATOM     21  C   UNL     1       3.813 -44.170  47.869  1.00  0.00     0.005 C 
ATOM     22  C   UNL     1       2.406 -43.548  47.734  1.00  0.00     0.003 C 
ATOM     23  C   UNL     1       0.721 -41.820  48.594  1.00  0.00     0.010 C 
ATOM     24  C   UNL     1       2.585 -42.512  50.125  1.00  0.00     0.012 C 
ATOM     25  C   UNL     1       1.186 -44.555  47.703  1.00  0.00    -0.006 C 
ATOM     26  C   UNL     1      -0.018 -42.253  47.327  1.00  0.00     0.033 C 
ATOM     27  C   UNL     1      -0.117 -43.790  47.210  1.00  0.00     0.120 C 
ATOM     28  C   UNL     1       1.510 -45.732  46.739  1.00  0.00     0.014 C 
ATOM     29  C   UNL     1       0.901 -45.199  49.084  1.00  0.00     0.014 C 
ENDROOT
BRANCH   1  30
ATOM     30  C   UNL     1       7.795 -37.700  49.002  1.00  0.00     0.048 C 
ATOM     31  O   UNL     1       8.844 -37.673  49.701  1.00  0.00    -0.550 OA
ATOM     32  O   UNL     1       6.639 -37.126  49.523  1.00  0.00    -0.550 OA
ENDBRANCH   1  30
BRANCH  27  33
ATOM     33  O   UNL     1      -0.420 -44.082  45.867  1.00  0.00    -0.393 OA
ATOM     34  H   UNL     1       0.335 -43.756  45.311  1.00  0.00     0.210 HD
ENDBRANCH  27  33
TORSDOF 2
ENDMDL
MODEL 5
REMARK VINA RESULT:    -5.285      4.175      5.988
REMARK INTER + INTRA:          -5.355
REMARK INTER:                  -5.722
REMARK INTRA:                   0.367
REMARK UNBOUND:                 0.393
REMARK SMILES C[C@@H]1[C@@H](C)CC[C@]2(C(=O)[O-])CC[C@@]3(C)C(=CC[C@@H]4[C@@]5(C)CC[C@@H](O)C(C)(C)[C@@H]5CC[C@@]43C)[C@@H]12
REMARK SMILES IDX 7 1 6 2 11 3 33 4 5 5 12 6 15 7 2 8 3 9 13 10 16 11 1 12
REMARK SMILES IDX 4 13 14 14 31 15 17 16 18 17 30 18 32 19 19 20 29 21 28 22
REMARK SMILES IDX 21 23 20 24 25 25 22 26 23 27 26 28 27 29 8 30 9 31 10 32
REMARK SMILES IDX 24 33
REMARK H PARENT 24 34
REMARK Flexibility Score: inf
ROOT
ATOM      1  C   UNL     1       7.170 -38.631  48.944  1.00  0.00     0.017 C 
ATOM      2  C   UNL     1       8.622 -38.431  49.523  1.00  0.00     0.014 C 
ATOM      3  C   UNL     1       6.173 -38.983  50.125  1.00  0.00     0.014 C 
ATOM      4  C   UNL     1       7.172 -39.779  47.869  1.00  0.00     0.030 C 
ATOM      5  C   UNL     1       9.758 -39.041  48.687  1.00  0.00     0.004 C 
ATOM      6  C   UNL     1       5.405 -40.309  49.945  1.00  0.00     0.013 C 
ATOM      7  C   UNL     1       5.721 -40.112  47.454  1.00  0.00    -0.063 C 
ATOM      8  C   UNL     1       8.213 -39.571  46.706  1.00  0.00    -0.003 C 
ATOM      9  C   UNL     1       9.546 -38.898  47.176  1.00  0.00    -0.011 C 
ATOM     10  C   UNL     1       4.689 -40.398  48.553  1.00  0.00    -0.006 C 
ATOM     11  C   UNL     1       5.330 -40.251  46.169  1.00  0.00    -0.027 C 
ATOM     12  C   UNL     1       8.555 -40.933  46.054  1.00  0.00     0.008 C 
ATOM     13  C   UNL     1       9.691 -37.440  46.708  1.00  0.00     0.008 C 
ATOM     14  C   UNL     1       3.620 -39.252  48.545  1.00  0.00     0.017 C 
ATOM     15  C   UNL     1       4.037 -41.845  48.269  1.00  0.00    -0.020 C 
ATOM     16  C   UNL     1       3.967 -40.778  45.824  1.00  0.00     0.032 C 
ATOM     17  C   UNL     1       3.587 -41.998  46.720  1.00  0.00     0.006 C 
ATOM     18  C   UNL     1       2.859 -42.107  49.282  1.00  0.00     0.008 C 
ATOM     19  C   UNL     1       5.121 -42.943  48.551  1.00  0.00     0.012 C 
ATOM     20  C   UNL     1       2.120 -42.565  46.485  1.00  0.00    -0.025 C 
ATOM     21  C   UNL     1       1.903 -43.280  48.966  1.00  0.00     0.005 C 
ATOM     22  C   UNL     1       1.939 -43.756  47.497  1.00  0.00     0.003 C 
ATOM     23  C   UNL     1       1.934 -43.105  45.020  1.00  0.00     0.010 C 
ATOM     24  C   UNL     1       1.057 -41.439  46.677  1.00  0.00     0.012 C 
ATOM     25  C   UNL     1       0.896 -44.874  47.089  1.00  0.00    -0.006 C 
ATOM     26  C   UNL     1       2.266 -44.591  44.868  1.00  0.00     0.033 C 
ATOM     27  C   UNL     1       1.303 -45.485  45.680  1.00  0.00     0.120 C 
ATOM     28  C   UNL     1       0.884 -45.992  48.171  1.00  0.00     0.014 C 
ATOM     29  C   UNL     1      -0.558 -44.341  47.008  1.00  0.00     0.014 C 
ENDROOT
BRANCH   1  30
ATOM     30  C   UNL     1       6.697 -37.313  48.329  1.00  0.00     0.048 C 
ATOM     31  O   UNL     1       6.775 -36.244  48.994  1.00  0.00    -0.550 OA
ATOM     32  O   UNL     1       6.137 -37.259  47.056  1.00  0.00    -0.550 OA
ENDBRANCH   1  30
BRANCH  27  33
ATOM     33  O   UNL     1       1.922 -46.742  45.812  1.00  0.00    -0.393 OA
ATOM     34  H   UNL     1       1.368 -47.286  46.431  1.00  0.00     0.210 HD
ENDBRANCH  27  33
TORSDOF 2
ENDMDL
MODEL 6
REMARK VINA RESULT:    -5.210      4.914     10.120
REMARK INTER + INTRA:          -5.274
REMARK INTER:                  -5.665
REMARK INTRA:                   0.391
REMARK UNBOUND:                 0.393
REMARK SMILES C[C@@H]1[C@@H](C)CC[C@]2(C(=O)[O-])CC[C@@]3(C)C(=CC[C@@H]4[C@@]5(C)CC[C@@H](O)C(C)(C)[C@@H]5CC[C@@]43C)[C@@H]12
REMARK SMILES IDX 7 1 6 2 11 3 33 4 5 5 12 6 15 7 2 8 3 9 13 10 16 11 1 12
REMARK SMILES IDX 4 13 14 14 31 15 17 16 18 17 30 18 32 19 19 20 29 21 28 22
REMARK SMILES IDX 21 23 20 24 25 25 22 26 23 27 26 28 27 29 8 30 9 31 10 32
REMARK SMILES IDX 24 33
REMARK H PARENT 24 34
REMARK Flexibility Score: inf
ROOT
ATOM      1  C   UNL     1       2.524 -49.210  37.845  1.00  0.00     0.017 C 
ATOM      2  C   UNL     1       2.712 -50.641  37.212  1.00  0.00     0.014 C 
ATOM      3  C   UNL     1       3.843 -48.799  38.623  1.00  0.00     0.014 C 
ATOM      4  C   UNL     1       1.290 -49.209  38.820  1.00  0.00     0.030 C 
ATOM      5  C   UNL     1       1.497 -51.576  37.316  1.00  0.00     0.004 C 
ATOM      6  C   UNL     1       3.629 -48.447  40.111  1.00  0.00     0.013 C 
ATOM      7  C   UNL     1       1.232 -47.872  39.592  1.00  0.00    -0.063 C 
ATOM      8  C   UNL     1      -0.051 -49.710  38.163  1.00  0.00    -0.003 C 
ATOM      9  C   UNL     1       0.157 -50.857  37.119  1.00  0.00    -0.011 C 
ATOM     10  C   UNL     1       2.496 -47.383  40.314  1.00  0.00    -0.006 C 
ATOM     11  C   UNL     1       0.101 -47.150  39.740  1.00  0.00    -0.027 C 
ATOM     12  C   UNL     1      -1.019 -50.214  39.260  1.00  0.00     0.008 C 
ATOM     13  C   UNL     1      -0.044 -50.401  35.663  1.00  0.00     0.008 C 
ATOM     14  C   UNL     1       2.999 -46.077  39.608  1.00  0.00     0.017 C 
ATOM     15  C   UNL     1       2.129 -47.139  41.864  1.00  0.00    -0.020 C 
ATOM     16  C   UNL     1       0.047 -45.972  40.670  1.00  0.00     0.032 C 
ATOM     17  C   UNL     1       0.762 -46.283  42.022  1.00  0.00     0.006 C 
ATOM     18  C   UNL     1       3.355 -46.484  42.605  1.00  0.00     0.008 C 
ATOM     19  C   UNL     1       1.887 -48.532  42.544  1.00  0.00     0.012 C 
ATOM     20  C   UNL     1       0.832 -45.058  43.034  1.00  0.00    -0.025 C 
ATOM     21  C   UNL     1       3.094 -45.874  44.002  1.00  0.00     0.005 C 
ATOM     22  C   UNL     1       1.608 -45.577  44.302  1.00  0.00     0.003 C 
ATOM     23  C   UNL     1      -0.602 -44.583  43.470  1.00  0.00     0.010 C 
ATOM     24  C   UNL     1       1.520 -43.828  42.364  1.00  0.00     0.012 C 
ATOM     25  C   UNL     1       1.294 -44.843  45.668  1.00  0.00    -0.006 C 
ATOM     26  C   UNL     1      -1.120 -45.276  44.732  1.00  0.00     0.033 C 
ATOM     27  C   UNL     1      -0.263 -44.939  45.971  1.00  0.00     0.120 C 
ATOM     28  C   UNL     1       2.103 -45.514  46.814  1.00  0.00     0.014 C 
ATOM     29  C   UNL     1       1.716 -43.352  45.662  1.00  0.00     0.014 C 
ENDROOT
BRANCH   1  30
ATOM     30  C   UNL     1       2.326 -48.193  36.719  1.00  0.00     0.048 C 
ATOM     31  O   UNL     1       3.241 -48.007  35.871  1.00  0.00    -0.550 OA
ATOM     32  O   UNL     1       1.170 -47.425  36.623  1.00  0.00    -0.550 OA
ENDBRANCH   1  30
BRANCH  27  33
ATOM     33  O   UNL     1      -0.548 -45.914  46.947  1.00  0.00    -0.393 OA
ATOM     34  H   UNL     1      -0.527 -45.467  47.833  1.00  0.00     0.210 HD
ENDBRANCH  27  33
TORSDOF 2
ENDMDL
MODEL 7
REMARK VINA RESULT:    -5.177      4.410      7.866
REMARK INTER + INTRA:          -5.237
REMARK INTER:                  -5.680
REMARK INTRA:                   0.443
REMARK UNBOUND:                 0.393
REMARK SMILES C[C@@H]1[C@@H](C)CC[C@]2(C(=O)[O-])CC[C@@]3(C)C(=CC[C@@H]4[C@@]5(C)CC[C@@H](O)C(C)(C)[C@@H]5CC[C@@]43C)[C@@H]12
REMARK SMILES IDX 7 1 6 2 11 3 33 4 5 5 12 6 15 7 2 8 3 9 13 10 16 11 1 12
REMARK SMILES IDX 4 13 14 14 31 15 17 16 18 17 30 18 32 19 19 20 29 21 28 22
REMARK SMILES IDX 21 23 20 24 25 25 22 26 23 27 26 28 27 29 8 30 9 31 10 32
REMARK SMILES IDX 24 33
REMARK H PARENT 24 34
REMARK Flexibility Score: inf
ROOT
ATOM      1  C   UNL     1       2.667 -45.334  45.113  1.00  0.00     0.017 C 
ATOM      2  C   UNL     1       3.307 -44.172  45.964  1.00  0.00     0.014 C 
ATOM      3  C   UNL     1       3.717 -46.509  44.947  1.00  0.00     0.014 C 
ATOM      4  C   UNL     1       2.226 -44.790  43.704  1.00  0.00     0.030 C 
ATOM      5  C   UNL     1       3.009 -42.748  45.470  1.00  0.00     0.004 C 
ATOM      6  C   UNL     1       4.032 -46.889  43.485  1.00  0.00     0.013 C 
ATOM      7  C   UNL     1       1.791 -45.965  42.800  1.00  0.00    -0.063 C 
ATOM      8  C   UNL     1       1.263 -43.546  43.765  1.00  0.00    -0.003 C 
ATOM      9  C   UNL     1       1.579 -42.571  44.948  1.00  0.00    -0.011 C 
ATOM     10  C   UNL     1       2.735 -47.167  42.650  1.00  0.00    -0.006 C 
ATOM     11  C   UNL     1       0.659 -45.956  42.064  1.00  0.00    -0.027 C 
ATOM     12  C   UNL     1       1.343 -42.751  42.440  1.00  0.00     0.008 C 
ATOM     13  C   UNL     1       0.539 -42.629  46.081  1.00  0.00     0.008 C 
ATOM     14  C   UNL     1       2.059 -48.419  43.307  1.00  0.00     0.017 C 
ATOM     15  C   UNL     1       3.029 -47.383  41.080  1.00  0.00    -0.020 C 
ATOM     16  C   UNL     1       0.384 -47.025  41.047  1.00  0.00     0.032 C 
ATOM     17  C   UNL     1       1.661 -47.354  40.211  1.00  0.00     0.006 C 
ATOM     18  C   UNL     1       3.864 -48.703  40.871  1.00  0.00     0.008 C 
ATOM     19  C   UNL     1       3.927 -46.201  40.574  1.00  0.00     0.012 C 
ATOM     20  C   UNL     1       1.485 -48.542  39.168  1.00  0.00    -0.025 C 
ATOM     21  C   UNL     1       3.962 -49.257  39.431  1.00  0.00     0.005 C 
ATOM     22  C   UNL     1       2.881 -48.723  38.465  1.00  0.00     0.003 C 
ATOM     23  C   UNL     1       0.403 -48.203  38.079  1.00  0.00     0.010 C 
ATOM     24  C   UNL     1       0.996 -49.838  39.887  1.00  0.00     0.012 C 
ATOM     25  C   UNL     1       2.861 -49.345  37.010  1.00  0.00    -0.006 C 
ATOM     26  C   UNL     1       0.978 -47.525  36.835  1.00  0.00     0.033 C 
ATOM     27  C   UNL     1       1.948 -48.449  36.067  1.00  0.00     0.120 C 
ATOM     28  C   UNL     1       4.311 -49.402  36.451  1.00  0.00     0.014 C 
ATOM     29  C   UNL     1       2.335 -50.803  36.986  1.00  0.00     0.014 C 
ENDROOT
BRANCH   1  30
ATOM     30  C   UNL     1       1.467 -45.901  45.874  1.00  0.00     0.048 C 
ATOM     31  O   UNL     1       1.475 -45.923  47.135  1.00  0.00    -0.550 OA
ATOM     32  O   UNL     1       0.369 -46.440  45.211  1.00  0.00    -0.550 OA
ENDBRANCH   1  30
BRANCH  27  33
ATOM     33  O   UNL     1       2.716 -47.628  35.220  1.00  0.00    -0.393 OA
ATOM     34  H   UNL     1       2.426 -47.804  34.287  1.00  0.00     0.210 HD
ENDBRANCH  27  33
TORSDOF 2
ENDMDL
MODEL 8
REMARK VINA RESULT:    -5.112      1.583      2.122
REMARK INTER + INTRA:          -5.167
REMARK INTER:                  -5.568
REMARK INTRA:                   0.401
REMARK UNBOUND:                 0.393
REMARK SMILES C[C@@H]1[C@@H](C)CC[C@]2(C(=O)[O-])CC[C@@]3(C)C(=CC[C@@H]4[C@@]5(C)CC[C@@H](O)C(C)(C)[C@@H]5CC[C@@]43C)[C@@H]12
REMARK SMILES IDX 7 1 6 2 11 3 33 4 5 5 12 6 15 7 2 8 3 9 13 10 16 11 1 12
REMARK SMILES IDX 4 13 14 14 31 15 17 16 18 17 30 18 32 19 19 20 29 21 28 22
REMARK SMILES IDX 21 23 20 24 25 25 22 26 23 27 26 28 27 29 8 30 9 31 10 32
REMARK SMILES IDX 24 33
REMARK H PARENT 24 34
REMARK Flexibility Score: inf
ROOT
ATOM      1  C   UNL     1       0.072 -39.449  45.392  1.00  0.00     0.017 C 
ATOM      2  C   UNL     1       0.112 -38.289  46.459  1.00  0.00     0.014 C 
ATOM      3  C   UNL     1      -1.095 -40.459  45.752  1.00  0.00     0.014 C 
ATOM      4  C   UNL     1       1.454 -40.198  45.358  1.00  0.00     0.030 C 
ATOM      5  C   UNL     1       1.514 -37.860  46.918  1.00  0.00     0.004 C 
ATOM      6  C   UNL     1      -0.644 -41.924  45.935  1.00  0.00     0.013 C 
ATOM      7  C   UNL     1       1.348 -41.456  44.467  1.00  0.00    -0.063 C 
ATOM      8  C   UNL     1       2.692 -39.257  45.113  1.00  0.00    -0.003 C 
ATOM      9  C   UNL     1       2.548 -37.851  45.786  1.00  0.00    -0.011 C 
ATOM     10  C   UNL     1       0.200 -42.443  44.720  1.00  0.00    -0.006 C 
ATOM     11  C   UNL     1       2.263 -41.780  43.529  1.00  0.00    -0.027 C 
ATOM     12  C   UNL     1       3.979 -39.927  45.650  1.00  0.00     0.008 C 
ATOM     13  C   UNL     1       2.293 -36.715  44.779  1.00  0.00     0.008 C 
ATOM     14  C   UNL     1      -0.763 -42.417  43.484  1.00  0.00     0.017 C 
ATOM     15  C   UNL     1       0.836 -43.903  44.970  1.00  0.00    -0.020 C 
ATOM     16  C   UNL     1       2.229 -43.111  42.835  1.00  0.00     0.032 C 
ATOM     17  C   UNL     1       1.942 -44.268  43.844  1.00  0.00     0.006 C 
ATOM     18  C   UNL     1      -0.315 -44.974  45.075  1.00  0.00     0.008 C 
ATOM     19  C   UNL     1       1.568 -43.896  46.358  1.00  0.00     0.012 C 
ATOM     20  C   UNL     1       1.797 -45.707  43.181  1.00  0.00    -0.025 C 
ATOM     21  C   UNL     1       0.095 -46.462  44.984  1.00  0.00     0.005 C 
ATOM     22  C   UNL     1       1.486 -46.705  44.358  1.00  0.00     0.003 C 
ATOM     23  C   UNL     1       3.125 -46.154  42.468  1.00  0.00     0.010 C 
ATOM     24  C   UNL     1       0.688 -45.699  42.084  1.00  0.00     0.012 C 
ATOM     25  C   UNL     1       1.907 -48.213  44.130  1.00  0.00    -0.006 C 
ATOM     26  C   UNL     1       4.073 -46.939  43.376  1.00  0.00     0.033 C 
ATOM     27  C   UNL     1       3.464 -48.285  43.825  1.00  0.00     0.120 C 
ATOM     28  C   UNL     1       1.575 -49.042  45.404  1.00  0.00     0.014 C 
ATOM     29  C   UNL     1       1.132 -48.887  42.969  1.00  0.00     0.014 C 
ENDROOT
BRANCH   1  30
ATOM     30  C   UNL     1      -0.254 -38.850  44.022  1.00  0.00     0.048 C 
ATOM     31  O   UNL     1      -1.125 -37.943  43.923  1.00  0.00    -0.550 OA
ATOM     32  O   UNL     1       0.359 -39.307  42.860  1.00  0.00    -0.550 OA
ENDBRANCH   1  30
BRANCH  27  33
ATOM     33  O   UNL     1       4.199 -48.717  44.945  1.00  0.00    -0.393 OA
ATOM     34  H   UNL     1       4.646 -49.569  44.700  1.00  0.00     0.210 HD
ENDBRANCH  27  33
TORSDOF 2
ENDMDL
MODEL 9
REMARK VINA RESULT:    -5.098      4.369      7.012
REMARK INTER + INTRA:          -5.152
REMARK INTER:                  -5.706
REMARK INTRA:                   0.555
REMARK UNBOUND:                 0.393
REMARK SMILES C[C@@H]1[C@@H](C)CC[C@]2(C(=O)[O-])CC[C@@]3(C)C(=CC[C@@H]4[C@@]5(C)CC[C@@H](O)C(C)(C)[C@@H]5CC[C@@]43C)[C@@H]12
REMARK SMILES IDX 7 1 6 2 11 3 33 4 5 5 12 6 15 7 2 8 3 9 13 10 16 11 1 12
REMARK SMILES IDX 4 13 14 14 31 15 17 16 18 17 30 18 32 19 19 20 29 21 28 22
REMARK SMILES IDX 21 23 20 24 25 25 22 26 23 27 26 28 27 29 8 30 9 31 10 32
REMARK SMILES IDX 24 33
REMARK H PARENT 24 34
REMARK Flexibility Score: inf
ROOT
ATOM      1  C   UNL     1       8.307 -38.411  48.578  1.00  0.00     0.017 C 
ATOM      2  C   UNL     1       9.847 -38.687  48.770  1.00  0.00     0.014 C 
ATOM      3  C   UNL     1       7.471 -39.540  49.311  1.00  0.00     0.014 C 
ATOM      4  C   UNL     1       7.953 -38.375  47.046  1.00  0.00     0.030 C 
ATOM      5  C   UNL     1      10.721 -38.455  47.528  1.00  0.00     0.004 C 
ATOM      6  C   UNL     1       6.483 -40.302  48.403  1.00  0.00     0.013 C 
ATOM      7  C   UNL     1       6.420 -38.310  46.862  1.00  0.00    -0.063 C 
ATOM      8  C   UNL     1       8.812 -37.355  46.209  1.00  0.00    -0.003 C 
ATOM      9  C   UNL     1      10.293 -37.236  46.702  1.00  0.00    -0.011 C 
ATOM     10  C   UNL     1       5.547 -39.335  47.600  1.00  0.00    -0.006 C 
ATOM     11  C   UNL     1       5.809 -37.452  46.018  1.00  0.00    -0.027 C 
ATOM     12  C   UNL     1       8.823 -37.772  44.719  1.00  0.00     0.008 C 
ATOM     13  C   UNL     1      10.591 -35.913  47.428  1.00  0.00     0.008 C 
ATOM     14  C   UNL     1       4.686 -38.581  48.670  1.00  0.00     0.017 C 
ATOM     15  C   UNL     1       4.636 -40.098  46.510  1.00  0.00    -0.020 C 
ATOM     16  C   UNL     1       4.342 -37.566  45.719  1.00  0.00     0.032 C 
ATOM     17  C   UNL     1       3.923 -39.053  45.497  1.00  0.00     0.006 C 
ATOM     18  C   UNL     1       3.611 -41.045  47.241  1.00  0.00     0.008 C 
ATOM     19  C   UNL     1       5.563 -41.024  45.647  1.00  0.00     0.012 C 
ATOM     20  C   UNL     1       2.366 -39.278  45.264  1.00  0.00    -0.025 C 
ATOM     21  C   UNL     1       2.442 -41.606  46.398  1.00  0.00     0.005 C 
ATOM     22  C   UNL     1       2.165 -40.829  45.093  1.00  0.00     0.003 C 
ATOM     23  C   UNL     1       1.863 -38.549  43.964  1.00  0.00     0.010 C 
ATOM     24  C   UNL     1       1.541 -38.686  46.449  1.00  0.00     0.012 C 
ATOM     25  C   UNL     1       0.905 -41.286  44.251  1.00  0.00    -0.006 C 
ATOM     26  C   UNL     1       1.925 -39.422  42.710  1.00  0.00     0.033 C 
ATOM     27  C   UNL     1       0.977 -40.637  42.802  1.00  0.00     0.120 C 
ATOM     28  C   UNL     1       0.891 -42.837  44.140  1.00  0.00     0.014 C 
ATOM     29  C   UNL     1      -0.439 -40.892  44.914  1.00  0.00     0.014 C 
ENDROOT
BRANCH   1  30
ATOM     30  C   UNL     1       7.956 -37.080  49.246  1.00  0.00     0.048 C 
ATOM     31  O   UNL     1       8.721 -36.596  50.124  1.00  0.00    -0.550 OA
ATOM     32  O   UNL     1       6.783 -36.397  48.943  1.00  0.00    -0.550 OA
ENDBRANCH   1  30
BRANCH  27  33
ATOM     33  O   UNL     1       1.402 -41.566  41.832  1.00  0.00    -0.393 OA
ATOM     34  H   UNL     1       0.887 -41.389  41.002  1.00  0.00     0.210 HD
ENDBRANCH  27  33
TORSDOF 2
ENDMDL
