MODEL 1
REMARK VINA RESULT:    -4.525      0.000      0.000
REMARK INTER + INTRA:          -7.918
REMARK INTER:                  -7.170
REMARK INTRA:                  -0.748
REMARK UNBOUND:                -0.748
REMARK SMILES CCCCCCCCCCCC(=O)[O-]
REMARK SMILES IDX 7 1 8 2 9 3 10 4 11 5 12 6 13 7 14 8 6 9 5 10 4 11 3 12 2 13
REMARK SMILES IDX 1 14
REMARK H PARENT
REMARK Flexibility Score: inf
ROOT
ATOM      1  C   UNL     1     192.645   3.447  99.377  1.00  0.00     0.000 C 
ENDROOT
BRANCH   1   2
ATOM      2  C   UNL     1     191.851   4.258  98.338  1.00  0.00     0.000 C 
BRANCH   2   3
ATOM      3  C   UNL     1     190.600   3.514  97.843  1.00  0.00     0.000 C 
BRANCH   3   4
ATOM      4  C   UNL     1     190.483   3.489  96.309  1.00  0.00     0.006 C 
BRANCH   4   5
ATOM      5  C   UNL     1     191.835   3.391  95.579  1.00  0.00     0.053 C 
BRANCH   5   6
ATOM      6  C   UNL     1     192.053   2.052  94.941  1.00  0.00     0.041 C 
ATOM      7  O   UNL     1     191.669   1.841  93.760  1.00  0.00    -0.550 OA
ATOM      8  O   UNL     1     192.650   1.027  95.662  1.00  0.00    -0.550 OA
ENDBRANCH   5   6
ENDBRANCH   4   5
ENDBRANCH   3   4
ENDBRANCH   2   3
ENDBRANCH   1   2
BRANCH   1   9
ATOM      9  C   UNL     1     192.315   1.945  99.327  1.00  0.00     0.000 C 
BRANCH   9  10
ATOM     10  C   UNL     1     191.617   1.453 100.605  1.00  0.00    -0.000 C 
BRANCH  10  11
ATOM     11  C   UNL     1     192.491   0.490 101.425  1.00  0.00    -0.000 C 
BRANCH  11  12
ATOM     12  C   UNL     1     193.769   1.158 101.966  1.00  0.00    -0.000 C 
BRANCH  12  13
ATOM     13  C   UNL     1     193.523   2.383 102.864  1.00  0.00    -0.003 C 
ATOM     14  C   UNL     1     193.676   2.074 104.353  1.00  0.00     0.004 C 
ENDBRANCH  12  13
ENDBRANCH  11  12
ENDBRANCH  10  11
ENDBRANCH   9  10
ENDBRANCH   1   9
TORSDOF 10
ENDMDL
MODEL 2
REMARK VINA RESULT:    -4.478      1.693      2.336
REMARK INTER + INTRA:          -7.844
REMARK INTER:                  -7.261
REMARK INTRA:                  -0.583
REMARK UNBOUND:                -0.748
REMARK SMILES CCCCCCCCCCCC(=O)[O-]
REMARK SMILES IDX 7 1 8 2 9 3 10 4 11 5 12 6 13 7 14 8 6 9 5 10 4 11 3 12 2 13
REMARK SMILES IDX 1 14
REMARK H PARENT
REMARK Flexibility Score: inf
ROOT
ATOM      1  C   UNL     1     192.120   1.957  99.762  1.00  0.00     0.000 C 
ENDROOT
BRANCH   1   2
ATOM      2  C   UNL     1     192.784   3.331  99.566  1.00  0.00     0.000 C 
BRANCH   2   3
ATOM      3  C   UNL     1     192.063   4.187  98.511  1.00  0.00     0.000 C 
BRANCH   3   4
ATOM      4  C   UNL     1     191.031   3.390  97.693  1.00  0.00     0.006 C 
BRANCH   4   5
ATOM      5  C   UNL     1     190.595   4.083  96.389  1.00  0.00     0.053 C 
BRANCH   5   6
ATOM      6  C   UNL     1     191.592   3.915  95.283  1.00  0.00     0.041 C 
ATOM      7  O   UNL     1     191.798   4.850  94.465  1.00  0.00    -0.550 OA
ATOM      8  O   UNL     1     192.271   2.712  95.135  1.00  0.00    -0.550 OA
ENDBRANCH   5   6
ENDBRANCH   4   5
ENDBRANCH   3   4
ENDBRANCH   2   3
ENDBRANCH   1   2
BRANCH   1   9
ATOM      9  C   UNL     1     192.756   1.156 100.912  1.00  0.00     0.000 C 
BRANCH   9  10
ATOM     10  C   UNL     1     193.590   2.041 101.854  1.00  0.00    -0.000 C 
BRANCH  10  11
ATOM     11  C   UNL     1     193.456   1.627 103.329  1.00  0.00    -0.000 C 
BRANCH  11  12
ATOM     12  C   UNL     1     192.353   2.407 104.070  1.00  0.00    -0.000 C 
BRANCH  12  13
ATOM     13  C   UNL     1     190.995   1.686 104.144  1.00  0.00    -0.003 C 
ATOM     14  C   UNL     1     189.937   2.480 104.909  1.00  0.00     0.004 C 
ENDBRANCH  12  13
ENDBRANCH  11  12
ENDBRANCH  10  11
ENDBRANCH   9  10
ENDBRANCH   1   9
TORSDOF 10
ENDMDL
MODEL 3
REMARK VINA RESULT:    -4.339      1.592      3.218
REMARK INTER + INTRA:          -7.623
REMARK INTER:                  -6.763
REMARK INTRA:                  -0.860
REMARK UNBOUND:                -0.748
REMARK SMILES CCCCCCCCCCCC(=O)[O-]
REMARK SMILES IDX 7 1 8 2 9 3 10 4 11 5 12 6 13 7 14 8 6 9 5 10 4 11 3 12 2 13
REMARK SMILES IDX 1 14
REMARK H PARENT
REMARK Flexibility Score: inf
ROOT
ATOM      1  C   UNL     1     188.466   3.585  97.013  1.00  0.00     0.000 C 
ENDROOT
BRANCH   1   2
ATOM      2  C   UNL     1     189.005   4.616  96.007  1.00  0.00     0.000 C 
BRANCH   2   3
ATOM      3  C   UNL     1     189.501   3.965  94.706  1.00  0.00     0.000 C 
BRANCH   3   4
ATOM      4  C   UNL     1     190.913   4.427  94.303  1.00  0.00     0.006 C 
BRANCH   4   5
ATOM      5  C   UNL     1     192.048   3.642  94.984  1.00  0.00     0.053 C 
BRANCH   5   6
ATOM      6  C   UNL     1     192.030   2.183  94.641  1.00  0.00     0.041 C 
ATOM      7  O   UNL     1     192.454   1.331  95.466  1.00  0.00    -0.550 OA
ATOM      8  O   UNL     1     191.574   1.766  93.397  1.00  0.00    -0.550 OA
ENDBRANCH   5   6
ENDBRANCH   4   5
ENDBRANCH   3   4
ENDBRANCH   2   3
ENDBRANCH   1   2
BRANCH   1   9
ATOM      9  C   UNL     1     189.144   3.697  98.390  1.00  0.00     0.000 C 
BRANCH   9  10
ATOM     10  C   UNL     1     190.592   4.204  98.292  1.00  0.00    -0.000 C 
BRANCH  10  11
ATOM     11  C   UNL     1     191.627   3.077  98.448  1.00  0.00    -0.000 C 
BRANCH  11  12
ATOM     12  C   UNL     1     192.736   3.420  99.459  1.00  0.00    -0.000 C 
BRANCH  12  13
ATOM     13  C   UNL     1     192.996   2.337 100.522  1.00  0.00    -0.003 C 
ATOM     14  C   UNL     1     191.914   1.258 100.552  1.00  0.00     0.004 C 
ENDBRANCH  12  13
ENDBRANCH  11  12
ENDBRANCH  10  11
ENDBRANCH   9  10
ENDBRANCH   1   9
TORSDOF 10
ENDMDL
MODEL 4
REMARK VINA RESULT:    -4.323      4.219      7.439
REMARK INTER + INTRA:          -7.599
REMARK INTER:                  -6.917
REMARK INTRA:                  -0.682
REMARK UNBOUND:                -0.748
REMARK SMILES CCCCCCCCCCCC(=O)[O-]
REMARK SMILES IDX 7 1 8 2 9 3 10 4 11 5 12 6 13 7 14 8 6 9 5 10 4 11 3 12 2 13
REMARK SMILES IDX 1 14
REMARK H PARENT
REMARK Flexibility Score: inf
ROOT
ATOM      1  C   UNL     1     192.748   1.415 101.100  1.00  0.00     0.000 C 
ENDROOT
BRANCH   1   2
ATOM      2  C   UNL     1     193.519   2.460 101.925  1.00  0.00     0.000 C 
BRANCH   2   3
ATOM      3  C   UNL     1     193.161   2.410 103.419  1.00  0.00     0.000 C 
BRANCH   3   4
ATOM      4  C   UNL     1     192.044   1.400 103.737  1.00  0.00     0.006 C 
BRANCH   4   5
ATOM      5  C   UNL     1     191.693   1.303 105.233  1.00  0.00     0.053 C 
BRANCH   5   6
ATOM      6  C   UNL     1     190.352   1.891 105.552  1.00  0.00     0.041 C 
ATOM      7  O   UNL     1     189.750   1.564 106.609  1.00  0.00    -0.550 OA
ATOM      8  O   UNL     1     189.752   2.776 104.665  1.00  0.00    -0.550 OA
ENDBRANCH   5   6
ENDBRANCH   4   5
ENDBRANCH   3   4
ENDBRANCH   2   3
ENDBRANCH   1   2
BRANCH   1   9
ATOM      9  C   UNL     1     192.230   1.984  99.768  1.00  0.00     0.000 C 
BRANCH   9  10
ATOM     10  C   UNL     1     192.787   3.385  99.470  1.00  0.00    -0.000 C 
BRANCH  10  11
ATOM     11  C   UNL     1     191.914   4.173  98.479  1.00  0.00    -0.000 C 
BRANCH  11  12
ATOM     12  C   UNL     1     191.420   3.310  97.303  1.00  0.00    -0.000 C 
BRANCH  12  13
ATOM     13  C   UNL     1     189.941   3.517  96.930  1.00  0.00    -0.003 C 
ATOM     14  C   UNL     1     189.058   3.829  98.139  1.00  0.00     0.004 C 
ENDBRANCH  12  13
ENDBRANCH  11  12
ENDBRANCH  10  11
ENDBRANCH   9  10
ENDBRANCH   1   9
TORSDOF 10
ENDMDL
MODEL 5
REMARK VINA RESULT:    -4.251      2.291      3.199
REMARK INTER + INTRA:          -7.485
REMARK INTER:                  -6.903
REMARK INTRA:                  -0.582
REMARK UNBOUND:                -0.748
REMARK SMILES CCCCCCCCCCCC(=O)[O-]
REMARK SMILES IDX 7 1 8 2 9 3 10 4 11 5 12 6 13 7 14 8 6 9 5 10 4 11 3 12 2 13
REMARK SMILES IDX 1 14
REMARK H PARENT
REMARK Flexibility Score: inf
ROOT
ATOM      1  C   UNL     1     192.537   1.146 100.496  1.00  0.00     0.000 C 
ENDROOT
BRANCH   1   2
ATOM      2  C   UNL     1     192.475   2.496  99.761  1.00  0.00     0.000 C 
BRANCH   2   3
ATOM      3  C   UNL     1     191.973   2.356  98.315  1.00  0.00     0.000 C 
BRANCH   3   4
ATOM      4  C   UNL     1     191.350   3.652  97.766  1.00  0.00     0.006 C 
BRANCH   4   5
ATOM      5  C   UNL     1     189.865   3.836  98.127  1.00  0.00     0.053 C 
BRANCH   5   6
ATOM      6  C   UNL     1     188.944   3.438  97.013  1.00  0.00     0.041 C 
ATOM      7  O   UNL     1     189.317   3.539  95.814  1.00  0.00    -0.550 OA
ATOM      8  O   UNL     1     187.662   2.987  97.297  1.00  0.00    -0.550 OA
ENDBRANCH   5   6
ENDBRANCH   4   5
ENDBRANCH   3   4
ENDBRANCH   2   3
ENDBRANCH   1   2
BRANCH   1   9
ATOM      9  C   UNL     1     193.543   1.157 101.661  1.00  0.00     0.000 C 
BRANCH   9  10
ATOM     10  C   UNL     1     193.588   2.512 102.387  1.00  0.00    -0.000 C 
BRANCH  10  11
ATOM     11  C   UNL     1     193.280   2.390 103.889  1.00  0.00    -0.000 C 
BRANCH  11  12
ATOM     12  C   UNL     1     192.368   1.193 104.216  1.00  0.00    -0.000 C 
BRANCH  12  13
ATOM     13  C   UNL     1     190.876   1.419 103.912  1.00  0.00    -0.003 C 
ATOM     14  C   UNL     1     190.236   2.476 104.811  1.00  0.00     0.004 C 
ENDBRANCH  12  13
ENDBRANCH  11  12
ENDBRANCH  10  11
ENDBRANCH   9  10
ENDBRANCH   1   9
TORSDOF 10
ENDMDL
MODEL 6
REMARK VINA RESULT:    -4.249      3.498      6.914
REMARK INTER + INTRA:          -7.480
REMARK INTER:                  -6.714
REMARK INTRA:                  -0.766
REMARK UNBOUND:                -0.748
REMARK SMILES CCCCCCCCCCCC(=O)[O-]
REMARK SMILES IDX 7 1 8 2 9 3 10 4 11 5 12 6 13 7 14 8 6 9 5 10 4 11 3 12 2 13
REMARK SMILES IDX 1 14
REMARK H PARENT
REMARK Flexibility Score: inf
ROOT
ATOM      1  C   UNL     1     192.046   2.334  99.054  1.00  0.00     0.000 C 
ENDROOT
BRANCH   1   2
ATOM      2  C   UNL     1     192.722   1.696 100.280  1.00  0.00     0.000 C 
BRANCH   2   3
ATOM      3  C   UNL     1     193.257   2.745 101.269  1.00  0.00     0.000 C 
BRANCH   3   4
ATOM      4  C   UNL     1     193.755   2.128 102.588  1.00  0.00     0.006 C 
BRANCH   4   5
ATOM      5  C   UNL     1     192.826   2.381 103.789  1.00  0.00     0.053 C 
BRANCH   5   6
ATOM      6  C   UNL     1     191.627   1.481 103.793  1.00  0.00     0.041 C 
ATOM      7  O   UNL     1     190.507   1.916 104.171  1.00  0.00    -0.550 OA
ATOM      8  O   UNL     1     191.754   0.152 103.411  1.00  0.00    -0.550 OA
ENDBRANCH   5   6
ENDBRANCH   4   5
ENDBRANCH   3   4
ENDBRANCH   2   3
ENDBRANCH   1   2
BRANCH   1   9
ATOM      9  C   UNL     1     192.307   3.847  98.960  1.00  0.00     0.000 C 
BRANCH   9  10
ATOM     10  C   UNL     1     191.176   4.596  98.237  1.00  0.00    -0.000 C 
BRANCH  10  11
ATOM     11  C   UNL     1     189.870   3.785  98.181  1.00  0.00    -0.000 C 
BRANCH  11  12
ATOM     12  C   UNL     1     189.447   3.433  96.742  1.00  0.00    -0.000 C 
BRANCH  12  13
ATOM     13  C   UNL     1     190.224   4.180  95.644  1.00  0.00    -0.003 C 
ATOM     14  C   UNL     1     191.049   3.249  94.756  1.00  0.00     0.004 C 
ENDBRANCH  12  13
ENDBRANCH  11  12
ENDBRANCH  10  11
ENDBRANCH   9  10
ENDBRANCH   1   9
TORSDOF 10
ENDMDL
MODEL 7
REMARK VINA RESULT:    -4.201      2.249      2.909
REMARK INTER + INTRA:          -7.405
REMARK INTER:                  -6.773
REMARK INTRA:                  -0.632
REMARK UNBOUND:                -0.748
REMARK SMILES CCCCCCCCCCCC(=O)[O-]
REMARK SMILES IDX 7 1 8 2 9 3 10 4 11 5 12 6 13 7 14 8 6 9 5 10 4 11 3 12 2 13
REMARK SMILES IDX 1 14
REMARK H PARENT
REMARK Flexibility Score: inf
ROOT
ATOM      1  C   UNL     1     192.431   2.155  99.337  1.00  0.00     0.000 C 
ENDROOT
BRANCH   1   2
ATOM      2  C   UNL     1     192.632   3.680  99.377  1.00  0.00     0.000 C 
BRANCH   2   3
ATOM      3  C   UNL     1     191.619   4.430  98.496  1.00  0.00     0.000 C 
BRANCH   3   4
ATOM      4  C   UNL     1     190.610   3.493  97.810  1.00  0.00     0.006 C 
BRANCH   4   5
ATOM      5  C   UNL     1     189.137   3.852  98.082  1.00  0.00     0.053 C 
BRANCH   5   6
ATOM      6  C   UNL     1     188.238   3.523  96.928  1.00  0.00     0.041 C 
ATOM      7  O   UNL     1     187.138   2.943  97.125  1.00  0.00    -0.550 OA
ATOM      8  O   UNL     1     188.632   3.828  95.631  1.00  0.00    -0.550 OA
ENDBRANCH   5   6
ENDBRANCH   4   5
ENDBRANCH   3   4
ENDBRANCH   2   3
ENDBRANCH   1   2
BRANCH   1   9
ATOM      9  C   UNL     1     192.757   1.484 100.682  1.00  0.00     0.000 C 
BRANCH   9  10
ATOM     10  C   UNL     1     191.530   0.808 101.316  1.00  0.00    -0.000 C 
BRANCH  10  11
ATOM     11  C   UNL     1     191.765   0.406 102.781  1.00  0.00    -0.000 C 
BRANCH  11  12
ATOM     12  C   UNL     1     191.270   1.469 103.779  1.00  0.00    -0.000 C 
BRANCH  12  13
ATOM     13  C   UNL     1     192.355   2.448 104.266  1.00  0.00    -0.003 C 
ATOM     14  C   UNL     1     193.679   1.759 104.591  1.00  0.00     0.004 C 
ENDBRANCH  12  13
ENDBRANCH  11  12
ENDBRANCH  10  11
ENDBRANCH   9  10
ENDBRANCH   1   9
TORSDOF 10
ENDMDL
MODEL 8
REMARK VINA RESULT:    -4.184      2.206      3.139
REMARK INTER + INTRA:          -7.379
REMARK INTER:                  -6.738
REMARK INTRA:                  -0.641
REMARK UNBOUND:                -0.748
REMARK SMILES CCCCCCCCCCCC(=O)[O-]
REMARK SMILES IDX 7 1 8 2 9 3 10 4 11 5 12 6 13 7 14 8 6 9 5 10 4 11 3 12 2 13
REMARK SMILES IDX 1 14
REMARK H PARENT
REMARK Flexibility Score: inf
ROOT
ATOM      1  C   UNL     1     192.482   1.924  99.716  1.00  0.00     0.000 C 
ENDROOT
BRANCH   1   2
ATOM      2  C   UNL     1     192.866   3.414  99.714  1.00  0.00     0.000 C 
BRANCH   2   3
ATOM      3  C   UNL     1     192.151   4.204  98.606  1.00  0.00     0.000 C 
BRANCH   3   4
ATOM      4  C   UNL     1     191.125   3.358  97.831  1.00  0.00     0.006 C 
BRANCH   4   5
ATOM      5  C   UNL     1     189.676   3.865  97.951  1.00  0.00     0.053 C 
BRANCH   5   6
ATOM      6  C   UNL     1     189.236   4.651  96.753  1.00  0.00     0.041 C 
ATOM      7  O   UNL     1     188.746   5.802  96.893  1.00  0.00    -0.550 OA
ATOM      8  O   UNL     1     189.337   4.098  95.483  1.00  0.00    -0.550 OA
ENDBRANCH   5   6
ENDBRANCH   4   5
ENDBRANCH   3   4
ENDBRANCH   2   3
ENDBRANCH   1   2
BRANCH   1   9
ATOM      9  C   UNL     1     192.346   1.355 101.139  1.00  0.00     0.000 C 
BRANCH   9  10
ATOM     10  C   UNL     1     193.569   1.668 102.017  1.00  0.00    -0.000 C 
BRANCH  10  11
ATOM     11  C   UNL     1     193.195   2.409 103.312  1.00  0.00    -0.000 C 
BRANCH  11  12
ATOM     12  C   UNL     1     193.232   1.498 104.553  1.00  0.00    -0.000 C 
BRANCH  12  13
ATOM     13  C   UNL     1     191.851   1.148 105.135  1.00  0.00    -0.003 C 
ATOM     14  C   UNL     1     190.707   1.894 104.451  1.00  0.00     0.004 C 
ENDBRANCH  12  13
ENDBRANCH  11  12
ENDBRANCH  10  11
ENDBRANCH   9  10
ENDBRANCH   1   9
TORSDOF 10
ENDMDL
MODEL 9
REMARK VINA RESULT:    -4.087      1.568      2.457
REMARK INTER + INTRA:          -7.224
REMARK INTER:                  -6.519
REMARK INTRA:                  -0.705
REMARK UNBOUND:                -0.748
REMARK SMILES CCCCCCCCCCCC(=O)[O-]
REMARK SMILES IDX 7 1 8 2 9 3 10 4 11 5 12 6 13 7 14 8 6 9 5 10 4 11 3 12 2 13
REMARK SMILES IDX 1 14
REMARK H PARENT
REMARK Flexibility Score: inf
ROOT
ATOM      1  C   UNL     1     189.942   3.947  98.240  1.00  0.00     0.000 C 
ENDROOT
BRANCH   1   2
ATOM      2  C   UNL     1     189.465   5.275  97.629  1.00  0.00     0.000 C 
BRANCH   2   3
ATOM      3  C   UNL     1     188.697   5.075  96.312  1.00  0.00     0.000 C 
BRANCH   3   4
ATOM      4  C   UNL     1     189.124   3.805  95.555  1.00  0.00     0.006 C 
BRANCH   4   5
ATOM      5  C   UNL     1     190.197   4.048  94.478  1.00  0.00     0.053 C 
BRANCH   5   6
ATOM      6  C   UNL     1     191.525   3.456  94.840  1.00  0.00     0.041 C 
ATOM      7  O   UNL     1     192.492   4.203  95.144  1.00  0.00    -0.550 OA
ATOM      8  O   UNL     1     191.705   2.079  94.810  1.00  0.00    -0.550 OA
ENDBRANCH   5   6
ENDBRANCH   4   5
ENDBRANCH   3   4
ENDBRANCH   2   3
ENDBRANCH   1   2
BRANCH   1   9
ATOM      9  C   UNL     1     191.460   3.928  98.493  1.00  0.00     0.000 C 
BRANCH   9  10
ATOM     10  C   UNL     1     192.009   2.503  98.673  1.00  0.00    -0.000 C 
BRANCH  10  11
ATOM     11  C   UNL     1     192.765   2.322 100.000  1.00  0.00    -0.000 C 
BRANCH  11  12
ATOM     12  C   UNL     1     192.523   0.943 100.642  1.00  0.00    -0.000 C 
BRANCH  12  13
ATOM     13  C   UNL     1     193.558   0.540 101.708  1.00  0.00    -0.003 C 
ATOM     14  C   UNL     1     193.847  -0.961 101.722  1.00  0.00     0.004 C 
ENDBRANCH  12  13
ENDBRANCH  11  12
ENDBRANCH  10  11
ENDBRANCH   9  10
ENDBRANCH   1   9
TORSDOF 10
ENDMDL
