MODEL 1
REMARK VINA RESULT:    -3.801      0.000      0.000
REMARK INTER + INTRA:          -8.722
REMARK INTER:                  -7.133
REMARK INTRA:                  -1.589
REMARK UNBOUND:                -1.589
REMARK SMILES CCCCCCCCC=CCCCCCCCC(=O)[O-]
REMARK SMILES IDX 10 1 9 2 11 3 12 4 13 5 14 6 15 7 16 8 17 9 18 10 19 11
REMARK SMILES IDX 20 12 8 13 7 14 6 15 5 16 4 17 3 18 2 19 1 20
REMARK H PARENT
REMARK Flexibility Score: inf
ROOT
ATOM      1  C   UNL     1      -6.552  -6.002  -5.818  1.00  0.00    -0.031 C 
ATOM      2  C   UNL     1      -6.428  -5.626  -7.105  1.00  0.00    -0.031 C 
ENDROOT
BRANCH   1   3
ATOM      3  C   UNL     1      -7.703  -6.801  -5.255  1.00  0.00     0.027 C 
BRANCH   3   4
ATOM      4  C   UNL     1      -9.039  -6.460  -5.931  1.00  0.00     0.004 C 
BRANCH   4   5
ATOM      5  C   UNL     1     -10.249  -6.871  -5.073  1.00  0.00     0.000 C 
BRANCH   5   6
ATOM      6  C   UNL     1     -11.094  -5.669  -4.610  1.00  0.00     0.000 C 
BRANCH   6   7
ATOM      7  C   UNL     1     -10.340  -4.326  -4.549  1.00  0.00     0.000 C 
BRANCH   7   8
ATOM      8  C   UNL     1     -10.985  -3.313  -3.586  1.00  0.00     0.006 C 
BRANCH   8   9
ATOM      9  C   UNL     1     -10.590  -3.573  -2.126  1.00  0.00     0.053 C 
BRANCH   9  10
ATOM     10  C   UNL     1      -9.102  -3.645  -1.961  1.00  0.00     0.041 C 
ATOM     11  O   UNL     1      -8.398  -2.613  -2.115  1.00  0.00    -0.550 OA
ATOM     12  O   UNL     1      -8.491  -4.861  -1.684  1.00  0.00    -0.550 OA
ENDBRANCH   9  10
ENDBRANCH   8   9
ENDBRANCH   7   8
ENDBRANCH   6   7
ENDBRANCH   5   6
ENDBRANCH   4   5
ENDBRANCH   3   4
ENDBRANCH   1   3
BRANCH   2  13
ATOM     13  C   UNL     1      -7.420  -5.920  -8.203  1.00  0.00     0.027 C 
BRANCH  13  14
ATOM     14  C   UNL     1      -7.603  -4.687  -9.097  1.00  0.00     0.004 C 
BRANCH  14  15
ATOM     15  C   UNL     1      -9.008  -4.609  -9.719  1.00  0.00     0.000 C 
BRANCH  15  16
ATOM     16  C   UNL     1     -10.129  -4.213  -8.737  1.00  0.00     0.000 C 
BRANCH  16  17
ATOM     17  C   UNL     1     -11.121  -5.356  -8.434  1.00  0.00    -0.000 C 
BRANCH  17  18
ATOM     18  C   UNL     1     -11.120  -6.436  -9.530  1.00  0.00    -0.000 C 
BRANCH  18  19
ATOM     19  C   UNL     1     -10.722  -7.819  -8.993  1.00  0.00    -0.003 C 
ATOM     20  C   UNL     1      -9.544  -8.433  -9.750  1.00  0.00     0.004 C 
ENDBRANCH  18  19
ENDBRANCH  17  18
ENDBRANCH  16  17
ENDBRANCH  15  16
ENDBRANCH  14  15
ENDBRANCH  13  14
ENDBRANCH   2  13
TORSDOF 15
ENDMDL
MODEL 2
REMARK VINA RESULT:    -3.085      2.034      4.922
REMARK INTER + INTRA:          -7.379
REMARK INTER:                  -6.074
REMARK INTRA:                  -1.305
REMARK UNBOUND:                -1.589
REMARK SMILES CCCCCCCCC=CCCCCCCCC(=O)[O-]
REMARK SMILES IDX 10 1 9 2 11 3 12 4 13 5 14 6 15 7 16 8 17 9 18 10 19 11
REMARK SMILES IDX 20 12 8 13 7 14 6 15 5 16 4 17 3 18 2 19 1 20
REMARK H PARENT
REMARK Flexibility Score: inf
ROOT
ATOM      1  C   UNL     1      -8.800  -6.239  -9.478  1.00  0.00    -0.031 C 
ATOM      2  C   UNL     1      -8.362  -7.022  -8.474  1.00  0.00    -0.031 C 
ENDROOT
BRANCH   1   3
ATOM      3  C   UNL     1     -10.069  -5.423  -9.452  1.00  0.00     0.027 C 
BRANCH   3   4
ATOM      4  C   UNL     1      -9.933  -4.155  -8.596  1.00  0.00     0.004 C 
BRANCH   4   5
ATOM      5  C   UNL     1     -11.069  -4.022  -7.566  1.00  0.00     0.000 C 
BRANCH   5   6
ATOM      6  C   UNL     1     -10.667  -4.506  -6.160  1.00  0.00     0.000 C 
BRANCH   6   7
ATOM      7  C   UNL     1     -10.930  -3.500  -5.022  1.00  0.00     0.000 C 
BRANCH   7   8
ATOM      8  C   UNL     1     -11.008  -4.161  -3.635  1.00  0.00     0.006 C 
BRANCH   8   9
ATOM      9  C   UNL     1      -9.626  -4.300  -2.983  1.00  0.00     0.053 C 
BRANCH   9  10
ATOM     10  C   UNL     1      -9.501  -3.436  -1.765  1.00  0.00     0.041 C 
ATOM     11  O   UNL     1     -10.219  -3.659  -0.755  1.00  0.00    -0.550 OA
ATOM     12  O   UNL     1      -8.627  -2.357  -1.763  1.00  0.00    -0.550 OA
ENDBRANCH   9  10
ENDBRANCH   8   9
ENDBRANCH   7   8
ENDBRANCH   6   7
ENDBRANCH   5   6
ENDBRANCH   4   5
ENDBRANCH   3   4
ENDBRANCH   1   3
BRANCH   2  13
ATOM     13  C   UNL     1      -9.070  -7.235  -7.158  1.00  0.00     0.027 C 
BRANCH  13  14
ATOM     14  C   UNL     1      -8.122  -6.930  -5.992  1.00  0.00     0.004 C 
BRANCH  14  15
ATOM     15  C   UNL     1      -7.020  -5.925  -6.370  1.00  0.00     0.000 C 
BRANCH  15  16
ATOM     16  C   UNL     1      -5.717  -6.059  -5.557  1.00  0.00     0.000 C 
BRANCH  16  17
ATOM     17  C   UNL     1      -4.494  -5.400  -6.230  1.00  0.00    -0.000 C 
BRANCH  17  18
ATOM     18  C   UNL     1      -3.277  -5.331  -5.291  1.00  0.00    -0.000 C 
BRANCH  18  19
ATOM     19  C   UNL     1      -2.481  -4.027  -5.455  1.00  0.00    -0.003 C 
ATOM     20  C   UNL     1      -3.359  -2.780  -5.358  1.00  0.00     0.004 C 
ENDBRANCH  18  19
ENDBRANCH  17  18
ENDBRANCH  16  17
ENDBRANCH  15  16
ENDBRANCH  14  15
ENDBRANCH  13  14
ENDBRANCH   2  13
TORSDOF 15
ENDMDL
MODEL 3
REMARK VINA RESULT:    -2.890      2.000      6.291
REMARK INTER + INTRA:          -7.012
REMARK INTER:                  -6.311
REMARK INTRA:                  -0.701
REMARK UNBOUND:                -1.589
REMARK SMILES CCCCCCCCC=CCCCCCCCC(=O)[O-]
REMARK SMILES IDX 10 1 9 2 11 3 12 4 13 5 14 6 15 7 16 8 17 9 18 10 19 11
REMARK SMILES IDX 20 12 8 13 7 14 6 15 5 16 4 17 3 18 2 19 1 20
REMARK H PARENT
REMARK Flexibility Score: inf
ROOT
ATOM      1  C   UNL     1     -11.101  -7.814  -8.393  1.00  0.00    -0.031 C 
ATOM      2  C   UNL     1     -11.095  -7.475  -7.090  1.00  0.00    -0.031 C 
ENDROOT
BRANCH   1   3
ATOM      3  C   UNL     1     -10.157  -7.269  -9.436  1.00  0.00     0.027 C 
BRANCH   3   4
ATOM      4  C   UNL     1     -10.631  -5.925 -10.010  1.00  0.00     0.004 C 
BRANCH   4   5
ATOM      5  C   UNL     1      -9.979  -4.725  -9.301  1.00  0.00     0.000 C 
BRANCH   5   6
ATOM      6  C   UNL     1      -8.541  -4.452  -9.779  1.00  0.00     0.000 C 
BRANCH   6   7
ATOM      7  C   UNL     1      -7.649  -5.702  -9.916  1.00  0.00     0.000 C 
BRANCH   7   8
ATOM      8  C   UNL     1      -7.241  -6.306  -8.561  1.00  0.00     0.006 C 
BRANCH   8   9
ATOM      9  C   UNL     1      -6.737  -5.238  -7.581  1.00  0.00     0.053 C 
BRANCH   9  10
ATOM     10  C   UNL     1      -6.027  -5.852  -6.413  1.00  0.00     0.041 C 
ATOM     11  O   UNL     1      -6.539  -6.827  -5.802  1.00  0.00    -0.550 OA
ATOM     12  O   UNL     1      -4.824  -5.317  -5.969  1.00  0.00    -0.550 OA
ENDBRANCH   9  10
ENDBRANCH   8   9
ENDBRANCH   7   8
ENDBRANCH   6   7
ENDBRANCH   5   6
ENDBRANCH   4   5
ENDBRANCH   3   4
ENDBRANCH   1   3
BRANCH   2  13
ATOM     13  C   UNL     1     -10.158  -6.481  -6.449  1.00  0.00     0.027 C 
BRANCH  13  14
ATOM     14  C   UNL     1     -10.934  -5.235  -6.001  1.00  0.00     0.004 C 
BRANCH  14  15
ATOM     15  C   UNL     1     -11.124  -5.172  -4.476  1.00  0.00     0.000 C 
BRANCH  15  16
ATOM     16  C   UNL     1     -10.580  -3.891  -3.811  1.00  0.00     0.000 C 
BRANCH  16  17
ATOM     17  C   UNL     1      -9.216  -4.085  -3.115  1.00  0.00    -0.000 C 
BRANCH  17  18
ATOM     18  C   UNL     1      -9.269  -3.734  -1.618  1.00  0.00    -0.000 C 
BRANCH  18  19
ATOM     19  C   UNL     1     -10.690  -3.398  -1.142  1.00  0.00    -0.003 C 
ATOM     20  C   UNL     1     -10.946  -3.818   0.306  1.00  0.00     0.004 C 
ENDBRANCH  18  19
ENDBRANCH  17  18
ENDBRANCH  16  17
ENDBRANCH  15  16
ENDBRANCH  14  15
ENDBRANCH  13  14
ENDBRANCH   2  13
TORSDOF 15
ENDMDL
MODEL 4
REMARK VINA RESULT:    -2.847      2.136      6.445
REMARK INTER + INTRA:          -6.932
REMARK INTER:                  -5.463
REMARK INTRA:                  -1.468
REMARK UNBOUND:                -1.589
REMARK SMILES CCCCCCCCC=CCCCCCCCC(=O)[O-]
REMARK SMILES IDX 10 1 9 2 11 3 12 4 13 5 14 6 15 7 16 8 17 9 18 10 19 11
REMARK SMILES IDX 20 12 8 13 7 14 6 15 5 16 4 17 3 18 2 19 1 20
REMARK H PARENT
REMARK Flexibility Score: inf
ROOT
ATOM      1  C   UNL     1      -9.983  -6.531  -6.438  1.00  0.00    -0.031 C 
ATOM      2  C   UNL     1      -9.978  -6.008  -5.197  1.00  0.00    -0.031 C 
ENDROOT
BRANCH   1   3
ATOM      3  C   UNL     1     -11.125  -6.428  -7.419  1.00  0.00     0.027 C 
BRANCH   3   4
ATOM      4  C   UNL     1     -10.887  -5.348  -8.485  1.00  0.00     0.004 C 
BRANCH   4   5
ATOM      5  C   UNL     1      -9.600  -4.545  -8.225  1.00  0.00     0.000 C 
BRANCH   5   6
ATOM      6  C   UNL     1      -8.661  -4.500  -9.445  1.00  0.00     0.000 C 
BRANCH   6   7
ATOM      7  C   UNL     1      -7.382  -5.351  -9.318  1.00  0.00     0.000 C 
BRANCH   7   8
ATOM      8  C   UNL     1      -7.214  -5.985  -7.926  1.00  0.00     0.006 C 
BRANCH   8   9
ATOM      9  C   UNL     1      -6.233  -5.197  -7.047  1.00  0.00     0.053 C 
BRANCH   9  10
ATOM     10  C   UNL     1      -5.613  -6.066  -5.995  1.00  0.00     0.041 C 
ATOM     11  O   UNL     1      -4.435  -5.850  -5.609  1.00  0.00    -0.550 OA
ATOM     12  O   UNL     1      -6.322  -7.142  -5.476  1.00  0.00    -0.550 OA
ENDBRANCH   9  10
ENDBRANCH   8   9
ENDBRANCH   7   8
ENDBRANCH   6   7
ENDBRANCH   5   6
ENDBRANCH   4   5
ENDBRANCH   3   4
ENDBRANCH   1   3
BRANCH   2  13
ATOM     13  C   UNL     1     -11.117  -5.245  -4.565  1.00  0.00     0.027 C 
BRANCH  13  14
ATOM     14  C   UNL     1     -10.877  -3.735  -4.689  1.00  0.00     0.004 C 
BRANCH  14  15
ATOM     15  C   UNL     1     -10.860  -3.024  -3.325  1.00  0.00     0.000 C 
BRANCH  15  16
ATOM     16  C   UNL     1     -10.920  -3.965  -2.106  1.00  0.00     0.000 C 
BRANCH  16  17
ATOM     17  C   UNL     1      -9.546  -4.221  -1.451  1.00  0.00    -0.000 C 
BRANCH  17  18
ATOM     18  C   UNL     1      -8.489  -3.192  -1.890  1.00  0.00    -0.000 C 
BRANCH  18  19
ATOM     19  C   UNL     1      -8.452  -1.959  -0.975  1.00  0.00    -0.003 C 
ATOM     20  C   UNL     1      -7.443  -0.907  -1.436  1.00  0.00     0.004 C 
ENDBRANCH  18  19
ENDBRANCH  17  18
ENDBRANCH  16  17
ENDBRANCH  15  16
ENDBRANCH  14  15
ENDBRANCH  13  14
ENDBRANCH   2  13
TORSDOF 15
ENDMDL
MODEL 5
REMARK VINA RESULT:    -2.733      1.035      2.181
REMARK INTER + INTRA:          -6.718
REMARK INTER:                  -6.132
REMARK INTRA:                  -0.586
REMARK UNBOUND:                -1.589
REMARK SMILES CCCCCCCCC=CCCCCCCCC(=O)[O-]
REMARK SMILES IDX 10 1 9 2 11 3 12 4 13 5 14 6 15 7 16 8 17 9 18 10 19 11
REMARK SMILES IDX 20 12 8 13 7 14 6 15 5 16 4 17 3 18 2 19 1 20
REMARK H PARENT
REMARK Flexibility Score: inf
ROOT
ATOM      1  C   UNL     1      -6.801  -6.234  -5.597  1.00  0.00    -0.031 C 
ATOM      2  C   UNL     1      -6.793  -6.132  -6.940  1.00  0.00    -0.031 C 
ENDROOT
BRANCH   1   3
ATOM      3  C   UNL     1      -8.041  -6.270  -4.737  1.00  0.00     0.027 C 
BRANCH   3   4
ATOM      4  C   UNL     1      -9.222  -6.955  -5.441  1.00  0.00     0.004 C 
BRANCH   4   5
ATOM      5  C   UNL     1     -10.581  -6.457  -4.918  1.00  0.00     0.000 C 
BRANCH   5   6
ATOM      6  C   UNL     1     -11.008  -5.113  -5.537  1.00  0.00     0.000 C 
BRANCH   6   7
ATOM      7  C   UNL     1     -11.121  -3.942  -4.542  1.00  0.00     0.000 C 
BRANCH   7   8
ATOM      8  C   UNL     1     -10.857  -4.358  -3.084  1.00  0.00     0.006 C 
BRANCH   8   9
ATOM      9  C   UNL     1     -10.331  -3.192  -2.237  1.00  0.00     0.053 C 
BRANCH   9  10
ATOM     10  C   UNL     1      -8.892  -3.385  -1.865  1.00  0.00     0.041 C 
ATOM     11  O   UNL     1      -8.103  -2.404  -1.854  1.00  0.00    -0.550 OA
ATOM     12  O   UNL     1      -8.412  -4.657  -1.579  1.00  0.00    -0.550 OA
ENDBRANCH   9  10
ENDBRANCH   8   9
ENDBRANCH   7   8
ENDBRANCH   6   7
ENDBRANCH   5   6
ENDBRANCH   4   5
ENDBRANCH   3   4
ENDBRANCH   1   3
BRANCH   2  13
ATOM     13  C   UNL     1      -8.016  -6.020  -7.816  1.00  0.00     0.027 C 
BRANCH  13  14
ATOM     14  C   UNL     1      -8.458  -7.410  -8.290  1.00  0.00     0.004 C 
BRANCH  14  15
ATOM     15  C   UNL     1      -8.966  -7.408  -9.743  1.00  0.00     0.000 C 
BRANCH  15  16
ATOM     16  C   UNL     1     -10.499  -7.342  -9.890  1.00  0.00     0.000 C 
BRANCH  16  17
ATOM     17  C   UNL     1     -11.125  -6.060  -9.301  1.00  0.00    -0.000 C 
BRANCH  17  18
ATOM     18  C   UNL     1     -10.774  -4.808 -10.125  1.00  0.00    -0.000 C 
BRANCH  18  19
ATOM     19  C   UNL     1     -10.555  -3.567  -9.245  1.00  0.00    -0.003 C 
ATOM     20  C   UNL     1     -10.278  -2.304 -10.060  1.00  0.00     0.004 C 
ENDBRANCH  18  19
ENDBRANCH  17  18
ENDBRANCH  16  17
ENDBRANCH  15  16
ENDBRANCH  14  15
ENDBRANCH  13  14
ENDBRANCH   2  13
TORSDOF 15
ENDMDL
MODEL 6
REMARK VINA RESULT:    -2.703      2.679      6.227
REMARK INTER + INTRA:          -6.663
REMARK INTER:                  -5.343
REMARK INTRA:                  -1.319
REMARK UNBOUND:                -1.589
REMARK SMILES CCCCCCCCC=CCCCCCCCC(=O)[O-]
REMARK SMILES IDX 10 1 9 2 11 3 12 4 13 5 14 6 15 7 16 8 17 9 18 10 19 11
REMARK SMILES IDX 20 12 8 13 7 14 6 15 5 16 4 17 3 18 2 19 1 20
REMARK H PARENT
REMARK Flexibility Score: inf
ROOT
ATOM      1  C   UNL     1     -10.013  -6.796  -9.101  1.00  0.00    -0.031 C 
ATOM      2  C   UNL     1     -10.995  -6.687  -8.185  1.00  0.00    -0.031 C 
ENDROOT
BRANCH   1   3
ATOM      3  C   UNL     1      -8.541  -6.911  -8.786  1.00  0.00     0.027 C 
BRANCH   3   4
ATOM      4  C   UNL     1      -7.814  -5.561  -8.884  1.00  0.00     0.004 C 
BRANCH   4   5
ATOM      5  C   UNL     1      -6.677  -5.435  -7.854  1.00  0.00     0.000 C 
BRANCH   5   6
ATOM      6  C   UNL     1      -7.045  -6.015  -6.476  1.00  0.00     0.000 C 
BRANCH   6   7
ATOM      7  C   UNL     1      -5.846  -6.350  -5.567  1.00  0.00     0.000 C 
BRANCH   7   8
ATOM      8  C   UNL     1      -4.549  -5.638  -5.989  1.00  0.00     0.006 C 
BRANCH   8   9
ATOM      9  C   UNL     1      -4.611  -4.126  -5.732  1.00  0.00     0.053 C 
BRANCH   9  10
ATOM     10  C   UNL     1      -3.241  -3.535  -5.584  1.00  0.00     0.041 C 
ATOM     11  O   UNL     1      -2.263  -4.271  -5.289  1.00  0.00    -0.550 OA
ATOM     12  O   UNL     1      -3.055  -2.166  -5.724  1.00  0.00    -0.550 OA
ENDBRANCH   9  10
ENDBRANCH   8   9
ENDBRANCH   7   8
ENDBRANCH   6   7
ENDBRANCH   5   6
ENDBRANCH   4   5
ENDBRANCH   3   4
ENDBRANCH   1   3
BRANCH   2  13
ATOM     13  C   UNL     1     -10.795  -6.643  -6.690  1.00  0.00     0.027 C 
BRANCH  13  14
ATOM     14  C   UNL     1     -10.741  -5.189  -6.206  1.00  0.00     0.004 C 
BRANCH  14  15
ATOM     15  C   UNL     1     -10.643  -5.077  -4.674  1.00  0.00     0.000 C 
BRANCH  15  16
ATOM     16  C   UNL     1      -9.253  -4.670  -4.144  1.00  0.00     0.000 C 
BRANCH  16  17
ATOM     17  C   UNL     1      -9.177  -4.584  -2.605  1.00  0.00    -0.000 C 
BRANCH  17  18
ATOM     18  C   UNL     1     -10.367  -3.814  -2.004  1.00  0.00    -0.000 C 
BRANCH  18  19
ATOM     19  C   UNL     1      -9.924  -2.599  -1.175  1.00  0.00    -0.003 C 
ATOM     20  C   UNL     1      -8.444  -2.262  -1.360  1.00  0.00     0.004 C 
ENDBRANCH  18  19
ENDBRANCH  17  18
ENDBRANCH  16  17
ENDBRANCH  15  16
ENDBRANCH  14  15
ENDBRANCH  13  14
ENDBRANCH   2  13
TORSDOF 15
ENDMDL
MODEL 7
REMARK VINA RESULT:    -2.673      2.530      5.198
REMARK INTER + INTRA:          -6.606
REMARK INTER:                  -5.017
REMARK INTRA:                  -1.590
REMARK UNBOUND:                -1.589
REMARK SMILES CCCCCCCCC=CCCCCCCCC(=O)[O-]
REMARK SMILES IDX 10 1 9 2 11 3 12 4 13 5 14 6 15 7 16 8 17 9 18 10 19 11
REMARK SMILES IDX 20 12 8 13 7 14 6 15 5 16 4 17 3 18 2 19 1 20
REMARK H PARENT
REMARK Flexibility Score: inf
ROOT
ATOM      1  C   UNL     1      -7.951  -5.517  -8.545  1.00  0.00    -0.031 C 
ATOM      2  C   UNL     1      -7.144  -5.421  -7.472  1.00  0.00    -0.031 C 
ENDROOT
BRANCH   1   3
ATOM      3  C   UNL     1      -9.072  -6.516  -8.701  1.00  0.00     0.027 C 
BRANCH   3   4
ATOM      4  C   UNL     1     -10.370  -6.049  -8.024  1.00  0.00     0.004 C 
BRANCH   4   5
ATOM      5  C   UNL     1     -10.976  -7.132  -7.114  1.00  0.00     0.000 C 
BRANCH   5   6
ATOM      6  C   UNL     1     -11.003  -6.725  -5.629  1.00  0.00     0.000 C 
BRANCH   6   7
ATOM      7  C   UNL     1     -10.829  -5.217  -5.362  1.00  0.00     0.000 C 
BRANCH   7   8
ATOM      8  C   UNL     1      -9.729  -4.907  -4.331  1.00  0.00     0.006 C 
BRANCH   8   9
ATOM      9  C   UNL     1     -10.016  -3.618  -3.551  1.00  0.00     0.053 C 
BRANCH   9  10
ATOM     10  C   UNL     1      -9.311  -3.605  -2.228  1.00  0.00     0.041 C 
ATOM     11  O   UNL     1      -9.307  -2.562  -1.523  1.00  0.00    -0.550 OA
ATOM     12  O   UNL     1      -8.618  -4.729  -1.799  1.00  0.00    -0.550 OA
ENDBRANCH   9  10
ENDBRANCH   8   9
ENDBRANCH   7   8
ENDBRANCH   6   7
ENDBRANCH   5   6
ENDBRANCH   4   5
ENDBRANCH   3   4
ENDBRANCH   1   3
BRANCH   2  13
ATOM     13  C   UNL     1      -7.206  -6.301  -6.248  1.00  0.00     0.027 C 
BRANCH  13  14
ATOM     14  C   UNL     1      -5.833  -6.361  -5.567  1.00  0.00     0.004 C 
BRANCH  14  15
ATOM     15  C   UNL     1      -4.754  -5.584  -6.341  1.00  0.00     0.000 C 
BRANCH  15  16
ATOM     16  C   UNL     1      -3.346  -5.638  -5.715  1.00  0.00     0.000 C 
BRANCH  16  17
ATOM     17  C   UNL     1      -2.807  -4.258  -5.281  1.00  0.00    -0.000 C 
BRANCH  17  18
ATOM     18  C   UNL     1      -3.853  -3.142  -5.451  1.00  0.00    -0.000 C 
BRANCH  18  19
ATOM     19  C   UNL     1      -3.306  -1.759  -5.069  1.00  0.00    -0.003 C 
ATOM     20  C   UNL     1      -2.584  -1.066  -6.224  1.00  0.00     0.004 C 
ENDBRANCH  18  19
ENDBRANCH  17  18
ENDBRANCH  16  17
ENDBRANCH  15  16
ENDBRANCH  14  15
ENDBRANCH  13  14
ENDBRANCH   2  13
TORSDOF 15
ENDMDL
MODEL 8
REMARK VINA RESULT:    -2.564      2.044      4.674
REMARK INTER + INTRA:          -6.401
REMARK INTER:                  -5.023
REMARK INTRA:                  -1.378
REMARK UNBOUND:                -1.589
REMARK SMILES CCCCCCCCC=CCCCCCCCC(=O)[O-]
REMARK SMILES IDX 10 1 9 2 11 3 12 4 13 5 14 6 15 7 16 8 17 9 18 10 19 11
REMARK SMILES IDX 20 12 8 13 7 14 6 15 5 16 4 17 3 18 2 19 1 20
REMARK H PARENT
REMARK Flexibility Score: inf
ROOT
ATOM      1  C   UNL     1     -10.419  -4.864  -6.535  1.00  0.00    -0.031 C 
ATOM      2  C   UNL     1     -10.123  -5.459  -7.706  1.00  0.00    -0.031 C 
ENDROOT
BRANCH   1   3
ATOM      3  C   UNL     1      -9.924  -5.316  -5.182  1.00  0.00     0.027 C 
BRANCH   3   4
ATOM      4  C   UNL     1     -10.914  -4.983  -4.055  1.00  0.00     0.004 C 
BRANCH   4   5
ATOM      5  C   UNL     1     -11.049  -3.467  -3.825  1.00  0.00     0.000 C 
BRANCH   5   6
ATOM      6  C   UNL     1     -10.956  -3.074  -2.339  1.00  0.00     0.000 C 
BRANCH   6   7
ATOM      7  C   UNL     1      -9.888  -3.834  -1.527  1.00  0.00     0.000 C 
BRANCH   7   8
ATOM      8  C   UNL     1      -8.456  -3.343  -1.802  1.00  0.00     0.006 C 
BRANCH   8   9
ATOM      9  C   UNL     1      -8.245  -1.893  -1.347  1.00  0.00     0.053 C 
BRANCH   9  10
ATOM     10  C   UNL     1      -7.214  -1.197  -2.183  1.00  0.00     0.041 C 
ATOM     11  O   UNL     1      -6.992  -1.578  -3.362  1.00  0.00    -0.550 OA
ATOM     12  O   UNL     1      -6.466  -0.158  -1.643  1.00  0.00    -0.550 OA
ENDBRANCH   9  10
ENDBRANCH   8   9
ENDBRANCH   7   8
ENDBRANCH   6   7
ENDBRANCH   5   6
ENDBRANCH   4   5
ENDBRANCH   3   4
ENDBRANCH   1   3
BRANCH   2  13
ATOM     13  C   UNL     1      -9.261  -6.687  -7.870  1.00  0.00     0.027 C 
BRANCH  13  14
ATOM     14  C   UNL     1      -8.119  -6.405  -8.855  1.00  0.00     0.004 C 
BRANCH  14  15
ATOM     15  C   UNL     1      -7.066  -5.441  -8.282  1.00  0.00     0.000 C 
BRANCH  15  16
ATOM     16  C   UNL     1      -6.564  -5.799  -6.868  1.00  0.00     0.000 C 
BRANCH  16  17
ATOM     17  C   UNL     1      -5.423  -4.889  -6.366  1.00  0.00    -0.000 C 
BRANCH  17  18
ATOM     18  C   UNL     1      -4.254  -5.694  -5.771  1.00  0.00    -0.000 C 
BRANCH  18  19
ATOM     19  C   UNL     1      -2.966  -4.864  -5.657  1.00  0.00    -0.003 C 
ATOM     20  C   UNL     1      -3.236  -3.378  -5.424  1.00  0.00     0.004 C 
ENDBRANCH  18  19
ENDBRANCH  17  18
ENDBRANCH  16  17
ENDBRANCH  15  16
ENDBRANCH  14  15
ENDBRANCH  13  14
ENDBRANCH   2  13
TORSDOF 15
ENDMDL
MODEL 9
REMARK VINA RESULT:    -2.443      1.568      3.247
REMARK INTER + INTRA:          -6.174
REMARK INTER:                  -5.031
REMARK INTRA:                  -1.143
REMARK UNBOUND:                -1.589
REMARK SMILES CCCCCCCCC=CCCCCCCCC(=O)[O-]
REMARK SMILES IDX 10 1 9 2 11 3 12 4 13 5 14 6 15 7 16 8 17 9 18 10 19 11
REMARK SMILES IDX 20 12 8 13 7 14 6 15 5 16 4 17 3 18 2 19 1 20
REMARK H PARENT
REMARK Flexibility Score: inf
ROOT
ATOM      1  C   UNL     1      -9.393  -6.736  -5.641  1.00  0.00    -0.031 C 
ATOM      2  C   UNL     1     -10.162  -6.867  -6.739  1.00  0.00    -0.031 C 
ENDROOT
BRANCH   1   3
ATOM      3  C   UNL     1      -9.376  -5.531  -4.732  1.00  0.00     0.027 C 
BRANCH   3   4
ATOM      4  C   UNL     1     -10.779  -5.154  -4.234  1.00  0.00     0.004 C 
BRANCH   4   5
ATOM      5  C   UNL     1     -11.011  -3.632  -4.240  1.00  0.00     0.000 C 
BRANCH   5   6
ATOM      6  C   UNL     1     -11.107  -3.033  -2.825  1.00  0.00     0.000 C 
BRANCH   6   7
ATOM      7  C   UNL     1     -10.710  -3.988  -1.682  1.00  0.00     0.000 C 
BRANCH   7   8
ATOM      8  C   UNL     1      -9.214  -3.919  -1.327  1.00  0.00     0.006 C 
BRANCH   8   9
ATOM      9  C   UNL     1      -8.439  -2.993  -2.274  1.00  0.00     0.053 C 
BRANCH   9  10
ATOM     10  C   UNL     1      -8.083  -1.697  -1.610  1.00  0.00     0.041 C 
ATOM     11  O   UNL     1      -8.869  -1.177  -0.776  1.00  0.00    -0.550 OA
ATOM     12  O   UNL     1      -6.906  -1.041  -1.950  1.00  0.00    -0.550 OA
ENDBRANCH   9  10
ENDBRANCH   8   9
ENDBRANCH   7   8
ENDBRANCH   6   7
ENDBRANCH   5   6
ENDBRANCH   4   5
ENDBRANCH   3   4
ENDBRANCH   1   3
BRANCH   2  13
ATOM     13  C   UNL     1     -11.125  -5.830  -7.261  1.00  0.00     0.027 C 
BRANCH  13  14
ATOM     14  C   UNL     1     -10.355  -4.638  -7.845  1.00  0.00     0.004 C 
BRANCH  14  15
ATOM     15  C   UNL     1     -10.458  -4.559  -9.378  1.00  0.00     0.000 C 
BRANCH  15  16
ATOM     16  C   UNL     1      -9.114  -4.682 -10.122  1.00  0.00     0.000 C 
BRANCH  16  17
ATOM     17  C   UNL     1      -8.455  -6.072  -9.988  1.00  0.00    -0.000 C 
BRANCH  17  18
ATOM     18  C   UNL     1      -7.086  -6.004  -9.287  1.00  0.00    -0.000 C 
BRANCH  18  19
ATOM     19  C   UNL     1      -7.109  -5.111  -8.037  1.00  0.00    -0.003 C 
ATOM     20  C   UNL     1      -6.191  -5.622  -6.926  1.00  0.00     0.004 C 
ENDBRANCH  18  19
ENDBRANCH  17  18
ENDBRANCH  16  17
ENDBRANCH  15  16
ENDBRANCH  14  15
ENDBRANCH  13  14
ENDBRANCH   2  13
TORSDOF 15
ENDMDL
