MODEL 1
REMARK VINA RESULT:    -4.225      0.000      0.000
REMARK INTER + INTRA:          -8.962
REMARK INTER:                  -7.188
REMARK INTRA:                  -1.773
REMARK UNBOUND:                -1.773
REMARK SMILES CCCCCCCCCCCCCC(=O)[O-]
REMARK SMILES IDX 8 1 9 2 10 3 11 4 12 5 13 6 14 7 15 8 16 9 7 10 6 11 5 12
REMARK SMILES IDX 4 13 3 14 2 15 1 16
REMARK H PARENT
REMARK Flexibility Score: inf
ROOT
ATOM      1  C   UNL     1      44.985  62.381  12.681  1.00  0.00     0.000 C 
ENDROOT
BRANCH   1   2
ATOM      2  C   UNL     1      44.300  63.700  12.288  1.00  0.00     0.000 C 
BRANCH   2   3
ATOM      3  C   UNL     1      42.767  63.577  12.246  1.00  0.00     0.000 C 
BRANCH   3   4
ATOM      4  C   UNL     1      42.195  63.684  10.820  1.00  0.00     0.000 C 
BRANCH   4   5
ATOM      5  C   UNL     1      42.692  64.894  10.008  1.00  0.00     0.006 C 
BRANCH   5   6
ATOM      6  C   UNL     1      42.164  64.905   8.567  1.00  0.00     0.053 C 
BRANCH   6   7
ATOM      7  C   UNL     1      41.720  66.282   8.185  1.00  0.00     0.041 C 
ATOM      8  O   UNL     1      40.584  66.700   8.529  1.00  0.00    -0.550 OA
ATOM      9  O   UNL     1      42.581  67.121   7.490  1.00  0.00    -0.550 OA
ENDBRANCH   6   7
ENDBRANCH   5   6
ENDBRANCH   4   5
ENDBRANCH   3   4
ENDBRANCH   2   3
ENDBRANCH   1   2
BRANCH   1  10
ATOM     10  C   UNL     1      44.058  61.452  13.484  1.00  0.00     0.000 C 
BRANCH  10  11
ATOM     11  C   UNL     1      43.932  60.057  12.853  1.00  0.00    -0.000 C 
BRANCH  11  12
ATOM     12  C   UNL     1      42.630  59.883  12.050  1.00  0.00    -0.000 C 
BRANCH  12  13
ATOM     13  C   UNL     1      42.845  60.026  10.534  1.00  0.00    -0.000 C 
BRANCH  13  14
ATOM     14  C   UNL     1      44.328  59.923  10.137  1.00  0.00    -0.000 C 
BRANCH  14  15
ATOM     15  C   UNL     1      44.706  60.906   9.017  1.00  0.00    -0.003 C 
ATOM     16  C   UNL     1      43.508  61.325   8.166  1.00  0.00     0.004 C 
ENDBRANCH  14  15
ENDBRANCH  13  14
ENDBRANCH  12  13
ENDBRANCH  11  12
ENDBRANCH  10  11
ENDBRANCH   1  10
TORSDOF 12
ENDMDL
MODEL 2
REMARK VINA RESULT:    -4.080      1.484      3.632
REMARK INTER + INTRA:          -8.716
REMARK INTER:                  -7.330
REMARK INTRA:                  -1.386
REMARK UNBOUND:                -1.773
REMARK SMILES CCCCCCCCCCCCCC(=O)[O-]
REMARK SMILES IDX 8 1 9 2 10 3 11 4 12 5 13 6 14 7 15 8 16 9 7 10 6 11 5 12
REMARK SMILES IDX 4 13 3 14 2 15 1 16
REMARK H PARENT
REMARK Flexibility Score: inf
ROOT
ATOM      1  C   UNL     1      43.174  60.836   9.455  1.00  0.00     0.000 C 
ENDROOT
BRANCH   1   2
ATOM      2  C   UNL     1      42.558  61.520   8.223  1.00  0.00     0.000 C 
BRANCH   2   3
ATOM      3  C   UNL     1      43.553  62.452   7.509  1.00  0.00     0.000 C 
BRANCH   3   4
ATOM      4  C   UNL     1      42.871  63.399   6.503  1.00  0.00     0.000 C 
BRANCH   4   5
ATOM      5  C   UNL     1      43.571  64.755   6.306  1.00  0.00     0.006 C 
BRANCH   5   6
ATOM      6  C   UNL     1      42.585  65.915   6.117  1.00  0.00     0.053 C 
BRANCH   6   7
ATOM      7  C   UNL     1      42.785  66.949   7.181  1.00  0.00     0.041 C 
ATOM      8  O   UNL     1      42.087  67.997   7.185  1.00  0.00    -0.550 OA
ATOM      9  O   UNL     1      43.708  66.733   8.195  1.00  0.00    -0.550 OA
ENDBRANCH   6   7
ENDBRANCH   5   6
ENDBRANCH   4   5
ENDBRANCH   3   4
ENDBRANCH   2   3
ENDBRANCH   1   2
BRANCH   1  10
ATOM     10  C   UNL     1      44.708  60.746   9.374  1.00  0.00     0.000 C 
BRANCH  10  11
ATOM     11  C   UNL     1      45.369  60.694  10.760  1.00  0.00    -0.000 C 
BRANCH  11  12
ATOM     12  C   UNL     1      44.356  60.854  11.908  1.00  0.00    -0.000 C 
BRANCH  12  13
ATOM     13  C   UNL     1      44.824  61.855  12.977  1.00  0.00    -0.000 C 
BRANCH  13  14
ATOM     14  C   UNL     1      44.548  63.315  12.579  1.00  0.00    -0.000 C 
BRANCH  14  15
ATOM     15  C   UNL     1      43.090  63.542  12.148  1.00  0.00    -0.003 C 
ATOM     16  C   UNL     1      42.973  64.334  10.847  1.00  0.00     0.004 C 
ENDBRANCH  14  15
ENDBRANCH  13  14
ENDBRANCH  12  13
ENDBRANCH  11  12
ENDBRANCH  10  11
ENDBRANCH   1  10
TORSDOF 12
ENDMDL
MODEL 3
REMARK VINA RESULT:    -4.063      1.426      2.004
REMARK INTER + INTRA:          -8.687
REMARK INTER:                  -7.027
REMARK INTRA:                  -1.659
REMARK UNBOUND:                -1.773
REMARK SMILES CCCCCCCCCCCCCC(=O)[O-]
REMARK SMILES IDX 8 1 9 2 10 3 11 4 12 5 13 6 14 7 15 8 16 9 7 10 6 11 5 12
REMARK SMILES IDX 4 13 3 14 2 15 1 16
REMARK H PARENT
REMARK Flexibility Score: inf
ROOT
ATOM      1  C   UNL     1      44.613  63.254  12.385  1.00  0.00     0.000 C 
ENDROOT
BRANCH   1   2
ATOM      2  C   UNL     1      43.105  63.550  12.385  1.00  0.00     0.000 C 
BRANCH   2   3
ATOM      3  C   UNL     1      42.486  63.455  10.980  1.00  0.00     0.000 C 
BRANCH   3   4
ATOM      4  C   UNL     1      42.667  64.744  10.157  1.00  0.00     0.000 C 
BRANCH   4   5
ATOM      5  C   UNL     1      41.979  64.740   8.780  1.00  0.00     0.006 C 
BRANCH   5   6
ATOM      6  C   UNL     1      42.412  63.562   7.898  1.00  0.00     0.053 C 
BRANCH   6   7
ATOM      7  C   UNL     1      43.000  64.059   6.614  1.00  0.00     0.041 C 
ATOM      8  O   UNL     1      42.864  63.391   5.555  1.00  0.00    -0.550 OA
ATOM      9  O   UNL     1      43.655  65.282   6.578  1.00  0.00    -0.550 OA
ENDBRANCH   6   7
ENDBRANCH   5   6
ENDBRANCH   4   5
ENDBRANCH   3   4
ENDBRANCH   2   3
ENDBRANCH   1   2
BRANCH   1  10
ATOM     10  C   UNL     1      45.013  62.234  13.467  1.00  0.00     0.000 C 
BRANCH  10  11
ATOM     11  C   UNL     1      43.881  61.248  13.794  1.00  0.00    -0.000 C 
BRANCH  11  12
ATOM     12  C   UNL     1      43.939  59.971  12.936  1.00  0.00    -0.000 C 
BRANCH  12  13
ATOM     13  C   UNL     1      42.709  59.812  12.027  1.00  0.00    -0.000 C 
BRANCH  13  14
ATOM     14  C   UNL     1      43.084  59.738  10.536  1.00  0.00    -0.000 C 
BRANCH  14  15
ATOM     15  C   UNL     1      44.513  60.233  10.264  1.00  0.00    -0.003 C 
ATOM     16  C   UNL     1      44.686  60.798   8.855  1.00  0.00     0.004 C 
ENDBRANCH  14  15
ENDBRANCH  13  14
ENDBRANCH  12  13
ENDBRANCH  11  12
ENDBRANCH  10  11
ENDBRANCH   1  10
TORSDOF 12
ENDMDL
MODEL 4
REMARK VINA RESULT:    -4.041      1.064      3.312
REMARK INTER + INTRA:          -8.648
REMARK INTER:                  -7.056
REMARK INTRA:                  -1.592
REMARK UNBOUND:                -1.773
REMARK SMILES CCCCCCCCCCCCCC(=O)[O-]
REMARK SMILES IDX 8 1 9 2 10 3 11 4 12 5 13 6 14 7 15 8 16 9 7 10 6 11 5 12
REMARK SMILES IDX 4 13 3 14 2 15 1 16
REMARK H PARENT
REMARK Flexibility Score: inf
ROOT
ATOM      1  C   UNL     1      44.191  60.294  10.002  1.00  0.00     0.000 C 
ENDROOT
BRANCH   1   2
ATOM      2  C   UNL     1      44.360  61.125   8.719  1.00  0.00     0.000 C 
BRANCH   2   3
ATOM      3  C   UNL     1      43.012  61.528   8.097  1.00  0.00     0.000 C 
BRANCH   3   4
ATOM      4  C   UNL     1      43.022  62.955   7.517  1.00  0.00     0.000 C 
BRANCH   4   5
ATOM      5  C   UNL     1      41.898  63.874   8.027  1.00  0.00     0.006 C 
BRANCH   5   6
ATOM      6  C   UNL     1      42.413  65.016   8.913  1.00  0.00     0.053 C 
BRANCH   6   7
ATOM      7  C   UNL     1      42.603  66.260   8.103  1.00  0.00     0.041 C 
ATOM      8  O   UNL     1      43.754  66.748   7.951  1.00  0.00    -0.550 OA
ATOM      9  O   UNL     1      41.515  66.854   7.476  1.00  0.00    -0.550 OA
ENDBRANCH   6   7
ENDBRANCH   5   6
ENDBRANCH   4   5
ENDBRANCH   3   4
ENDBRANCH   2   3
ENDBRANCH   1   2
BRANCH   1  10
ATOM     10  C   UNL     1      45.165  60.724  11.114  1.00  0.00     0.000 C 
BRANCH  10  11
ATOM     11  C   UNL     1      44.629  60.409  12.519  1.00  0.00    -0.000 C 
BRANCH  11  12
ATOM     12  C   UNL     1      44.369  61.677  13.354  1.00  0.00    -0.000 C 
BRANCH  12  13
ATOM     13  C   UNL     1      44.692  62.968  12.586  1.00  0.00    -0.000 C 
BRANCH  13  14
ATOM     14  C   UNL     1      43.427  63.736  12.166  1.00  0.00    -0.000 C 
BRANCH  14  15
ATOM     15  C   UNL     1      42.136  63.027  12.604  1.00  0.00    -0.003 C 
ATOM     16  C   UNL     1      41.371  62.410  11.434  1.00  0.00     0.004 C 
ENDBRANCH  14  15
ENDBRANCH  13  14
ENDBRANCH  12  13
ENDBRANCH  11  12
ENDBRANCH  10  11
ENDBRANCH   1  10
TORSDOF 12
ENDMDL
MODEL 5
REMARK VINA RESULT:    -4.035      2.323      5.269
REMARK INTER + INTRA:          -8.640
REMARK INTER:                  -7.511
REMARK INTRA:                  -1.129
REMARK UNBOUND:                -1.773
REMARK SMILES CCCCCCCCCCCCCC(=O)[O-]
REMARK SMILES IDX 8 1 9 2 10 3 11 4 12 5 13 6 14 7 15 8 16 9 7 10 6 11 5 12
REMARK SMILES IDX 4 13 3 14 2 15 1 16
REMARK H PARENT
REMARK Flexibility Score: inf
ROOT
ATOM      1  C   UNL     1      44.178  61.107   8.641  1.00  0.00     0.000 C 
ENDROOT
BRANCH   1   2
ATOM      2  C   UNL     1      44.648  60.150   9.749  1.00  0.00     0.000 C 
BRANCH   2   3
ATOM      3  C   UNL     1      45.270  60.893  10.944  1.00  0.00     0.000 C 
BRANCH   3   4
ATOM      4  C   UNL     1      44.563  60.581  12.277  1.00  0.00     0.000 C 
BRANCH   4   5
ATOM      5  C   UNL     1      44.450  61.770  13.249  1.00  0.00     0.006 C 
BRANCH   5   6
ATOM      6  C   UNL     1      44.654  63.126  12.561  1.00  0.00     0.053 C 
BRANCH   6   7
ATOM      7  C   UNL     1      43.336  63.718  12.171  1.00  0.00     0.041 C 
ATOM      8  O   UNL     1      42.295  63.427  12.818  1.00  0.00    -0.550 OA
ATOM      9  O   UNL     1      43.265  64.628  11.125  1.00  0.00    -0.550 OA
ENDBRANCH   6   7
ENDBRANCH   5   6
ENDBRANCH   4   5
ENDBRANCH   3   4
ENDBRANCH   2   3
ENDBRANCH   1   2
BRANCH   1  10
ATOM     10  C   UNL     1      42.861  61.820   8.999  1.00  0.00     0.000 C 
BRANCH  10  11
ATOM     11  C   UNL     1      42.586  63.034   8.098  1.00  0.00    -0.000 C 
BRANCH  11  12
ATOM     12  C   UNL     1      43.172  62.871   6.684  1.00  0.00    -0.000 C 
BRANCH  12  13
ATOM     13  C   UNL     1      43.238  64.199   5.913  1.00  0.00    -0.000 C 
BRANCH  13  14
ATOM     14  C   UNL     1      42.292  65.265   6.492  1.00  0.00    -0.000 C 
BRANCH  14  15
ATOM     15  C   UNL     1      42.988  66.620   6.696  1.00  0.00    -0.003 C 
ATOM     16  C   UNL     1      43.647  66.749   8.068  1.00  0.00     0.004 C 
ENDBRANCH  14  15
ENDBRANCH  13  14
ENDBRANCH  12  13
ENDBRANCH  11  12
ENDBRANCH  10  11
ENDBRANCH   1  10
TORSDOF 12
ENDMDL
MODEL 6
REMARK VINA RESULT:    -3.994      1.191      2.188
REMARK INTER + INTRA:          -8.570
REMARK INTER:                  -7.018
REMARK INTRA:                  -1.552
REMARK UNBOUND:                -1.773
REMARK SMILES CCCCCCCCCCCCCC(=O)[O-]
REMARK SMILES IDX 8 1 9 2 10 3 11 4 12 5 13 6 14 7 15 8 16 9 7 10 6 11 5 12
REMARK SMILES IDX 4 13 3 14 2 15 1 16
REMARK H PARENT
REMARK Flexibility Score: inf
ROOT
ATOM      1  C   UNL     1      43.251  63.777  12.276  1.00  0.00     0.000 C 
ENDROOT
BRANCH   1   2
ATOM      2  C   UNL     1      43.103  64.324  10.847  1.00  0.00     0.000 C 
BRANCH   2   3
ATOM      3  C   UNL     1      42.184  63.452   9.974  1.00  0.00     0.000 C 
BRANCH   3   4
ATOM      4  C   UNL     1      41.745  64.156   8.676  1.00  0.00     0.000 C 
BRANCH   4   5
ATOM      5  C   UNL     1      42.762  64.088   7.522  1.00  0.00     0.006 C 
BRANCH   5   6
ATOM      6  C   UNL     1      42.753  65.345   6.643  1.00  0.00     0.053 C 
BRANCH   6   7
ATOM      7  C   UNL     1      42.834  66.576   7.491  1.00  0.00     0.041 C 
ATOM      8  O   UNL     1      43.875  66.819   8.155  1.00  0.00    -0.550 OA
ATOM      9  O   UNL     1      41.779  67.479   7.507  1.00  0.00    -0.550 OA
ENDBRANCH   6   7
ENDBRANCH   5   6
ENDBRANCH   4   5
ENDBRANCH   3   4
ENDBRANCH   2   3
ENDBRANCH   1   2
BRANCH   1  10
ATOM     10  C   UNL     1      42.005  63.002  12.741  1.00  0.00     0.000 C 
BRANCH  10  11
ATOM     11  C   UNL     1      42.325  61.548  13.124  1.00  0.00    -0.000 C 
BRANCH  11  12
ATOM     12  C   UNL     1      43.755  61.378  13.670  1.00  0.00    -0.000 C 
BRANCH  12  13
ATOM     13  C   UNL     1      44.594  60.398  12.836  1.00  0.00    -0.000 C 
BRANCH  13  14
ATOM     14  C   UNL     1      44.099  60.284  11.383  1.00  0.00    -0.000 C 
BRANCH  14  15
ATOM     15  C   UNL     1      45.089  60.890  10.376  1.00  0.00    -0.003 C 
ATOM     16  C   UNL     1      44.594  60.805   8.933  1.00  0.00     0.004 C 
ENDBRANCH  14  15
ENDBRANCH  13  14
ENDBRANCH  12  13
ENDBRANCH  11  12
ENDBRANCH  10  11
ENDBRANCH   1  10
TORSDOF 12
ENDMDL
MODEL 7
REMARK VINA RESULT:    -3.971      2.036      2.700
REMARK INTER + INTRA:          -8.531
REMARK INTER:                  -6.616
REMARK INTRA:                  -1.915
REMARK UNBOUND:                -1.773
REMARK SMILES CCCCCCCCCCCCCC(=O)[O-]
REMARK SMILES IDX 8 1 9 2 10 3 11 4 12 5 13 6 14 7 15 8 16 9 7 10 6 11 5 12
REMARK SMILES IDX 4 13 3 14 2 15 1 16
REMARK H PARENT
REMARK Flexibility Score: inf
ROOT
ATOM      1  C   UNL     1      44.572  62.553  13.424  1.00  0.00     0.000 C 
ENDROOT
BRANCH   1   2
ATOM      2  C   UNL     1      44.474  63.557  12.265  1.00  0.00     0.000 C 
BRANCH   2   3
ATOM      3  C   UNL     1      43.055  63.638  11.675  1.00  0.00     0.000 C 
BRANCH   3   4
ATOM      4  C   UNL     1      41.955  63.613  12.752  1.00  0.00     0.000 C 
BRANCH   4   5
ATOM      5  C   UNL     1      40.710  62.781  12.394  1.00  0.00     0.006 C 
BRANCH   5   6
ATOM      6  C   UNL     1      40.729  62.269  10.949  1.00  0.00     0.053 C 
BRANCH   6   7
ATOM      7  C   UNL     1      39.769  63.049  10.105  1.00  0.00     0.041 C 
ATOM      8  O   UNL     1      40.089  64.185   9.668  1.00  0.00    -0.550 OA
ATOM      9  O   UNL     1      38.541  62.499   9.763  1.00  0.00    -0.550 OA
ENDBRANCH   6   7
ENDBRANCH   5   6
ENDBRANCH   4   5
ENDBRANCH   3   4
ENDBRANCH   2   3
ENDBRANCH   1   2
BRANCH   1  10
ATOM     10  C   UNL     1      44.960  61.140  12.950  1.00  0.00     0.000 C 
BRANCH  10  11
ATOM     11  C   UNL     1      43.738  60.293  12.562  1.00  0.00    -0.000 C 
BRANCH  11  12
ATOM     12  C   UNL     1      43.675  59.997  11.053  1.00  0.00    -0.000 C 
BRANCH  12  13
ATOM     13  C   UNL     1      45.000  60.295  10.334  1.00  0.00    -0.000 C 
BRANCH  13  14
ATOM     14  C   UNL     1      44.793  60.746   8.878  1.00  0.00    -0.000 C 
BRANCH  14  15
ATOM     15  C   UNL     1      43.332  61.120   8.580  1.00  0.00    -0.003 C 
ATOM     16  C   UNL     1      43.206  62.289   7.605  1.00  0.00     0.004 C 
ENDBRANCH  14  15
ENDBRANCH  13  14
ENDBRANCH  12  13
ENDBRANCH  11  12
ENDBRANCH  10  11
ENDBRANCH   1  10
TORSDOF 12
ENDMDL
MODEL 8
REMARK VINA RESULT:    -3.969      1.123      3.259
REMARK INTER + INTRA:          -8.526
REMARK INTER:                  -6.966
REMARK INTRA:                  -1.560
REMARK UNBOUND:                -1.773
REMARK SMILES CCCCCCCCCCCCCC(=O)[O-]
REMARK SMILES IDX 8 1 9 2 10 3 11 4 12 5 13 6 14 7 15 8 16 9 7 10 6 11 5 12
REMARK SMILES IDX 4 13 3 14 2 15 1 16
REMARK H PARENT
REMARK Flexibility Score: inf
ROOT
ATOM      1  C   UNL     1      43.428  61.075   9.541  1.00  0.00     0.000 C 
ENDROOT
BRANCH   1   2
ATOM      2  C   UNL     1      43.735  61.573   8.119  1.00  0.00     0.000 C 
BRANCH   2   3
ATOM      3  C   UNL     1      42.644  62.513   7.577  1.00  0.00     0.000 C 
BRANCH   3   4
ATOM      4  C   UNL     1      41.591  62.885   8.637  1.00  0.00     0.000 C 
BRANCH   4   5
ATOM      5  C   UNL     1      41.187  64.370   8.661  1.00  0.00     0.006 C 
BRANCH   5   6
ATOM      6  C   UNL     1      42.310  65.288   9.159  1.00  0.00     0.053 C 
BRANCH   6   7
ATOM      7  C   UNL     1      42.640  66.318   8.123  1.00  0.00     0.041 C 
ATOM      8  O   UNL     1      41.750  66.731   7.335  1.00  0.00    -0.550 OA
ATOM      9  O   UNL     1      43.919  66.856   8.062  1.00  0.00    -0.550 OA
ENDBRANCH   6   7
ENDBRANCH   5   6
ENDBRANCH   4   5
ENDBRANCH   3   4
ENDBRANCH   2   3
ENDBRANCH   1   2
BRANCH   1  10
ATOM     10  C   UNL     1      44.492  60.093  10.064  1.00  0.00     0.000 C 
BRANCH  10  11
ATOM     11  C   UNL     1      45.282  60.660  11.254  1.00  0.00    -0.000 C 
BRANCH  11  12
ATOM     12  C   UNL     1      44.619  60.353  12.608  1.00  0.00    -0.000 C 
BRANCH  12  13
ATOM     13  C   UNL     1      44.207  61.624  13.368  1.00  0.00    -0.000 C 
BRANCH  13  14
ATOM     14  C   UNL     1      44.691  62.909  12.674  1.00  0.00    -0.000 C 
BRANCH  14  15
ATOM     15  C   UNL     1      43.528  63.778  12.169  1.00  0.00    -0.003 C 
ATOM     16  C   UNL     1      42.159  63.173  12.475  1.00  0.00     0.004 C 
ENDBRANCH  14  15
ENDBRANCH  13  14
ENDBRANCH  12  13
ENDBRANCH  11  12
ENDBRANCH  10  11
ENDBRANCH   1  10
TORSDOF 12
ENDMDL
MODEL 9
REMARK VINA RESULT:    -3.942      2.995      5.467
REMARK INTER + INTRA:          -8.480
REMARK INTER:                  -7.098
REMARK INTRA:                  -1.382
REMARK UNBOUND:                -1.773
REMARK SMILES CCCCCCCCCCCCCC(=O)[O-]
REMARK SMILES IDX 8 1 9 2 10 3 11 4 12 5 13 6 14 7 15 8 16 9 7 10 6 11 5 12
REMARK SMILES IDX 4 13 3 14 2 15 1 16
REMARK H PARENT
REMARK Flexibility Score: inf
ROOT
ATOM      1  C   UNL     1      42.587  63.475  12.607  1.00  0.00     0.000 C 
ENDROOT
BRANCH   1   2
ATOM      2  C   UNL     1      44.051  63.719  12.206  1.00  0.00     0.000 C 
BRANCH   2   3
ATOM      3  C   UNL     1      44.993  62.614  12.716  1.00  0.00     0.000 C 
BRANCH   3   4
ATOM      4  C   UNL     1      44.292  61.616  13.657  1.00  0.00     0.000 C 
BRANCH   4   5
ATOM      5  C   UNL     1      44.252  60.163  13.153  1.00  0.00     0.006 C 
BRANCH   5   6
ATOM      6  C   UNL     1      42.896  59.776  12.549  1.00  0.00     0.053 C 
BRANCH   6   7
ATOM      7  C   UNL     1      42.980  59.742  11.055  1.00  0.00     0.041 C 
ATOM      8  O   UNL     1      41.969  59.435  10.370  1.00  0.00    -0.550 OA
ATOM      9  O   UNL     1      44.162  60.095  10.417  1.00  0.00    -0.550 OA
ENDBRANCH   6   7
ENDBRANCH   5   6
ENDBRANCH   4   5
ENDBRANCH   3   4
ENDBRANCH   2   3
ENDBRANCH   1   2
BRANCH   1  10
ATOM     10  C   UNL     1      41.690  63.156  11.397  1.00  0.00     0.000 C 
BRANCH  10  11
ATOM     11  C   UNL     1      42.431  63.303  10.059  1.00  0.00    -0.000 C 
BRANCH  11  12
ATOM     12  C   UNL     1      41.752  64.308   9.111  1.00  0.00    -0.000 C 
BRANCH  12  13
ATOM     13  C   UNL     1      42.506  65.644   9.023  1.00  0.00    -0.000 C 
BRANCH  13  14
ATOM     14  C   UNL     1      42.339  66.327   7.655  1.00  0.00    -0.000 C 
BRANCH  14  15
ATOM     15  C   UNL     1      43.573  66.151   6.755  1.00  0.00    -0.003 C 
ATOM     16  C   UNL     1      43.468  64.934   5.837  1.00  0.00     0.004 C 
ENDBRANCH  14  15
ENDBRANCH  13  14
ENDBRANCH  12  13
ENDBRANCH  11  12
ENDBRANCH  10  11
ENDBRANCH   1  10
TORSDOF 12
ENDMDL
