MODEL 1
REMARK VINA RESULT:    71.887      0.000      0.000
REMARK INTER + INTRA:         111.405
REMARK INTER:                 105.508
REMARK INTRA:                   5.897
REMARK UNBOUND:                 5.897
REMARK SMILES O=c1c(O[C@H]2O[C@@H](CO)[C@H](O)[C@H](O)[C@@H]2O)c(-c2ccc(O)c(O)c2)oc2cc(O)cc(O)c12
REMARK SMILES IDX 4 1 3 2 16 3 25 4 2 5 26 6 1 7 33 8 27 9 31 10 28 11 30 12
REMARK SMILES IDX 17 13 18 14 19 15 20 16 24 17 22 18 21 19 23 21 32 23 29 25
REMARK SMILES IDX 5 27 14 28 6 29 12 30 7 31 10 32 15 33 13 35 8 37 9 38 11 40
REMARK H PARENT 21 20 23 22 32 24 29 26 15 34 13 36 9 39 11 41
REMARK Flexibility Score: inf
ROOT
ATOM      1  O   UNL     1      -0.786  -1.597   1.507  1.00  0.00    -0.454 OA
ENDROOT
BRANCH   1   2
ATOM      2  C   UNL     1      -1.086  -0.226   1.596  1.00  0.00     0.214 A 
ATOM      3  C   UNL     1      -0.025   0.702   1.650  1.00  0.00     0.180 A 
ATOM      4  O   UNL     1      -0.281   2.001   1.769  1.00  0.00    -0.452 OA
ATOM      5  C   UNL     1      -2.407   0.263   1.650  1.00  0.00     0.239 A 
ATOM      6  C   UNL     1      -1.509   2.501   1.826  1.00  0.00     0.146 A 
ATOM      7  O   UNL     1      -3.378  -0.537   1.580  1.00  0.00    -0.285 OA
ATOM      8  C   UNL     1      -2.635   1.649   1.768  1.00  0.00     0.111 A 
ATOM      9  C   UNL     1      -1.674   3.884   1.945  1.00  0.00     0.094 A 
ATOM     10  C   UNL     1      -3.932   2.219   1.829  1.00  0.00     0.134 A 
ATOM     11  C   UNL     1      -2.955   4.440   2.006  1.00  0.00     0.123 A 
ATOM     12  C   UNL     1      -4.077   3.609   1.947  1.00  0.00     0.093 A 
BRANCH   3  13
ATOM     13  C   UNL     1       1.394   0.277   1.634  1.00  0.00     0.025 A 
ATOM     14  C   UNL     1       2.038  -0.175   2.797  1.00  0.00     0.016 A 
ATOM     15  C   UNL     1       3.377  -0.573   2.755  1.00  0.00     0.051 A 
ATOM     16  C   UNL     1       4.086  -0.542   1.551  1.00  0.00     0.157 A 
ATOM     17  C   UNL     1       2.102   0.287   0.421  1.00  0.00     0.062 A 
ATOM     18  C   UNL     1       3.446  -0.114   0.376  1.00  0.00     0.158 A 
BRANCH  16  19
ATOM     19  O   UNL     1       5.421  -0.942   1.540  1.00  0.00    -0.504 OA
ATOM     20  H   UNL     1       6.148  -0.382   1.111  1.00  0.00     0.293 HD
ENDBRANCH  16  19
BRANCH  18  21
ATOM     21  O   UNL     1       4.144  -0.087  -0.830  1.00  0.00    -0.504 OA
ATOM     22  H   UNL     1       4.877  -0.756  -1.034  1.00  0.00     0.293 HD
ENDBRANCH  18  21
ENDBRANCH   3  13
BRANCH  10  23
ATOM     23  O   UNL     1      -5.072   1.417   1.774  1.00  0.00    -0.507 OA
ATOM     24  H   UNL     1      -5.907   1.640   2.304  1.00  0.00     0.293 HD
ENDBRANCH  10  23
BRANCH  11  25
ATOM     25  O   UNL     1      -3.127   5.817   2.124  1.00  0.00    -0.508 OA
ATOM     26  H   UNL     1      -2.534   6.470   1.624  1.00  0.00     0.293 HD
ENDBRANCH  11  25
ENDBRANCH   1   2
BRANCH   1  27
ATOM     27  C   UNL     1      -0.129  -2.231   0.406  1.00  0.00     0.339 C 
ATOM     28  C   UNL     1       0.494  -1.166  -0.517  1.00  0.00     0.214 C 
ATOM     29  O   UNL     1      -0.991  -3.119  -0.291  1.00  0.00    -0.332 OA
ATOM     30  C   UNL     1      -0.596  -0.387  -1.263  1.00  0.00     0.180 C 
ATOM     31  C   UNL     1      -2.048  -2.489  -1.008  1.00  0.00     0.179 C 
ATOM     32  C   UNL     1      -1.591  -1.340  -1.951  1.00  0.00     0.177 C 
BRANCH  28  33
ATOM     33  O   UNL     1       1.431  -1.728  -1.406  1.00  0.00    -0.384 OA
ATOM     34  H   UNL     1       2.066  -2.284  -0.885  1.00  0.00     0.211 HD
ENDBRANCH  28  33
BRANCH  30  35
ATOM     35  O   UNL     1      -0.003   0.471  -2.204  1.00  0.00    -0.387 OA
ATOM     36  H   UNL     1       0.955   0.551  -1.956  1.00  0.00     0.211 HD
ENDBRANCH  30  35
BRANCH  31  37
ATOM     37  C   UNL     1      -3.261  -2.153  -0.114  1.00  0.00     0.191 C 
BRANCH  37  38
ATOM     38  O   UNL     1      -4.364  -1.735  -0.865  1.00  0.00    -0.394 OA
ATOM     39  H   UNL     1      -3.999  -1.219  -1.630  1.00  0.00     0.210 HD
ENDBRANCH  37  38
ENDBRANCH  31  37
BRANCH  32  40
ATOM     40  O   UNL     1      -1.000  -1.879  -3.108  1.00  0.00    -0.387 OA
ATOM     41  H   UNL     1      -0.142  -2.294  -2.830  1.00  0.00     0.211 HD
ENDBRANCH  32  40
ENDBRANCH   1  27
TORSDOF 12
ENDMDL
MODEL 2
REMARK VINA RESULT:    72.084     11.111     14.522
REMARK INTER + INTRA:         111.693
REMARK INTER:                 112.888
REMARK INTRA:                  -1.195
REMARK UNBOUND:                 5.897
REMARK SMILES O=c1c(O[C@H]2O[C@@H](CO)[C@H](O)[C@H](O)[C@@H]2O)c(-c2ccc(O)c(O)c2)oc2cc(O)cc(O)c12
REMARK SMILES IDX 4 1 3 2 16 3 25 4 2 5 26 6 1 7 33 8 27 9 31 10 28 11 30 12
REMARK SMILES IDX 17 13 18 14 19 15 20 16 24 17 22 18 21 19 23 21 32 23 29 25
REMARK SMILES IDX 5 27 14 28 6 29 12 30 7 31 10 32 15 33 13 35 8 37 9 38 11 40
REMARK H PARENT 21 20 23 22 32 24 29 26 15 34 13 36 9 39 11 41
REMARK Flexibility Score: inf
ROOT
ATOM      1  O   UNL     1      -0.582  10.040   8.880  1.00  0.00    -0.454 OA
ENDROOT
BRANCH   1   2
ATOM      2  C   UNL     1      -1.183  11.030   8.082  1.00  0.00     0.214 A 
ATOM      3  C   UNL     1      -2.133  11.893   8.667  1.00  0.00     0.180 A 
ATOM      4  O   UNL     1      -2.741  12.815   7.927  1.00  0.00    -0.452 OA
ATOM      5  C   UNL     1      -0.886  11.188   6.714  1.00  0.00     0.239 A 
ATOM      6  C   UNL     1      -2.493  12.994   6.636  1.00  0.00     0.146 A 
ATOM      7  O   UNL     1      -0.025  10.450   6.166  1.00  0.00    -0.285 OA
ATOM      8  C   UNL     1      -1.547  12.185   5.966  1.00  0.00     0.111 A 
ATOM      9  C   UNL     1      -3.181  13.996   5.945  1.00  0.00     0.094 A 
ATOM     10  C   UNL     1      -1.307  12.407   4.587  1.00  0.00     0.134 A 
ATOM     11  C   UNL     1      -2.939  14.211   4.585  1.00  0.00     0.123 A 
ATOM     12  C   UNL     1      -2.006  13.418   3.912  1.00  0.00     0.093 A 
BRANCH   3  13
ATOM     13  C   UNL     1      -2.531  11.776  10.089  1.00  0.00     0.025 A 
ATOM     14  C   UNL     1      -2.017  12.642  11.069  1.00  0.00     0.016 A 
ATOM     15  C   UNL     1      -2.411  12.512  12.403  1.00  0.00     0.051 A 
ATOM     16  C   UNL     1      -3.332  11.530  12.777  1.00  0.00     0.157 A 
ATOM     17  C   UNL     1      -3.473  10.804  10.463  1.00  0.00     0.062 A 
ATOM     18  C   UNL     1      -3.870  10.673  11.802  1.00  0.00     0.158 A 
BRANCH  16  19
ATOM     19  O   UNL     1      -3.703  11.423  14.116  1.00  0.00    -0.504 OA
ATOM     20  H   UNL     1      -4.669  11.500  14.415  1.00  0.00     0.293 HD
ENDBRANCH  16  19
BRANCH  18  21
ATOM     21  O   UNL     1      -4.795   9.695  12.165  1.00  0.00    -0.504 OA
ATOM     22  H   UNL     1      -5.597   9.481  11.584  1.00  0.00     0.293 HD
ENDBRANCH  18  21
ENDBRANCH   3  13
BRANCH  10  23
ATOM     23  O   UNL     1      -0.382  11.633   3.885  1.00  0.00    -0.507 OA
ATOM     24  H   UNL     1      -0.170  11.810   2.910  1.00  0.00     0.293 HD
ENDBRANCH  10  23
BRANCH  11  25
ATOM     25  O   UNL     1      -3.621  15.208   3.891  1.00  0.00    -0.508 OA
ATOM     26  H   UNL     1      -4.160  15.916   4.376  1.00  0.00     0.293 HD
ENDBRANCH  11  25
ENDBRANCH   1   2
BRANCH   1  27
ATOM     27  C   UNL     1       0.465  10.263   9.828  1.00  0.00     0.339 C 
ATOM     28  C   UNL     1       1.563  11.142   9.200  1.00  0.00     0.214 C 
ATOM     29  O   UNL     1       0.977   9.047  10.355  1.00  0.00    -0.332 OA
ATOM     30  C   UNL     1       2.332  10.366   8.123  1.00  0.00     0.180 C 
ATOM     31  C   UNL     1       1.698   8.246   9.425  1.00  0.00     0.179 C 
ATOM     32  C   UNL     1       2.816   9.005   8.655  1.00  0.00     0.177 C 
BRANCH  28  33
ATOM     33  O   UNL     1       2.430  11.673  10.175  1.00  0.00    -0.384 OA
ATOM     34  H   UNL     1       2.156  12.606  10.366  1.00  0.00     0.211 HD
ENDBRANCH  28  33
BRANCH  30  35
ATOM     35  O   UNL     1       3.418  11.135   7.672  1.00  0.00    -0.387 OA
ATOM     36  H   UNL     1       4.201  10.878   8.226  1.00  0.00     0.211 HD
ENDBRANCH  30  35
BRANCH  31  37
ATOM     37  C   UNL     1       0.778   7.375   8.543  1.00  0.00     0.191 C 
BRANCH  37  38
ATOM     38  O   UNL     1       0.813   7.768   7.203  1.00  0.00    -0.394 OA
ATOM     39  H   UNL     1      -0.130   7.924   6.935  1.00  0.00     0.210 HD
ENDBRANCH  37  38
ENDBRANCH  31  37
BRANCH  32  40
ATOM     40  O   UNL     1       3.928   9.198   9.495  1.00  0.00    -0.387 OA
ATOM     41  H   UNL     1       3.935   8.446  10.145  1.00  0.00     0.211 HD
ENDBRANCH  32  40
ENDBRANCH   1  27
TORSDOF 12
ENDMDL
