MODEL 1
REMARK VINA RESULT:    -3.589      0.000      0.000
REMARK INTER + INTRA:         -15.333
REMARK INTER:                  -9.462
REMARK INTRA:                  -5.871
REMARK UNBOUND:                -5.871
REMARK SMILES CCCCCCCCCCCCCCCCCCCCCCCCCCCCCC(=O)[O-]
REMARK SMILES IDX 16 1 17 2 18 3 19 4 20 5 21 6 22 7 23 8 24 9 25 10 26 11
REMARK SMILES IDX 27 12 28 13 29 14 30 15 31 16 32 17 15 18 14 19 13 20 12 21
REMARK SMILES IDX 11 22 10 23 9 24 8 25 7 26 6 27 5 28 4 29 3 30 2 31 1 32
REMARK H PARENT
REMARK Flexibility Score: inf
ROOT
ATOM      1  C   UNL     1       4.943  -2.746   0.519  1.00  0.00     0.000 C 
ENDROOT
BRANCH   1   2
ATOM      2  C   UNL     1       5.127  -1.253   0.189  1.00  0.00     0.000 C 
BRANCH   2   3
ATOM      3  C   UNL     1       5.562  -0.952  -1.260  1.00  0.00     0.000 C 
BRANCH   3   4
ATOM      4  C   UNL     1       6.722   0.050  -1.403  1.00  0.00     0.000 C 
BRANCH   4   5
ATOM      5  C   UNL     1       8.070  -0.631  -1.692  1.00  0.00     0.000 C 
BRANCH   5   6
ATOM      6  C   UNL     1       7.908  -2.069  -2.220  1.00  0.00     0.000 C 
BRANCH   6   7
ATOM      7  C   UNL     1       8.544  -3.164  -1.340  1.00  0.00     0.000 C 
BRANCH   7   8
ATOM      8  C   UNL     1       9.110  -2.678   0.011  1.00  0.00     0.000 C 
BRANCH   8   9
ATOM      9  C   UNL     1       8.473  -3.327   1.253  1.00  0.00     0.000 C 
BRANCH   9  10
ATOM     10  C   UNL     1       8.145  -2.309   2.353  1.00  0.00     0.000 C 
BRANCH  10  11
ATOM     11  C   UNL     1       8.541  -0.889   1.924  1.00  0.00     0.000 C 
BRANCH  11  12
ATOM     12  C   UNL     1       7.599   0.193   2.484  1.00  0.00     0.000 C 
BRANCH  12  13
ATOM     13  C   UNL     1       8.241   1.581   2.685  1.00  0.00     0.006 C 
BRANCH  13  14
ATOM     14  C   UNL     1       7.356   2.589   3.436  1.00  0.00     0.053 C 
BRANCH  14  15
ATOM     15  C   UNL     1       7.580   3.993   2.965  1.00  0.00     0.041 C 
ATOM     16  O   UNL     1       6.650   4.840   3.038  1.00  0.00    -0.550 OA
ATOM     17  O   UNL     1       8.820   4.373   2.464  1.00  0.00    -0.550 OA
ENDBRANCH  14  15
ENDBRANCH  13  14
ENDBRANCH  12  13
ENDBRANCH  11  12
ENDBRANCH  10  11
ENDBRANCH   9  10
ENDBRANCH   8   9
ENDBRANCH   7   8
ENDBRANCH   6   7
ENDBRANCH   5   6
ENDBRANCH   4   5
ENDBRANCH   3   4
ENDBRANCH   2   3
ENDBRANCH   1   2
BRANCH   1  18
ATOM     18  C   UNL     1       5.000  -3.695  -0.695  1.00  0.00     0.000 C 
BRANCH  18  19
ATOM     19  C   UNL     1       5.331  -5.161  -0.363  1.00  0.00     0.000 C 
BRANCH  19  20
ATOM     20  C   UNL     1       5.471  -5.417   1.145  1.00  0.00     0.000 C 
BRANCH  20  21
ATOM     21  C   UNL     1       5.426  -6.921   1.453  1.00  0.00     0.000 C 
BRANCH  21  22
ATOM     22  C   UNL     1       6.248  -7.298   2.698  1.00  0.00     0.000 C 
BRANCH  22  23
ATOM     23  C   UNL     1       6.947  -6.117   3.403  1.00  0.00     0.000 C 
BRANCH  23  24
ATOM     24  C   UNL     1       6.544  -5.900   4.873  1.00  0.00    -0.000 C 
BRANCH  24  25
ATOM     25  C   UNL     1       5.198  -6.553   5.225  1.00  0.00    -0.000 C 
BRANCH  25  26
ATOM     26  C   UNL     1       4.052  -5.534   5.142  1.00  0.00    -0.000 C 
BRANCH  26  27
ATOM     27  C   UNL     1       3.062  -5.850   4.010  1.00  0.00    -0.000 C 
BRANCH  27  28
ATOM     28  C   UNL     1       2.631  -4.594   3.229  1.00  0.00    -0.000 C 
BRANCH  28  29
ATOM     29  C   UNL     1       1.448  -4.873   2.276  1.00  0.00    -0.000 C 
BRANCH  29  30
ATOM     30  C   UNL     1       1.795  -4.683   0.788  1.00  0.00    -0.000 C 
BRANCH  30  31
ATOM     31  C   UNL     1       1.646  -5.949  -0.073  1.00  0.00    -0.003 C 
ATOM     32  C   UNL     1       1.060  -7.129   0.704  1.00  0.00     0.004 C 
ENDBRANCH  30  31
ENDBRANCH  29  30
ENDBRANCH  28  29
ENDBRANCH  27  28
ENDBRANCH  26  27
ENDBRANCH  25  26
ENDBRANCH  24  25
ENDBRANCH  23  24
ENDBRANCH  22  23
ENDBRANCH  21  22
ENDBRANCH  20  21
ENDBRANCH  19  20
ENDBRANCH  18  19
ENDBRANCH   1  18
TORSDOF 28
ENDMDL
MODEL 2
REMARK VINA RESULT:    -3.532      1.730      3.897
REMARK INTER + INTRA:         -15.184
REMARK INTER:                 -10.759
REMARK INTRA:                  -4.425
REMARK UNBOUND:                -5.871
REMARK SMILES CCCCCCCCCCCCCCCCCCCCCCCCCCCCCC(=O)[O-]
REMARK SMILES IDX 16 1 17 2 18 3 19 4 20 5 21 6 22 7 23 8 24 9 25 10 26 11
REMARK SMILES IDX 27 12 28 13 29 14 30 15 31 16 32 17 15 18 14 19 13 20 12 21
REMARK SMILES IDX 11 22 10 23 9 24 8 25 7 26 6 27 5 28 4 29 3 30 2 31 1 32
REMARK H PARENT
REMARK Flexibility Score: inf
ROOT
ATOM      1  C   UNL     1       7.478   0.272  -0.923  1.00  0.00     0.000 C 
ENDROOT
BRANCH   1   2
ATOM      2  C   UNL     1       8.900  -0.163  -1.330  1.00  0.00     0.000 C 
BRANCH   2   3
ATOM      3  C   UNL     1       9.182  -1.674  -1.204  1.00  0.00     0.000 C 
BRANCH   3   4
ATOM      4  C   UNL     1       9.648  -2.142   0.187  1.00  0.00     0.000 C 
BRANCH   4   5
ATOM      5  C   UNL     1       8.550  -2.884   0.967  1.00  0.00     0.000 C 
BRANCH   5   6
ATOM      6  C   UNL     1       7.990  -2.053   2.137  1.00  0.00     0.000 C 
BRANCH   6   7
ATOM      7  C   UNL     1       9.049  -1.491   3.106  1.00  0.00     0.000 C 
BRANCH   7   8
ATOM      8  C   UNL     1       8.957   0.025   3.376  1.00  0.00     0.000 C 
BRANCH   8   9
ATOM      9  C   UNL     1       7.855   0.759   2.590  1.00  0.00     0.000 C 
BRANCH   9  10
ATOM     10  C   UNL     1       7.837   2.269   2.861  1.00  0.00     0.000 C 
BRANCH  10  11
ATOM     11  C   UNL     1       8.236   2.572   4.312  1.00  0.00     0.000 C 
BRANCH  11  12
ATOM     12  C   UNL     1       7.202   3.443   5.049  1.00  0.00     0.000 C 
BRANCH  12  13
ATOM     13  C   UNL     1       6.286   4.285   4.138  1.00  0.00     0.006 C 
BRANCH  13  14
ATOM     14  C   UNL     1       5.021   4.821   4.827  1.00  0.00     0.053 C 
BRANCH  14  15
ATOM     15  C   UNL     1       3.796   4.057   4.428  1.00  0.00     0.041 C 
ATOM     16  O   UNL     1       3.295   3.211   5.214  1.00  0.00    -0.550 OA
ATOM     17  O   UNL     1       3.197   4.292   3.195  1.00  0.00    -0.550 OA
ENDBRANCH  14  15
ENDBRANCH  13  14
ENDBRANCH  12  13
ENDBRANCH  11  12
ENDBRANCH  10  11
ENDBRANCH   9  10
ENDBRANCH   8   9
ENDBRANCH   7   8
ENDBRANCH   6   7
ENDBRANCH   5   6
ENDBRANCH   4   5
ENDBRANCH   3   4
ENDBRANCH   2   3
ENDBRANCH   1   2
BRANCH   1  18
ATOM     18  C   UNL     1       6.472   0.386  -2.086  1.00  0.00     0.000 C 
BRANCH  18  19
ATOM     19  C   UNL     1       5.313  -0.626  -2.047  1.00  0.00     0.000 C 
BRANCH  19  20
ATOM     20  C   UNL     1       5.716  -2.020  -2.550  1.00  0.00     0.000 C 
BRANCH  20  21
ATOM     21  C   UNL     1       5.732  -3.035  -1.398  1.00  0.00     0.000 C 
BRANCH  21  22
ATOM     22  C   UNL     1       4.931  -2.559  -0.173  1.00  0.00     0.000 C 
BRANCH  22  23
ATOM     23  C   UNL     1       4.905  -3.543   1.015  1.00  0.00     0.000 C 
BRANCH  23  24
ATOM     24  C   UNL     1       5.468  -4.946   0.717  1.00  0.00    -0.000 C 
BRANCH  24  25
ATOM     25  C   UNL     1       5.024  -5.997   1.746  1.00  0.00    -0.000 C 
BRANCH  25  26
ATOM     26  C   UNL     1       4.633  -5.336   3.076  1.00  0.00    -0.000 C 
BRANCH  26  27
ATOM     27  C   UNL     1       3.194  -5.669   3.501  1.00  0.00    -0.000 C 
BRANCH  27  28
ATOM     28  C   UNL     1       2.168  -4.645   2.983  1.00  0.00    -0.000 C 
BRANCH  28  29
ATOM     29  C   UNL     1       1.221  -5.249   1.923  1.00  0.00    -0.000 C 
BRANCH  29  30
ATOM     30  C   UNL     1       1.596  -4.876   0.476  1.00  0.00    -0.000 C 
BRANCH  30  31
ATOM     31  C   UNL     1       2.063  -6.058  -0.391  1.00  0.00    -0.003 C 
ATOM     32  C   UNL     1       1.359  -7.369  -0.038  1.00  0.00     0.004 C 
ENDBRANCH  30  31
ENDBRANCH  29  30
ENDBRANCH  28  29
ENDBRANCH  27  28
ENDBRANCH  26  27
ENDBRANCH  25  26
ENDBRANCH  24  25
ENDBRANCH  23  24
ENDBRANCH  22  23
ENDBRANCH  21  22
ENDBRANCH  20  21
ENDBRANCH  19  20
ENDBRANCH  18  19
ENDBRANCH   1  18
TORSDOF 28
ENDMDL
MODEL 3
REMARK VINA RESULT:    -3.483      1.842      3.327
REMARK INTER + INTRA:         -15.053
REMARK INTER:                 -10.303
REMARK INTRA:                  -4.751
REMARK UNBOUND:                -5.871
REMARK SMILES CCCCCCCCCCCCCCCCCCCCCCCCCCCCCC(=O)[O-]
REMARK SMILES IDX 16 1 17 2 18 3 19 4 20 5 21 6 22 7 23 8 24 9 25 10 26 11
REMARK SMILES IDX 27 12 28 13 29 14 30 15 31 16 32 17 15 18 14 19 13 20 12 21
REMARK SMILES IDX 11 22 10 23 9 24 8 25 7 26 6 27 5 28 4 29 3 30 2 31 1 32
REMARK H PARENT
REMARK Flexibility Score: inf
ROOT
ATOM      1  C   UNL     1       5.235  -1.160  -1.510  1.00  0.00     0.000 C 
ENDROOT
BRANCH   1   2
ATOM      2  C   UNL     1       6.201  -0.105  -2.084  1.00  0.00     0.000 C 
BRANCH   2   3
ATOM      3  C   UNL     1       7.493   0.110  -1.270  1.00  0.00     0.000 C 
BRANCH   3   4
ATOM      4  C   UNL     1       8.593  -0.943  -1.491  1.00  0.00     0.000 C 
BRANCH   4   5
ATOM      5  C   UNL     1       8.742  -1.912  -0.307  1.00  0.00     0.000 C 
BRANCH   5   6
ATOM      6  C   UNL     1       9.287  -1.224   0.958  1.00  0.00     0.000 C 
BRANCH   6   7
ATOM      7  C   UNL     1       8.366  -1.302   2.193  1.00  0.00     0.000 C 
BRANCH   7   8
ATOM      8  C   UNL     1       7.420  -0.099   2.386  1.00  0.00     0.000 C 
BRANCH   8   9
ATOM      9  C   UNL     1       8.107   1.279   2.364  1.00  0.00     0.000 C 
BRANCH   9  10
ATOM     10  C   UNL     1       8.794   1.621   3.693  1.00  0.00     0.000 C 
BRANCH  10  11
ATOM     11  C   UNL     1       8.025   2.719   4.442  1.00  0.00     0.000 C 
BRANCH  11  12
ATOM     12  C   UNL     1       6.762   3.184   3.694  1.00  0.00     0.000 C 
BRANCH  12  13
ATOM     13  C   UNL     1       5.967   4.310   4.386  1.00  0.00     0.006 C 
BRANCH  13  14
ATOM     14  C   UNL     1       5.351   3.916   5.738  1.00  0.00     0.053 C 
BRANCH  14  15
ATOM     15  C   UNL     1       3.854   3.894   5.689  1.00  0.00     0.041 C 
ATOM     16  O   UNL     1       3.236   4.667   4.911  1.00  0.00    -0.550 OA
ATOM     17  O   UNL     1       3.142   3.006   6.488  1.00  0.00    -0.550 OA
ENDBRANCH  14  15
ENDBRANCH  13  14
ENDBRANCH  12  13
ENDBRANCH  11  12
ENDBRANCH  10  11
ENDBRANCH   9  10
ENDBRANCH   8   9
ENDBRANCH   7   8
ENDBRANCH   6   7
ENDBRANCH   5   6
ENDBRANCH   4   5
ENDBRANCH   3   4
ENDBRANCH   2   3
ENDBRANCH   1   2
BRANCH   1  18
ATOM     18  C   UNL     1       5.095  -1.149   0.025  1.00  0.00     0.000 C 
BRANCH  18  19
ATOM     19  C   UNL     1       4.960  -2.537   0.677  1.00  0.00     0.000 C 
BRANCH  19  20
ATOM     20  C   UNL     1       5.231  -3.688  -0.302  1.00  0.00     0.000 C 
BRANCH  20  21
ATOM     21  C   UNL     1       5.970  -4.840   0.396  1.00  0.00     0.000 C 
BRANCH  21  22
ATOM     22  C   UNL     1       6.546  -4.435   1.764  1.00  0.00     0.000 C 
BRANCH  22  23
ATOM     23  C   UNL     1       6.018  -5.249   2.963  1.00  0.00     0.000 C 
BRANCH  23  24
ATOM     24  C   UNL     1       4.894  -6.249   2.633  1.00  0.00    -0.000 C 
BRANCH  24  25
ATOM     25  C   UNL     1       3.607  -5.985   3.431  1.00  0.00    -0.000 C 
BRANCH  25  26
ATOM     26  C   UNL     1       2.951  -4.665   2.998  1.00  0.00    -0.000 C 
BRANCH  26  27
ATOM     27  C   UNL     1       1.629  -4.882   2.244  1.00  0.00    -0.000 C 
BRANCH  27  28
ATOM     28  C   UNL     1       1.731  -4.526   0.749  1.00  0.00    -0.000 C 
BRANCH  28  29
ATOM     29  C   UNL     1       2.164  -5.732  -0.113  1.00  0.00    -0.000 C 
BRANCH  29  30
ATOM     30  C   UNL     1       1.814  -7.096   0.511  1.00  0.00    -0.000 C 
BRANCH  30  31
ATOM     31  C   UNL     1       2.803  -8.227   0.180  1.00  0.00    -0.003 C 
ATOM     32  C   UNL     1       2.775  -9.359   1.208  1.00  0.00     0.004 C 
ENDBRANCH  30  31
ENDBRANCH  29  30
ENDBRANCH  28  29
ENDBRANCH  27  28
ENDBRANCH  26  27
ENDBRANCH  25  26
ENDBRANCH  24  25
ENDBRANCH  23  24
ENDBRANCH  22  23
ENDBRANCH  21  22
ENDBRANCH  20  21
ENDBRANCH  19  20
ENDBRANCH  18  19
ENDBRANCH   1  18
TORSDOF 28
ENDMDL
MODEL 4
REMARK VINA RESULT:    -3.463      3.392      7.845
REMARK INTER + INTRA:         -15.002
REMARK INTER:                 -10.508
REMARK INTRA:                  -4.495
REMARK UNBOUND:                -5.871
REMARK SMILES CCCCCCCCCCCCCCCCCCCCCCCCCCCCCC(=O)[O-]
REMARK SMILES IDX 16 1 17 2 18 3 19 4 20 5 21 6 22 7 23 8 24 9 25 10 26 11
REMARK SMILES IDX 27 12 28 13 29 14 30 15 31 16 32 17 15 18 14 19 13 20 12 21
REMARK SMILES IDX 11 22 10 23 9 24 8 25 7 26 6 27 5 28 4 29 3 30 2 31 1 32
REMARK H PARENT
REMARK Flexibility Score: inf
ROOT
ATOM      1  C   UNL     1       6.052   0.029  -1.954  1.00  0.00     0.000 C 
ENDROOT
BRANCH   1   2
ATOM      2  C   UNL     1       5.283  -1.180  -1.386  1.00  0.00     0.000 C 
BRANCH   2   3
ATOM      3  C   UNL     1       5.224  -1.253   0.153  1.00  0.00     0.000 C 
BRANCH   3   4
ATOM      4  C   UNL     1       4.888  -2.639   0.733  1.00  0.00     0.000 C 
BRANCH   4   5
ATOM      5  C   UNL     1       4.451  -3.648  -0.341  1.00  0.00     0.000 C 
BRANCH   5   6
ATOM      6  C   UNL     1       4.928  -5.081  -0.040  1.00  0.00     0.000 C 
BRANCH   6   7
ATOM      7  C   UNL     1       6.381  -5.194   0.465  1.00  0.00     0.000 C 
BRANCH   7   8
ATOM      8  C   UNL     1       6.548  -5.852   1.851  1.00  0.00     0.000 C 
BRANCH   8   9
ATOM      9  C   UNL     1       5.602  -5.318   2.942  1.00  0.00     0.000 C 
BRANCH   9  10
ATOM     10  C   UNL     1       4.695  -6.409   3.528  1.00  0.00     0.000 C 
BRANCH  10  11
ATOM     11  C   UNL     1       3.326  -5.834   3.919  1.00  0.00     0.000 C 
BRANCH  11  12
ATOM     12  C   UNL     1       2.892  -4.657   3.026  1.00  0.00     0.000 C 
BRANCH  12  13
ATOM     13  C   UNL     1       1.436  -4.720   2.520  1.00  0.00     0.006 C 
BRANCH  13  14
ATOM     14  C   UNL     1       1.082  -6.006   1.757  1.00  0.00     0.053 C 
BRANCH  14  15
ATOM     15  C   UNL     1       1.462  -5.925   0.310  1.00  0.00     0.041 C 
ATOM     16  O   UNL     1       1.361  -4.832  -0.309  1.00  0.00    -0.550 OA
ATOM     17  O   UNL     1       1.944  -7.050  -0.350  1.00  0.00    -0.550 OA
ENDBRANCH  14  15
ENDBRANCH  13  14
ENDBRANCH  12  13
ENDBRANCH  11  12
ENDBRANCH  10  11
ENDBRANCH   9  10
ENDBRANCH   8   9
ENDBRANCH   7   8
ENDBRANCH   6   7
ENDBRANCH   5   6
ENDBRANCH   4   5
ENDBRANCH   3   4
ENDBRANCH   2   3
ENDBRANCH   1   2
BRANCH   1  18
ATOM     18  C   UNL     1       7.358   0.378  -1.213  1.00  0.00     0.000 C 
BRANCH  18  19
ATOM     19  C   UNL     1       8.646  -0.132  -1.885  1.00  0.00     0.000 C 
BRANCH  19  20
ATOM     20  C   UNL     1       9.010  -1.566  -1.474  1.00  0.00     0.000 C 
BRANCH  20  21
ATOM     21  C   UNL     1       9.509  -1.610  -0.022  1.00  0.00     0.000 C 
BRANCH  21  22
ATOM     22  C   UNL     1       8.791  -2.678   0.821  1.00  0.00     0.000 C 
BRANCH  22  23
ATOM     23  C   UNL     1       8.224  -2.178   2.166  1.00  0.00     0.000 C 
BRANCH  23  24
ATOM     24  C   UNL     1       8.698  -0.777   2.598  1.00  0.00    -0.000 C 
BRANCH  24  25
ATOM     25  C   UNL     1       7.600   0.289   2.472  1.00  0.00    -0.000 C 
BRANCH  25  26
ATOM     26  C   UNL     1       8.207   1.683   2.257  1.00  0.00    -0.000 C 
BRANCH  26  27
ATOM     27  C   UNL     1       8.834   2.259   3.538  1.00  0.00    -0.000 C 
BRANCH  27  28
ATOM     28  C   UNL     1       7.823   3.041   4.396  1.00  0.00    -0.000 C 
BRANCH  28  29
ATOM     29  C   UNL     1       6.809   3.827   3.536  1.00  0.00    -0.000 C 
BRANCH  29  30
ATOM     30  C   UNL     1       5.347   3.652   3.989  1.00  0.00    -0.000 C 
BRANCH  30  31
ATOM     31  C   UNL     1       5.058   4.125   5.424  1.00  0.00    -0.003 C 
ATOM     32  C   UNL     1       3.669   3.716   5.914  1.00  0.00     0.004 C 
ENDBRANCH  30  31
ENDBRANCH  29  30
ENDBRANCH  28  29
ENDBRANCH  27  28
ENDBRANCH  26  27
ENDBRANCH  25  26
ENDBRANCH  24  25
ENDBRANCH  23  24
ENDBRANCH  22  23
ENDBRANCH  21  22
ENDBRANCH  20  21
ENDBRANCH  19  20
ENDBRANCH  18  19
ENDBRANCH   1  18
TORSDOF 28
ENDMDL
MODEL 5
REMARK VINA RESULT:    -3.405      4.619      8.696
REMARK INTER + INTRA:         -14.848
REMARK INTER:                 -10.528
REMARK INTRA:                  -4.320
REMARK UNBOUND:                -5.871
REMARK SMILES CCCCCCCCCCCCCCCCCCCCCCCCCCCCCC(=O)[O-]
REMARK SMILES IDX 16 1 17 2 18 3 19 4 20 5 21 6 22 7 23 8 24 9 25 10 26 11
REMARK SMILES IDX 27 12 28 13 29 14 30 15 31 16 32 17 15 18 14 19 13 20 12 21
REMARK SMILES IDX 11 22 10 23 9 24 8 25 7 26 6 27 5 28 4 29 3 30 2 31 1 32
REMARK H PARENT
REMARK Flexibility Score: inf
ROOT
ATOM      1  C   UNL     1       2.795  -3.882   1.477  1.00  0.00     0.000 C 
ENDROOT
BRANCH   1   2
ATOM      2  C   UNL     1       2.736  -4.700   0.172  1.00  0.00     0.000 C 
BRANCH   2   3
ATOM      3  C   UNL     1       3.963  -5.596  -0.094  1.00  0.00     0.000 C 
BRANCH   3   4
ATOM      4  C   UNL     1       3.746  -7.099   0.163  1.00  0.00     0.000 C 
BRANCH   4   5
ATOM      5  C   UNL     1       2.849  -7.763  -0.894  1.00  0.00     0.000 C 
BRANCH   5   6
ATOM      6  C   UNL     1       1.560  -8.353  -0.291  1.00  0.00     0.000 C 
BRANCH   6   7
ATOM      7  C   UNL     1       0.251  -7.713  -0.796  1.00  0.00     0.000 C 
BRANCH   7   8
ATOM      8  C   UNL     1       0.428  -6.495  -1.726  1.00  0.00     0.000 C 
BRANCH   8   9
ATOM      9  C   UNL     1      -0.053  -6.708  -3.174  1.00  0.00     0.000 C 
BRANCH   9  10
ATOM     10  C   UNL     1      -1.509  -6.271  -3.385  1.00  0.00     0.000 C 
BRANCH  10  11
ATOM     11  C   UNL     1      -1.583  -5.003  -4.247  1.00  0.00     0.000 C 
BRANCH  11  12
ATOM     12  C   UNL     1      -2.181  -3.800  -3.494  1.00  0.00     0.000 C 
BRANCH  12  13
ATOM     13  C   UNL     1      -3.714  -3.660  -3.595  1.00  0.00     0.006 C 
BRANCH  13  14
ATOM     14  C   UNL     1      -4.428  -3.480  -2.246  1.00  0.00     0.053 C 
BRANCH  14  15
ATOM     15  C   UNL     1      -4.668  -2.037  -1.924  1.00  0.00     0.041 C 
ATOM     16  O   UNL     1      -5.284  -1.302  -2.740  1.00  0.00    -0.550 OA
ATOM     17  O   UNL     1      -4.228  -1.508  -0.716  1.00  0.00    -0.550 OA
ENDBRANCH  14  15
ENDBRANCH  13  14
ENDBRANCH  12  13
ENDBRANCH  11  12
ENDBRANCH  10  11
ENDBRANCH   9  10
ENDBRANCH   8   9
ENDBRANCH   7   8
ENDBRANCH   6   7
ENDBRANCH   5   6
ENDBRANCH   4   5
ENDBRANCH   3   4
ENDBRANCH   2   3
ENDBRANCH   1   2
BRANCH   1  18
ATOM     18  C   UNL     1       2.105  -4.538   2.690  1.00  0.00     0.000 C 
BRANCH  18  19
ATOM     19  C   UNL     1       0.975  -5.524   2.343  1.00  0.00     0.000 C 
BRANCH  19  20
ATOM     20  C   UNL     1       1.027  -6.812   3.178  1.00  0.00     0.000 C 
BRANCH  20  21
ATOM     21  C   UNL     1       2.477  -7.272   3.386  1.00  0.00     0.000 C 
BRANCH  21  22
ATOM     22  C   UNL     1       2.982  -7.020   4.818  1.00  0.00     0.000 C 
BRANCH  22  23
ATOM     23  C   UNL     1       4.223  -6.110   4.924  1.00  0.00     0.000 C 
BRANCH  23  24
ATOM     24  C   UNL     1       5.341  -6.405   3.906  1.00  0.00    -0.000 C 
BRANCH  24  25
ATOM     25  C   UNL     1       5.708  -5.182   3.052  1.00  0.00    -0.000 C 
BRANCH  25  26
ATOM     26  C   UNL     1       6.909  -5.484   2.144  1.00  0.00    -0.000 C 
BRANCH  26  27
ATOM     27  C   UNL     1       7.616  -4.209   1.656  1.00  0.00    -0.000 C 
BRANCH  27  28
ATOM     28  C   UNL     1       6.797  -3.441   0.602  1.00  0.00    -0.000 C 
BRANCH  28  29
ATOM     29  C   UNL     1       6.323  -2.064   1.117  1.00  0.00    -0.000 C 
BRANCH  29  30
ATOM     30  C   UNL     1       5.110  -1.503   0.352  1.00  0.00    -0.000 C 
BRANCH  30  31
ATOM     31  C   UNL     1       5.233  -1.561  -1.181  1.00  0.00    -0.003 C 
ATOM     32  C   UNL     1       6.089  -0.429  -1.751  1.00  0.00     0.004 C 
ENDBRANCH  30  31
ENDBRANCH  29  30
ENDBRANCH  28  29
ENDBRANCH  27  28
ENDBRANCH  26  27
ENDBRANCH  25  26
ENDBRANCH  24  25
ENDBRANCH  23  24
ENDBRANCH  22  23
ENDBRANCH  21  22
ENDBRANCH  20  21
ENDBRANCH  19  20
ENDBRANCH  18  19
ENDBRANCH   1  18
TORSDOF 28
ENDMDL
MODEL 6
REMARK VINA RESULT:    -3.404      1.494      3.428
REMARK INTER + INTRA:         -14.848
REMARK INTER:                 -10.412
REMARK INTRA:                  -4.436
REMARK UNBOUND:                -5.871
REMARK SMILES CCCCCCCCCCCCCCCCCCCCCCCCCCCCCC(=O)[O-]
REMARK SMILES IDX 16 1 17 2 18 3 19 4 20 5 21 6 22 7 23 8 24 9 25 10 26 11
REMARK SMILES IDX 27 12 28 13 29 14 30 15 31 16 32 17 15 18 14 19 13 20 12 21
REMARK SMILES IDX 11 22 10 23 9 24 8 25 7 26 6 27 5 28 4 29 3 30 2 31 1 32
REMARK H PARENT
REMARK Flexibility Score: inf
ROOT
ATOM      1  C   UNL     1       5.263  -0.552  -2.027  1.00  0.00     0.000 C 
ENDROOT
BRANCH   1   2
ATOM      2  C   UNL     1       6.255   0.608  -2.236  1.00  0.00     0.000 C 
BRANCH   2   3
ATOM      3  C   UNL     1       7.521   0.553  -1.356  1.00  0.00     0.000 C 
BRANCH   3   4
ATOM      4  C   UNL     1       8.695  -0.251  -1.943  1.00  0.00     0.000 C 
BRANCH   4   5
ATOM      5  C   UNL     1       9.525  -0.971  -0.868  1.00  0.00     0.000 C 
BRANCH   5   6
ATOM      6  C   UNL     1       8.805  -2.202  -0.287  1.00  0.00     0.000 C 
BRANCH   6   7
ATOM      7  C   UNL     1       8.956  -2.389   1.236  1.00  0.00     0.000 C 
BRANCH   7   8
ATOM      8  C   UNL     1       7.790  -1.843   2.086  1.00  0.00     0.000 C 
BRANCH   8   9
ATOM      9  C   UNL     1       7.776  -0.313   2.262  1.00  0.00     0.000 C 
BRANCH   9  10
ATOM     10  C   UNL     1       8.893   0.189   3.187  1.00  0.00     0.000 C 
BRANCH  10  11
ATOM     11  C   UNL     1       8.530   1.549   3.799  1.00  0.00     0.000 C 
BRANCH  11  12
ATOM     12  C   UNL     1       7.447   2.297   3.000  1.00  0.00     0.000 C 
BRANCH  12  13
ATOM     13  C   UNL     1       7.081   3.695   3.541  1.00  0.00     0.006 C 
BRANCH  13  14
ATOM     14  C   UNL     1       5.653   3.808   4.098  1.00  0.00     0.053 C 
BRANCH  14  15
ATOM     15  C   UNL     1       5.638   4.319   5.506  1.00  0.00     0.041 C 
ATOM     16  O   UNL     1       5.283   5.503   5.745  1.00  0.00    -0.550 OA
ATOM     17  O   UNL     1       5.999   3.482   6.556  1.00  0.00    -0.550 OA
ENDBRANCH  14  15
ENDBRANCH  13  14
ENDBRANCH  12  13
ENDBRANCH  11  12
ENDBRANCH  10  11
ENDBRANCH   9  10
ENDBRANCH   8   9
ENDBRANCH   7   8
ENDBRANCH   6   7
ENDBRANCH   5   6
ENDBRANCH   4   5
ENDBRANCH   3   4
ENDBRANCH   2   3
ENDBRANCH   1   2
BRANCH   1  18
ATOM     18  C   UNL     1       5.253  -1.155  -0.608  1.00  0.00     0.000 C 
BRANCH  18  19
ATOM     19  C   UNL     1       5.173  -2.691  -0.553  1.00  0.00     0.000 C 
BRANCH  19  20
ATOM     20  C   UNL     1       4.624  -3.215   0.782  1.00  0.00     0.000 C 
BRANCH  20  21
ATOM     21  C   UNL     1       5.433  -4.426   1.270  1.00  0.00     0.000 C 
BRANCH  21  22
ATOM     22  C   UNL     1       5.377  -5.612   0.292  1.00  0.00     0.000 C 
BRANCH  22  23
ATOM     23  C   UNL     1       5.171  -6.993   0.948  1.00  0.00     0.000 C 
BRANCH  23  24
ATOM     24  C   UNL     1       3.949  -7.783   0.444  1.00  0.00    -0.000 C 
BRANCH  24  25
ATOM     25  C   UNL     1       3.411  -7.260  -0.897  1.00  0.00    -0.000 C 
BRANCH  25  26
ATOM     26  C   UNL     1       1.927  -6.881  -0.785  1.00  0.00    -0.000 C 
BRANCH  26  27
ATOM     27  C   UNL     1       1.487  -6.633   0.667  1.00  0.00    -0.000 C 
BRANCH  27  28
ATOM     28  C   UNL     1       1.539  -5.145   1.059  1.00  0.00    -0.000 C 
BRANCH  28  29
ATOM     29  C   UNL     1       1.302  -4.928   2.570  1.00  0.00    -0.000 C 
BRANCH  29  30
ATOM     30  C   UNL     1       2.598  -4.711   3.373  1.00  0.00    -0.000 C 
BRANCH  30  31
ATOM     31  C   UNL     1       3.211  -5.993   3.962  1.00  0.00    -0.003 C 
ATOM     32  C   UNL     1       4.548  -5.744   4.662  1.00  0.00     0.004 C 
ENDBRANCH  30  31
ENDBRANCH  29  30
ENDBRANCH  28  29
ENDBRANCH  27  28
ENDBRANCH  26  27
ENDBRANCH  25  26
ENDBRANCH  24  25
ENDBRANCH  23  24
ENDBRANCH  22  23
ENDBRANCH  21  22
ENDBRANCH  20  21
ENDBRANCH  19  20
ENDBRANCH  18  19
ENDBRANCH   1  18
TORSDOF 28
ENDMDL
MODEL 7
REMARK VINA RESULT:    -3.355      1.433      2.415
REMARK INTER + INTRA:         -14.718
REMARK INTER:                  -9.337
REMARK INTRA:                  -5.381
REMARK UNBOUND:                -5.871
REMARK SMILES CCCCCCCCCCCCCCCCCCCCCCCCCCCCCC(=O)[O-]
REMARK SMILES IDX 16 1 17 2 18 3 19 4 20 5 21 6 22 7 23 8 24 9 25 10 26 11
REMARK SMILES IDX 27 12 28 13 29 14 30 15 31 16 32 17 15 18 14 19 13 20 12 21
REMARK SMILES IDX 11 22 10 23 9 24 8 25 7 26 6 27 5 28 4 29 3 30 2 31 1 32
REMARK H PARENT
REMARK Flexibility Score: inf
ROOT
ATOM      1  C   UNL     1       5.605  -1.874  -2.395  1.00  0.00     0.000 C 
ENDROOT
BRANCH   1   2
ATOM      2  C   UNL     1       5.450  -0.465  -1.791  1.00  0.00     0.000 C 
BRANCH   2   3
ATOM      3  C   UNL     1       6.724   0.403  -1.823  1.00  0.00     0.000 C 
BRANCH   3   4
ATOM      4  C   UNL     1       8.051  -0.377  -1.842  1.00  0.00     0.000 C 
BRANCH   4   5
ATOM      5  C   UNL     1       8.555  -0.737  -0.435  1.00  0.00     0.000 C 
BRANCH   5   6
ATOM      6  C   UNL     1       8.024   0.221   0.649  1.00  0.00     0.000 C 
BRANCH   6   7
ATOM      7  C   UNL     1       7.377  -0.466   1.868  1.00  0.00     0.000 C 
BRANCH   7   8
ATOM      8  C   UNL     1       8.362  -1.139   2.845  1.00  0.00     0.000 C 
BRANCH   8   9
ATOM      9  C   UNL     1       9.633  -0.325   3.150  1.00  0.00     0.000 C 
BRANCH   9  10
ATOM     10  C   UNL     1       9.702   0.146   4.609  1.00  0.00     0.000 C 
BRANCH  10  11
ATOM     11  C   UNL     1       9.402   1.648   4.716  1.00  0.00     0.000 C 
BRANCH  11  12
ATOM     12  C   UNL     1       9.639   2.403   3.395  1.00  0.00     0.000 C 
BRANCH  12  13
ATOM     13  C   UNL     1       8.423   3.189   2.862  1.00  0.00     0.006 C 
BRANCH  13  14
ATOM     14  C   UNL     1       7.078   2.777   3.481  1.00  0.00     0.053 C 
BRANCH  14  15
ATOM     15  C   UNL     1       6.320   3.955   4.013  1.00  0.00     0.041 C 
ATOM     16  O   UNL     1       6.174   4.103   5.255  1.00  0.00    -0.550 OA
ATOM     17  O   UNL     1       5.791   4.898   3.139  1.00  0.00    -0.550 OA
ENDBRANCH  14  15
ENDBRANCH  13  14
ENDBRANCH  12  13
ENDBRANCH  11  12
ENDBRANCH  10  11
ENDBRANCH   9  10
ENDBRANCH   8   9
ENDBRANCH   7   8
ENDBRANCH   6   7
ENDBRANCH   5   6
ENDBRANCH   4   5
ENDBRANCH   3   4
ENDBRANCH   2   3
ENDBRANCH   1   2
BRANCH   1  18
ATOM     18  C   UNL     1       5.516  -3.033  -1.381  1.00  0.00     0.000 C 
BRANCH  18  19
ATOM     19  C   UNL     1       4.868  -2.671  -0.033  1.00  0.00     0.000 C 
BRANCH  19  20
ATOM     20  C   UNL     1       5.514  -3.396   1.156  1.00  0.00     0.000 C 
BRANCH  20  21
ATOM     21  C   UNL     1       6.865  -4.007   0.757  1.00  0.00     0.000 C 
BRANCH  21  22
ATOM     22  C   UNL     1       7.171  -5.316   1.506  1.00  0.00     0.000 C 
BRANCH  22  23
ATOM     23  C   UNL     1       7.821  -5.140   2.894  1.00  0.00     0.000 C 
BRANCH  23  24
ATOM     24  C   UNL     1       6.988  -5.661   4.080  1.00  0.00    -0.000 C 
BRANCH  24  25
ATOM     25  C   UNL     1       5.669  -6.316   3.640  1.00  0.00    -0.000 C 
BRANCH  25  26
ATOM     26  C   UNL     1       4.460  -5.538   4.180  1.00  0.00    -0.000 C 
BRANCH  26  27
ATOM     27  C   UNL     1       3.162  -5.861   3.422  1.00  0.00    -0.000 C 
BRANCH  27  28
ATOM     28  C   UNL     1       2.260  -4.627   3.234  1.00  0.00    -0.000 C 
BRANCH  28  29
ATOM     29  C   UNL     1       2.045  -4.279   1.745  1.00  0.00    -0.000 C 
BRANCH  29  30
ATOM     30  C   UNL     1       1.733  -5.502   0.863  1.00  0.00    -0.000 C 
BRANCH  30  31
ATOM     31  C   UNL     1       2.669  -5.678  -0.345  1.00  0.00    -0.003 C 
ATOM     32  C   UNL     1       3.894  -6.537  -0.027  1.00  0.00     0.004 C 
ENDBRANCH  30  31
ENDBRANCH  29  30
ENDBRANCH  28  29
ENDBRANCH  27  28
ENDBRANCH  26  27
ENDBRANCH  25  26
ENDBRANCH  24  25
ENDBRANCH  23  24
ENDBRANCH  22  23
ENDBRANCH  21  22
ENDBRANCH  20  21
ENDBRANCH  19  20
ENDBRANCH  18  19
ENDBRANCH   1  18
TORSDOF 28
ENDMDL
MODEL 8
REMARK VINA RESULT:    -3.339      1.952      4.717
REMARK INTER + INTRA:         -14.676
REMARK INTER:                  -9.887
REMARK INTRA:                  -4.789
REMARK UNBOUND:                -5.871
REMARK SMILES CCCCCCCCCCCCCCCCCCCCCCCCCCCCCC(=O)[O-]
REMARK SMILES IDX 16 1 17 2 18 3 19 4 20 5 21 6 22 7 23 8 24 9 25 10 26 11
REMARK SMILES IDX 27 12 28 13 29 14 30 15 31 16 32 17 15 18 14 19 13 20 12 21
REMARK SMILES IDX 11 22 10 23 9 24 8 25 7 26 6 27 5 28 4 29 3 30 2 31 1 32
REMARK H PARENT
REMARK Flexibility Score: inf
ROOT
ATOM      1  C   UNL     1       8.779  -2.932  -0.270  1.00  0.00     0.000 C 
ENDROOT
BRANCH   1   2
ATOM      2  C   UNL     1       8.741  -3.826   0.984  1.00  0.00     0.000 C 
BRANCH   2   3
ATOM      3  C   UNL     1       8.193  -3.146   2.256  1.00  0.00     0.000 C 
BRANCH   3   4
ATOM      4  C   UNL     1       9.254  -2.494   3.161  1.00  0.00     0.000 C 
BRANCH   4   5
ATOM      5  C   UNL     1       8.986  -1.002   3.419  1.00  0.00     0.000 C 
BRANCH   5   6
ATOM      6  C   UNL     1       7.872  -0.435   2.520  1.00  0.00     0.000 C 
BRANCH   6   7
ATOM      7  C   UNL     1       8.333   0.623   1.496  1.00  0.00     0.000 C 
BRANCH   7   8
ATOM      8  C   UNL     1       8.426   2.065   2.036  1.00  0.00     0.000 C 
BRANCH   8   9
ATOM      9  C   UNL     1       7.386   2.424   3.114  1.00  0.00     0.000 C 
BRANCH   9  10
ATOM     10  C   UNL     1       7.970   3.296   4.234  1.00  0.00     0.000 C 
BRANCH  10  11
ATOM     11  C   UNL     1       7.157   4.587   4.405  1.00  0.00     0.000 C 
BRANCH  11  12
ATOM     12  C   UNL     1       6.065   4.755   3.333  1.00  0.00     0.000 C 
BRANCH  12  13
ATOM     13  C   UNL     1       4.651   5.045   3.876  1.00  0.00     0.006 C 
BRANCH  13  14
ATOM     14  C   UNL     1       4.028   3.892   4.679  1.00  0.00     0.053 C 
BRANCH  14  15
ATOM     15  C   UNL     1       3.735   4.286   6.094  1.00  0.00     0.041 C 
ATOM     16  O   UNL     1       4.670   4.374   6.933  1.00  0.00    -0.550 OA
ATOM     17  O   UNL     1       2.431   4.573   6.483  1.00  0.00    -0.550 OA
ENDBRANCH  14  15
ENDBRANCH  13  14
ENDBRANCH  12  13
ENDBRANCH  11  12
ENDBRANCH  10  11
ENDBRANCH   9  10
ENDBRANCH   8   9
ENDBRANCH   7   8
ENDBRANCH   6   7
ENDBRANCH   5   6
ENDBRANCH   4   5
ENDBRANCH   3   4
ENDBRANCH   2   3
ENDBRANCH   1   2
BRANCH   1  18
ATOM     18  C   UNL     1       8.181  -3.567  -1.542  1.00  0.00     0.000 C 
BRANCH  18  19
ATOM     19  C   UNL     1       7.155  -2.694  -2.286  1.00  0.00     0.000 C 
BRANCH  19  20
ATOM     20  C   UNL     1       6.947  -1.322  -1.630  1.00  0.00     0.000 C 
BRANCH  20  21
ATOM     21  C   UNL     1       5.504  -1.166  -1.128  1.00  0.00     0.000 C 
BRANCH  21  22
ATOM     22  C   UNL     1       5.358  -1.480   0.371  1.00  0.00     0.000 C 
BRANCH  22  23
ATOM     23  C   UNL     1       4.509  -2.726   0.699  1.00  0.00     0.000 C 
BRANCH  23  24
ATOM     24  C   UNL     1       4.734  -3.936  -0.228  1.00  0.00    -0.000 C 
BRANCH  24  25
ATOM     25  C   UNL     1       5.244  -5.175   0.523  1.00  0.00    -0.000 C 
BRANCH  25  26
ATOM     26  C   UNL     1       5.212  -4.952   2.042  1.00  0.00    -0.000 C 
BRANCH  26  27
ATOM     27  C   UNL     1       4.783  -6.209   2.816  1.00  0.00    -0.000 C 
BRANCH  27  28
ATOM     28  C   UNL     1       3.530  -5.977   3.680  1.00  0.00    -0.000 C 
BRANCH  28  29
ATOM     29  C   UNL     1       2.750  -4.715   3.254  1.00  0.00    -0.000 C 
BRANCH  29  30
ATOM     30  C   UNL     1       1.422  -5.021   2.536  1.00  0.00    -0.000 C 
BRANCH  30  31
ATOM     31  C   UNL     1       1.488  -4.940   1.002  1.00  0.00    -0.003 C 
ATOM     32  C   UNL     1       1.663  -6.309   0.342  1.00  0.00     0.004 C 
ENDBRANCH  30  31
ENDBRANCH  29  30
ENDBRANCH  28  29
ENDBRANCH  27  28
ENDBRANCH  26  27
ENDBRANCH  25  26
ENDBRANCH  24  25
ENDBRANCH  23  24
ENDBRANCH  22  23
ENDBRANCH  21  22
ENDBRANCH  20  21
ENDBRANCH  19  20
ENDBRANCH  18  19
ENDBRANCH   1  18
TORSDOF 28
ENDMDL
MODEL 9
REMARK VINA RESULT:    -3.307      3.546      7.322
REMARK INTER + INTRA:         -14.591
REMARK INTER:                  -9.148
REMARK INTRA:                  -5.442
REMARK UNBOUND:                -5.871
REMARK SMILES CCCCCCCCCCCCCCCCCCCCCCCCCCCCCC(=O)[O-]
REMARK SMILES IDX 16 1 17 2 18 3 19 4 20 5 21 6 22 7 23 8 24 9 25 10 26 11
REMARK SMILES IDX 27 12 28 13 29 14 30 15 31 16 32 17 15 18 14 19 13 20 12 21
REMARK SMILES IDX 11 22 10 23 9 24 8 25 7 26 6 27 5 28 4 29 3 30 2 31 1 32
REMARK H PARENT
REMARK Flexibility Score: inf
ROOT
ATOM      1  C   UNL     1       5.489  -1.714  -1.111  1.00  0.00     0.000 C 
ENDROOT
BRANCH   1   2
ATOM      2  C   UNL     1       4.836  -1.722   0.284  1.00  0.00     0.000 C 
BRANCH   2   3
ATOM      3  C   UNL     1       4.585  -3.122   0.880  1.00  0.00     0.000 C 
BRANCH   3   4
ATOM      4  C   UNL     1       3.850  -4.108  -0.047  1.00  0.00     0.000 C 
BRANCH   4   5
ATOM      5  C   UNL     1       2.473  -4.525   0.493  1.00  0.00     0.000 C 
BRANCH   5   6
ATOM      6  C   UNL     1       2.276  -4.147   1.974  1.00  0.00     0.000 C 
BRANCH   6   7
ATOM      7  C   UNL     1       1.908  -5.320   2.905  1.00  0.00     0.000 C 
BRANCH   7   8
ATOM      8  C   UNL     1       3.098  -5.993   3.619  1.00  0.00     0.000 C 
BRANCH   8   9
ATOM      9  C   UNL     1       3.794  -7.106   2.813  1.00  0.00     0.000 C 
BRANCH   9  10
ATOM     10  C   UNL     1       5.252  -6.769   2.471  1.00  0.00     0.000 C 
BRANCH  10  11
ATOM     11  C   UNL     1       5.701  -5.485   3.183  1.00  0.00     0.000 C 
BRANCH  11  12
ATOM     12  C   UNL     1       6.859  -5.720   4.171  1.00  0.00     0.000 C 
BRANCH  12  13
ATOM     13  C   UNL     1       6.504  -6.575   5.405  1.00  0.00     0.006 C 
BRANCH  13  14
ATOM     14  C   UNL     1       6.152  -5.763   6.662  1.00  0.00     0.053 C 
BRANCH  14  15
ATOM     15  C   UNL     1       5.111  -6.443   7.498  1.00  0.00     0.041 C 
ATOM     16  O   UNL     1       5.074  -6.249   8.742  1.00  0.00    -0.550 OA
ATOM     17  O   UNL     1       4.170  -7.275   6.901  1.00  0.00    -0.550 OA
ENDBRANCH  14  15
ENDBRANCH  13  14
ENDBRANCH  12  13
ENDBRANCH  11  12
ENDBRANCH  10  11
ENDBRANCH   9  10
ENDBRANCH   8   9
ENDBRANCH   7   8
ENDBRANCH   6   7
ENDBRANCH   5   6
ENDBRANCH   4   5
ENDBRANCH   3   4
ENDBRANCH   2   3
ENDBRANCH   1   2
BRANCH   1  18
ATOM     18  C   UNL     1       5.581  -0.328  -1.781  1.00  0.00     0.000 C 
BRANCH  18  19
ATOM     19  C   UNL     1       6.994   0.280  -1.831  1.00  0.00     0.000 C 
BRANCH  19  20
ATOM     20  C   UNL     1       7.967  -0.384  -0.845  1.00  0.00     0.000 C 
BRANCH  20  21
ATOM     21  C   UNL     1       8.215   0.519   0.372  1.00  0.00     0.000 C 
BRANCH  21  22
ATOM     22  C   UNL     1       7.548  -0.013   1.653  1.00  0.00     0.000 C 
BRANCH  22  23
ATOM     23  C   UNL     1       8.520  -0.370   2.797  1.00  0.00     0.000 C 
BRANCH  23  24
ATOM     24  C   UNL     1       8.872  -1.865   2.917  1.00  0.00    -0.000 C 
BRANCH  24  25
ATOM     25  C   UNL     1       7.914  -2.768   2.125  1.00  0.00    -0.000 C 
BRANCH  25  26
ATOM     26  C   UNL     1       8.687  -3.838   1.340  1.00  0.00    -0.000 C 
BRANCH  26  27
ATOM     27  C   UNL     1       8.238  -3.933  -0.128  1.00  0.00    -0.000 C 
BRANCH  27  28
ATOM     28  C   UNL     1       7.409  -5.198  -0.415  1.00  0.00    -0.000 C 
BRANCH  28  29
ATOM     29  C   UNL     1       6.859  -5.224  -1.858  1.00  0.00    -0.000 C 
BRANCH  29  30
ATOM     30  C   UNL     1       7.366  -4.062  -2.734  1.00  0.00    -0.000 C 
BRANCH  30  31
ATOM     31  C   UNL     1       8.337  -4.477  -3.852  1.00  0.00    -0.003 C 
ATOM     32  C   UNL     1       9.506  -3.504  -4.013  1.00  0.00     0.004 C 
ENDBRANCH  30  31
ENDBRANCH  29  30
ENDBRANCH  28  29
ENDBRANCH  27  28
ENDBRANCH  26  27
ENDBRANCH  25  26
ENDBRANCH  24  25
ENDBRANCH  23  24
ENDBRANCH  22  23
ENDBRANCH  21  22
ENDBRANCH  20  21
ENDBRANCH  19  20
ENDBRANCH  18  19
ENDBRANCH   1  18
TORSDOF 28
ENDMDL
