MODEL 1
REMARK VINA RESULT:    -8.115      0.000      0.000
REMARK INTER + INTRA:         -10.031
REMARK INTER:                  -9.776
REMARK INTRA:                  -0.256
REMARK UNBOUND:                -0.256
REMARK SMILES O=c1c(O)c(-c2ccc(O)c(O)c2)oc2cc(O)cc(O)c12
REMARK SMILES IDX 5 1 3 2 2 3 1 4 22 5 20 6 19 7 17 8 16 9 15 10 14 11 6 12
REMARK SMILES IDX 7 13 8 14 9 15 13 16 11 17 10 18 12 20 4 22 21 24 18 26
REMARK H PARENT 10 19 12 21 4 23 21 25 18 27
REMARK Flexibility Score: inf
ROOT
ATOM      1  C   UNL     1     151.334 169.192 152.579  1.00  0.00     0.180 A 
ATOM      2  C   UNL     1     150.502 169.904 153.461  1.00  0.00     0.208 A 
ATOM      3  C   UNL     1     149.151 170.085 153.125  1.00  0.00     0.238 A 
ATOM      4  O   UNL     1     148.400 170.675 153.945  1.00  0.00    -0.285 OA
ATOM      5  C   UNL     1     148.652 169.566 151.906  1.00  0.00     0.111 A 
ATOM      6  C   UNL     1     147.310 169.725 151.448  1.00  0.00     0.134 A 
ATOM      7  C   UNL     1     146.893 169.059 150.289  1.00  0.00     0.093 A 
ATOM      8  C   UNL     1     147.787 168.294 149.537  1.00  0.00     0.123 A 
ATOM      9  C   UNL     1     149.114 168.181 149.945  1.00  0.00     0.094 A 
ATOM     10  C   UNL     1     149.551 168.804 151.117  1.00  0.00     0.146 A 
ATOM     11  O   UNL     1     150.821 168.662 151.475  1.00  0.00    -0.452 OA
ENDROOT
BRANCH   1  12
ATOM     12  C   UNL     1     152.774 168.982 152.851  1.00  0.00     0.025 A 
ATOM     13  C   UNL     1     153.166 168.021 153.796  1.00  0.00     0.016 A 
ATOM     14  C   UNL     1     154.520 167.791 154.054  1.00  0.00     0.051 A 
ATOM     15  C   UNL     1     155.502 168.505 153.361  1.00  0.00     0.157 A 
ATOM     16  C   UNL     1     153.764 169.684 152.140  1.00  0.00     0.062 A 
ATOM     17  C   UNL     1     155.124 169.454 152.396  1.00  0.00     0.158 A 
BRANCH  15  18
ATOM     18  O   UNL     1     156.845 168.257 153.640  1.00  0.00    -0.504 OA
ATOM     19  H   UNL     1     157.588 168.847 153.283  1.00  0.00     0.293 HD
ENDBRANCH  15  18
BRANCH  17  20
ATOM     20  O   UNL     1     156.098 170.159 151.692  1.00  0.00    -0.504 OA
ATOM     21  H   UNL     1     157.052 170.230 152.030  1.00  0.00     0.293 HD
ENDBRANCH  17  20
ENDBRANCH   1  12
BRANCH   2  22
ATOM     22  O   UNL     1     151.011 170.387 154.670  1.00  0.00    -0.502 OA
ATOM     23  H   UNL     1     150.414 170.644 155.447  1.00  0.00     0.293 HD
ENDBRANCH   2  22
BRANCH   6  24
ATOM     24  O   UNL     1     146.363 170.542 152.073  1.00  0.00    -0.507 OA
ATOM     25  H   UNL     1     145.806 171.240 151.604  1.00  0.00     0.293 HD
ENDBRANCH   6  24
BRANCH   8  26
ATOM     26  O   UNL     1     147.368 167.646 148.376  1.00  0.00    -0.508 OA
ATOM     27  H   UNL     1     147.928 166.925 147.940  1.00  0.00     0.293 HD
ENDBRANCH   8  26
TORSDOF 6
ENDMDL
MODEL 2
REMARK VINA RESULT:    -8.104     10.595     12.461
REMARK INTER + INTRA:         -10.018
REMARK INTER:                  -9.708
REMARK INTRA:                  -0.310
REMARK UNBOUND:                -0.256
REMARK SMILES O=c1c(O)c(-c2ccc(O)c(O)c2)oc2cc(O)cc(O)c12
REMARK SMILES IDX 5 1 3 2 2 3 1 4 22 5 20 6 19 7 17 8 16 9 15 10 14 11 6 12
REMARK SMILES IDX 7 13 8 14 9 15 13 16 11 17 10 18 12 20 4 22 21 24 18 26
REMARK H PARENT 10 19 12 21 4 23 21 25 18 27
REMARK Flexibility Score: inf
ROOT
ATOM      1  C   UNL     1     149.108 158.499 149.674  1.00  0.00     0.180 A 
ATOM      2  C   UNL     1     148.968 158.530 148.276  1.00  0.00     0.208 A 
ATOM      3  C   UNL     1     148.553 157.368 147.607  1.00  0.00     0.238 A 
ATOM      4  O   UNL     1     148.376 157.418 146.362  1.00  0.00    -0.285 OA
ATOM      5  C   UNL     1     148.298 156.185 148.343  1.00  0.00     0.111 A 
ATOM      6  C   UNL     1     147.910 154.939 147.764  1.00  0.00     0.134 A 
ATOM      7  C   UNL     1     147.557 153.871 148.598  1.00  0.00     0.093 A 
ATOM      8  C   UNL     1     147.642 153.984 149.987  1.00  0.00     0.123 A 
ATOM      9  C   UNL     1     148.075 155.177 150.560  1.00  0.00     0.094 A 
ATOM     10  C   UNL     1     148.399 156.272 149.755  1.00  0.00     0.146 A 
ATOM     11  O   UNL     1     148.797 157.394 150.342  1.00  0.00    -0.452 OA
ENDROOT
BRANCH   1  12
ATOM     12  C   UNL     1     149.565 159.677 150.446  1.00  0.00     0.025 A 
ATOM     13  C   UNL     1     150.929 159.820 150.746  1.00  0.00     0.016 A 
ATOM     14  C   UNL     1     151.386 160.933 151.456  1.00  0.00     0.051 A 
ATOM     15  C   UNL     1     150.492 161.928 151.863  1.00  0.00     0.157 A 
ATOM     16  C   UNL     1     148.670 160.689 150.838  1.00  0.00     0.062 A 
ATOM     17  C   UNL     1     149.127 161.809 151.550  1.00  0.00     0.158 A 
BRANCH  15  18
ATOM     18  O   UNL     1     150.976 163.027 152.572  1.00  0.00    -0.504 OA
ATOM     19  H   UNL     1     151.575 163.722 152.143  1.00  0.00     0.293 HD
ENDBRANCH  15  18
BRANCH  17  20
ATOM     20  O   UNL     1     148.232 162.803 151.940  1.00  0.00    -0.504 OA
ATOM     21  H   UNL     1     147.920 162.889 152.901  1.00  0.00     0.293 HD
ENDBRANCH  17  20
ENDBRANCH   1  12
BRANCH   2  22
ATOM     22  O   UNL     1     149.204 159.715 147.572  1.00  0.00    -0.502 OA
ATOM     23  H   UNL     1     150.065 159.886 147.067  1.00  0.00     0.293 HD
ENDBRANCH   2  22
BRANCH   6  24
ATOM     24  O   UNL     1     147.883 154.693 146.388  1.00  0.00    -0.507 OA
ATOM     25  H   UNL     1     148.592 154.186 145.881  1.00  0.00     0.293 HD
ENDBRANCH   6  24
BRANCH   8  26
ATOM     26  O   UNL     1     147.303 152.910 150.809  1.00  0.00    -0.508 OA
ATOM     27  H   UNL     1     147.422 152.954 151.814  1.00  0.00     0.293 HD
ENDBRANCH   8  26
TORSDOF 6
ENDMDL
MODEL 3
REMARK VINA RESULT:    -7.746      1.150      2.859
REMARK INTER + INTRA:          -9.587
REMARK INTER:                  -9.500
REMARK INTRA:                  -0.086
REMARK UNBOUND:                -0.256
REMARK SMILES O=c1c(O)c(-c2ccc(O)c(O)c2)oc2cc(O)cc(O)c12
REMARK SMILES IDX 5 1 3 2 2 3 1 4 22 5 20 6 19 7 17 8 16 9 15 10 14 11 6 12
REMARK SMILES IDX 7 13 8 14 9 15 13 16 11 17 10 18 12 20 4 22 21 24 18 26
REMARK H PARENT 10 19 12 21 4 23 21 25 18 27
REMARK Flexibility Score: inf
ROOT
ATOM      1  C   UNL     1     151.424 168.941 151.665  1.00  0.00     0.180 A 
ATOM      2  C   UNL     1     151.118 168.479 150.373  1.00  0.00     0.208 A 
ATOM      3  C   UNL     1     149.793 168.564 149.916  1.00  0.00     0.238 A 
ATOM      4  O   UNL     1     149.536 168.201 148.739  1.00  0.00    -0.285 OA
ATOM      5  C   UNL     1     148.789 169.095 150.762  1.00  0.00     0.111 A 
ATOM      6  C   UNL     1     147.407 169.192 150.416  1.00  0.00     0.134 A 
ATOM      7  C   UNL     1     146.525 169.853 151.279  1.00  0.00     0.093 A 
ATOM      8  C   UNL     1     146.962 170.362 152.504  1.00  0.00     0.123 A 
ATOM      9  C   UNL     1     148.296 170.220 152.876  1.00  0.00     0.094 A 
ATOM     10  C   UNL     1     149.208 169.598 152.020  1.00  0.00     0.146 A 
ATOM     11  O   UNL     1     150.472 169.493 152.409  1.00  0.00    -0.452 OA
ENDROOT
BRANCH   1  12
ATOM     12  C   UNL     1     152.792 168.861 152.226  1.00  0.00     0.025 A 
ATOM     13  C   UNL     1     153.021 168.103 153.385  1.00  0.00     0.016 A 
ATOM     14  C   UNL     1     154.307 167.997 153.920  1.00  0.00     0.051 A 
ATOM     15  C   UNL     1     155.386 168.632 153.299  1.00  0.00     0.157 A 
ATOM     16  C   UNL     1     153.883 169.482 151.590  1.00  0.00     0.062 A 
ATOM     17  C   UNL     1     155.175 169.376 152.125  1.00  0.00     0.158 A 
BRANCH  15  18
ATOM     18  O   UNL     1     156.658 168.511 153.857  1.00  0.00    -0.504 OA
ATOM     19  H   UNL     1     157.427 169.108 153.578  1.00  0.00     0.293 HD
ENDBRANCH  15  18
BRANCH  17  20
ATOM     20  O   UNL     1     156.248 170.000 151.492  1.00  0.00    -0.504 OA
ATOM     21  H   UNL     1     156.649 170.860 151.851  1.00  0.00     0.293 HD
ENDBRANCH  17  20
ENDBRANCH   1  12
BRANCH   2  22
ATOM     22  O   UNL     1     152.129 167.980 149.547  1.00  0.00    -0.502 OA
ATOM     23  H   UNL     1     152.996 167.605 149.914  1.00  0.00     0.293 HD
ENDBRANCH   2  22
BRANCH   6  24
ATOM     24  O   UNL     1     146.851 168.635 149.260  1.00  0.00    -0.507 OA
ATOM     25  H   UNL     1     146.724 169.127 148.389  1.00  0.00     0.293 HD
ENDBRANCH   6  24
BRANCH   8  26
ATOM     26  O   UNL     1     146.073 171.005 153.364  1.00  0.00    -0.508 OA
ATOM     27  H   UNL     1     146.080 172.011 153.478  1.00  0.00     0.293 HD
ENDBRANCH   8  26
TORSDOF 6
ENDMDL
MODEL 4
REMARK VINA RESULT:    -7.636      7.798      9.957
REMARK INTER + INTRA:          -9.454
REMARK INTER:                  -9.135
REMARK INTRA:                  -0.319
REMARK UNBOUND:                -0.256
REMARK SMILES O=c1c(O)c(-c2ccc(O)c(O)c2)oc2cc(O)cc(O)c12
REMARK SMILES IDX 5 1 3 2 2 3 1 4 22 5 20 6 19 7 17 8 16 9 15 10 14 11 6 12
REMARK SMILES IDX 7 13 8 14 9 15 13 16 11 17 10 18 12 20 4 22 21 24 18 26
REMARK H PARENT 10 19 12 21 4 23 21 25 18 27
REMARK Flexibility Score: inf
ROOT
ATOM      1  C   UNL     1     149.240 160.673 150.311  1.00  0.00     0.180 A 
ATOM      2  C   UNL     1     150.385 160.876 151.101  1.00  0.00     0.208 A 
ATOM      3  C   UNL     1     150.482 162.047 151.870  1.00  0.00     0.238 A 
ATOM      4  O   UNL     1     151.483 162.196 152.618  1.00  0.00    -0.285 OA
ATOM      5  C   UNL     1     149.442 163.006 151.828  1.00  0.00     0.111 A 
ATOM      6  C   UNL     1     149.454 164.245 152.536  1.00  0.00     0.134 A 
ATOM      7  C   UNL     1     148.314 165.059 152.523  1.00  0.00     0.093 A 
ATOM      8  C   UNL     1     147.188 164.709 151.774  1.00  0.00     0.123 A 
ATOM      9  C   UNL     1     147.189 163.530 151.033  1.00  0.00     0.094 A 
ATOM     10  C   UNL     1     148.298 162.680 151.055  1.00  0.00     0.146 A 
ATOM     11  O   UNL     1     148.252 161.561 150.343  1.00  0.00    -0.452 OA
ENDROOT
BRANCH   1  12
ATOM     12  C   UNL     1     149.076 159.477 149.453  1.00  0.00     0.025 A 
ATOM     13  C   UNL     1     148.511 158.311 149.994  1.00  0.00     0.016 A 
ATOM     14  C   UNL     1     148.329 157.177 149.198  1.00  0.00     0.051 A 
ATOM     15  C   UNL     1     148.692 157.195 147.848  1.00  0.00     0.157 A 
ATOM     16  C   UNL     1     149.421 159.500 148.089  1.00  0.00     0.062 A 
ATOM     17  C   UNL     1     149.237 158.363 147.288  1.00  0.00     0.158 A 
BRANCH  15  18
ATOM     18  O   UNL     1     148.500 156.048 147.079  1.00  0.00    -0.504 OA
ATOM     19  H   UNL     1     148.943 155.166 147.308  1.00  0.00     0.293 HD
ENDBRANCH  15  18
BRANCH  17  20
ATOM     20  O   UNL     1     149.588 158.393 145.940  1.00  0.00    -0.504 OA
ATOM     21  H   UNL     1     148.905 158.223 145.209  1.00  0.00     0.293 HD
ENDBRANCH  17  20
ENDBRANCH   1  12
BRANCH   2  22
ATOM     22  O   UNL     1     151.389 159.905 151.145  1.00  0.00    -0.502 OA
ATOM     23  H   UNL     1     152.282 160.066 151.595  1.00  0.00     0.293 HD
ENDBRANCH   2  22
BRANCH   6  24
ATOM     24  O   UNL     1     150.561 164.733 153.238  1.00  0.00    -0.507 OA
ATOM     25  H   UNL     1     150.764 165.710 153.384  1.00  0.00     0.293 HD
ENDBRANCH   6  24
BRANCH   8  26
ATOM     26  O   UNL     1     146.064 165.532 151.755  1.00  0.00    -0.508 OA
ATOM     27  H   UNL     1     145.357 165.481 152.478  1.00  0.00     0.293 HD
ENDBRANCH   8  26
TORSDOF 6
ENDMDL
MODEL 5
REMARK VINA RESULT:    -7.549      5.482      6.740
REMARK INTER + INTRA:          -9.350
REMARK INTER:                  -9.099
REMARK INTRA:                  -0.251
REMARK UNBOUND:                -0.256
REMARK SMILES O=c1c(O)c(-c2ccc(O)c(O)c2)oc2cc(O)cc(O)c12
REMARK SMILES IDX 5 1 3 2 2 3 1 4 22 5 20 6 19 7 17 8 16 9 15 10 14 11 6 12
REMARK SMILES IDX 7 13 8 14 9 15 13 16 11 17 10 18 12 20 4 22 21 24 18 26
REMARK H PARENT 10 19 12 21 4 23 21 25 18 27
REMARK Flexibility Score: inf
ROOT
ATOM      1  C   UNL     1     148.807 163.934 151.770  1.00  0.00     0.180 A 
ATOM      2  C   UNL     1     147.897 164.170 152.816  1.00  0.00     0.208 A 
ATOM      3  C   UNL     1     147.508 165.491 153.095  1.00  0.00     0.238 A 
ATOM      4  O   UNL     1     146.652 165.690 153.995  1.00  0.00    -0.285 OA
ATOM      5  C   UNL     1     148.045 166.558 152.336  1.00  0.00     0.111 A 
ATOM      6  C   UNL     1     147.751 167.937 152.558  1.00  0.00     0.134 A 
ATOM      7  C   UNL     1     148.237 168.899 151.664  1.00  0.00     0.093 A 
ATOM      8  C   UNL     1     149.060 168.538 150.594  1.00  0.00     0.123 A 
ATOM      9  C   UNL     1     149.400 167.200 150.404  1.00  0.00     0.094 A 
ATOM     10  C   UNL     1     148.901 166.214 151.258  1.00  0.00     0.146 A 
ATOM     11  O   UNL     1     149.241 164.951 151.035  1.00  0.00    -0.452 OA
ENDROOT
BRANCH   1  12
ATOM     12  C   UNL     1     149.283 162.573 151.433  1.00  0.00     0.025 A 
ATOM     13  C   UNL     1     148.435 161.696 150.739  1.00  0.00     0.016 A 
ATOM     14  C   UNL     1     148.871 160.415 150.393  1.00  0.00     0.051 A 
ATOM     15  C   UNL     1     150.165 159.996 150.718  1.00  0.00     0.157 A 
ATOM     16  C   UNL     1     150.592 162.158 151.741  1.00  0.00     0.062 A 
ATOM     17  C   UNL     1     151.032 160.872 151.392  1.00  0.00     0.158 A 
BRANCH  15  18
ATOM     18  O   UNL     1     150.572 158.711 150.362  1.00  0.00    -0.504 OA
ATOM     19  H   UNL     1     150.487 158.363 149.414  1.00  0.00     0.293 HD
ENDBRANCH  15  18
BRANCH  17  20
ATOM     20  O   UNL     1     152.327 160.467 151.708  1.00  0.00    -0.504 OA
ATOM     21  H   UNL     1     152.607 159.493 151.654  1.00  0.00     0.293 HD
ENDBRANCH  17  20
ENDBRANCH   1  12
BRANCH   2  22
ATOM     22  O   UNL     1     147.363 163.099 153.537  1.00  0.00    -0.502 OA
ATOM     23  H   UNL     1     147.178 163.151 154.532  1.00  0.00     0.293 HD
ENDBRANCH   2  22
BRANCH   6  24
ATOM     24  O   UNL     1     147.017 168.413 153.648  1.00  0.00    -0.507 OA
ATOM     25  H   UNL     1     146.022 168.295 153.767  1.00  0.00     0.293 HD
ENDBRANCH   6  24
BRANCH   8  26
ATOM     26  O   UNL     1     149.551 169.503 149.718  1.00  0.00    -0.508 OA
ATOM     27  H   UNL     1     149.375 169.454 148.722  1.00  0.00     0.293 HD
ENDBRANCH   8  26
TORSDOF 6
ENDMDL
MODEL 6
REMARK VINA RESULT:    -7.469      1.522      1.548
REMARK INTER + INTRA:          -9.253
REMARK INTER:                  -8.920
REMARK INTRA:                  -0.334
REMARK UNBOUND:                -0.256
REMARK SMILES O=c1c(O)c(-c2ccc(O)c(O)c2)oc2cc(O)cc(O)c12
REMARK SMILES IDX 5 1 3 2 2 3 1 4 22 5 20 6 19 7 17 8 16 9 15 10 14 11 6 12
REMARK SMILES IDX 7 13 8 14 9 15 13 16 11 17 10 18 12 20 4 22 21 24 18 26
REMARK H PARENT 10 19 12 21 4 23 21 25 18 27
REMARK Flexibility Score: inf
ROOT
ATOM      1  C   UNL     1     151.083 168.835 152.165  1.00  0.00     0.180 A 
ATOM      2  C   UNL     1     150.365 170.044 152.192  1.00  0.00     0.208 A 
ATOM      3  C   UNL     1     149.001 170.033 151.859  1.00  0.00     0.238 A 
ATOM      4  O   UNL     1     148.352 171.108 151.939  1.00  0.00    -0.285 OA
ATOM      5  C   UNL     1     148.376 168.818 151.489  1.00  0.00     0.111 A 
ATOM      6  C   UNL     1     147.009 168.697 151.094  1.00  0.00     0.134 A 
ATOM      7  C   UNL     1     146.463 167.427 150.875  1.00  0.00     0.093 A 
ATOM      8  C   UNL     1     147.252 166.278 150.972  1.00  0.00     0.123 A 
ATOM      9  C   UNL     1     148.602 166.390 151.299  1.00  0.00     0.094 A 
ATOM     10  C   UNL     1     149.166 167.641 151.559  1.00  0.00     0.146 A 
ATOM     11  O   UNL     1     150.452 167.702 151.878  1.00  0.00    -0.452 OA
ENDROOT
BRANCH   1  12
ATOM     12  C   UNL     1     152.528 168.770 152.479  1.00  0.00     0.025 A 
ATOM     13  C   UNL     1     152.940 168.453 153.783  1.00  0.00     0.016 A 
ATOM     14  C   UNL     1     154.298 168.366 154.096  1.00  0.00     0.051 A 
ATOM     15  C   UNL     1     155.266 168.579 153.110  1.00  0.00     0.157 A 
ATOM     16  C   UNL     1     153.504 168.963 151.483  1.00  0.00     0.062 A 
ATOM     17  C   UNL     1     154.868 168.875 151.795  1.00  0.00     0.158 A 
BRANCH  15  18
ATOM     18  O   UNL     1     156.615 168.488 153.452  1.00  0.00    -0.504 OA
ATOM     19  H   UNL     1     157.312 168.136 152.806  1.00  0.00     0.293 HD
ENDBRANCH  15  18
BRANCH  17  20
ATOM     20  O   UNL     1     155.828 169.074 150.804  1.00  0.00    -0.504 OA
ATOM     21  H   UNL     1     156.150 170.004 150.556  1.00  0.00     0.293 HD
ENDBRANCH  17  20
ENDBRANCH   1  12
BRANCH   2  22
ATOM     22  O   UNL     1     150.997 171.228 152.582  1.00  0.00    -0.502 OA
ATOM     23  H   UNL     1     151.471 171.834 151.923  1.00  0.00     0.293 HD
ENDBRANCH   2  22
BRANCH   6  24
ATOM     24  O   UNL     1     146.160 169.787 150.878  1.00  0.00    -0.507 OA
ATOM     25  H   UNL     1     145.602 170.231 151.591  1.00  0.00     0.293 HD
ENDBRANCH   6  24
BRANCH   8  26
ATOM     26  O   UNL     1     146.704 165.018 150.737  1.00  0.00    -0.508 OA
ATOM     27  H   UNL     1     145.814 164.907 150.267  1.00  0.00     0.293 HD
ENDBRANCH   8  26
TORSDOF 6
ENDMDL
MODEL 7
REMARK VINA RESULT:    -7.313      4.144      6.503
REMARK INTER + INTRA:          -9.065
REMARK INTER:                  -8.731
REMARK INTRA:                  -0.334
REMARK UNBOUND:                -0.256
REMARK SMILES O=c1c(O)c(-c2ccc(O)c(O)c2)oc2cc(O)cc(O)c12
REMARK SMILES IDX 5 1 3 2 2 3 1 4 22 5 20 6 19 7 17 8 16 9 15 10 14 11 6 12
REMARK SMILES IDX 7 13 8 14 9 15 13 16 11 17 10 18 12 20 4 22 21 24 18 26
REMARK H PARENT 10 19 12 21 4 23 21 25 18 27
REMARK Flexibility Score: inf
ROOT
ATOM      1  C   UNL     1     148.423 166.303 151.181  1.00  0.00     0.180 A 
ATOM      2  C   UNL     1     149.299 167.123 150.449  1.00  0.00     0.208 A 
ATOM      3  C   UNL     1     149.211 168.516 150.598  1.00  0.00     0.238 A 
ATOM      4  O   UNL     1     150.035 169.242 149.983  1.00  0.00    -0.285 OA
ATOM      5  C   UNL     1     148.239 169.072 151.464  1.00  0.00     0.111 A 
ATOM      6  C   UNL     1     148.036 170.471 151.661  1.00  0.00     0.134 A 
ATOM      7  C   UNL     1     147.134 170.906 152.640  1.00  0.00     0.093 A 
ATOM      8  C   UNL     1     146.380 169.994 153.382  1.00  0.00     0.123 A 
ATOM      9  C   UNL     1     146.530 168.627 153.155  1.00  0.00     0.094 A 
ATOM     10  C   UNL     1     147.448 168.162 152.212  1.00  0.00     0.146 A 
ATOM     11  O   UNL     1     147.567 166.852 152.035  1.00  0.00    -0.452 OA
ENDROOT
BRANCH   1  12
ATOM     12  C   UNL     1     148.438 164.827 151.059  1.00  0.00     0.025 A 
ATOM     13  C   UNL     1     149.181 164.064 151.974  1.00  0.00     0.016 A 
ATOM     14  C   UNL     1     149.193 162.670 151.889  1.00  0.00     0.051 A 
ATOM     15  C   UNL     1     148.451 162.015 150.902  1.00  0.00     0.157 A 
ATOM     16  C   UNL     1     147.675 164.165 150.079  1.00  0.00     0.062 A 
ATOM     17  C   UNL     1     147.684 162.765 149.994  1.00  0.00     0.158 A 
BRANCH  15  18
ATOM     18  O   UNL     1     148.483 160.623 150.840  1.00  0.00    -0.504 OA
ATOM     19  H   UNL     1     148.538 160.124 149.960  1.00  0.00     0.293 HD
ENDBRANCH  15  18
BRANCH  17  20
ATOM     20  O   UNL     1     146.931 162.119 149.016  1.00  0.00    -0.504 OA
ATOM     21  H   UNL     1     147.292 161.969 148.080  1.00  0.00     0.293 HD
ENDBRANCH  17  20
ENDBRANCH   1  12
BRANCH   2  22
ATOM     22  O   UNL     1     150.266 166.551 149.618  1.00  0.00    -0.502 OA
ATOM     23  H   UNL     1     150.026 166.025 148.786  1.00  0.00     0.293 HD
ENDBRANCH   2  22
BRANCH   6  24
ATOM     24  O   UNL     1     148.668 171.466 150.909  1.00  0.00    -0.507 OA
ATOM     25  H   UNL     1     149.426 171.303 150.263  1.00  0.00     0.293 HD
ENDBRANCH   6  24
BRANCH   8  26
ATOM     26  O   UNL     1     145.473 170.436 154.343  1.00  0.00    -0.508 OA
ATOM     27  H   UNL     1     144.476 170.302 154.232  1.00  0.00     0.293 HD
ENDBRANCH   8  26
TORSDOF 6
ENDMDL
MODEL 8
REMARK VINA RESULT:    -7.296      2.902      6.214
REMARK INTER + INTRA:          -9.044
REMARK INTER:                  -8.796
REMARK INTRA:                  -0.249
REMARK UNBOUND:                -0.256
REMARK SMILES O=c1c(O)c(-c2ccc(O)c(O)c2)oc2cc(O)cc(O)c12
REMARK SMILES IDX 5 1 3 2 2 3 1 4 22 5 20 6 19 7 17 8 16 9 15 10 14 11 6 12
REMARK SMILES IDX 7 13 8 14 9 15 13 16 11 17 10 18 12 20 4 22 21 24 18 26
REMARK H PARENT 10 19 12 21 4 23 21 25 18 27
REMARK Flexibility Score: inf
ROOT
ATOM      1  C   UNL     1     149.187 167.289 152.041  1.00  0.00     0.180 A 
ATOM      2  C   UNL     1     148.237 168.265 152.389  1.00  0.00     0.208 A 
ATOM      3  C   UNL     1     148.681 169.540 152.775  1.00  0.00     0.238 A 
ATOM      4  O   UNL     1     147.824 170.425 153.031  1.00  0.00    -0.285 OA
ATOM      5  C   UNL     1     150.069 169.817 152.825  1.00  0.00     0.111 A 
ATOM      6  C   UNL     1     150.631 171.062 153.240  1.00  0.00     0.134 A 
ATOM      7  C   UNL     1     152.011 171.268 153.125  1.00  0.00     0.093 A 
ATOM      8  C   UNL     1     152.856 170.252 152.672  1.00  0.00     0.123 A 
ATOM      9  C   UNL     1     152.322 169.014 152.321  1.00  0.00     0.094 A 
ATOM     10  C   UNL     1     150.945 168.791 152.390  1.00  0.00     0.146 A 
ATOM     11  O   UNL     1     150.478 167.600 152.035  1.00  0.00    -0.452 OA
ENDROOT
BRANCH   1  12
ATOM     12  C   UNL     1     148.798 165.915 151.648  1.00  0.00     0.025 A 
ATOM     13  C   UNL     1     148.952 164.864 152.565  1.00  0.00     0.016 A 
ATOM     14  C   UNL     1     148.573 163.563 152.223  1.00  0.00     0.051 A 
ATOM     15  C   UNL     1     148.018 163.296 150.967  1.00  0.00     0.157 A 
ATOM     16  C   UNL     1     148.221 165.648 150.393  1.00  0.00     0.062 A 
ATOM     17  C   UNL     1     147.837 164.344 150.048  1.00  0.00     0.158 A 
BRANCH  15  18
ATOM     18  O   UNL     1     147.651 161.989 150.652  1.00  0.00    -0.504 OA
ATOM     19  H   UNL     1     148.323 161.304 150.326  1.00  0.00     0.293 HD
ENDBRANCH  15  18
BRANCH  17  20
ATOM     20  O   UNL     1     147.273 164.087 148.800  1.00  0.00    -0.504 OA
ATOM     21  H   UNL     1     146.349 163.677 148.708  1.00  0.00     0.293 HD
ENDBRANCH  17  20
ENDBRANCH   1  12
BRANCH   2  22
ATOM     22  O   UNL     1     146.872 167.975 152.311  1.00  0.00    -0.502 OA
ATOM     23  H   UNL     1     146.523 167.034 152.170  1.00  0.00     0.293 HD
ENDBRANCH   2  22
BRANCH   6  24
ATOM     24  O   UNL     1     149.887 172.108 153.794  1.00  0.00    -0.507 OA
ATOM     25  H   UNL     1     149.801 173.029 153.391  1.00  0.00     0.293 HD
ENDBRANCH   6  24
BRANCH   8  26
ATOM     26  O   UNL     1     154.230 170.461 152.576  1.00  0.00    -0.508 OA
ATOM     27  H   UNL     1     154.815 169.879 151.989  1.00  0.00     0.293 HD
ENDBRANCH   8  26
TORSDOF 6
ENDMDL
MODEL 9
REMARK VINA RESULT:    -7.280      3.777      6.497
REMARK INTER + INTRA:          -9.026
REMARK INTER:                  -8.692
REMARK INTRA:                  -0.333
REMARK UNBOUND:                -0.256
REMARK SMILES O=c1c(O)c(-c2ccc(O)c(O)c2)oc2cc(O)cc(O)c12
REMARK SMILES IDX 5 1 3 2 2 3 1 4 22 5 20 6 19 7 17 8 16 9 15 10 14 11 6 12
REMARK SMILES IDX 7 13 8 14 9 15 13 16 11 17 10 18 12 20 4 22 21 24 18 26
REMARK H PARENT 10 19 12 21 4 23 21 25 18 27
REMARK Flexibility Score: inf
ROOT
ATOM      1  C   UNL     1     148.418 166.513 151.627  1.00  0.00     0.180 A 
ATOM      2  C   UNL     1     147.355 167.344 151.233  1.00  0.00     0.208 A 
ATOM      3  C   UNL     1     147.517 168.737 151.304  1.00  0.00     0.238 A 
ATOM      4  O   UNL     1     146.583 169.475 150.897  1.00  0.00    -0.285 OA
ATOM      5  C   UNL     1     148.733 169.281 151.783  1.00  0.00     0.111 A 
ATOM      6  C   UNL     1     148.992 170.677 151.934  1.00  0.00     0.134 A 
ATOM      7  C   UNL     1     150.276 171.106 152.293  1.00  0.00     0.093 A 
ATOM      8  C   UNL     1     151.291 170.187 152.569  1.00  0.00     0.123 A 
ATOM      9  C   UNL     1     151.031 168.821 152.482  1.00  0.00     0.094 A 
ATOM     10  C   UNL     1     149.771 168.364 152.090  1.00  0.00     0.146 A 
ATOM     11  O   UNL     1     149.569 167.055 152.009  1.00  0.00    -0.452 OA
ENDROOT
BRANCH   1  12
ATOM     12  C   UNL     1     148.314 165.036 151.604  1.00  0.00     0.025 A 
ATOM     13  C   UNL     1     148.786 164.327 150.489  1.00  0.00     0.016 A 
ATOM     14  C   UNL     1     148.716 162.932 150.454  1.00  0.00     0.051 A 
ATOM     15  C   UNL     1     148.190 162.224 151.539  1.00  0.00     0.157 A 
ATOM     16  C   UNL     1     147.804 164.321 152.703  1.00  0.00     0.062 A 
ATOM     17  C   UNL     1     147.735 162.920 152.671  1.00  0.00     0.158 A 
BRANCH  15  18
ATOM     18  O   UNL     1     148.131 160.832 151.476  1.00  0.00    -0.504 OA
ATOM     19  H   UNL     1     148.497 160.244 152.215  1.00  0.00     0.293 HD
ENDBRANCH  15  18
BRANCH  17  20
ATOM     20  O   UNL     1     147.222 162.220 153.762  1.00  0.00    -0.504 OA
ATOM     21  H   UNL     1     146.851 161.281 153.663  1.00  0.00     0.293 HD
ENDBRANCH  17  20
ENDBRANCH   1  12
BRANCH   2  22
ATOM     22  O   UNL     1     146.171 166.785 150.742  1.00  0.00    -0.502 OA
ATOM     23  H   UNL     1     145.282 166.894 151.215  1.00  0.00     0.293 HD
ENDBRANCH   2  22
BRANCH   6  24
ATOM     24  O   UNL     1     148.024 171.672 151.773  1.00  0.00    -0.507 OA
ATOM     25  H   UNL     1     148.193 172.578 151.363  1.00  0.00     0.293 HD
ENDBRANCH   6  24
BRANCH   8  26
ATOM     26  O   UNL     1     152.562 170.623 152.941  1.00  0.00    -0.508 OA
ATOM     27  H   UNL     1     152.921 170.471 153.876  1.00  0.00     0.293 HD
ENDBRANCH   8  26
TORSDOF 6
ENDMDL
