MODEL 1
REMARK VINA RESULT:    -2.965      0.000      0.000
REMARK INTER + INTRA:         -11.437
REMARK INTER:                  -6.779
REMARK INTRA:                  -4.659
REMARK UNBOUND:                -4.659
REMARK SMILES CCCCCCCCCCCCCCCCCCCCCCCC(=O)[O-]
REMARK SMILES IDX 13 1 14 2 15 3 16 4 17 5 18 6 19 7 20 8 21 9 22 10 23 11
REMARK SMILES IDX 24 12 25 13 26 14 12 15 11 16 10 17 9 18 8 19 7 20 6 21 5 22
REMARK SMILES IDX 4 23 3 24 2 25 1 26
REMARK H PARENT
REMARK Flexibility Score: inf
ROOT
ATOM      1  C   UNL     1      58.447  25.115  54.574  1.00  0.00     0.000 C 
ENDROOT
BRANCH   1   2
ATOM      2  C   UNL     1      57.998  26.585  54.658  1.00  0.00     0.000 C 
BRANCH   2   3
ATOM      3  C   UNL     1      58.419  27.407  53.428  1.00  0.00     0.000 C 
BRANCH   3   4
ATOM      4  C   UNL     1      57.232  28.110  52.750  1.00  0.00     0.000 C 
BRANCH   4   5
ATOM      5  C   UNL     1      57.660  28.959  51.540  1.00  0.00     0.000 C 
BRANCH   5   6
ATOM      6  C   UNL     1      59.124  28.718  51.126  1.00  0.00     0.000 C 
BRANCH   6   7
ATOM      7  C   UNL     1      59.324  28.262  49.667  1.00  0.00     0.000 C 
BRANCH   7   8
ATOM      8  C   UNL     1      60.374  27.146  49.528  1.00  0.00     0.000 C 
BRANCH   8   9
ATOM      9  C   UNL     1      59.803  25.755  49.850  1.00  0.00     0.000 C 
BRANCH   9  10
ATOM     10  C   UNL     1      60.290  25.207  51.202  1.00  0.00     0.006 C 
BRANCH  10  11
ATOM     11  C   UNL     1      60.169  23.679  51.284  1.00  0.00     0.053 C 
BRANCH  11  12
ATOM     12  C   UNL     1      61.245  22.993  50.500  1.00  0.00     0.041 C 
ATOM     13  O   UNL     1      60.952  22.079  49.685  1.00  0.00    -0.550 OA
ATOM     14  O   UNL     1      62.578  23.328  50.708  1.00  0.00    -0.550 OA
ENDBRANCH  11  12
ENDBRANCH  10  11
ENDBRANCH   9  10
ENDBRANCH   8   9
ENDBRANCH   7   8
ENDBRANCH   6   7
ENDBRANCH   5   6
ENDBRANCH   4   5
ENDBRANCH   3   4
ENDBRANCH   2   3
ENDBRANCH   1   2
BRANCH   1  15
ATOM     15  C   UNL     1      57.469  24.168  53.847  1.00  0.00     0.000 C 
BRANCH  15  16
ATOM     16  C   UNL     1      55.997  24.618  53.844  1.00  0.00     0.000 C 
BRANCH  16  17
ATOM     17  C   UNL     1      55.418  24.752  52.425  1.00  0.00     0.000 C 
BRANCH  17  18
ATOM     18  C   UNL     1      56.495  25.034  51.360  1.00  0.00    -0.000 C 
BRANCH  18  19
ATOM     19  C   UNL     1      55.996  25.762  50.098  1.00  0.00    -0.000 C 
BRANCH  19  20
ATOM     20  C   UNL     1      54.547  25.442  49.687  1.00  0.00    -0.000 C 
BRANCH  20  21
ATOM     21  C   UNL     1      53.571  26.627  49.861  1.00  0.00    -0.000 C 
BRANCH  21  22
ATOM     22  C   UNL     1      54.285  27.923  50.282  1.00  0.00    -0.000 C 
BRANCH  22  23
ATOM     23  C   UNL     1      53.619  28.585  51.507  1.00  0.00    -0.000 C 
BRANCH  23  24
ATOM     24  C   UNL     1      53.258  27.592  52.624  1.00  0.00    -0.000 C 
BRANCH  24  25
ATOM     25  C   UNL     1      53.199  28.248  54.010  1.00  0.00    -0.003 C 
ATOM     26  C   UNL     1      54.280  27.690  54.929  1.00  0.00     0.004 C 
ENDBRANCH  24  25
ENDBRANCH  23  24
ENDBRANCH  22  23
ENDBRANCH  21  22
ENDBRANCH  20  21
ENDBRANCH  19  20
ENDBRANCH  18  19
ENDBRANCH  17  18
ENDBRANCH  16  17
ENDBRANCH  15  16
ENDBRANCH   1  15
TORSDOF 22
ENDMDL
MODEL 2
REMARK VINA RESULT:    -2.870      2.052      3.643
REMARK INTER + INTRA:         -11.221
REMARK INTER:                  -7.170
REMARK INTRA:                  -4.050
REMARK UNBOUND:                -4.659
REMARK SMILES CCCCCCCCCCCCCCCCCCCCCCCC(=O)[O-]
REMARK SMILES IDX 13 1 14 2 15 3 16 4 17 5 18 6 19 7 20 8 21 9 22 10 23 11
REMARK SMILES IDX 24 12 25 13 26 14 12 15 11 16 10 17 9 18 8 19 7 20 6 21 5 22
REMARK SMILES IDX 4 23 3 24 2 25 1 26
REMARK H PARENT
REMARK Flexibility Score: inf
ROOT
ATOM      1  C   UNL     1      57.524  26.206  53.119  1.00  0.00     0.000 C 
ENDROOT
BRANCH   1   2
ATOM      2  C   UNL     1      58.383  27.454  53.389  1.00  0.00     0.000 C 
BRANCH   2   3
ATOM      3  C   UNL     1      57.966  28.661  52.532  1.00  0.00     0.000 C 
BRANCH   3   4
ATOM      4  C   UNL     1      59.032  29.048  51.494  1.00  0.00     0.000 C 
BRANCH   4   5
ATOM      5  C   UNL     1      58.693  28.540  50.081  1.00  0.00     0.000 C 
BRANCH   5   6
ATOM      6  C   UNL     1      59.673  27.462  49.580  1.00  0.00     0.000 C 
BRANCH   6   7
ATOM      7  C   UNL     1      59.321  26.018  49.986  1.00  0.00     0.000 C 
BRANCH   7   8
ATOM      8  C   UNL     1      60.562  25.119  50.132  1.00  0.00     0.000 C 
BRANCH   8   9
ATOM      9  C   UNL     1      61.359  25.416  51.411  1.00  0.00     0.000 C 
BRANCH   9  10
ATOM     10  C   UNL     1      62.434  26.499  51.209  1.00  0.00     0.006 C 
BRANCH  10  11
ATOM     11  C   UNL     1      63.316  26.216  49.985  1.00  0.00     0.053 C 
BRANCH  11  12
ATOM     12  C   UNL     1      63.762  27.480  49.316  1.00  0.00     0.041 C 
ATOM     13  O   UNL     1      64.369  27.433  48.215  1.00  0.00    -0.550 OA
ATOM     14  O   UNL     1      63.550  28.706  49.934  1.00  0.00    -0.550 OA
ENDBRANCH  11  12
ENDBRANCH  10  11
ENDBRANCH   9  10
ENDBRANCH   8   9
ENDBRANCH   7   8
ENDBRANCH   6   7
ENDBRANCH   5   6
ENDBRANCH   4   5
ENDBRANCH   3   4
ENDBRANCH   2   3
ENDBRANCH   1   2
BRANCH   1  15
ATOM     15  C   UNL     1      56.375  25.968  54.121  1.00  0.00     0.000 C 
BRANCH  15  16
ATOM     16  C   UNL     1      54.965  25.913  53.505  1.00  0.00     0.000 C 
BRANCH  16  17
ATOM     17  C   UNL     1      54.002  26.938  54.127  1.00  0.00     0.000 C 
BRANCH  17  18
ATOM     18  C   UNL     1      54.711  28.223  54.592  1.00  0.00    -0.000 C 
BRANCH  18  19
ATOM     19  C   UNL     1      54.485  29.458  53.699  1.00  0.00    -0.000 C 
BRANCH  19  20
ATOM     20  C   UNL     1      53.117  29.515  52.995  1.00  0.00    -0.000 C 
BRANCH  20  21
ATOM     21  C   UNL     1      53.191  29.301  51.466  1.00  0.00    -0.000 C 
BRANCH  21  22
ATOM     22  C   UNL     1      54.638  29.245  50.947  1.00  0.00    -0.000 C 
BRANCH  22  23
ATOM     23  C   UNL     1      55.018  27.842  50.428  1.00  0.00    -0.000 C 
BRANCH  23  24
ATOM     24  C   UNL     1      53.806  26.985  50.025  1.00  0.00    -0.000 C 
BRANCH  24  25
ATOM     25  C   UNL     1      54.191  25.549  49.642  1.00  0.00    -0.003 C 
ATOM     26  C   UNL     1      55.663  25.278  49.933  1.00  0.00     0.004 C 
ENDBRANCH  24  25
ENDBRANCH  23  24
ENDBRANCH  22  23
ENDBRANCH  21  22
ENDBRANCH  20  21
ENDBRANCH  19  20
ENDBRANCH  18  19
ENDBRANCH  17  18
ENDBRANCH  16  17
ENDBRANCH  15  16
ENDBRANCH   1  15
TORSDOF 22
ENDMDL
MODEL 3
REMARK VINA RESULT:    -2.841      1.781      5.668
REMARK INTER + INTRA:         -11.152
REMARK INTER:                  -6.874
REMARK INTRA:                  -4.278
REMARK UNBOUND:                -4.659
REMARK SMILES CCCCCCCCCCCCCCCCCCCCCCCC(=O)[O-]
REMARK SMILES IDX 13 1 14 2 15 3 16 4 17 5 18 6 19 7 20 8 21 9 22 10 23 11
REMARK SMILES IDX 24 12 25 13 26 14 12 15 11 16 10 17 9 18 8 19 7 20 6 21 5 22
REMARK SMILES IDX 4 23 3 24 2 25 1 26
REMARK H PARENT
REMARK Flexibility Score: inf
ROOT
ATOM      1  C   UNL     1      55.333  29.097  53.103  1.00  0.00     0.000 C 
ENDROOT
BRANCH   1   2
ATOM      2  C   UNL     1      54.053  29.308  52.274  1.00  0.00     0.000 C 
BRANCH   2   3
ATOM      3  C   UNL     1      54.267  29.048  50.773  1.00  0.00     0.000 C 
BRANCH   3   4
ATOM      4  C   UNL     1      53.202  28.114  50.176  1.00  0.00     0.000 C 
BRANCH   4   5
ATOM      5  C   UNL     1      53.729  26.686  49.950  1.00  0.00     0.000 C 
BRANCH   5   6
ATOM      6  C   UNL     1      55.266  26.597  50.004  1.00  0.00     0.000 C 
BRANCH   6   7
ATOM      7  C   UNL     1      55.825  25.329  50.677  1.00  0.00     0.000 C 
BRANCH   7   8
ATOM      8  C   UNL     1      55.727  25.374  52.212  1.00  0.00     0.000 C 
BRANCH   8   9
ATOM      9  C   UNL     1      57.104  25.450  52.891  1.00  0.00     0.000 C 
BRANCH   9  10
ATOM     10  C   UNL     1      58.257  25.063  51.949  1.00  0.00     0.006 C 
BRANCH  10  11
ATOM     11  C   UNL     1      59.561  24.794  52.712  1.00  0.00     0.053 C 
BRANCH  11  12
ATOM     12  C   UNL     1      60.558  24.060  51.869  1.00  0.00     0.041 C 
ATOM     13  O   UNL     1      61.764  23.995  52.226  1.00  0.00    -0.550 OA
ATOM     14  O   UNL     1      60.166  23.491  50.664  1.00  0.00    -0.550 OA
ENDBRANCH  11  12
ENDBRANCH  10  11
ENDBRANCH   9  10
ENDBRANCH   8   9
ENDBRANCH   7   8
ENDBRANCH   6   7
ENDBRANCH   5   6
ENDBRANCH   4   5
ENDBRANCH   3   4
ENDBRANCH   2   3
ENDBRANCH   1   2
BRANCH   1  15
ATOM     15  C   UNL     1      55.839  30.341  53.862  1.00  0.00     0.000 C 
BRANCH  15  16
ATOM     16  C   UNL     1      57.370  30.473  53.965  1.00  0.00     0.000 C 
BRANCH  16  17
ATOM     17  C   UNL     1      58.057  29.152  54.349  1.00  0.00     0.000 C 
BRANCH  17  18
ATOM     18  C   UNL     1      58.901  28.559  53.204  1.00  0.00    -0.000 C 
BRANCH  18  19
ATOM     19  C   UNL     1      58.805  29.309  51.862  1.00  0.00    -0.000 C 
BRANCH  19  20
ATOM     20  C   UNL     1      58.347  28.454  50.665  1.00  0.00    -0.000 C 
BRANCH  20  21
ATOM     21  C   UNL     1      59.386  28.366  49.525  1.00  0.00    -0.000 C 
BRANCH  21  22
ATOM     22  C   UNL     1      60.153  27.032  49.528  1.00  0.00    -0.000 C 
BRANCH  22  23
ATOM     23  C   UNL     1      61.652  27.222  49.844  1.00  0.00    -0.000 C 
BRANCH  23  24
ATOM     24  C   UNL     1      61.944  27.439  51.338  1.00  0.00    -0.000 C 
BRANCH  24  25
ATOM     25  C   UNL     1      62.535  28.824  51.636  1.00  0.00    -0.003 C 
ATOM     26  C   UNL     1      62.818  29.590  50.348  1.00  0.00     0.004 C 
ENDBRANCH  24  25
ENDBRANCH  23  24
ENDBRANCH  22  23
ENDBRANCH  21  22
ENDBRANCH  20  21
ENDBRANCH  19  20
ENDBRANCH  18  19
ENDBRANCH  17  18
ENDBRANCH  16  17
ENDBRANCH  15  16
ENDBRANCH   1  15
TORSDOF 22
ENDMDL
MODEL 4
REMARK VINA RESULT:    -2.836      2.067      4.214
REMARK INTER + INTRA:         -11.142
REMARK INTER:                  -7.620
REMARK INTRA:                  -3.523
REMARK UNBOUND:                -4.659
REMARK SMILES CCCCCCCCCCCCCCCCCCCCCCCC(=O)[O-]
REMARK SMILES IDX 13 1 14 2 15 3 16 4 17 5 18 6 19 7 20 8 21 9 22 10 23 11
REMARK SMILES IDX 24 12 25 13 26 14 12 15 11 16 10 17 9 18 8 19 7 20 6 21 5 22
REMARK SMILES IDX 4 23 3 24 2 25 1 26
REMARK H PARENT
REMARK Flexibility Score: inf
ROOT
ATOM      1  C   UNL     1      58.483  29.062  51.808  1.00  0.00     0.000 C 
ENDROOT
BRANCH   1   2
ATOM      2  C   UNL     1      58.398  28.635  50.332  1.00  0.00     0.000 C 
BRANCH   2   3
ATOM      3  C   UNL     1      59.722  28.061  49.801  1.00  0.00     0.000 C 
BRANCH   3   4
ATOM      4  C   UNL     1      59.678  26.535  49.623  1.00  0.00     0.000 C 
BRANCH   4   5
ATOM      5  C   UNL     1      61.007  25.857  50.002  1.00  0.00     0.000 C 
BRANCH   5   6
ATOM      6  C   UNL     1      60.918  25.055  51.314  1.00  0.00     0.000 C 
BRANCH   6   7
ATOM      7  C   UNL     1      60.458  23.593  51.158  1.00  0.00     0.000 C 
BRANCH   7   8
ATOM      8  C   UNL     1      61.355  22.782  50.206  1.00  0.00     0.000 C 
BRANCH   8   9
ATOM      9  C   UNL     1      60.931  21.308  50.107  1.00  0.00     0.000 C 
BRANCH   9  10
ATOM     10  C   UNL     1      60.460  20.729  51.453  1.00  0.00     0.006 C 
BRANCH  10  11
ATOM     11  C   UNL     1      60.505  19.195  51.469  1.00  0.00     0.053 C 
BRANCH  11  12
ATOM     12  C   UNL     1      59.200  18.595  51.044  1.00  0.00     0.041 C 
ATOM     13  O   UNL     1      58.262  18.466  51.874  1.00  0.00    -0.550 OA
ATOM     14  O   UNL     1      59.038  18.133  49.744  1.00  0.00    -0.550 OA
ENDBRANCH  11  12
ENDBRANCH  10  11
ENDBRANCH   9  10
ENDBRANCH   8   9
ENDBRANCH   7   8
ENDBRANCH   6   7
ENDBRANCH   5   6
ENDBRANCH   4   5
ENDBRANCH   3   4
ENDBRANCH   2   3
ENDBRANCH   1   2
BRANCH   1  15
ATOM     15  C   UNL     1      59.850  28.827  52.484  1.00  0.00     0.000 C 
BRANCH  15  16
ATOM     16  C   UNL     1      59.891  27.676  53.505  1.00  0.00     0.000 C 
BRANCH  16  17
ATOM     17  C   UNL     1      58.494  27.276  54.010  1.00  0.00     0.000 C 
BRANCH  17  18
ATOM     18  C   UNL     1      58.042  25.896  53.496  1.00  0.00    -0.000 C 
BRANCH  18  19
ATOM     19  C   UNL     1      56.718  25.889  52.710  1.00  0.00    -0.000 C 
BRANCH  19  20
ATOM     20  C   UNL     1      56.723  25.038  51.426  1.00  0.00    -0.000 C 
BRANCH  20  21
ATOM     21  C   UNL     1      56.202  25.785  50.178  1.00  0.00    -0.000 C 
BRANCH  21  22
ATOM     22  C   UNL     1      54.894  25.185  49.633  1.00  0.00    -0.000 C 
BRANCH  22  23
ATOM     23  C   UNL     1      53.680  26.103  49.890  1.00  0.00    -0.000 C 
BRANCH  23  24
ATOM     24  C   UNL     1      54.057  27.577  50.110  1.00  0.00    -0.000 C 
BRANCH  24  25
ATOM     25  C   UNL     1      53.834  28.041  51.556  1.00  0.00    -0.003 C 
ATOM     26  C   UNL     1      54.697  29.256  51.883  1.00  0.00     0.004 C 
ENDBRANCH  24  25
ENDBRANCH  23  24
ENDBRANCH  22  23
ENDBRANCH  21  22
ENDBRANCH  20  21
ENDBRANCH  19  20
ENDBRANCH  18  19
ENDBRANCH  17  18
ENDBRANCH  16  17
ENDBRANCH  15  16
ENDBRANCH   1  15
TORSDOF 22
ENDMDL
MODEL 5
REMARK VINA RESULT:    -2.828      3.547      6.869
REMARK INTER + INTRA:         -11.123
REMARK INTER:                  -6.827
REMARK INTRA:                  -4.296
REMARK UNBOUND:                -4.659
REMARK SMILES CCCCCCCCCCCCCCCCCCCCCCCC(=O)[O-]
REMARK SMILES IDX 13 1 14 2 15 3 16 4 17 5 18 6 19 7 20 8 21 9 22 10 23 11
REMARK SMILES IDX 24 12 25 13 26 14 12 15 11 16 10 17 9 18 8 19 7 20 6 21 5 22
REMARK SMILES IDX 4 23 3 24 2 25 1 26
REMARK H PARENT
REMARK Flexibility Score: inf
ROOT
ATOM      1  C   UNL     1      55.200  25.130  52.125  1.00  0.00     0.000 C 
ENDROOT
BRANCH   1   2
ATOM      2  C   UNL     1      55.618  25.231  50.647  1.00  0.00     0.000 C 
BRANCH   2   3
ATOM      3  C   UNL     1      55.200  26.562  50.000  1.00  0.00     0.000 C 
BRANCH   3   4
ATOM      4  C   UNL     1      53.675  26.755  49.973  1.00  0.00     0.000 C 
BRANCH   4   5
ATOM      5  C   UNL     1      53.254  28.190  50.337  1.00  0.00     0.000 C 
BRANCH   5   6
ATOM      6  C   UNL     1      54.441  29.072  50.768  1.00  0.00     0.000 C 
BRANCH   6   7
ATOM      7  C   UNL     1      54.145  30.048  51.923  1.00  0.00     0.000 C 
BRANCH   7   8
ATOM      8  C   UNL     1      54.850  29.656  53.233  1.00  0.00     0.000 C 
BRANCH   8   9
ATOM      9  C   UNL     1      54.256  30.366  54.460  1.00  0.00     0.000 C 
BRANCH   9  10
ATOM     10  C   UNL     1      55.314  30.709  55.524  1.00  0.00     0.006 C 
BRANCH  10  11
ATOM     11  C   UNL     1      56.741  30.640  54.963  1.00  0.00     0.053 C 
BRANCH  11  12
ATOM     12  C   UNL     1      57.233  31.985  54.526  1.00  0.00     0.041 C 
ATOM     13  O   UNL     1      57.968  32.092  53.509  1.00  0.00    -0.550 OA
ATOM     14  O   UNL     1      56.922  33.116  55.272  1.00  0.00    -0.550 OA
ENDBRANCH  11  12
ENDBRANCH  10  11
ENDBRANCH   9  10
ENDBRANCH   8   9
ENDBRANCH   7   8
ENDBRANCH   6   7
ENDBRANCH   5   6
ENDBRANCH   4   5
ENDBRANCH   3   4
ENDBRANCH   2   3
ENDBRANCH   1   2
BRANCH   1  15
ATOM     15  C   UNL     1      55.879  26.142  53.072  1.00  0.00     0.000 C 
BRANCH  15  16
ATOM     16  C   UNL     1      57.418  26.158  53.025  1.00  0.00     0.000 C 
BRANCH  16  17
ATOM     17  C   UNL     1      58.025  27.352  53.780  1.00  0.00     0.000 C 
BRANCH  17  18
ATOM     18  C   UNL     1      58.838  28.290  52.868  1.00  0.00    -0.000 C 
BRANCH  18  19
ATOM     19  C   UNL     1      58.028  29.000  51.767  1.00  0.00    -0.000 C 
BRANCH  19  20
ATOM     20  C   UNL     1      58.281  28.491  50.336  1.00  0.00    -0.000 C 
BRANCH  20  21
ATOM     21  C   UNL     1      59.765  28.539  49.908  1.00  0.00    -0.000 C 
BRANCH  21  22
ATOM     22  C   UNL     1      60.329  27.147  49.573  1.00  0.00    -0.000 C 
BRANCH  22  23
ATOM     23  C   UNL     1      59.337  26.017  49.923  1.00  0.00    -0.000 C 
BRANCH  23  24
ATOM     24  C   UNL     1      60.013  24.755  50.484  1.00  0.00    -0.000 C 
BRANCH  24  25
ATOM     25  C   UNL     1      61.306  25.061  51.252  1.00  0.00    -0.003 C 
ATOM     26  C   UNL     1      61.024  25.296  52.732  1.00  0.00     0.004 C 
ENDBRANCH  24  25
ENDBRANCH  23  24
ENDBRANCH  22  23
ENDBRANCH  21  22
ENDBRANCH  20  21
ENDBRANCH  19  20
ENDBRANCH  18  19
ENDBRANCH  17  18
ENDBRANCH  16  17
ENDBRANCH  15  16
ENDBRANCH   1  15
TORSDOF 22
ENDMDL
MODEL 6
REMARK VINA RESULT:    -2.774      2.717      4.046
REMARK INTER + INTRA:         -11.000
REMARK INTER:                  -6.513
REMARK INTRA:                  -4.487
REMARK UNBOUND:                -4.659
REMARK SMILES CCCCCCCCCCCCCCCCCCCCCCCC(=O)[O-]
REMARK SMILES IDX 13 1 14 2 15 3 16 4 17 5 18 6 19 7 20 8 21 9 22 10 23 11
REMARK SMILES IDX 24 12 25 13 26 14 12 15 11 16 10 17 9 18 8 19 7 20 6 21 5 22
REMARK SMILES IDX 4 23 3 24 2 25 1 26
REMARK H PARENT
REMARK Flexibility Score: inf
ROOT
ATOM      1  C   UNL     1      59.022  25.099  53.371  1.00  0.00     0.000 C 
ENDROOT
BRANCH   1   2
ATOM      2  C   UNL     1      58.946  24.061  52.237  1.00  0.00     0.000 C 
BRANCH   2   3
ATOM      3  C   UNL     1      59.201  24.675  50.850  1.00  0.00     0.000 C 
BRANCH   3   4
ATOM      4  C   UNL     1      60.623  24.401  50.333  1.00  0.00     0.000 C 
BRANCH   4   5
ATOM      5  C   UNL     1      61.501  25.665  50.320  1.00  0.00     0.000 C 
BRANCH   5   6
ATOM      6  C   UNL     1      60.718  26.943  50.676  1.00  0.00     0.000 C 
BRANCH   6   7
ATOM      7  C   UNL     1      60.253  27.783  49.471  1.00  0.00     0.000 C 
BRANCH   7   8
ATOM      8  C   UNL     1      58.947  28.550  49.745  1.00  0.00     0.000 C 
BRANCH   8   9
ATOM      9  C   UNL     1      58.312  28.173  51.093  1.00  0.00     0.000 C 
BRANCH   9  10
ATOM     10  C   UNL     1      58.313  29.336  52.101  1.00  0.00     0.006 C 
BRANCH  10  11
ATOM     11  C   UNL     1      59.245  29.070  53.291  1.00  0.00     0.053 C 
BRANCH  11  12
ATOM     12  C   UNL     1      58.546  29.268  54.601  1.00  0.00     0.041 C 
ATOM     13  O   UNL     1      57.880  30.315  54.812  1.00  0.00    -0.550 OA
ATOM     14  O   UNL     1      58.673  28.318  55.607  1.00  0.00    -0.550 OA
ENDBRANCH  11  12
ENDBRANCH  10  11
ENDBRANCH   9  10
ENDBRANCH   8   9
ENDBRANCH   7   8
ENDBRANCH   6   7
ENDBRANCH   5   6
ENDBRANCH   4   5
ENDBRANCH   3   4
ENDBRANCH   2   3
ENDBRANCH   1   2
BRANCH   1  15
ATOM     15  C   UNL     1      57.700  25.346  54.128  1.00  0.00     0.000 C 
BRANCH  15  16
ATOM     16  C   UNL     1      56.641  26.156  53.358  1.00  0.00     0.000 C 
BRANCH  16  17
ATOM     17  C   UNL     1      55.225  25.574  53.501  1.00  0.00     0.000 C 
BRANCH  17  18
ATOM     18  C   UNL     1      54.674  25.004  52.180  1.00  0.00    -0.000 C 
BRANCH  18  19
ATOM     19  C   UNL     1      55.619  25.120  50.969  1.00  0.00    -0.000 C 
BRANCH  19  20
ATOM     20  C   UNL     1      55.289  26.261  49.988  1.00  0.00    -0.000 C 
BRANCH  20  21
ATOM     21  C   UNL     1      53.780  26.576  49.881  1.00  0.00    -0.000 C 
BRANCH  21  22
ATOM     22  C   UNL     1      53.445  28.015  50.311  1.00  0.00    -0.000 C 
BRANCH  22  23
ATOM     23  C   UNL     1      54.683  28.767  50.845  1.00  0.00    -0.000 C 
BRANCH  23  24
ATOM     24  C   UNL     1      54.337  29.932  51.788  1.00  0.00    -0.000 C 
BRANCH  24  25
ATOM     25  C   UNL     1      54.765  29.674  53.239  1.00  0.00    -0.003 C 
ATOM     26  C   UNL     1      53.736  28.821  53.973  1.00  0.00     0.004 C 
ENDBRANCH  24  25
ENDBRANCH  23  24
ENDBRANCH  22  23
ENDBRANCH  21  22
ENDBRANCH  20  21
ENDBRANCH  19  20
ENDBRANCH  18  19
ENDBRANCH  17  18
ENDBRANCH  16  17
ENDBRANCH  15  16
ENDBRANCH   1  15
TORSDOF 22
ENDMDL
MODEL 7
REMARK VINA RESULT:    -2.763      9.737     12.747
REMARK INTER + INTRA:         -10.974
REMARK INTER:                  -7.225
REMARK INTRA:                  -3.750
REMARK UNBOUND:                -4.659
REMARK SMILES CCCCCCCCCCCCCCCCCCCCCCCC(=O)[O-]
REMARK SMILES IDX 13 1 14 2 15 3 16 4 17 5 18 6 19 7 20 8 21 9 22 10 23 11
REMARK SMILES IDX 24 12 25 13 26 14 12 15 11 16 10 17 9 18 8 19 7 20 6 21 5 22
REMARK SMILES IDX 4 23 3 24 2 25 1 26
REMARK H PARENT
REMARK Flexibility Score: inf
ROOT
ATOM      1  C   UNL     1      63.991  31.279  57.907  1.00  0.00     0.000 C 
ENDROOT
BRANCH   1   2
ATOM      2  C   UNL     1      64.142  32.601  58.681  1.00  0.00     0.000 C 
BRANCH   2   3
ATOM      3  C   UNL     1      64.816  32.415  60.051  1.00  0.00     0.000 C 
BRANCH   3   4
ATOM      4  C   UNL     1      64.347  33.449  61.087  1.00  0.00     0.000 C 
BRANCH   4   5
ATOM      5  C   UNL     1      62.909  33.934  60.828  1.00  0.00     0.000 C 
BRANCH   5   6
ATOM      6  C   UNL     1      62.722  35.437  61.111  1.00  0.00     0.000 C 
BRANCH   6   7
ATOM      7  C   UNL     1      61.403  36.041  60.592  1.00  0.00     0.000 C 
BRANCH   7   8
ATOM      8  C   UNL     1      61.098  35.648  59.135  1.00  0.00     0.000 C 
BRANCH   8   9
ATOM      9  C   UNL     1      59.594  35.466  58.876  1.00  0.00     0.000 C 
BRANCH   9  10
ATOM     10  C   UNL     1      59.295  34.859  57.494  1.00  0.00     0.006 C 
BRANCH  10  11
ATOM     11  C   UNL     1      57.970  34.083  57.479  1.00  0.00     0.053 C 
BRANCH  11  12
ATOM     12  C   UNL     1      57.154  34.399  56.264  1.00  0.00     0.041 C 
ATOM     13  O   UNL     1      57.717  34.763  55.199  1.00  0.00    -0.550 OA
ATOM     14  O   UNL     1      55.767  34.340  56.323  1.00  0.00    -0.550 OA
ENDBRANCH  11  12
ENDBRANCH  10  11
ENDBRANCH   9  10
ENDBRANCH   8   9
ENDBRANCH   7   8
ENDBRANCH   6   7
ENDBRANCH   5   6
ENDBRANCH   4   5
ENDBRANCH   3   4
ENDBRANCH   2   3
ENDBRANCH   1   2
BRANCH   1  15
ATOM     15  C   UNL     1      62.571  30.676  57.904  1.00  0.00     0.000 C 
BRANCH  15  16
ATOM     16  C   UNL     1      61.423  31.696  57.794  1.00  0.00     0.000 C 
BRANCH  16  17
ATOM     17  C   UNL     1      60.562  31.764  59.066  1.00  0.00     0.000 C 
BRANCH  17  18
ATOM     18  C   UNL     1      60.704  30.514  59.956  1.00  0.00    -0.000 C 
BRANCH  18  19
ATOM     19  C   UNL     1      61.193  30.781  61.392  1.00  0.00    -0.000 C 
BRANCH  19  20
ATOM     20  C   UNL     1      62.192  29.749  61.946  1.00  0.00    -0.000 C 
BRANCH  20  21
ATOM     21  C   UNL     1      62.271  28.447  61.117  1.00  0.00    -0.000 C 
BRANCH  21  22
ATOM     22  C   UNL     1      63.669  28.212  60.519  1.00  0.00    -0.000 C 
BRANCH  22  23
ATOM     23  C   UNL     1      64.741  29.113  61.169  1.00  0.00    -0.000 C 
BRANCH  23  24
ATOM     24  C   UNL     1      66.109  29.044  60.471  1.00  0.00    -0.000 C 
BRANCH  24  25
ATOM     25  C   UNL     1      67.068  28.046  61.134  1.00  0.00    -0.003 C 
ATOM     26  C   UNL     1      66.941  26.661  60.507  1.00  0.00     0.004 C 
ENDBRANCH  24  25
ENDBRANCH  23  24
ENDBRANCH  22  23
ENDBRANCH  21  22
ENDBRANCH  20  21
ENDBRANCH  19  20
ENDBRANCH  18  19
ENDBRANCH  17  18
ENDBRANCH  16  17
ENDBRANCH  15  16
ENDBRANCH   1  15
TORSDOF 22
ENDMDL
MODEL 8
REMARK VINA RESULT:    -2.745      3.171      5.843
REMARK INTER + INTRA:         -10.933
REMARK INTER:                  -7.408
REMARK INTRA:                  -3.525
REMARK UNBOUND:                -4.659
REMARK SMILES CCCCCCCCCCCCCCCCCCCCCCCC(=O)[O-]
REMARK SMILES IDX 13 1 14 2 15 3 16 4 17 5 18 6 19 7 20 8 21 9 22 10 23 11
REMARK SMILES IDX 24 12 25 13 26 14 12 15 11 16 10 17 9 18 8 19 7 20 6 21 5 22
REMARK SMILES IDX 4 23 3 24 2 25 1 26
REMARK H PARENT
REMARK Flexibility Score: inf
ROOT
ATOM      1  C   UNL     1      61.163  24.548  53.627  1.00  0.00     0.000 C 
ENDROOT
BRANCH   1   2
ATOM      2  C   UNL     1      62.628  25.012  53.526  1.00  0.00     0.000 C 
BRANCH   2   3
ATOM      3  C   UNL     1      63.583  23.878  53.114  1.00  0.00     0.000 C 
BRANCH   3   4
ATOM      4  C   UNL     1      63.664  23.696  51.590  1.00  0.00     0.000 C 
BRANCH   4   5
ATOM      5  C   UNL     1      63.383  22.248  51.152  1.00  0.00     0.000 C 
BRANCH   5   6
ATOM      6  C   UNL     1      61.949  22.047  50.628  1.00  0.00     0.000 C 
BRANCH   6   7
ATOM      7  C   UNL     1      60.954  21.464  51.650  1.00  0.00     0.000 C 
BRANCH   7   8
ATOM      8  C   UNL     1      61.553  20.313  52.478  1.00  0.00     0.000 C 
BRANCH   8   9
ATOM      9  C   UNL     1      60.970  18.943  52.093  1.00  0.00     0.000 C 
BRANCH   9  10
ATOM     10  C   UNL     1      59.448  18.982  51.870  1.00  0.00     0.006 C 
BRANCH  10  11
ATOM     11  C   UNL     1      59.057  18.492  50.469  1.00  0.00     0.053 C 
BRANCH  11  12
ATOM     12  C   UNL     1      57.954  17.480  50.520  1.00  0.00     0.041 C 
ATOM     13  O   UNL     1      58.223  16.251  50.564  1.00  0.00    -0.550 OA
ATOM     14  O   UNL     1      56.629  17.894  50.469  1.00  0.00    -0.550 OA
ENDBRANCH  11  12
ENDBRANCH  10  11
ENDBRANCH   9  10
ENDBRANCH   8   9
ENDBRANCH   7   8
ENDBRANCH   6   7
ENDBRANCH   5   6
ENDBRANCH   4   5
ENDBRANCH   3   4
ENDBRANCH   2   3
ENDBRANCH   1   2
BRANCH   1  15
ATOM     15  C   UNL     1      60.149  25.391  52.827  1.00  0.00     0.000 C 
BRANCH  15  16
ATOM     16  C   UNL     1      59.273  24.603  51.836  1.00  0.00     0.000 C 
BRANCH  16  17
ATOM     17  C   UNL     1      59.648  24.869  50.367  1.00  0.00     0.000 C 
BRANCH  17  18
ATOM     18  C   UNL     1      60.910  25.738  50.217  1.00  0.00    -0.000 C 
BRANCH  18  19
ATOM     19  C   UNL     1      60.678  27.134  49.608  1.00  0.00    -0.000 C 
BRANCH  19  20
ATOM     20  C   UNL     1      59.202  27.555  49.480  1.00  0.00    -0.000 C 
BRANCH  20  21
ATOM     21  C   UNL     1      58.854  28.857  50.236  1.00  0.00    -0.000 C 
BRANCH  21  22
ATOM     22  C   UNL     1      58.145  28.591  51.575  1.00  0.00    -0.000 C 
BRANCH  22  23
ATOM     23  C   UNL     1      57.098  27.462  51.466  1.00  0.00    -0.000 C 
BRANCH  23  24
ATOM     24  C   UNL     1      55.787  27.899  50.793  1.00  0.00    -0.000 C 
BRANCH  24  25
ATOM     25  C   UNL     1      54.935  26.715  50.318  1.00  0.00    -0.003 C 
ATOM     26  C   UNL     1      55.810  25.527  49.933  1.00  0.00     0.004 C 
ENDBRANCH  24  25
ENDBRANCH  23  24
ENDBRANCH  22  23
ENDBRANCH  21  22
ENDBRANCH  20  21
ENDBRANCH  19  20
ENDBRANCH  18  19
ENDBRANCH  17  18
ENDBRANCH  16  17
ENDBRANCH  15  16
ENDBRANCH   1  15
TORSDOF 22
ENDMDL
MODEL 9
REMARK VINA RESULT:    -2.720      2.324      5.815
REMARK INTER + INTRA:         -10.876
REMARK INTER:                  -6.104
REMARK INTRA:                  -4.772
REMARK UNBOUND:                -4.659
REMARK SMILES CCCCCCCCCCCCCCCCCCCCCCCC(=O)[O-]
REMARK SMILES IDX 13 1 14 2 15 3 16 4 17 5 18 6 19 7 20 8 21 9 22 10 23 11
REMARK SMILES IDX 24 12 25 13 26 14 12 15 11 16 10 17 9 18 8 19 7 20 6 21 5 22
REMARK SMILES IDX 4 23 3 24 2 25 1 26
REMARK H PARENT
REMARK Flexibility Score: inf
ROOT
ATOM      1  C   UNL     1      57.434  29.211  53.759  1.00  0.00     0.000 C 
ENDROOT
BRANCH   1   2
ATOM      2  C   UNL     1      56.009  29.725  53.482  1.00  0.00     0.000 C 
BRANCH   2   3
ATOM      3  C   UNL     1      55.099  28.650  52.864  1.00  0.00     0.000 C 
BRANCH   3   4
ATOM      4  C   UNL     1      54.538  29.065  51.494  1.00  0.00     0.000 C 
BRANCH   4   5
ATOM      5  C   UNL     1      54.976  28.115  50.364  1.00  0.00     0.000 C 
BRANCH   5   6
ATOM      6  C   UNL     1      54.094  26.856  50.264  1.00  0.00     0.000 C 
BRANCH   6   7
ATOM      7  C   UNL     1      54.860  25.519  50.276  1.00  0.00     0.000 C 
BRANCH   7   8
ATOM      8  C   UNL     1      56.386  25.703  50.196  1.00  0.00     0.000 C 
BRANCH   8   9
ATOM      9  C   UNL     1      57.122  25.045  51.374  1.00  0.00     0.000 C 
BRANCH   9  10
ATOM     10  C   UNL     1      56.459  25.338  52.732  1.00  0.00     0.006 C 
BRANCH  10  11
ATOM     11  C   UNL     1      55.980  24.057  53.429  1.00  0.00     0.053 C 
BRANCH  11  12
ATOM     12  C   UNL     1      57.084  23.391  54.191  1.00  0.00     0.041 C 
ATOM     13  O   UNL     1      57.569  22.303  53.782  1.00  0.00    -0.550 OA
ATOM     14  O   UNL     1      57.542  23.945  55.380  1.00  0.00    -0.550 OA
ENDBRANCH  11  12
ENDBRANCH  10  11
ENDBRANCH   9  10
ENDBRANCH   8   9
ENDBRANCH   7   8
ENDBRANCH   6   7
ENDBRANCH   5   6
ENDBRANCH   4   5
ENDBRANCH   3   4
ENDBRANCH   2   3
ENDBRANCH   1   2
BRANCH   1  15
ATOM     15  C   UNL     1      58.454  29.458  52.628  1.00  0.00     0.000 C 
BRANCH  15  16
ATOM     16  C   UNL     1      58.667  28.278  51.663  1.00  0.00     0.000 C 
BRANCH  16  17
ATOM     17  C   UNL     1      58.596  28.697  50.185  1.00  0.00     0.000 C 
BRANCH  17  18
ATOM     18  C   UNL     1      59.708  28.063  49.327  1.00  0.00    -0.000 C 
BRANCH  18  19
ATOM     19  C   UNL     1      60.052  26.602  49.672  1.00  0.00    -0.000 C 
BRANCH  19  20
ATOM     20  C   UNL     1      61.518  26.352  50.071  1.00  0.00    -0.000 C 
BRANCH  20  21
ATOM     21  C   UNL     1      62.281  27.630  50.487  1.00  0.00    -0.000 C 
BRANCH  21  22
ATOM     22  C   UNL     1      62.248  27.869  52.007  1.00  0.00    -0.000 C 
BRANCH  22  23
ATOM     23  C   UNL     1      62.389  26.556  52.807  1.00  0.00    -0.000 C 
BRANCH  23  24
ATOM     24  C   UNL     1      61.353  26.407  53.934  1.00  0.00    -0.000 C 
BRANCH  24  25
ATOM     25  C   UNL     1      60.113  25.612  53.505  1.00  0.00    -0.003 C 
ATOM     26  C   UNL     1      60.501  24.250  52.939  1.00  0.00     0.004 C 
ENDBRANCH  24  25
ENDBRANCH  23  24
ENDBRANCH  22  23
ENDBRANCH  21  22
ENDBRANCH  20  21
ENDBRANCH  19  20
ENDBRANCH  18  19
ENDBRANCH  17  18
ENDBRANCH  16  17
ENDBRANCH  15  16
ENDBRANCH   1  15
TORSDOF 22
ENDMDL
