MODEL 1
REMARK VINA RESULT:    -7.551      0.000      0.000
REMARK INTER + INTRA:         -12.356
REMARK INTER:                 -10.862
REMARK INTRA:                  -1.494
REMARK UNBOUND:                -1.494
REMARK SMILES O=c1c(O[C@H]2O[C@@H](CO)[C@@H](O)[C@@H](O)[C@H]2O)c(-c2ccc(O)cc2)oc2cc(O)cc(O)c12
REMARK SMILES IDX 4 1 3 2 16 3 24 4 2 5 25 6 1 7 32 8 26 9 30 10 27 11 29 12
REMARK SMILES IDX 17 13 18 14 19 15 20 16 23 17 22 18 21 19 31 21 28 23 5 25
REMARK SMILES IDX 14 26 6 27 12 28 7 29 10 30 15 31 13 33 8 35 9 36 11 38
REMARK H PARENT 21 20 31 22 28 24 15 32 13 34 9 37 11 39
REMARK Flexibility Score: inf
ROOT
ATOM      1  O   UNL     1       1.370 -24.250  27.673  1.00  0.00    -0.454 OA
ENDROOT
BRANCH   1   2
ATOM      2  C   UNL     1       0.869 -23.120  26.995  1.00  0.00     0.214 A 
ATOM      3  C   UNL     1      -0.088 -22.320  27.658  1.00  0.00     0.180 A 
ATOM      4  O   UNL     1      -0.652 -21.294  27.030  1.00  0.00    -0.452 OA
ATOM      5  C   UNL     1       1.237 -22.766  25.676  1.00  0.00     0.239 A 
ATOM      6  C   UNL     1      -0.350 -20.942  25.789  1.00  0.00     0.146 A 
ATOM      7  O   UNL     1       2.103 -23.438  25.052  1.00  0.00    -0.285 OA
ATOM      8  C   UNL     1       0.621 -21.660  25.052  1.00  0.00     0.111 A 
ATOM      9  C   UNL     1      -1.000 -19.843  25.219  1.00  0.00     0.094 A 
ATOM     10  C   UNL     1       0.921 -21.251  23.730  1.00  0.00     0.134 A 
ATOM     11  C   UNL     1      -0.701 -19.445  23.913  1.00  0.00     0.123 A 
ATOM     12  C   UNL     1       0.253 -20.149  23.173  1.00  0.00     0.093 A 
BRANCH   3  13
ATOM     13  C   UNL     1      -0.492 -22.581  29.058  1.00  0.00     0.021 A 
ATOM     14  C   UNL     1      -1.537 -23.474  29.360  1.00  0.00     0.016 A 
ATOM     15  C   UNL     1      -1.883 -23.737  30.689  1.00  0.00     0.047 A 
ATOM     16  C   UNL     1      -1.173 -23.130  31.734  1.00  0.00     0.115 A 
ATOM     17  C   UNL     1       0.224 -21.989  30.112  1.00  0.00     0.016 A 
ATOM     18  C   UNL     1      -0.119 -22.259  31.442  1.00  0.00     0.047 A 
BRANCH  16  19
ATOM     19  O   UNL     1      -1.501 -23.392  33.064  1.00  0.00    -0.508 OA
ATOM     20  H   UNL     1      -1.835 -22.659  33.680  1.00  0.00     0.293 HD
ENDBRANCH  16  19
ENDBRANCH   3  13
BRANCH  10  21
ATOM     21  O   UNL     1       1.873 -21.929  22.964  1.00  0.00    -0.507 OA
ATOM     22  H   UNL     1       2.684 -22.366  23.385  1.00  0.00     0.293 HD
ENDBRANCH  10  21
BRANCH  11  23
ATOM     23  O   UNL     1      -1.343 -18.349  23.341  1.00  0.00    -0.508 OA
ATOM     24  H   UNL     1      -1.959 -17.752  23.883  1.00  0.00     0.293 HD
ENDBRANCH  11  23
ENDBRANCH   1   2
BRANCH   1  25
ATOM     25  C   UNL     1       2.711 -24.471  28.113  1.00  0.00     0.339 C 
ATOM     26  C   UNL     1       3.271 -25.784  27.480  1.00  0.00     0.214 C 
ATOM     27  O   UNL     1       2.717 -24.509  29.537  1.00  0.00    -0.332 OA
ATOM     28  C   UNL     1       3.277 -26.941  28.505  1.00  0.00     0.180 C 
ATOM     29  C   UNL     1       3.956 -24.989  30.024  1.00  0.00     0.179 C 
ATOM     30  C   UNL     1       4.074 -26.522  29.768  1.00  0.00     0.177 C 
BRANCH  26  31
ATOM     31  O   UNL     1       2.611 -26.135  26.284  1.00  0.00    -0.384 OA
ATOM     32  H   UNL     1       1.635 -26.196  26.472  1.00  0.00     0.211 HD
ENDBRANCH  26  31
BRANCH  28  33
ATOM     33  O   UNL     1       1.957 -27.278  28.864  1.00  0.00    -0.387 OA
ATOM     34  H   UNL     1       1.525 -26.448  29.196  1.00  0.00     0.211 HD
ENDBRANCH  28  33
BRANCH  29  35
ATOM     35  C   UNL     1       4.089 -24.610  31.507  1.00  0.00     0.191 C 
BRANCH  35  36
ATOM     36  O   UNL     1       3.003 -23.821  31.918  1.00  0.00    -0.394 OA
ATOM     37  H   UNL     1       2.445 -23.657  31.111  1.00  0.00     0.210 HD
ENDBRANCH  35  36
ENDBRANCH  29  35
BRANCH  30  38
ATOM     38  O   UNL     1       3.628 -27.262  30.879  1.00  0.00    -0.387 OA
ATOM     39  H   UNL     1       4.429 -27.702  31.270  1.00  0.00     0.211 HD
ENDBRANCH  30  38
ENDBRANCH   1  25
TORSDOF 11
ENDMDL
MODEL 2
REMARK VINA RESULT:    -7.238      6.938     10.251
REMARK INTER + INTRA:         -11.905
REMARK INTER:                 -10.563
REMARK INTRA:                  -1.342
REMARK UNBOUND:                -1.494
REMARK SMILES O=c1c(O[C@H]2O[C@@H](CO)[C@@H](O)[C@@H](O)[C@H]2O)c(-c2ccc(O)cc2)oc2cc(O)cc(O)c12
REMARK SMILES IDX 4 1 3 2 16 3 24 4 2 5 25 6 1 7 32 8 26 9 30 10 27 11 29 12
REMARK SMILES IDX 17 13 18 14 19 15 20 16 23 17 22 18 21 19 31 21 28 23 5 25
REMARK SMILES IDX 14 26 6 27 12 28 7 29 10 30 15 31 13 33 8 35 9 36 11 38
REMARK H PARENT 21 20 31 22 28 24 15 32 13 34 9 37 11 39
REMARK Flexibility Score: inf
ROOT
ATOM      1  O   UNL     1      -1.182 -14.311  28.326  1.00  0.00    -0.454 OA
ENDROOT
BRANCH   1   2
ATOM      2  C   UNL     1      -2.482 -14.329  28.870  1.00  0.00     0.214 A 
ATOM      3  C   UNL     1      -2.615 -14.513  30.264  1.00  0.00     0.180 A 
ATOM      4  O   UNL     1      -3.820 -14.621  30.813  1.00  0.00    -0.452 OA
ATOM      5  C   UNL     1      -3.662 -14.213  28.097  1.00  0.00     0.239 A 
ATOM      6  C   UNL     1      -4.947 -14.539  30.122  1.00  0.00     0.146 A 
ATOM      7  O   UNL     1      -3.594 -14.027  26.852  1.00  0.00    -0.285 OA
ATOM      8  C   UNL     1      -4.921 -14.322  28.724  1.00  0.00     0.111 A 
ATOM      9  C   UNL     1      -6.166 -14.664  30.796  1.00  0.00     0.094 A 
ATOM     10  C   UNL     1      -6.147 -14.235  28.020  1.00  0.00     0.134 A 
ATOM     11  C   UNL     1      -7.373 -14.579  30.095  1.00  0.00     0.123 A 
ATOM     12  C   UNL     1      -7.360 -14.369  28.713  1.00  0.00     0.093 A 
BRANCH   3  13
ATOM     13  C   UNL     1      -1.438 -14.587  31.159  1.00  0.00     0.021 A 
ATOM     14  C   UNL     1      -1.060 -13.491  31.958  1.00  0.00     0.016 A 
ATOM     15  C   UNL     1       0.034 -13.589  32.824  1.00  0.00     0.047 A 
ATOM     16  C   UNL     1       0.749 -14.790  32.920  1.00  0.00     0.115 A 
ATOM     17  C   UNL     1      -0.725 -15.792  31.274  1.00  0.00     0.016 A 
ATOM     18  C   UNL     1       0.366 -15.890  32.146  1.00  0.00     0.047 A 
BRANCH  16  19
ATOM     19  O   UNL     1       1.835 -14.905  33.788  1.00  0.00    -0.508 OA
ATOM     20  H   UNL     1       2.543 -14.180  33.846  1.00  0.00     0.293 HD
ENDBRANCH  16  19
ENDBRANCH   3  13
BRANCH  10  21
ATOM     21  O   UNL     1      -6.171 -14.020  26.639  1.00  0.00    -0.507 OA
ATOM     22  H   UNL     1      -6.192 -14.788  25.980  1.00  0.00     0.293 HD
ENDBRANCH  10  21
BRANCH  11  23
ATOM     23  O   UNL     1      -8.590 -14.699  30.761  1.00  0.00    -0.508 OA
ATOM     24  H   UNL     1      -9.322 -14.004  30.659  1.00  0.00     0.293 HD
ENDBRANCH  11  23
ENDBRANCH   1   2
BRANCH   1  25
ATOM     25  C   UNL     1      -0.474 -15.407  27.743  1.00  0.00     0.339 C 
ATOM     26  C   UNL     1       0.383 -14.907  26.537  1.00  0.00     0.214 C 
ATOM     27  O   UNL     1      -1.418 -16.403  27.362  1.00  0.00    -0.332 OA
ATOM     28  C   UNL     1      -0.282 -15.271  25.190  1.00  0.00     0.180 C 
ATOM     29  C   UNL     1      -0.815 -17.384  26.542  1.00  0.00     0.179 C 
ATOM     30  C   UNL     1      -0.535 -16.800  25.124  1.00  0.00     0.177 C 
BRANCH  26  31
ATOM     31  O   UNL     1       0.693 -13.533  26.623  1.00  0.00    -0.384 OA
ATOM     32  H   UNL     1       1.588 -13.388  26.214  1.00  0.00     0.211 HD
ENDBRANCH  26  31
BRANCH  28  33
ATOM     33  O   UNL     1      -1.500 -14.578  25.046  1.00  0.00    -0.387 OA
ATOM     34  H   UNL     1      -1.424 -14.027  24.224  1.00  0.00     0.211 HD
ENDBRANCH  28  33
BRANCH  29  35
ATOM     35  C   UNL     1      -1.709 -18.633  26.518  1.00  0.00     0.191 C 
BRANCH  35  36
ATOM     36  O   UNL     1      -2.659 -18.584  27.550  1.00  0.00    -0.394 OA
ATOM     37  H   UNL     1      -2.586 -17.683  27.966  1.00  0.00     0.210 HD
ENDBRANCH  35  36
ENDBRANCH  29  35
BRANCH  30  38
ATOM     38  O   UNL     1      -1.600 -17.068  24.242  1.00  0.00    -0.387 OA
ATOM     39  H   UNL     1      -2.264 -17.605  24.751  1.00  0.00     0.211 HD
ENDBRANCH  30  38
ENDBRANCH   1  25
TORSDOF 11
ENDMDL
MODEL 3
REMARK VINA RESULT:    -7.071      6.632     11.140
REMARK INTER + INTRA:         -11.666
REMARK INTER:                 -10.212
REMARK INTRA:                  -1.455
REMARK UNBOUND:                -1.494
REMARK SMILES O=c1c(O[C@H]2O[C@@H](CO)[C@@H](O)[C@@H](O)[C@H]2O)c(-c2ccc(O)cc2)oc2cc(O)cc(O)c12
REMARK SMILES IDX 4 1 3 2 16 3 24 4 2 5 25 6 1 7 32 8 26 9 30 10 27 11 29 12
REMARK SMILES IDX 17 13 18 14 19 15 20 16 23 17 22 18 21 19 31 21 28 23 5 25
REMARK SMILES IDX 14 26 6 27 12 28 7 29 10 30 15 31 13 33 8 35 9 36 11 38
REMARK H PARENT 21 20 31 22 28 24 15 32 13 34 9 37 11 39
REMARK Flexibility Score: inf
ROOT
ATOM      1  O   UNL     1      -1.678 -14.185  28.481  1.00  0.00    -0.454 OA
ENDROOT
BRANCH   1   2
ATOM      2  C   UNL     1      -1.411 -15.139  27.478  1.00  0.00     0.214 A 
ATOM      3  C   UNL     1      -0.849 -14.685  26.265  1.00  0.00     0.180 A 
ATOM      4  O   UNL     1      -0.657 -15.530  25.258  1.00  0.00    -0.452 OA
ATOM      5  C   UNL     1      -1.711 -16.516  27.601  1.00  0.00     0.239 A 
ATOM      6  C   UNL     1      -0.943 -16.822  25.326  1.00  0.00     0.146 A 
ATOM      7  O   UNL     1      -2.194 -16.972  28.673  1.00  0.00    -0.285 OA
ATOM      8  C   UNL     1      -1.479 -17.381  26.510  1.00  0.00     0.111 A 
ATOM      9  C   UNL     1      -0.702 -17.630  24.210  1.00  0.00     0.094 A 
ATOM     10  C   UNL     1      -1.768 -18.767  26.546  1.00  0.00     0.134 A 
ATOM     11  C   UNL     1      -0.990 -18.997  24.251  1.00  0.00     0.123 A 
ATOM     12  C   UNL     1      -1.523 -19.559  25.413  1.00  0.00     0.093 A 
BRANCH   3  13
ATOM     13  C   UNL     1      -0.451 -13.272  26.067  1.00  0.00     0.021 A 
ATOM     14  C   UNL     1       0.902 -12.886  26.096  1.00  0.00     0.016 A 
ATOM     15  C   UNL     1       1.263 -11.553  25.873  1.00  0.00     0.047 A 
ATOM     16  C   UNL     1       0.280 -10.595  25.593  1.00  0.00     0.115 A 
ATOM     17  C   UNL     1      -1.429 -12.308  25.770  1.00  0.00     0.016 A 
ATOM     18  C   UNL     1      -1.065 -10.976  25.540  1.00  0.00     0.047 A 
BRANCH  16  19
ATOM     19  O   UNL     1       0.628  -9.265  25.358  1.00  0.00    -0.508 OA
ATOM     20  H   UNL     1       1.393  -8.823  25.856  1.00  0.00     0.293 HD
ENDBRANCH  16  19
ENDBRANCH   3  13
BRANCH  10  21
ATOM     21  O   UNL     1      -2.296 -19.363  27.694  1.00  0.00    -0.507 OA
ATOM     22  H   UNL     1      -1.791 -19.375  28.571  1.00  0.00     0.293 HD
ENDBRANCH  10  21
BRANCH  11  23
ATOM     23  O   UNL     1      -0.748 -19.806  23.143  1.00  0.00    -0.508 OA
ATOM     24  H   UNL     1       0.086 -20.381  23.078  1.00  0.00     0.293 HD
ENDBRANCH  11  23
ENDBRANCH   1   2
BRANCH   1  25
ATOM     25  C   UNL     1      -2.884 -13.442  28.669  1.00  0.00     0.339 C 
ATOM     26  C   UNL     1      -3.129 -13.200  30.193  1.00  0.00     0.214 C 
ATOM     27  O   UNL     1      -3.953 -14.154  28.054  1.00  0.00    -0.332 OA
ATOM     28  C   UNL     1      -4.220 -14.148  30.741  1.00  0.00     0.180 C 
ATOM     29  C   UNL     1      -5.204 -13.615  28.434  1.00  0.00     0.179 C 
ATOM     30  C   UNL     1      -5.522 -13.988  29.913  1.00  0.00     0.177 C 
BRANCH  26  31
ATOM     31  O   UNL     1      -1.941 -13.260  30.950  1.00  0.00    -0.384 OA
ATOM     32  H   UNL     1      -1.263 -13.769  30.429  1.00  0.00     0.211 HD
ENDBRANCH  26  31
BRANCH  28  33
ATOM     33  O   UNL     1      -3.777 -15.484  30.681  1.00  0.00    -0.387 OA
ATOM     34  H   UNL     1      -3.237 -15.574  29.853  1.00  0.00     0.211 HD
ENDBRANCH  28  33
BRANCH  29  35
ATOM     35  C   UNL     1      -6.276 -14.097  27.444  1.00  0.00     0.191 C 
BRANCH  35  36
ATOM     36  O   UNL     1      -7.557 -13.720  27.875  1.00  0.00    -0.394 OA
ATOM     37  H   UNL     1      -7.983 -14.534  28.258  1.00  0.00     0.210 HD
ENDBRANCH  35  36
ENDBRANCH  29  35
BRANCH  30  38
ATOM     38  O   UNL     1      -6.283 -15.170  29.990  1.00  0.00    -0.387 OA
ATOM     39  H   UNL     1      -7.225 -14.916  29.799  1.00  0.00     0.211 HD
ENDBRANCH  30  38
ENDBRANCH   1  25
TORSDOF 11
ENDMDL
MODEL 4
REMARK VINA RESULT:    -6.984      7.493     11.467
REMARK INTER + INTRA:         -11.541
REMARK INTER:                 -10.186
REMARK INTRA:                  -1.355
REMARK UNBOUND:                -1.494
REMARK SMILES O=c1c(O[C@H]2O[C@@H](CO)[C@@H](O)[C@@H](O)[C@H]2O)c(-c2ccc(O)cc2)oc2cc(O)cc(O)c12
REMARK SMILES IDX 4 1 3 2 16 3 24 4 2 5 25 6 1 7 32 8 26 9 30 10 27 11 29 12
REMARK SMILES IDX 17 13 18 14 19 15 20 16 23 17 22 18 21 19 31 21 28 23 5 25
REMARK SMILES IDX 14 26 6 27 12 28 7 29 10 30 15 31 13 33 8 35 9 36 11 38
REMARK H PARENT 21 20 31 22 28 24 15 32 13 34 9 37 11 39
REMARK Flexibility Score: inf
ROOT
ATOM      1  O   UNL     1      -2.203 -14.249  26.492  1.00  0.00    -0.454 OA
ENDROOT
BRANCH   1   2
ATOM      2  C   UNL     1      -2.864 -13.607  27.559  1.00  0.00     0.214 A 
ATOM      3  C   UNL     1      -2.290 -12.426  28.079  1.00  0.00     0.180 A 
ATOM      4  O   UNL     1      -2.828 -11.831  29.138  1.00  0.00    -0.452 OA
ATOM      5  C   UNL     1      -4.044 -14.100  28.165  1.00  0.00     0.239 A 
ATOM      6  C   UNL     1      -3.920 -12.271  29.746  1.00  0.00     0.146 A 
ATOM      7  O   UNL     1      -4.604 -15.139  27.722  1.00  0.00    -0.285 OA
ATOM      8  C   UNL     1      -4.587 -13.428  29.281  1.00  0.00     0.111 A 
ATOM      9  C   UNL     1      -4.408 -11.571  30.854  1.00  0.00     0.094 A 
ATOM     10  C   UNL     1      -5.754 -13.866  29.954  1.00  0.00     0.134 A 
ATOM     11  C   UNL     1      -5.559 -12.008  31.515  1.00  0.00     0.123 A 
ATOM     12  C   UNL     1      -6.225 -13.152  31.067  1.00  0.00     0.093 A 
BRANCH   3  13
ATOM     13  C   UNL     1      -1.089 -11.807  27.474  1.00  0.00     0.021 A 
ATOM     14  C   UNL     1       0.202 -12.112  27.943  1.00  0.00     0.016 A 
ATOM     15  C   UNL     1       1.329 -11.547  27.337  1.00  0.00     0.047 A 
ATOM     16  C   UNL     1       1.180 -10.688  26.240  1.00  0.00     0.115 A 
ATOM     17  C   UNL     1      -1.227 -10.958  26.363  1.00  0.00     0.016 A 
ATOM     18  C   UNL     1      -0.098 -10.398  25.754  1.00  0.00     0.047 A 
BRANCH  16  19
ATOM     19  O   UNL     1       2.296 -10.126  25.620  1.00  0.00    -0.508 OA
ATOM     20  H   UNL     1       2.277  -9.857  24.642  1.00  0.00     0.293 HD
ENDBRANCH  16  19
ENDBRANCH   3  13
BRANCH  10  21
ATOM     21  O   UNL     1      -6.448 -15.001  29.530  1.00  0.00    -0.507 OA
ATOM     22  H   UNL     1      -6.846 -15.069  28.601  1.00  0.00     0.293 HD
ENDBRANCH  10  21
BRANCH  11  23
ATOM     23  O   UNL     1      -6.052 -11.312  32.617  1.00  0.00    -0.508 OA
ATOM     24  H   UNL     1      -6.342 -10.342  32.546  1.00  0.00     0.293 HD
ENDBRANCH  11  23
ENDBRANCH   1   2
BRANCH   1  25
ATOM     25  C   UNL     1      -1.222 -15.284  26.579  1.00  0.00     0.339 C 
ATOM     26  C   UNL     1      -0.287 -15.240  25.329  1.00  0.00     0.214 C 
ATOM     27  O   UNL     1      -1.895 -16.533  26.709  1.00  0.00    -0.332 OA
ATOM     28  C   UNL     1      -0.647 -16.355  24.322  1.00  0.00     0.180 C 
ATOM     29  C   UNL     1      -0.997 -17.612  26.530  1.00  0.00     0.179 C 
ATOM     30  C   UNL     1      -0.604 -17.736  25.027  1.00  0.00     0.177 C 
BRANCH  26  31
ATOM     31  O   UNL     1      -0.251 -13.966  24.723  1.00  0.00    -0.384 OA
ATOM     32  H   UNL     1       0.701 -13.689  24.636  1.00  0.00     0.211 HD
ENDBRANCH  26  31
BRANCH  28  33
ATOM     33  O   UNL     1      -1.931 -16.132  23.788  1.00  0.00    -0.387 OA
ATOM     34  H   UNL     1      -1.891 -16.373  22.825  1.00  0.00     0.211 HD
ENDBRANCH  28  33
BRANCH  29  35
ATOM     35  C   UNL     1      -1.633 -18.889  27.098  1.00  0.00     0.191 C 
BRANCH  35  36
ATOM     36  O   UNL     1      -2.898 -18.616  27.642  1.00  0.00    -0.394 OA
ATOM     37  H   UNL     1      -2.907 -19.006  28.558  1.00  0.00     0.210 HD
ENDBRANCH  35  36
ENDBRANCH  29  35
BRANCH  30  38
ATOM     38  O   UNL     1      -1.444 -18.642  24.352  1.00  0.00    -0.387 OA
ATOM     39  H   UNL     1      -1.476 -18.348  23.402  1.00  0.00     0.211 HD
ENDBRANCH  30  38
ENDBRANCH   1  25
TORSDOF 11
ENDMDL
MODEL 5
REMARK VINA RESULT:    -6.915      9.405     12.335
REMARK INTER + INTRA:         -11.442
REMARK INTER:                  -9.732
REMARK INTRA:                  -1.709
REMARK UNBOUND:                -1.494
REMARK SMILES O=c1c(O[C@H]2O[C@@H](CO)[C@@H](O)[C@@H](O)[C@H]2O)c(-c2ccc(O)cc2)oc2cc(O)cc(O)c12
REMARK SMILES IDX 4 1 3 2 16 3 24 4 2 5 25 6 1 7 32 8 26 9 30 10 27 11 29 12
REMARK SMILES IDX 17 13 18 14 19 15 20 16 23 17 22 18 21 19 31 21 28 23 5 25
REMARK SMILES IDX 14 26 6 27 12 28 7 29 10 30 15 31 13 33 8 35 9 36 11 38
REMARK H PARENT 21 20 31 22 28 24 15 32 13 34 9 37 11 39
REMARK Flexibility Score: inf
ROOT
ATOM      1  O   UNL     1      -1.762 -14.082  29.504  1.00  0.00    -0.454 OA
ENDROOT
BRANCH   1   2
ATOM      2  C   UNL     1      -3.050 -14.256  28.958  1.00  0.00     0.214 A 
ATOM      3  C   UNL     1      -3.179 -14.263  27.552  1.00  0.00     0.180 A 
ATOM      4  O   UNL     1      -4.380 -14.339  26.990  1.00  0.00    -0.452 OA
ATOM      5  C   UNL     1      -4.225 -14.384  29.736  1.00  0.00     0.239 A 
ATOM      6  C   UNL     1      -5.505 -14.439  27.682  1.00  0.00     0.146 A 
ATOM      7  O   UNL     1      -4.159 -14.405  30.995  1.00  0.00    -0.285 OA
ATOM      8  C   UNL     1      -5.480 -14.474  29.096  1.00  0.00     0.111 A 
ATOM      9  C   UNL     1      -6.720 -14.515  26.995  1.00  0.00     0.094 A 
ATOM     10  C   UNL     1      -6.702 -14.586  29.803  1.00  0.00     0.134 A 
ATOM     11  C   UNL     1      -7.924 -14.624  27.697  1.00  0.00     0.123 A 
ATOM     12  C   UNL     1      -7.912 -14.656  29.094  1.00  0.00     0.093 A 
BRANCH   3  13
ATOM     13  C   UNL     1      -2.000 -14.192  26.658  1.00  0.00     0.021 A 
ATOM     14  C   UNL     1      -1.381 -15.360  26.175  1.00  0.00     0.016 A 
ATOM     15  C   UNL     1      -0.290 -15.275  25.304  1.00  0.00     0.047 A 
ATOM     16  C   UNL     1       0.180 -14.024  24.886  1.00  0.00     0.115 A 
ATOM     17  C   UNL     1      -1.531 -12.942  26.222  1.00  0.00     0.016 A 
ATOM     18  C   UNL     1      -0.443 -12.859  25.344  1.00  0.00     0.047 A 
BRANCH  16  19
ATOM     19  O   UNL     1       1.260 -13.926  24.008  1.00  0.00    -0.508 OA
ATOM     20  H   UNL     1       1.955 -14.662  23.941  1.00  0.00     0.293 HD
ENDBRANCH  16  19
ENDBRANCH   3  13
BRANCH  10  21
ATOM     21  O   UNL     1      -6.727 -14.627  31.199  1.00  0.00    -0.507 OA
ATOM     22  H   UNL     1      -5.877 -14.606  31.749  1.00  0.00     0.293 HD
ENDBRANCH  10  21
BRANCH  11  23
ATOM     23  O   UNL     1      -9.137 -14.704  27.017  1.00  0.00    -0.508 OA
ATOM     24  H   UNL     1      -9.997 -14.348  27.421  1.00  0.00     0.293 HD
ENDBRANCH  11  23
ENDBRANCH   1   2
BRANCH   1  25
ATOM     25  C   UNL     1      -1.125 -12.849  29.842  1.00  0.00     0.339 C 
ATOM     26  C   UNL     1      -0.428 -12.972  31.234  1.00  0.00     0.214 C 
ATOM     27  O   UNL     1      -2.104 -11.814  29.815  1.00  0.00    -0.332 OA
ATOM     28  C   UNL     1      -1.252 -12.270  32.336  1.00  0.00     0.180 C 
ATOM     29  C   UNL     1      -1.601 -10.628  30.398  1.00  0.00     0.179 C 
ATOM     30  C   UNL     1      -1.503 -10.790  31.945  1.00  0.00     0.177 C 
BRANCH  26  31
ATOM     31  O   UNL     1      -0.117 -14.307  31.569  1.00  0.00    -0.384 OA
ATOM     32  H   UNL     1      -0.965 -14.827  31.598  1.00  0.00     0.211 HD
ENDBRANCH  26  31
BRANCH  28  33
ATOM     33  O   UNL     1      -2.483 -12.931  32.518  1.00  0.00    -0.387 OA
ATOM     34  H   UNL     1      -2.430 -13.409  33.387  1.00  0.00     0.211 HD
ENDBRANCH  28  33
BRANCH  29  35
ATOM     35  C   UNL     1      -2.484  -9.447  29.967  1.00  0.00     0.191 C 
BRANCH  35  36
ATOM     36  O   UNL     1      -3.810  -9.864  29.770  1.00  0.00    -0.394 OA
ATOM     37  H   UNL     1      -4.123 -10.244  30.635  1.00  0.00     0.210 HD
ENDBRANCH  35  36
ENDBRANCH  29  35
BRANCH  30  38
ATOM     38  O   UNL     1      -2.667 -10.320  32.582  1.00  0.00    -0.387 OA
ATOM     39  H   UNL     1      -3.255 -11.110  32.723  1.00  0.00     0.211 HD
ENDBRANCH  30  38
ENDBRANCH   1  25
TORSDOF 11
ENDMDL
MODEL 6
REMARK VINA RESULT:    -6.850      3.055      8.104
REMARK INTER + INTRA:         -11.348
REMARK INTER:                  -9.584
REMARK INTRA:                  -1.764
REMARK UNBOUND:                -1.494
REMARK SMILES O=c1c(O[C@H]2O[C@@H](CO)[C@@H](O)[C@@H](O)[C@H]2O)c(-c2ccc(O)cc2)oc2cc(O)cc(O)c12
REMARK SMILES IDX 4 1 3 2 16 3 24 4 2 5 25 6 1 7 32 8 26 9 30 10 27 11 29 12
REMARK SMILES IDX 17 13 18 14 19 15 20 16 23 17 22 18 21 19 31 21 28 23 5 25
REMARK SMILES IDX 14 26 6 27 12 28 7 29 10 30 15 31 13 33 8 35 9 36 11 38
REMARK H PARENT 21 20 31 22 28 24 15 32 13 34 9 37 11 39
REMARK Flexibility Score: inf
ROOT
ATOM      1  O   UNL     1      -0.999 -20.049  28.337  1.00  0.00    -0.454 OA
ENDROOT
BRANCH   1   2
ATOM      2  C   UNL     1      -0.994 -21.368  28.835  1.00  0.00     0.214 A 
ATOM      3  C   UNL     1      -0.383 -22.371  28.051  1.00  0.00     0.180 A 
ATOM      4  O   UNL     1      -0.427 -23.641  28.437  1.00  0.00    -0.452 OA
ATOM      5  C   UNL     1      -1.601 -21.751  30.055  1.00  0.00     0.239 A 
ATOM      6  C   UNL     1      -1.002 -24.044  29.561  1.00  0.00     0.146 A 
ATOM      7  O   UNL     1      -2.141 -20.888  30.799  1.00  0.00    -0.285 OA
ATOM      8  C   UNL     1      -1.613 -23.111  30.431  1.00  0.00     0.111 A 
ATOM      9  C   UNL     1      -0.992 -25.406  29.878  1.00  0.00     0.094 A 
ATOM     10  C   UNL     1      -2.214 -23.578  31.626  1.00  0.00     0.134 A 
ATOM     11  C   UNL     1      -1.588 -25.861  31.057  1.00  0.00     0.123 A 
ATOM     12  C   UNL     1      -2.198 -24.950  31.923  1.00  0.00     0.093 A 
BRANCH   3  13
ATOM     13  C   UNL     1       0.325 -22.055  26.790  1.00  0.00     0.021 A 
ATOM     14  C   UNL     1      -0.383 -21.835  25.593  1.00  0.00     0.016 A 
ATOM     15  C   UNL     1       0.298 -21.502  24.418  1.00  0.00     0.047 A 
ATOM     16  C   UNL     1       1.692 -21.362  24.429  1.00  0.00     0.115 A 
ATOM     17  C   UNL     1       1.720 -21.897  26.795  1.00  0.00     0.016 A 
ATOM     18  C   UNL     1       2.400 -21.557  25.619  1.00  0.00     0.047 A 
BRANCH  16  19
ATOM     19  O   UNL     1       2.383 -21.020  23.266  1.00  0.00    -0.508 OA
ATOM     20  H   UNL     1       3.370 -21.229  23.157  1.00  0.00     0.293 HD
ENDBRANCH  16  19
ENDBRANCH   3  13
BRANCH  10  21
ATOM     21  O   UNL     1      -2.828 -22.695  32.517  1.00  0.00    -0.507 OA
ATOM     22  H   UNL     1      -2.317 -21.937  32.955  1.00  0.00     0.293 HD
ENDBRANCH  10  21
BRANCH  11  23
ATOM     23  O   UNL     1      -1.577 -27.216  31.380  1.00  0.00    -0.508 OA
ATOM     24  H   UNL     1      -1.493 -27.932  30.665  1.00  0.00     0.293 HD
ENDBRANCH  11  23
ENDBRANCH   1   2
BRANCH   1  25
ATOM     25  C   UNL     1      -0.099 -18.993  28.676  1.00  0.00     0.339 C 
ATOM     26  C   UNL     1      -0.899 -17.757  29.197  1.00  0.00     0.214 C 
ATOM     27  O   UNL     1       0.688 -18.686  27.528  1.00  0.00    -0.332 OA
ATOM     28  C   UNL     1      -0.992 -16.656  28.117  1.00  0.00     0.180 C 
ATOM     29  C   UNL     1       1.403 -17.480  27.714  1.00  0.00     0.179 C 
ATOM     30  C   UNL     1       0.431 -16.264  27.639  1.00  0.00     0.177 C 
BRANCH  26  31
ATOM     31  O   UNL     1      -2.164 -18.107  29.712  1.00  0.00    -0.384 OA
ATOM     32  H   UNL     1      -2.068 -18.949  30.234  1.00  0.00     0.211 HD
ENDBRANCH  26  31
BRANCH  28  33
ATOM     33  O   UNL     1      -1.754 -17.111  27.023  1.00  0.00    -0.387 OA
ATOM     34  H   UNL     1      -1.171 -17.715  26.494  1.00  0.00     0.211 HD
ENDBRANCH  28  33
BRANCH  29  35
ATOM     35  C   UNL     1       2.540 -17.411  26.684  1.00  0.00     0.191 C 
BRANCH  35  36
ATOM     36  O   UNL     1       2.119 -17.915  25.443  1.00  0.00    -0.394 OA
ATOM     37  H   UNL     1       1.146 -18.107  25.526  1.00  0.00     0.210 HD
ENDBRANCH  35  36
ENDBRANCH  29  35
BRANCH  30  38
ATOM     38  O   UNL     1       0.367 -15.740  26.334  1.00  0.00    -0.387 OA
ATOM     39  H   UNL     1      -0.044 -14.837  26.408  1.00  0.00     0.211 HD
ENDBRANCH  30  38
ENDBRANCH   1  25
TORSDOF 11
ENDMDL
MODEL 7
REMARK VINA RESULT:    -6.820      9.209     12.106
REMARK INTER + INTRA:         -11.305
REMARK INTER:                 -10.219
REMARK INTRA:                  -1.086
REMARK UNBOUND:                -1.494
REMARK SMILES O=c1c(O[C@H]2O[C@@H](CO)[C@@H](O)[C@@H](O)[C@H]2O)c(-c2ccc(O)cc2)oc2cc(O)cc(O)c12
REMARK SMILES IDX 4 1 3 2 16 3 24 4 2 5 25 6 1 7 32 8 26 9 30 10 27 11 29 12
REMARK SMILES IDX 17 13 18 14 19 15 20 16 23 17 22 18 21 19 31 21 28 23 5 25
REMARK SMILES IDX 14 26 6 27 12 28 7 29 10 30 15 31 13 33 8 35 9 36 11 38
REMARK H PARENT 21 20 31 22 28 24 15 32 13 34 9 37 11 39
REMARK Flexibility Score: inf
ROOT
ATOM      1  O   UNL     1      -3.946 -13.220  28.020  1.00  0.00    -0.454 OA
ENDROOT
BRANCH   1   2
ATOM      2  C   UNL     1      -5.101 -13.744  28.633  1.00  0.00     0.214 A 
ATOM      3  C   UNL     1      -5.131 -13.813  30.043  1.00  0.00     0.180 A 
ATOM      4  O   UNL     1      -6.161 -14.376  30.665  1.00  0.00    -0.452 OA
ATOM      5  C   UNL     1      -6.216 -14.244  27.918  1.00  0.00     0.239 A 
ATOM      6  C   UNL     1      -7.213 -14.873  30.032  1.00  0.00     0.146 A 
ATOM      7  O   UNL     1      -6.245 -14.185  26.658  1.00  0.00    -0.285 OA
ATOM      8  C   UNL     1      -7.294 -14.823  28.620  1.00  0.00     0.111 A 
ATOM      9  C   UNL     1      -8.248 -15.444  30.779  1.00  0.00     0.094 A 
ATOM     10  C   UNL     1      -8.436 -15.359  27.978  1.00  0.00     0.134 A 
ATOM     11  C   UNL     1      -9.372 -15.973  30.140  1.00  0.00     0.123 A 
ATOM     12  C   UNL     1      -9.462 -15.933  28.746  1.00  0.00     0.093 A 
BRANCH   3  13
ATOM     13  C   UNL     1      -4.036 -13.264  30.876  1.00  0.00     0.021 A 
ATOM     14  C   UNL     1      -4.129 -11.983  31.450  1.00  0.00     0.016 A 
ATOM     15  C   UNL     1      -3.101 -11.494  32.262  1.00  0.00     0.047 A 
ATOM     16  C   UNL     1      -1.979 -12.287  32.531  1.00  0.00     0.115 A 
ATOM     17  C   UNL     1      -2.914 -14.059  31.163  1.00  0.00     0.016 A 
ATOM     18  C   UNL     1      -1.889 -13.571  31.982  1.00  0.00     0.047 A 
BRANCH  16  19
ATOM     19  O   UNL     1      -0.952 -11.816  33.349  1.00  0.00    -0.508 OA
ATOM     20  H   UNL     1      -0.469 -10.948  33.142  1.00  0.00     0.293 HD
ENDBRANCH  16  19
ENDBRANCH   3  13
BRANCH  10  21
ATOM     21  O   UNL     1      -8.562 -15.331  26.587  1.00  0.00    -0.507 OA
ATOM     22  H   UNL     1      -8.927 -14.521  26.100  1.00  0.00     0.293 HD
ENDBRANCH  10  21
BRANCH  11  23
ATOM     23  O   UNL     1     -10.407 -16.539  30.880  1.00  0.00    -0.508 OA
ATOM     24  H   UNL     1     -10.541 -17.545  30.925  1.00  0.00     0.293 HD
ENDBRANCH  11  23
ENDBRANCH   1   2
BRANCH   1  25
ATOM     25  C   UNL     1      -2.660 -13.836  27.927  1.00  0.00     0.339 C 
ATOM     26  C   UNL     1      -1.540 -12.756  28.063  1.00  0.00     0.214 C 
ATOM     27  O   UNL     1      -2.586 -14.542  26.692  1.00  0.00    -0.332 OA
ATOM     28  C   UNL     1      -0.921 -12.417  26.689  1.00  0.00     0.180 C 
ATOM     29  C   UNL     1      -1.258 -14.945  26.419  1.00  0.00     0.179 C 
ATOM     30  C   UNL     1      -0.397 -13.711  26.012  1.00  0.00     0.177 C 
BRANCH  26  31
ATOM     31  O   UNL     1      -1.977 -11.605  28.750  1.00  0.00    -0.384 OA
ATOM     32  H   UNL     1      -2.844 -11.316  28.356  1.00  0.00     0.211 HD
ENDBRANCH  26  31
BRANCH  28  33
ATOM     33  O   UNL     1      -1.881 -11.801  25.862  1.00  0.00    -0.387 OA
ATOM     34  H   UNL     1      -1.830 -12.246  24.976  1.00  0.00     0.211 HD
ENDBRANCH  28  33
BRANCH  29  35
ATOM     35  C   UNL     1      -1.282 -16.047  25.349  1.00  0.00     0.191 C 
BRANCH  35  36
ATOM     36  O   UNL     1      -2.100 -15.676  24.270  1.00  0.00    -0.394 OA
ATOM     37  H   UNL     1      -3.041 -15.740  24.589  1.00  0.00     0.210 HD
ENDBRANCH  35  36
ENDBRANCH  29  35
BRANCH  30  38
ATOM     38  O   UNL     1      -0.375 -13.542  24.615  1.00  0.00    -0.387 OA
ATOM     39  H   UNL     1       0.078 -14.343  24.237  1.00  0.00     0.211 HD
ENDBRANCH  30  38
ENDBRANCH   1  25
TORSDOF 11
ENDMDL
MODEL 8
REMARK VINA RESULT:    -6.784      2.896      5.092
REMARK INTER + INTRA:         -11.252
REMARK INTER:                  -9.609
REMARK INTRA:                  -1.643
REMARK UNBOUND:                -1.494
REMARK SMILES O=c1c(O[C@H]2O[C@@H](CO)[C@@H](O)[C@@H](O)[C@H]2O)c(-c2ccc(O)cc2)oc2cc(O)cc(O)c12
REMARK SMILES IDX 4 1 3 2 16 3 24 4 2 5 25 6 1 7 32 8 26 9 30 10 27 11 29 12
REMARK SMILES IDX 17 13 18 14 19 15 20 16 23 17 22 18 21 19 31 21 28 23 5 25
REMARK SMILES IDX 14 26 6 27 12 28 7 29 10 30 15 31 13 33 8 35 9 36 11 38
REMARK H PARENT 21 20 31 22 28 24 15 32 13 34 9 37 11 39
REMARK Flexibility Score: inf
ROOT
ATOM      1  O   UNL     1      -0.421 -20.526  25.705  1.00  0.00    -0.454 OA
ENDROOT
BRANCH   1   2
ATOM      2  C   UNL     1      -0.836 -19.314  26.293  1.00  0.00     0.214 A 
ATOM      3  C   UNL     1      -1.129 -19.314  27.675  1.00  0.00     0.180 A 
ATOM      4  O   UNL     1      -1.605 -18.219  28.258  1.00  0.00    -0.452 OA
ATOM      5  C   UNL     1      -1.016 -18.109  25.573  1.00  0.00     0.239 A 
ATOM      6  C   UNL     1      -1.806 -17.078  27.615  1.00  0.00     0.146 A 
ATOM      7  O   UNL     1      -0.747 -18.055  24.342  1.00  0.00    -0.285 OA
ATOM      8  C   UNL     1      -1.512 -16.967  26.236  1.00  0.00     0.111 A 
ATOM      9  C   UNL     1      -2.309 -15.981  28.322  1.00  0.00     0.094 A 
ATOM     10  C   UNL     1      -1.735 -15.730  25.584  1.00  0.00     0.134 A 
ATOM     11  C   UNL     1      -2.529 -14.763  27.673  1.00  0.00     0.123 A 
ATOM     12  C   UNL     1      -2.246 -14.642  26.310  1.00  0.00     0.093 A 
BRANCH   3  13
ATOM     13  C   UNL     1      -0.918 -20.512  28.519  1.00  0.00     0.021 A 
ATOM     14  C   UNL     1      -1.841 -21.574  28.521  1.00  0.00     0.016 A 
ATOM     15  C   UNL     1      -1.609 -22.713  29.297  1.00  0.00     0.047 A 
ATOM     16  C   UNL     1      -0.440 -22.817  30.063  1.00  0.00     0.115 A 
ATOM     17  C   UNL     1       0.258 -20.630  29.278  1.00  0.00     0.016 A 
ATOM     18  C   UNL     1       0.493 -21.775  30.050  1.00  0.00     0.047 A 
BRANCH  16  19
ATOM     19  O   UNL     1      -0.191 -23.952  30.834  1.00  0.00    -0.508 OA
ATOM     20  H   UNL     1      -0.113 -24.871  30.410  1.00  0.00     0.293 HD
ENDBRANCH  16  19
ENDBRANCH   3  13
BRANCH  10  21
ATOM     21  O   UNL     1      -1.458 -15.571  24.224  1.00  0.00    -0.507 OA
ATOM     22  H   UNL     1      -0.976 -14.755  23.869  1.00  0.00     0.293 HD
ENDBRANCH  10  21
BRANCH  11  23
ATOM     23  O   UNL     1      -3.026 -13.666  28.372  1.00  0.00    -0.508 OA
ATOM     24  H   UNL     1      -2.974 -12.726  27.993  1.00  0.00     0.293 HD
ENDBRANCH  11  23
ENDBRANCH   1   2
BRANCH   1  25
ATOM     25  C   UNL     1       0.920 -20.948  25.449  1.00  0.00     0.339 C 
ATOM     26  C   UNL     1       1.087 -21.304  23.937  1.00  0.00     0.214 C 
ATOM     27  O   UNL     1       1.216 -22.049  26.302  1.00  0.00    -0.332 OA
ATOM     28  C   UNL     1       1.096 -22.835  23.721  1.00  0.00     0.180 C 
ATOM     29  C   UNL     1       2.420 -22.681  25.912  1.00  0.00     0.179 C 
ATOM     30  C   UNL     1       2.202 -23.484  24.594  1.00  0.00     0.177 C 
BRANCH  26  31
ATOM     31  O   UNL     1       0.138 -20.657  23.118  1.00  0.00    -0.384 OA
ATOM     32  H   UNL     1       0.304 -20.926  22.175  1.00  0.00     0.211 HD
ENDBRANCH  26  31
BRANCH  28  33
ATOM     33  O   UNL     1      -0.159 -23.380  24.058  1.00  0.00    -0.387 OA
ATOM     34  H   UNL     1      -0.651 -23.523  23.207  1.00  0.00     0.211 HD
ENDBRANCH  28  33
BRANCH  29  35
ATOM     35  C   UNL     1       2.927 -23.549  27.073  1.00  0.00     0.191 C 
BRANCH  35  36
ATOM     36  O   UNL     1       4.111 -24.214  26.718  1.00  0.00    -0.394 OA
ATOM     37  H   UNL     1       4.048 -25.134  27.093  1.00  0.00     0.210 HD
ENDBRANCH  35  36
ENDBRANCH  29  35
BRANCH  30  38
ATOM     38  O   UNL     1       1.871 -24.826  24.862  1.00  0.00    -0.387 OA
ATOM     39  H   UNL     1       2.719 -25.343  24.822  1.00  0.00     0.211 HD
ENDBRANCH  30  38
ENDBRANCH   1  25
TORSDOF 11
ENDMDL
MODEL 9
REMARK VINA RESULT:    -6.762      2.389      7.249
REMARK INTER + INTRA:         -11.222
REMARK INTER:                 -10.035
REMARK INTRA:                  -1.187
REMARK UNBOUND:                -1.494
REMARK SMILES O=c1c(O[C@H]2O[C@@H](CO)[C@@H](O)[C@@H](O)[C@H]2O)c(-c2ccc(O)cc2)oc2cc(O)cc(O)c12
REMARK SMILES IDX 4 1 3 2 16 3 24 4 2 5 25 6 1 7 32 8 26 9 30 10 27 11 29 12
REMARK SMILES IDX 17 13 18 14 19 15 20 16 23 17 22 18 21 19 31 21 28 23 5 25
REMARK SMILES IDX 14 26 6 27 12 28 7 29 10 30 15 31 13 33 8 35 9 36 11 38
REMARK H PARENT 21 20 31 22 28 24 15 32 13 34 9 37 11 39
REMARK Flexibility Score: inf
ROOT
ATOM      1  O   UNL     1       0.865 -20.675  25.941  1.00  0.00    -0.454 OA
ENDROOT
BRANCH   1   2
ATOM      2  C   UNL     1       0.931 -21.792  26.797  1.00  0.00     0.214 A 
ATOM      3  C   UNL     1       0.563 -21.615  28.149  1.00  0.00     0.180 A 
ATOM      4  O   UNL     1       0.689 -22.615  29.014  1.00  0.00    -0.452 OA
ATOM      5  C   UNL     1       1.384 -23.070  26.391  1.00  0.00     0.239 A 
ATOM      6  C   UNL     1       1.128 -23.819  28.679  1.00  0.00     0.146 A 
ATOM      7  O   UNL     1       1.704 -23.283  25.190  1.00  0.00    -0.285 OA
ATOM      8  C   UNL     1       1.491 -24.108  27.342  1.00  0.00     0.111 A 
ATOM      9  C   UNL     1       1.222 -24.806  29.665  1.00  0.00     0.094 A 
ATOM     10  C   UNL     1       1.951 -25.407  27.020  1.00  0.00     0.134 A 
ATOM     11  C   UNL     1       1.678 -26.087  29.342  1.00  0.00     0.123 A 
ATOM     12  C   UNL     1       2.043 -26.383  28.026  1.00  0.00     0.093 A 
BRANCH   3  13
ATOM     13  C   UNL     1       0.025 -20.330  28.651  1.00  0.00     0.021 A 
ATOM     14  C   UNL     1      -1.362 -20.109  28.746  1.00  0.00     0.016 A 
ATOM     15  C   UNL     1      -1.854 -18.903  29.255  1.00  0.00     0.047 A 
ATOM     16  C   UNL     1      -0.967 -17.912  29.698  1.00  0.00     0.115 A 
ATOM     17  C   UNL     1       0.906 -19.338  29.111  1.00  0.00     0.016 A 
ATOM     18  C   UNL     1       0.412 -18.134  29.627  1.00  0.00     0.047 A 
BRANCH  16  19
ATOM     19  O   UNL     1      -1.445 -16.709  30.218  1.00  0.00    -0.508 OA
ATOM     20  H   UNL     1      -0.948 -16.217  30.952  1.00  0.00     0.293 HD
ENDBRANCH  16  19
ENDBRANCH   3  13
BRANCH  10  21
ATOM     21  O   UNL     1       2.319 -25.739  25.714  1.00  0.00    -0.507 OA
ATOM     22  H   UNL     1       1.709 -25.560  24.925  1.00  0.00     0.293 HD
ENDBRANCH  10  21
BRANCH  11  23
ATOM     23  O   UNL     1       1.770 -27.075  30.319  1.00  0.00    -0.508 OA
ATOM     24  H   UNL     1       0.943 -27.463  30.762  1.00  0.00     0.293 HD
ENDBRANCH  11  23
ENDBRANCH   1   2
BRANCH   1  25
ATOM     25  C   UNL     1      -0.312 -20.041  25.435  1.00  0.00     0.339 C 
ATOM     26  C   UNL     1      -0.552 -20.467  23.952  1.00  0.00     0.214 C 
ATOM     27  O   UNL     1      -0.161 -18.632  25.577  1.00  0.00    -0.332 OA
ATOM     28  C   UNL     1      -0.134 -19.346  22.974  1.00  0.00     0.180 C 
ATOM     29  C   UNL     1      -1.163 -17.941  24.856  1.00  0.00     0.179 C 
ATOM     30  C   UNL     1      -0.881 -18.034  23.326  1.00  0.00     0.177 C 
BRANCH  26  31
ATOM     31  O   UNL     1       0.054 -21.702  23.637  1.00  0.00    -0.384 OA
ATOM     32  H   UNL     1       1.036 -21.611  23.768  1.00  0.00     0.211 HD
ENDBRANCH  26  31
BRANCH  28  33
ATOM     33  O   UNL     1       1.258 -19.136  23.041  1.00  0.00    -0.387 OA
ATOM     34  H   UNL     1       1.684 -20.031  23.093  1.00  0.00     0.211 HD
ENDBRANCH  28  33
BRANCH  29  35
ATOM     35  C   UNL     1      -1.242 -16.496  25.372  1.00  0.00     0.191 C 
BRANCH  35  36
ATOM     36  O   UNL     1      -2.007 -15.700  24.505  1.00  0.00    -0.394 OA
ATOM     37  H   UNL     1      -2.779 -16.255  24.210  1.00  0.00     0.210 HD
ENDBRANCH  35  36
ENDBRANCH  29  35
BRANCH  30  38
ATOM     38  O   UNL     1      -0.137 -16.926  22.875  1.00  0.00    -0.387 OA
ATOM     39  H   UNL     1      -0.069 -17.012  21.887  1.00  0.00     0.211 HD
ENDBRANCH  30  38
ENDBRANCH   1  25
TORSDOF 11
ENDMDL
