MODEL 1
REMARK VINA RESULT:    -4.059      0.000      0.000
REMARK INTER + INTRA:          -8.804
REMARK INTER:                  -7.855
REMARK INTRA:                  -0.949
REMARK UNBOUND:                -0.949
REMARK SMILES CCCCCCCCCCCCCCCCCC(=O)[O-]
REMARK SMILES IDX 10 1 11 2 12 3 13 4 14 5 15 6 16 7 17 8 18 9 19 10 20 11
REMARK SMILES IDX 9 12 8 13 7 14 6 15 5 16 4 17 3 18 2 19 1 20
REMARK H PARENT
REMARK Flexibility Score: inf
ROOT
ATOM      1  C   UNL     1     -44.200 -29.089  -0.670  1.00  0.00     0.000 C 
ENDROOT
BRANCH   1   2
ATOM      2  C   UNL     1     -45.111 -29.450  -1.856  1.00  0.00     0.000 C 
BRANCH   2   3
ATOM      3  C   UNL     1     -45.518 -28.266  -2.758  1.00  0.00     0.000 C 
BRANCH   3   4
ATOM      4  C   UNL     1     -46.841 -28.445  -3.526  1.00  0.00     0.000 C 
BRANCH   4   5
ATOM      5  C   UNL     1     -46.805 -27.825  -4.933  1.00  0.00     0.000 C 
BRANCH   5   6
ATOM      6  C   UNL     1     -45.373 -27.567  -5.438  1.00  0.00     0.000 C 
BRANCH   6   7
ATOM      7  C   UNL     1     -44.941 -28.419  -6.646  1.00  0.00     0.006 C 
BRANCH   7   8
ATOM      8  C   UNL     1     -43.989 -27.677  -7.592  1.00  0.00     0.053 C 
BRANCH   8   9
ATOM      9  C   UNL     1     -42.900 -28.591  -8.059  1.00  0.00     0.041 C 
ATOM     10  O   UNL     1     -41.743 -28.503  -7.569  1.00  0.00    -0.550 OA
ATOM     11  O   UNL     1     -43.150 -29.507  -9.073  1.00  0.00    -0.550 OA
ENDBRANCH   8   9
ENDBRANCH   7   8
ENDBRANCH   6   7
ENDBRANCH   5   6
ENDBRANCH   4   5
ENDBRANCH   3   4
ENDBRANCH   2   3
ENDBRANCH   1   2
BRANCH   1  12
ATOM     12  C   UNL     1     -43.701 -27.635  -0.723  1.00  0.00     0.000 C 
BRANCH  12  13
ATOM     13  C   UNL     1     -44.151 -26.812   0.496  1.00  0.00    -0.000 C 
BRANCH  13  14
ATOM     14  C   UNL     1     -45.530 -27.247   1.025  1.00  0.00    -0.000 C 
BRANCH  14  15
ATOM     15  C   UNL     1     -46.328 -26.078   1.624  1.00  0.00    -0.000 C 
BRANCH  15  16
ATOM     16  C   UNL     1     -47.067 -26.462   2.916  1.00  0.00    -0.000 C 
BRANCH  16  17
ATOM     17  C   UNL     1     -46.074 -26.868   4.014  1.00  0.00    -0.000 C 
BRANCH  17  18
ATOM     18  C   UNL     1     -46.572 -26.514   5.425  1.00  0.00    -0.000 C 
BRANCH  18  19
ATOM     19  C   UNL     1     -45.642 -27.036   6.530  1.00  0.00    -0.003 C 
ATOM     20  C   UNL     1     -45.309 -28.510   6.315  1.00  0.00     0.004 C 
ENDBRANCH  18  19
ENDBRANCH  17  18
ENDBRANCH  16  17
ENDBRANCH  15  16
ENDBRANCH  14  15
ENDBRANCH  13  14
ENDBRANCH  12  13
ENDBRANCH   1  12
TORSDOF 16
ENDMDL
MODEL 2
REMARK VINA RESULT:    -3.980      1.303      2.326
REMARK INTER + INTRA:          -8.651
REMARK INTER:                  -7.383
REMARK INTRA:                  -1.268
REMARK UNBOUND:                -0.949
REMARK SMILES CCCCCCCCCCCCCCCCCC(=O)[O-]
REMARK SMILES IDX 10 1 11 2 12 3 13 4 14 5 15 6 16 7 17 8 18 9 19 10 20 11
REMARK SMILES IDX 9 12 8 13 7 14 6 15 5 16 4 17 3 18 2 19 1 20
REMARK H PARENT
REMARK Flexibility Score: inf
ROOT
ATOM      1  C   UNL     1     -43.928 -27.124   0.276  1.00  0.00     0.000 C 
ENDROOT
BRANCH   1   2
ATOM      2  C   UNL     1     -43.673 -28.431  -0.495  1.00  0.00     0.000 C 
BRANCH   2   3
ATOM      3  C   UNL     1     -44.903 -29.348  -0.662  1.00  0.00     0.000 C 
BRANCH   3   4
ATOM      4  C   UNL     1     -45.375 -29.561  -2.112  1.00  0.00     0.000 C 
BRANCH   4   5
ATOM      5  C   UNL     1     -45.550 -28.242  -2.883  1.00  0.00     0.000 C 
BRANCH   5   6
ATOM      6  C   UNL     1     -46.330 -28.416  -4.200  1.00  0.00     0.000 C 
BRANCH   6   7
ATOM      7  C   UNL     1     -45.793 -27.602  -5.392  1.00  0.00     0.006 C 
BRANCH   7   8
ATOM      8  C   UNL     1     -44.925 -28.434  -6.343  1.00  0.00     0.053 C 
BRANCH   8   9
ATOM      9  C   UNL     1     -44.779 -27.740  -7.660  1.00  0.00     0.041 C 
ATOM     10  O   UNL     1     -45.797 -27.316  -8.269  1.00  0.00    -0.550 OA
ATOM     11  O   UNL     1     -43.524 -27.606  -8.240  1.00  0.00    -0.550 OA
ENDBRANCH   8   9
ENDBRANCH   7   8
ENDBRANCH   6   7
ENDBRANCH   5   6
ENDBRANCH   4   5
ENDBRANCH   3   4
ENDBRANCH   2   3
ENDBRANCH   1   2
BRANCH   1  12
ATOM     12  C   UNL     1     -45.422 -26.869   0.538  1.00  0.00     0.000 C 
BRANCH  12  13
ATOM     13  C   UNL     1     -45.666 -26.061   1.824  1.00  0.00    -0.000 C 
BRANCH  13  14
ATOM     14  C   UNL     1     -46.823 -26.629   2.666  1.00  0.00    -0.000 C 
BRANCH  14  15
ATOM     15  C   UNL     1     -47.066 -28.123   2.404  1.00  0.00    -0.000 C 
BRANCH  15  16
ATOM     16  C   UNL     1     -46.255 -29.032   3.342  1.00  0.00    -0.000 C 
BRANCH  16  17
ATOM     17  C   UNL     1     -46.080 -28.377   4.720  1.00  0.00    -0.000 C 
BRANCH  17  18
ATOM     18  C   UNL     1     -45.328 -29.278   5.714  1.00  0.00    -0.000 C 
BRANCH  18  19
ATOM     19  C   UNL     1     -45.007 -28.564   7.035  1.00  0.00    -0.003 C 
ATOM     20  C   UNL     1     -45.322 -27.073   6.943  1.00  0.00     0.004 C 
ENDBRANCH  18  19
ENDBRANCH  17  18
ENDBRANCH  16  17
ENDBRANCH  15  16
ENDBRANCH  14  15
ENDBRANCH  13  14
ENDBRANCH  12  13
ENDBRANCH   1  12
TORSDOF 16
ENDMDL
MODEL 3
REMARK VINA RESULT:    -3.961      5.055     10.144
REMARK INTER + INTRA:          -8.616
REMARK INTER:                  -7.314
REMARK INTRA:                  -1.302
REMARK UNBOUND:                -0.949
REMARK SMILES CCCCCCCCCCCCCCCCCC(=O)[O-]
REMARK SMILES IDX 10 1 11 2 12 3 13 4 14 5 15 6 16 7 17 8 18 9 19 10 20 11
REMARK SMILES IDX 9 12 8 13 7 14 6 15 5 16 4 17 3 18 2 19 1 20
REMARK H PARENT
REMARK Flexibility Score: inf
ROOT
ATOM      1  C   UNL     1     -44.225 -28.693   0.055  1.00  0.00     0.000 C 
ENDROOT
BRANCH   1   2
ATOM      2  C   UNL     1     -44.066 -27.163   0.012  1.00  0.00     0.000 C 
BRANCH   2   3
ATOM      3  C   UNL     1     -44.727 -26.398   1.178  1.00  0.00     0.000 C 
BRANCH   3   4
ATOM      4  C   UNL     1     -46.267 -26.383   1.169  1.00  0.00     0.000 C 
BRANCH   4   5
ATOM      5  C   UNL     1     -46.876 -26.708   2.543  1.00  0.00     0.000 C 
BRANCH   5   6
ATOM      6  C   UNL     1     -46.377 -28.046   3.118  1.00  0.00     0.000 C 
BRANCH   6   7
ATOM      7  C   UNL     1     -46.205 -28.078   4.648  1.00  0.00     0.006 C 
BRANCH   7   8
ATOM      8  C   UNL     1     -46.067 -26.680   5.264  1.00  0.00     0.053 C 
BRANCH   8   9
ATOM      9  C   UNL     1     -45.677 -26.780   6.705  1.00  0.00     0.041 C 
ATOM     10  O   UNL     1     -45.942 -25.841   7.501  1.00  0.00    -0.550 OA
ATOM     11  O   UNL     1     -44.975 -27.891   7.159  1.00  0.00    -0.550 OA
ENDBRANCH   8   9
ENDBRANCH   7   8
ENDBRANCH   6   7
ENDBRANCH   5   6
ENDBRANCH   4   5
ENDBRANCH   3   4
ENDBRANCH   2   3
ENDBRANCH   1   2
BRANCH   1  12
ATOM     12  C   UNL     1     -45.064 -29.237  -1.114  1.00  0.00     0.000 C 
BRANCH  12  13
ATOM     13  C   UNL     1     -45.503 -28.132  -2.090  1.00  0.00    -0.000 C 
BRANCH  13  14
ATOM     14  C   UNL     1     -46.798 -28.489  -2.841  1.00  0.00    -0.000 C 
BRANCH  14  15
ATOM     15  C   UNL     1     -46.631 -28.428  -4.367  1.00  0.00    -0.000 C 
BRANCH  15  16
ATOM     16  C   UNL     1     -45.637 -29.472  -4.899  1.00  0.00    -0.000 C 
BRANCH  16  17
ATOM     17  C   UNL     1     -45.225 -29.149  -6.343  1.00  0.00    -0.000 C 
BRANCH  17  18
ATOM     18  C   UNL     1     -44.637 -27.735  -6.490  1.00  0.00    -0.000 C 
BRANCH  18  19
ATOM     19  C   UNL     1     -43.743 -27.593  -7.731  1.00  0.00    -0.003 C 
ATOM     20  C   UNL     1     -42.668 -28.676  -7.761  1.00  0.00     0.004 C 
ENDBRANCH  18  19
ENDBRANCH  17  18
ENDBRANCH  16  17
ENDBRANCH  15  16
ENDBRANCH  14  15
ENDBRANCH  13  14
ENDBRANCH  12  13
ENDBRANCH   1  12
TORSDOF 16
ENDMDL
MODEL 4
REMARK VINA RESULT:    -3.924      5.010     10.160
REMARK INTER + INTRA:          -8.543
REMARK INTER:                  -7.478
REMARK INTRA:                  -1.065
REMARK UNBOUND:                -0.949
REMARK SMILES CCCCCCCCCCCCCCCCCC(=O)[O-]
REMARK SMILES IDX 10 1 11 2 12 3 13 4 14 5 15 6 16 7 17 8 18 9 19 10 20 11
REMARK SMILES IDX 9 12 8 13 7 14 6 15 5 16 4 17 3 18 2 19 1 20
REMARK H PARENT
REMARK Flexibility Score: inf
ROOT
ATOM      1  C   UNL     1     -43.653 -28.658  -0.359  1.00  0.00     0.000 C 
ENDROOT
BRANCH   1   2
ATOM      2  C   UNL     1     -43.741 -27.122  -0.360  1.00  0.00     0.000 C 
BRANCH   2   3
ATOM      3  C   UNL     1     -44.448 -26.501   0.863  1.00  0.00     0.000 C 
BRANCH   3   4
ATOM      4  C   UNL     1     -45.958 -26.785   0.967  1.00  0.00     0.000 C 
BRANCH   4   5
ATOM      5  C   UNL     1     -46.333 -27.570   2.235  1.00  0.00     0.000 C 
BRANCH   5   6
ATOM      6  C   UNL     1     -47.002 -26.692   3.308  1.00  0.00     0.000 C 
BRANCH   6   7
ATOM      7  C   UNL     1     -46.292 -26.673   4.675  1.00  0.00     0.006 C 
BRANCH   7   8
ATOM      8  C   UNL     1     -45.927 -28.075   5.179  1.00  0.00     0.053 C 
BRANCH   8   9
ATOM      9  C   UNL     1     -45.285 -27.994   6.528  1.00  0.00     0.041 C 
ATOM     10  O   UNL     1     -44.914 -29.043   7.118  1.00  0.00    -0.550 OA
ATOM     11  O   UNL     1     -45.141 -26.763   7.156  1.00  0.00    -0.550 OA
ENDBRANCH   8   9
ENDBRANCH   7   8
ENDBRANCH   6   7
ENDBRANCH   5   6
ENDBRANCH   4   5
ENDBRANCH   3   4
ENDBRANCH   2   3
ENDBRANCH   1   2
BRANCH   1  12
ATOM     12  C   UNL     1     -44.620 -29.309  -1.363  1.00  0.00     0.000 C 
BRANCH  12  13
ATOM     13  C   UNL     1     -45.318 -28.277  -2.264  1.00  0.00    -0.000 C 
BRANCH  13  14
ATOM     14  C   UNL     1     -46.312 -28.927  -3.244  1.00  0.00    -0.000 C 
BRANCH  14  15
ATOM     15  C   UNL     1     -45.835 -28.855  -4.703  1.00  0.00    -0.000 C 
BRANCH  15  16
ATOM     16  C   UNL     1     -45.331 -27.457  -5.096  1.00  0.00    -0.000 C 
BRANCH  16  17
ATOM     17  C   UNL     1     -45.690 -27.137  -6.555  1.00  0.00    -0.000 C 
BRANCH  17  18
ATOM     18  C   UNL     1     -44.956 -28.040  -7.559  1.00  0.00    -0.000 C 
BRANCH  18  19
ATOM     19  C   UNL     1     -43.512 -27.585  -7.818  1.00  0.00    -0.003 C 
ATOM     20  C   UNL     1     -42.585 -28.782  -8.007  1.00  0.00     0.004 C 
ENDBRANCH  18  19
ENDBRANCH  17  18
ENDBRANCH  16  17
ENDBRANCH  15  16
ENDBRANCH  14  15
ENDBRANCH  13  14
ENDBRANCH  12  13
ENDBRANCH   1  12
TORSDOF 16
ENDMDL
MODEL 5
REMARK VINA RESULT:    -3.875      2.515      3.971
REMARK INTER + INTRA:          -8.448
REMARK INTER:                  -7.168
REMARK INTRA:                  -1.280
REMARK UNBOUND:                -0.949
REMARK SMILES CCCCCCCCCCCCCCCCCC(=O)[O-]
REMARK SMILES IDX 10 1 11 2 12 3 13 4 14 5 15 6 16 7 17 8 18 9 19 10 20 11
REMARK SMILES IDX 9 12 8 13 7 14 6 15 5 16 4 17 3 18 2 19 1 20
REMARK H PARENT
REMARK Flexibility Score: inf
ROOT
ATOM      1  C   UNL     1     -45.613 -28.358  -3.127  1.00  0.00     0.000 C 
ENDROOT
BRANCH   1   2
ATOM      2  C   UNL     1     -45.675 -27.745  -4.537  1.00  0.00     0.000 C 
BRANCH   2   3
ATOM      3  C   UNL     1     -47.047 -27.839  -5.237  1.00  0.00     0.000 C 
BRANCH   3   4
ATOM      4  C   UNL     1     -47.002 -27.880  -6.775  1.00  0.00     0.000 C 
BRANCH   4   5
ATOM      5  C   UNL     1     -45.613 -27.545  -7.343  1.00  0.00     0.000 C 
BRANCH   5   6
ATOM      6  C   UNL     1     -45.571 -27.570  -8.882  1.00  0.00     0.000 C 
BRANCH   6   7
ATOM      7  C   UNL     1     -44.216 -27.971  -9.494  1.00  0.00     0.006 C 
BRANCH   7   8
ATOM      8  C   UNL     1     -43.681 -29.300  -8.945  1.00  0.00     0.053 C 
BRANCH   8   9
ATOM      9  C   UNL     1     -42.286 -29.129  -8.433  1.00  0.00     0.041 C 
ATOM     10  O   UNL     1     -42.035 -28.268  -7.549  1.00  0.00    -0.550 OA
ATOM     11  O   UNL     1     -41.251 -29.886  -8.970  1.00  0.00    -0.550 OA
ENDBRANCH   8   9
ENDBRANCH   7   8
ENDBRANCH   6   7
ENDBRANCH   5   6
ENDBRANCH   4   5
ENDBRANCH   3   4
ENDBRANCH   2   3
ENDBRANCH   1   2
BRANCH   1  12
ATOM     12  C   UNL     1     -46.968 -28.317  -2.400  1.00  0.00     0.000 C 
BRANCH  12  13
ATOM     13  C   UNL     1     -47.048 -29.328  -1.244  1.00  0.00    -0.000 C 
BRANCH  13  14
ATOM     14  C   UNL     1     -47.104 -28.644   0.134  1.00  0.00    -0.000 C 
BRANCH  14  15
ATOM     15  C   UNL     1     -46.408 -27.274   0.142  1.00  0.00    -0.000 C 
BRANCH  15  16
ATOM     16  C   UNL     1     -45.072 -27.289   0.904  1.00  0.00    -0.000 C 
BRANCH  16  17
ATOM     17  C   UNL     1     -43.909 -27.627  -0.040  1.00  0.00    -0.000 C 
BRANCH  17  18
ATOM     18  C   UNL     1     -43.600 -29.133  -0.086  1.00  0.00    -0.000 C 
BRANCH  18  19
ATOM     19  C   UNL     1     -42.097 -29.425  -0.213  1.00  0.00    -0.003 C 
ATOM     20  C   UNL     1     -41.284 -28.133  -0.198  1.00  0.00     0.004 C 
ENDBRANCH  18  19
ENDBRANCH  17  18
ENDBRANCH  16  17
ENDBRANCH  15  16
ENDBRANCH  14  15
ENDBRANCH  13  14
ENDBRANCH  12  13
ENDBRANCH   1  12
TORSDOF 16
ENDMDL
MODEL 6
REMARK VINA RESULT:    -3.510      5.093     10.517
REMARK INTER + INTRA:          -7.742
REMARK INTER:                  -6.844
REMARK INTRA:                  -0.898
REMARK UNBOUND:                -0.949
REMARK SMILES CCCCCCCCCCCCCCCCCC(=O)[O-]
REMARK SMILES IDX 10 1 11 2 12 3 13 4 14 5 15 6 16 7 17 8 18 9 19 10 20 11
REMARK SMILES IDX 9 12 8 13 7 14 6 15 5 16 4 17 3 18 2 19 1 20
REMARK H PARENT
REMARK Flexibility Score: inf
ROOT
ATOM      1  C   UNL     1     -44.736 -27.710  -1.522  1.00  0.00     0.000 C 
ENDROOT
BRANCH   1   2
ATOM      2  C   UNL     1     -44.275 -28.160  -0.125  1.00  0.00     0.000 C 
BRANCH   2   3
ATOM      3  C   UNL     1     -45.126 -29.272   0.524  1.00  0.00     0.000 C 
BRANCH   3   4
ATOM      4  C   UNL     1     -46.056 -28.812   1.661  1.00  0.00     0.000 C 
BRANCH   4   5
ATOM      5  C   UNL     1     -46.041 -27.288   1.868  1.00  0.00     0.000 C 
BRANCH   5   6
ATOM      6  C   UNL     1     -46.936 -26.831   3.034  1.00  0.00     0.000 C 
BRANCH   6   7
ATOM      7  C   UNL     1     -46.239 -26.763   4.406  1.00  0.00     0.006 C 
BRANCH   7   8
ATOM      8  C   UNL     1     -47.125 -26.148   5.497  1.00  0.00     0.053 C 
BRANCH   8   9
ATOM      9  C   UNL     1     -46.413 -26.155   6.813  1.00  0.00     0.041 C 
ATOM     10  O   UNL     1     -47.030 -25.857   7.869  1.00  0.00    -0.550 OA
ATOM     11  O   UNL     1     -45.055 -26.443   6.867  1.00  0.00    -0.550 OA
ENDBRANCH   8   9
ENDBRANCH   7   8
ENDBRANCH   6   7
ENDBRANCH   5   6
ENDBRANCH   4   5
ENDBRANCH   3   4
ENDBRANCH   2   3
ENDBRANCH   1   2
BRANCH   1  12
ATOM     12  C   UNL     1     -46.082 -28.330  -1.933  1.00  0.00     0.000 C 
BRANCH  12  13
ATOM     13  C   UNL     1     -45.984 -29.145  -3.234  1.00  0.00    -0.000 C 
BRANCH  13  14
ATOM     14  C   UNL     1     -46.663 -28.442  -4.423  1.00  0.00    -0.000 C 
BRANCH  14  15
ATOM     15  C   UNL     1     -46.122 -28.922  -5.779  1.00  0.00    -0.000 C 
BRANCH  15  16
ATOM     16  C   UNL     1     -45.935 -27.775  -6.785  1.00  0.00    -0.000 C 
BRANCH  16  17
ATOM     17  C   UNL     1     -44.475 -27.296  -6.802  1.00  0.00    -0.000 C 
BRANCH  17  18
ATOM     18  C   UNL     1     -43.750 -27.653  -8.111  1.00  0.00    -0.000 C 
BRANCH  18  19
ATOM     19  C   UNL     1     -42.542 -28.574  -7.885  1.00  0.00    -0.003 C 
ATOM     20  C   UNL     1     -42.990 -29.977  -7.482  1.00  0.00     0.004 C 
ENDBRANCH  18  19
ENDBRANCH  17  18
ENDBRANCH  16  17
ENDBRANCH  15  16
ENDBRANCH  14  15
ENDBRANCH  13  14
ENDBRANCH  12  13
ENDBRANCH   1  12
TORSDOF 16
ENDMDL
MODEL 7
REMARK VINA RESULT:    -3.484      1.408      1.933
REMARK INTER + INTRA:          -7.691
REMARK INTER:                  -6.495
REMARK INTRA:                  -1.196
REMARK UNBOUND:                -0.949
REMARK SMILES CCCCCCCCCCCCCCCCCC(=O)[O-]
REMARK SMILES IDX 10 1 11 2 12 3 13 4 14 5 15 6 16 7 17 8 18 9 19 10 20 11
REMARK SMILES IDX 9 12 8 13 7 14 6 15 5 16 4 17 3 18 2 19 1 20
REMARK H PARENT
REMARK Flexibility Score: inf
ROOT
ATOM      1  C   UNL     1     -44.352 -27.598  -0.578  1.00  0.00     0.000 C 
ENDROOT
BRANCH   1   2
ATOM      2  C   UNL     1     -44.561 -27.589  -2.102  1.00  0.00     0.000 C 
BRANCH   2   3
ATOM      3  C   UNL     1     -45.882 -28.219  -2.590  1.00  0.00     0.000 C 
BRANCH   3   4
ATOM      4  C   UNL     1     -45.729 -29.426  -3.534  1.00  0.00     0.000 C 
BRANCH   4   5
ATOM      5  C   UNL     1     -46.331 -29.176  -4.927  1.00  0.00     0.000 C 
BRANCH   5   6
ATOM      6  C   UNL     1     -45.264 -29.075  -6.032  1.00  0.00     0.000 C 
BRANCH   6   7
ATOM      7  C   UNL     1     -44.808 -27.644  -6.373  1.00  0.00     0.006 C 
BRANCH   7   8
ATOM      8  C   UNL     1     -43.710 -27.605  -7.443  1.00  0.00     0.053 C 
BRANCH   8   9
ATOM      9  C   UNL     1     -44.264 -28.008  -8.774  1.00  0.00     0.041 C 
ATOM     10  O   UNL     1     -45.338 -27.501  -9.194  1.00  0.00    -0.550 OA
ATOM     11  O   UNL     1     -43.621 -28.982  -9.528  1.00  0.00    -0.550 OA
ENDBRANCH   8   9
ENDBRANCH   7   8
ENDBRANCH   6   7
ENDBRANCH   5   6
ENDBRANCH   4   5
ENDBRANCH   3   4
ENDBRANCH   2   3
ENDBRANCH   1   2
BRANCH   1  12
ATOM     12  C   UNL     1     -43.666 -28.881  -0.078  1.00  0.00     0.000 C 
BRANCH  12  13
ATOM     13  C   UNL     1     -44.659 -29.875   0.547  1.00  0.00    -0.000 C 
BRANCH  13  14
ATOM     14  C   UNL     1     -45.954 -29.194   1.025  1.00  0.00    -0.000 C 
BRANCH  14  15
ATOM     15  C   UNL     1     -46.027 -29.075   2.556  1.00  0.00    -0.000 C 
BRANCH  15  16
ATOM     16  C   UNL     1     -46.249 -27.630   3.030  1.00  0.00    -0.000 C 
BRANCH  16  17
ATOM     17  C   UNL     1     -46.245 -27.551   4.564  1.00  0.00    -0.000 C 
BRANCH  17  18
ATOM     18  C   UNL     1     -45.841 -28.880   5.225  1.00  0.00    -0.000 C 
BRANCH  18  19
ATOM     19  C   UNL     1     -45.179 -28.681   6.597  1.00  0.00    -0.003 C 
ATOM     20  C   UNL     1     -44.645 -30.001   7.146  1.00  0.00     0.004 C 
ENDBRANCH  18  19
ENDBRANCH  17  18
ENDBRANCH  16  17
ENDBRANCH  15  16
ENDBRANCH  14  15
ENDBRANCH  13  14
ENDBRANCH  12  13
ENDBRANCH   1  12
TORSDOF 16
ENDMDL
MODEL 8
REMARK VINA RESULT:    -3.423      3.656      9.101
REMARK INTER + INTRA:          -7.574
REMARK INTER:                  -6.211
REMARK INTRA:                  -1.362
REMARK UNBOUND:                -0.949
REMARK SMILES CCCCCCCCCCCCCCCCCC(=O)[O-]
REMARK SMILES IDX 10 1 11 2 12 3 13 4 14 5 15 6 16 7 17 8 18 9 19 10 20 11
REMARK SMILES IDX 9 12 8 13 7 14 6 15 5 16 4 17 3 18 2 19 1 20
REMARK H PARENT
REMARK Flexibility Score: inf
ROOT
ATOM      1  C   UNL     1     -45.616 -28.845  -3.367  1.00  0.00     0.000 C 
ENDROOT
BRANCH   1   2
ATOM      2  C   UNL     1     -46.286 -29.903  -2.472  1.00  0.00     0.000 C 
BRANCH   2   3
ATOM      3  C   UNL     1     -46.913 -29.364  -1.170  1.00  0.00     0.000 C 
BRANCH   3   4
ATOM      4  C   UNL     1     -46.452 -27.957  -0.748  1.00  0.00     0.000 C 
BRANCH   4   5
ATOM      5  C   UNL     1     -45.654 -27.958   0.566  1.00  0.00     0.000 C 
BRANCH   5   6
ATOM      6  C   UNL     1     -44.354 -27.138   0.480  1.00  0.00     0.000 C 
BRANCH   6   7
ATOM      7  C   UNL     1     -43.477 -27.428  -0.753  1.00  0.00     0.006 C 
BRANCH   7   8
ATOM      8  C   UNL     1     -42.040 -27.819  -0.388  1.00  0.00     0.053 C 
BRANCH   8   9
ATOM      9  C   UNL     1     -41.934 -29.300  -0.200  1.00  0.00     0.041 C 
ATOM     10  O   UNL     1     -40.875 -29.808   0.252  1.00  0.00    -0.550 OA
ATOM     11  O   UNL     1     -42.989 -30.125  -0.572  1.00  0.00    -0.550 OA
ENDBRANCH   8   9
ENDBRANCH   7   8
ENDBRANCH   6   7
ENDBRANCH   5   6
ENDBRANCH   4   5
ENDBRANCH   3   4
ENDBRANCH   2   3
ENDBRANCH   1   2
BRANCH   1  12
ATOM     12  C   UNL     1     -46.286 -28.723  -4.747  1.00  0.00     0.000 C 
BRANCH  12  13
ATOM     13  C   UNL     1     -45.698 -27.577  -5.588  1.00  0.00    -0.000 C 
BRANCH  13  14
ATOM     14  C   UNL     1     -46.494 -27.328  -6.882  1.00  0.00    -0.000 C 
BRANCH  14  15
ATOM     15  C   UNL     1     -47.049 -28.625  -7.492  1.00  0.00    -0.000 C 
BRANCH  15  16
ATOM     16  C   UNL     1     -46.269 -29.078  -8.737  1.00  0.00    -0.000 C 
BRANCH  16  17
ATOM     17  C   UNL     1     -45.688 -27.871  -9.488  1.00  0.00    -0.000 C 
BRANCH  17  18
ATOM     18  C   UNL     1     -44.151 -27.840  -9.459  1.00  0.00    -0.000 C 
BRANCH  18  19
ATOM     19  C   UNL     1     -43.530 -29.245  -9.453  1.00  0.00    -0.003 C 
ATOM     20  C   UNL     1     -42.264 -29.282  -8.601  1.00  0.00     0.004 C 
ENDBRANCH  18  19
ENDBRANCH  17  18
ENDBRANCH  16  17
ENDBRANCH  15  16
ENDBRANCH  14  15
ENDBRANCH  13  14
ENDBRANCH  12  13
ENDBRANCH   1  12
TORSDOF 16
ENDMDL
MODEL 9
REMARK VINA RESULT:    -3.177      3.689      9.545
REMARK INTER + INTRA:          -7.097
REMARK INTER:                  -6.065
REMARK INTRA:                  -1.033
REMARK UNBOUND:                -0.949
REMARK SMILES CCCCCCCCCCCCCCCCCC(=O)[O-]
REMARK SMILES IDX 10 1 11 2 12 3 13 4 14 5 15 6 16 7 17 8 18 9 19 10 20 11
REMARK SMILES IDX 9 12 8 13 7 14 6 15 5 16 4 17 3 18 2 19 1 20
REMARK H PARENT
REMARK Flexibility Score: inf
ROOT
ATOM      1  C   UNL     1     -45.317 -28.063  -2.114  1.00  0.00     0.000 C 
ENDROOT
BRANCH   1   2
ATOM      2  C   UNL     1     -44.124 -27.871  -1.160  1.00  0.00     0.000 C 
BRANCH   2   3
ATOM      3  C   UNL     1     -43.850 -29.049  -0.202  1.00  0.00     0.000 C 
BRANCH   3   4
ATOM      4  C   UNL     1     -45.082 -29.889   0.182  1.00  0.00     0.000 C 
BRANCH   4   5
ATOM      5  C   UNL     1     -45.528 -29.665   1.637  1.00  0.00     0.000 C 
BRANCH   5   6
ATOM      6  C   UNL     1     -46.658 -28.626   1.764  1.00  0.00     0.000 C 
BRANCH   6   7
ATOM      7  C   UNL     1     -46.724 -27.892   3.116  1.00  0.00     0.006 C 
BRANCH   7   8
ATOM      8  C   UNL     1     -46.587 -26.371   2.979  1.00  0.00     0.053 C 
BRANCH   8   9
ATOM      9  C   UNL     1     -46.169 -26.007   1.589  1.00  0.00     0.041 C 
ATOM     10  O   UNL     1     -44.957 -25.787   1.328  1.00  0.00    -0.550 OA
ATOM     11  O   UNL     1     -47.125 -25.862   0.591  1.00  0.00    -0.550 OA
ENDBRANCH   8   9
ENDBRANCH   7   8
ENDBRANCH   6   7
ENDBRANCH   5   6
ENDBRANCH   4   5
ENDBRANCH   3   4
ENDBRANCH   2   3
ENDBRANCH   1   2
BRANCH   1  12
ATOM     12  C   UNL     1     -45.102 -27.388  -3.479  1.00  0.00     0.000 C 
BRANCH  12  13
ATOM     13  C   UNL     1     -45.615 -28.245  -4.648  1.00  0.00    -0.000 C 
BRANCH  13  14
ATOM     14  C   UNL     1     -45.629 -27.475  -5.981  1.00  0.00    -0.000 C 
BRANCH  14  15
ATOM     15  C   UNL     1     -46.764 -27.929  -6.913  1.00  0.00    -0.000 C 
BRANCH  15  16
ATOM     16  C   UNL     1     -46.368 -27.886  -8.398  1.00  0.00    -0.000 C 
BRANCH  16  17
ATOM     17  C   UNL     1     -45.637 -29.174  -8.806  1.00  0.00    -0.000 C 
BRANCH  17  18
ATOM     18  C   UNL     1     -44.295 -28.898  -9.504  1.00  0.00    -0.000 C 
BRANCH  18  19
ATOM     19  C   UNL     1     -43.157 -28.621  -8.510  1.00  0.00    -0.003 C 
ATOM     20  C   UNL     1     -43.001 -29.772  -7.520  1.00  0.00     0.004 C 
ENDBRANCH  18  19
ENDBRANCH  17  18
ENDBRANCH  16  17
ENDBRANCH  15  16
ENDBRANCH  14  15
ENDBRANCH  13  14
ENDBRANCH  12  13
ENDBRANCH   1  12
TORSDOF 16
ENDMDL
