MODEL 1
REMARK VINA RESULT:    -6.446      0.000      0.000
REMARK INTER + INTRA:          -7.540
REMARK INTER:                  -7.389
REMARK INTRA:                  -0.152
REMARK UNBOUND:                -0.152
REMARK SMILES O=C([O-])C=Cc1ccc(O)cc1
REMARK SMILES IDX 6 1 7 2 12 3 8 4 11 5 9 6 5 7 4 8 2 9 1 10 3 11 10 12
REMARK H PARENT 10 13
REMARK Flexibility Score: inf
ROOT
ATOM      1  C   UNL     1      11.117 -12.690  28.454  1.00  0.00    -0.025 A 
ATOM      2  C   UNL     1      11.270 -12.262  29.784  1.00  0.00     0.012 A 
ATOM      3  C   UNL     1      10.003 -12.235  27.717  1.00  0.00     0.012 A 
ATOM      4  C   UNL     1      10.349 -11.380  30.358  1.00  0.00     0.047 A 
ATOM      5  C   UNL     1       9.085 -11.354  28.297  1.00  0.00     0.047 A 
ATOM      6  C   UNL     1       9.257 -10.922  29.617  1.00  0.00     0.115 A 
ENDROOT
BRANCH   1   7
ATOM      7  C   UNL     1      12.115 -13.634  27.892  1.00  0.00     0.010 C 
ATOM      8  C   UNL     1      13.018 -14.291  28.634  1.00  0.00     0.025 C 
BRANCH   8   9
ATOM      9  C   UNL     1      13.986 -15.230  28.042  1.00  0.00     0.064 C 
ATOM     10  O   UNL     1      14.622 -14.938  26.994  1.00  0.00    -0.545 OA
ATOM     11  O   UNL     1      14.204 -16.459  28.652  1.00  0.00    -0.545 OA
ENDBRANCH   8   9
ENDBRANCH   1   7
BRANCH   6  12
ATOM     12  O   UNL     1       8.348 -10.043  30.203  1.00  0.00    -0.508 OA
ATOM     13  H   UNL     1       8.659  -9.243  30.741  1.00  0.00     0.293 HD
ENDBRANCH   6  12
TORSDOF 3
ENDMDL
MODEL 2
REMARK VINA RESULT:    -6.194      1.786      2.035
REMARK INTER + INTRA:          -7.251
REMARK INTER:                  -7.099
REMARK INTRA:                  -0.152
REMARK UNBOUND:                -0.152
REMARK SMILES O=C([O-])C=Cc1ccc(O)cc1
REMARK SMILES IDX 6 1 7 2 12 3 8 4 11 5 9 6 5 7 4 8 2 9 1 10 3 11 10 12
REMARK H PARENT 10 13
REMARK Flexibility Score: inf
ROOT
ATOM      1  C   UNL     1      12.537 -12.096  29.263  1.00  0.00    -0.025 A 
ATOM      2  C   UNL     1      13.087 -11.804  30.523  1.00  0.00     0.012 A 
ATOM      3  C   UNL     1      11.564 -11.226  28.728  1.00  0.00     0.012 A 
ATOM      4  C   UNL     1      12.696 -10.659  31.223  1.00  0.00     0.047 A 
ATOM      5  C   UNL     1      11.176 -10.081  29.432  1.00  0.00     0.047 A 
ATOM      6  C   UNL     1      11.743  -9.793  30.679  1.00  0.00     0.115 A 
ENDROOT
BRANCH   1   7
ATOM      7  C   UNL     1      12.976 -13.330  28.564  1.00  0.00     0.010 C 
ATOM      8  C   UNL     1      13.573 -14.361  29.179  1.00  0.00     0.025 C 
BRANCH   8   9
ATOM      9  C   UNL     1      13.985 -15.575  28.454  1.00  0.00     0.064 C 
ATOM     10  O   UNL     1      14.450 -15.511  27.284  1.00  0.00    -0.545 OA
ATOM     11  O   UNL     1      13.861 -16.812  29.071  1.00  0.00    -0.545 OA
ENDBRANCH   8   9
ENDBRANCH   1   7
BRANCH   6  12
ATOM     12  O   UNL     1      11.365  -8.655  31.388  1.00  0.00    -0.508 OA
ATOM     13  H   UNL     1      10.764  -8.714  32.202  1.00  0.00     0.293 HD
ENDBRANCH   6  12
TORSDOF 3
ENDMDL
MODEL 3
REMARK VINA RESULT:    -5.711      1.573      5.808
REMARK INTER + INTRA:          -6.698
REMARK INTER:                  -6.554
REMARK INTRA:                  -0.144
REMARK UNBOUND:                -0.152
REMARK SMILES O=C([O-])C=Cc1ccc(O)cc1
REMARK SMILES IDX 6 1 7 2 12 3 8 4 11 5 9 6 5 7 4 8 2 9 1 10 3 11 10 12
REMARK H PARENT 10 13
REMARK Flexibility Score: inf
ROOT
ATOM      1  C   UNL     1      12.991 -12.959  28.743  1.00  0.00    -0.025 A 
ATOM      2  C   UNL     1      13.016 -13.982  29.706  1.00  0.00     0.012 A 
ATOM      3  C   UNL     1      13.579 -13.197  27.482  1.00  0.00     0.012 A 
ATOM      4  C   UNL     1      13.590 -15.223  29.412  1.00  0.00     0.047 A 
ATOM      5  C   UNL     1      14.152 -14.440  27.194  1.00  0.00     0.047 A 
ATOM      6  C   UNL     1      14.157 -15.457  28.156  1.00  0.00     0.115 A 
ENDROOT
BRANCH   1   7
ATOM      7  C   UNL     1      12.380 -11.656  29.106  1.00  0.00     0.010 C 
ATOM      8  C   UNL     1      11.220 -11.536  29.766  1.00  0.00     0.025 C 
BRANCH   8   9
ATOM      9  C   UNL     1      10.650 -10.225  30.120  1.00  0.00     0.064 C 
ATOM     10  O   UNL     1       9.433  -9.966  29.918  1.00  0.00    -0.545 OA
ATOM     11  O   UNL     1      11.468  -9.257  30.687  1.00  0.00    -0.545 OA
ENDBRANCH   8   9
ENDBRANCH   1   7
BRANCH   6  12
ATOM     12  O   UNL     1      14.724 -16.698  27.878  1.00  0.00    -0.508 OA
ATOM     13  H   UNL     1      14.567 -17.498  28.480  1.00  0.00     0.293 HD
ENDBRANCH   6  12
TORSDOF 3
ENDMDL
MODEL 4
REMARK VINA RESULT:    -5.663      1.492      5.920
REMARK INTER + INTRA:          -6.643
REMARK INTER:                  -6.504
REMARK INTRA:                  -0.138
REMARK UNBOUND:                -0.152
REMARK SMILES O=C([O-])C=Cc1ccc(O)cc1
REMARK SMILES IDX 6 1 7 2 12 3 8 4 11 5 9 6 5 7 4 8 2 9 1 10 3 11 10 12
REMARK H PARENT 10 13
REMARK Flexibility Score: inf
ROOT
ATOM      1  C   UNL     1      12.964 -12.833  28.902  1.00  0.00    -0.025 A 
ATOM      2  C   UNL     1      13.509 -12.918  27.609  1.00  0.00     0.012 A 
ATOM      3  C   UNL     1      13.020 -13.968  29.738  1.00  0.00     0.012 A 
ATOM      4  C   UNL     1      14.117 -14.097  27.168  1.00  0.00     0.047 A 
ATOM      5  C   UNL     1      13.629 -15.145  29.292  1.00  0.00     0.047 A 
ATOM      6  C   UNL     1      14.182 -15.212  28.008  1.00  0.00     0.115 A 
ENDROOT
BRANCH   1   7
ATOM      7  C   UNL     1      12.319 -11.564  29.319  1.00  0.00     0.010 C 
ATOM      8  C   UNL     1      11.043 -11.473  29.719  1.00  0.00     0.025 C 
BRANCH   8   9
ATOM      9  C   UNL     1      10.440 -10.196  30.138  1.00  0.00     0.064 C 
ATOM     10  O   UNL     1      11.142  -9.274  30.633  1.00  0.00    -0.545 OA
ATOM     11  O   UNL     1       9.074 -10.004  29.982  1.00  0.00    -0.545 OA
ENDBRANCH   8   9
ENDBRANCH   1   7
BRANCH   6  12
ATOM     12  O   UNL     1      14.792 -16.380  27.555  1.00  0.00    -0.508 OA
ATOM     13  H   UNL     1      14.251 -17.142  27.165  1.00  0.00     0.293 HD
ENDBRANCH   6  12
TORSDOF 3
ENDMDL
MODEL 5
REMARK VINA RESULT:    -5.642     12.885     14.475
REMARK INTER + INTRA:          -6.618
REMARK INTER:                  -6.481
REMARK INTRA:                  -0.137
REMARK UNBOUND:                -0.152
REMARK SMILES O=C([O-])C=Cc1ccc(O)cc1
REMARK SMILES IDX 6 1 7 2 12 3 8 4 11 5 9 6 5 7 4 8 2 9 1 10 3 11 10 12
REMARK H PARENT 10 13
REMARK Flexibility Score: inf
ROOT
ATOM      1  C   UNL     1      15.995  -1.063  26.490  1.00  0.00    -0.025 A 
ATOM      2  C   UNL     1      17.315  -0.968  26.016  1.00  0.00     0.012 A 
ATOM      3  C   UNL     1      15.639  -2.168  27.292  1.00  0.00     0.012 A 
ATOM      4  C   UNL     1      18.265  -1.935  26.355  1.00  0.00     0.047 A 
ATOM      5  C   UNL     1      16.594  -3.134  27.627  1.00  0.00     0.047 A 
ATOM      6  C   UNL     1      17.909  -3.019  27.162  1.00  0.00     0.115 A 
ENDROOT
BRANCH   1   7
ATOM      7  C   UNL     1      15.020  -0.017  26.095  1.00  0.00     0.010 C 
ATOM      8  C   UNL     1      15.056   1.244  26.548  1.00  0.00     0.025 C 
BRANCH   8   9
ATOM      9  C   UNL     1      14.077   2.260  26.124  1.00  0.00     0.064 C 
ATOM     10  O   UNL     1      13.643   3.125  26.931  1.00  0.00    -0.545 OA
ATOM     11  O   UNL     1      13.626   2.264  24.811  1.00  0.00    -0.545 OA
ENDBRANCH   8   9
ENDBRANCH   1   7
BRANCH   6  12
ATOM     12  O   UNL     1      18.867  -3.975  27.492  1.00  0.00    -0.508 OA
ATOM     13  H   UNL     1      19.055  -4.765  26.886  1.00  0.00     0.293 HD
ENDBRANCH   6  12
TORSDOF 3
ENDMDL
MODEL 6
REMARK VINA RESULT:    -5.399     12.904     14.473
REMARK INTER + INTRA:          -6.340
REMARK INTER:                  -6.203
REMARK INTRA:                  -0.137
REMARK UNBOUND:                -0.152
REMARK SMILES O=C([O-])C=Cc1ccc(O)cc1
REMARK SMILES IDX 6 1 7 2 12 3 8 4 11 5 9 6 5 7 4 8 2 9 1 10 3 11 10 12
REMARK H PARENT 10 13
REMARK Flexibility Score: inf
ROOT
ATOM      1  C   UNL     1      16.095  -1.047  26.455  1.00  0.00    -0.025 A 
ATOM      2  C   UNL     1      15.703  -2.138  27.249  1.00  0.00     0.012 A 
ATOM      3  C   UNL     1      17.448  -0.939  26.069  1.00  0.00     0.012 A 
ATOM      4  C   UNL     1      16.630  -3.113  27.629  1.00  0.00     0.047 A 
ATOM      5  C   UNL     1      18.372  -1.916  26.453  1.00  0.00     0.047 A 
ATOM      6  C   UNL     1      17.966  -3.007  27.231  1.00  0.00     0.115 A 
ENDROOT
BRANCH   1   7
ATOM      7  C   UNL     1      15.076  -0.033  26.087  1.00  0.00     0.010 C 
ATOM      8  C   UNL     1      15.106   1.239  26.506  1.00  0.00     0.025 C 
BRANCH   8   9
ATOM      9  C   UNL     1      14.082   2.221  26.110  1.00  0.00     0.064 C 
ATOM     10  O   UNL     1      13.630   2.255  24.935  1.00  0.00    -0.545 OA
ATOM     11  O   UNL     1      13.605   3.125  27.050  1.00  0.00    -0.545 OA
ENDBRANCH   8   9
ENDBRANCH   1   7
BRANCH   6  12
ATOM     12  O   UNL     1      18.878  -3.986  27.616  1.00  0.00    -0.508 OA
ATOM     13  H   UNL     1      19.207  -4.056  28.572  1.00  0.00     0.293 HD
ENDBRANCH   6  12
TORSDOF 3
ENDMDL
MODEL 7
REMARK VINA RESULT:    -4.631     12.776     13.288
REMARK INTER + INTRA:          -5.460
REMARK INTER:                  -5.324
REMARK INTRA:                  -0.136
REMARK UNBOUND:                -0.152
REMARK SMILES O=C([O-])C=Cc1ccc(O)cc1
REMARK SMILES IDX 6 1 7 2 12 3 8 4 11 5 9 6 5 7 4 8 2 9 1 10 3 11 10 12
REMARK H PARENT 10 13
REMARK Flexibility Score: inf
ROOT
ATOM      1  C   UNL     1      15.265  -0.552  26.630  1.00  0.00    -0.025 A 
ATOM      2  C   UNL     1      15.261   0.498  27.564  1.00  0.00     0.012 A 
ATOM      3  C   UNL     1      14.617  -0.362  25.391  1.00  0.00     0.012 A 
ATOM      4  C   UNL     1      14.648   1.717  27.263  1.00  0.00     0.047 A 
ATOM      5  C   UNL     1      14.004   0.860  25.095  1.00  0.00     0.047 A 
ATOM      6  C   UNL     1      14.020   1.903  26.028  1.00  0.00     0.115 A 
ENDROOT
BRANCH   1   7
ATOM      7  C   UNL     1      15.920  -1.831  27.001  1.00  0.00     0.010 C 
ATOM      8  C   UNL     1      17.237  -2.053  26.891  1.00  0.00     0.025 C 
BRANCH   8   9
ATOM      9  C   UNL     1      17.853  -3.333  27.280  1.00  0.00     0.064 C 
ATOM     10  O   UNL     1      17.189  -4.404  27.278  1.00  0.00    -0.545 OA
ATOM     11  O   UNL     1      19.190  -3.360  27.654  1.00  0.00    -0.545 OA
ENDBRANCH   8   9
ENDBRANCH   1   7
BRANCH   6  12
ATOM     12  O   UNL     1      13.415   3.125  25.741  1.00  0.00    -0.508 OA
ATOM     13  H   UNL     1      12.756   3.222  24.977  1.00  0.00     0.293 HD
ENDBRANCH   6  12
TORSDOF 3
ENDMDL
MODEL 8
REMARK VINA RESULT:    -4.289     16.318     18.204
REMARK INTER + INTRA:          -5.068
REMARK INTER:                  -4.914
REMARK INTRA:                  -0.154
REMARK UNBOUND:                -0.152
REMARK SMILES O=C([O-])C=Cc1ccc(O)cc1
REMARK SMILES IDX 6 1 7 2 12 3 8 4 11 5 9 6 5 7 4 8 2 9 1 10 3 11 10 12
REMARK H PARENT 10 13
REMARK Flexibility Score: inf
ROOT
ATOM      1  C   UNL     1       4.176  -8.131  13.354  1.00  0.00    -0.025 A 
ATOM      2  C   UNL     1       4.514  -8.588  14.640  1.00  0.00     0.012 A 
ATOM      3  C   UNL     1       4.010  -9.076  12.319  1.00  0.00     0.012 A 
ATOM      4  C   UNL     1       4.659  -9.954  14.895  1.00  0.00     0.047 A 
ATOM      5  C   UNL     1       4.157 -10.442  12.580  1.00  0.00     0.047 A 
ATOM      6  C   UNL     1       4.479 -10.885  13.869  1.00  0.00     0.115 A 
ENDROOT
BRANCH   1   7
ATOM      7  C   UNL     1       4.044  -6.670  13.130  1.00  0.00     0.010 C 
ATOM      8  C   UNL     1       4.241  -5.750  14.085  1.00  0.00     0.025 C 
BRANCH   8   9
ATOM      9  C   UNL     1       4.112  -4.306  13.823  1.00  0.00     0.064 C 
ATOM     10  O   UNL     1       3.875  -3.872  12.664  1.00  0.00    -0.545 OA
ATOM     11  O   UNL     1       4.252  -3.408  14.872  1.00  0.00    -0.545 OA
ENDBRANCH   8   9
ENDBRANCH   1   7
BRANCH   6  12
ATOM     12  O   UNL     1       4.626 -12.244  14.139  1.00  0.00    -0.508 OA
ATOM     13  H   UNL     1       4.907 -12.573  15.054  1.00  0.00     0.293 HD
ENDBRANCH   6  12
TORSDOF 3
ENDMDL
MODEL 9
REMARK VINA RESULT:    -3.996     16.641     17.734
REMARK INTER + INTRA:          -4.732
REMARK INTER:                  -4.579
REMARK INTRA:                  -0.153
REMARK UNBOUND:                -0.152
REMARK SMILES O=C([O-])C=Cc1ccc(O)cc1
REMARK SMILES IDX 6 1 7 2 12 3 8 4 11 5 9 6 5 7 4 8 2 9 1 10 3 11 10 12
REMARK H PARENT 10 13
REMARK Flexibility Score: inf
ROOT
ATOM      1  C   UNL     1       4.264  -6.290  13.605  1.00  0.00    -0.025 A 
ATOM      2  C   UNL     1       4.622  -5.893  14.904  1.00  0.00     0.012 A 
ATOM      3  C   UNL     1       3.876  -5.302  12.675  1.00  0.00     0.012 A 
ATOM      4  C   UNL     1       4.620  -4.542  15.263  1.00  0.00     0.047 A 
ATOM      5  C   UNL     1       3.875  -3.951  13.039  1.00  0.00     0.047 A 
ATOM      6  C   UNL     1       4.249  -3.567  14.332  1.00  0.00     0.115 A 
ENDROOT
BRANCH   1   7
ATOM      7  C   UNL     1       4.272  -7.737  13.276  1.00  0.00     0.010 C 
ATOM      8  C   UNL     1       4.345  -8.709  14.195  1.00  0.00     0.025 C 
BRANCH   8   9
ATOM      9  C   UNL     1       4.339 -10.136  13.832  1.00  0.00     0.064 C 
ATOM     10  O   UNL     1       4.163 -10.505  12.640  1.00  0.00    -0.545 OA
ATOM     11  O   UNL     1       4.533 -11.092  14.820  1.00  0.00    -0.545 OA
ENDBRANCH   8   9
ENDBRANCH   1   7
BRANCH   6  12
ATOM     12  O   UNL     1       4.252  -2.225  14.704  1.00  0.00    -0.508 OA
ATOM     13  H   UNL     1       4.837  -1.547  14.230  1.00  0.00     0.293 HD
ENDBRANCH   6  12
TORSDOF 3
ENDMDL
