MODEL 1
REMARK VINA RESULT:    -4.195      0.000      0.000
REMARK INTER + INTRA:         -15.882
REMARK INTER:                 -11.062
REMARK INTRA:                  -4.821
REMARK UNBOUND:                -4.821
REMARK SMILES CCCCCCCCCCCCCCCCCCCCCCCCCCCCCC(=O)[O-]
REMARK SMILES IDX 16 1 17 2 18 3 19 4 20 5 21 6 22 7 23 8 24 9 25 10 26 11
REMARK SMILES IDX 27 12 28 13 29 14 30 15 31 16 32 17 15 18 14 19 13 20 12 21
REMARK SMILES IDX 11 22 10 23 9 24 8 25 7 26 6 27 5 28 4 29 3 30 2 31 1 32
REMARK H PARENT
REMARK Flexibility Score: inf
ROOT
ATOM      1  C   UNL     1      -5.891  26.810 -13.011  1.00  0.00     0.000 C 
ENDROOT
BRANCH   1   2
ATOM      2  C   UNL     1      -4.995  25.576 -13.268  1.00  0.00     0.000 C 
BRANCH   2   3
ATOM      3  C   UNL     1      -5.249  24.431 -12.268  1.00  0.00     0.000 C 
BRANCH   3   4
ATOM      4  C   UNL     1      -4.444  24.610 -10.967  1.00  0.00     0.000 C 
BRANCH   4   5
ATOM      5  C   UNL     1      -5.349  24.679  -9.720  1.00  0.00     0.000 C 
BRANCH   5   6
ATOM      6  C   UNL     1      -6.852  24.655 -10.041  1.00  0.00     0.000 C 
BRANCH   6   7
ATOM      7  C   UNL     1      -7.646  25.725  -9.277  1.00  0.00     0.000 C 
BRANCH   7   8
ATOM      8  C   UNL     1      -6.866  27.045  -9.203  1.00  0.00     0.000 C 
BRANCH   8   9
ATOM      9  C   UNL     1      -7.664  28.205  -9.822  1.00  0.00     0.000 C 
BRANCH   9  10
ATOM     10  C   UNL     1      -9.045  27.753 -10.342  1.00  0.00     0.000 C 
BRANCH  10  11
ATOM     11  C   UNL     1     -10.231  28.374  -9.581  1.00  0.00     0.000 C 
BRANCH  11  12
ATOM     12  C   UNL     1      -9.812  29.504  -8.630  1.00  0.00     0.000 C 
BRANCH  12  13
ATOM     13  C   UNL     1     -10.621  30.782  -8.893  1.00  0.00     0.006 C 
BRANCH  13  14
ATOM     14  C   UNL     1     -12.122  30.483  -8.930  1.00  0.00     0.053 C 
BRANCH  14  15
ATOM     15  C   UNL     1     -12.763  30.804  -7.615  1.00  0.00     0.041 C 
ATOM     16  O   UNL     1     -13.181  29.879  -6.871  1.00  0.00    -0.550 OA
ATOM     17  O   UNL     1     -12.891  32.128  -7.209  1.00  0.00    -0.550 OA
ENDBRANCH  14  15
ENDBRANCH  13  14
ENDBRANCH  12  13
ENDBRANCH  11  12
ENDBRANCH  10  11
ENDBRANCH   9  10
ENDBRANCH   8   9
ENDBRANCH   7   8
ENDBRANCH   6   7
ENDBRANCH   5   6
ENDBRANCH   4   5
ENDBRANCH   3   4
ENDBRANCH   2   3
ENDBRANCH   1   2
BRANCH   1  18
ATOM     18  C   UNL     1      -7.397  26.518 -13.181  1.00  0.00     0.000 C 
BRANCH  18  19
ATOM     19  C   UNL     1      -7.951  26.867 -14.574  1.00  0.00     0.000 C 
BRANCH  19  20
ATOM     20  C   UNL     1      -8.621  25.659 -15.266  1.00  0.00     0.000 C 
BRANCH  20  21
ATOM     21  C   UNL     1      -7.629  24.535 -15.632  1.00  0.00     0.000 C 
BRANCH  21  22
ATOM     22  C   UNL     1      -7.773  23.242 -14.804  1.00  0.00     0.000 C 
BRANCH  22  23
ATOM     23  C   UNL     1      -9.022  23.153 -13.910  1.00  0.00     0.000 C 
BRANCH  23  24
ATOM     24  C   UNL     1      -8.700  23.031 -12.411  1.00  0.00    -0.000 C 
BRANCH  24  25
ATOM     25  C   UNL     1      -9.315  21.778 -11.768  1.00  0.00    -0.000 C 
BRANCH  25  26
ATOM     26  C   UNL     1      -8.272  20.768 -11.245  1.00  0.00    -0.000 C 
BRANCH  26  27
ATOM     27  C   UNL     1      -6.844  21.126 -11.693  1.00  0.00    -0.000 C 
BRANCH  27  28
ATOM     28  C   UNL     1      -5.806  20.887 -10.587  1.00  0.00    -0.000 C 
BRANCH  28  29
ATOM     29  C   UNL     1      -6.445  20.401  -9.272  1.00  0.00    -0.000 C 
BRANCH  29  30
ATOM     30  C   UNL     1      -6.175  18.913  -9.000  1.00  0.00    -0.000 C 
BRANCH  30  31
ATOM     31  C   UNL     1      -6.723  18.451  -7.640  1.00  0.00    -0.003 C 
ATOM     32  C   UNL     1      -7.844  19.367  -7.159  1.00  0.00     0.004 C 
ENDBRANCH  30  31
ENDBRANCH  29  30
ENDBRANCH  28  29
ENDBRANCH  27  28
ENDBRANCH  26  27
ENDBRANCH  25  26
ENDBRANCH  24  25
ENDBRANCH  23  24
ENDBRANCH  22  23
ENDBRANCH  21  22
ENDBRANCH  20  21
ENDBRANCH  19  20
ENDBRANCH  18  19
ENDBRANCH   1  18
TORSDOF 28
ENDMDL
MODEL 2
REMARK VINA RESULT:    -4.151      1.783      2.102
REMARK INTER + INTRA:         -15.767
REMARK INTER:                 -10.556
REMARK INTRA:                  -5.210
REMARK UNBOUND:                -4.821
REMARK SMILES CCCCCCCCCCCCCCCCCCCCCCCCCCCCCC(=O)[O-]
REMARK SMILES IDX 16 1 17 2 18 3 19 4 20 5 21 6 22 7 23 8 24 9 25 10 26 11
REMARK SMILES IDX 27 12 28 13 29 14 30 15 31 16 32 17 15 18 14 19 13 20 12 21
REMARK SMILES IDX 11 22 10 23 9 24 8 25 7 26 6 27 5 28 4 29 3 30 2 31 1 32
REMARK H PARENT
REMARK Flexibility Score: inf
ROOT
ATOM      1  C   UNL     1      -5.918  26.774 -13.032  1.00  0.00     0.000 C 
ENDROOT
BRANCH   1   2
ATOM      2  C   UNL     1      -5.057  25.518 -13.302  1.00  0.00     0.000 C 
BRANCH   2   3
ATOM      3  C   UNL     1      -5.360  24.361 -12.330  1.00  0.00     0.000 C 
BRANCH   3   4
ATOM      4  C   UNL     1      -4.553  24.478 -11.024  1.00  0.00     0.000 C 
BRANCH   4   5
ATOM      5  C   UNL     1      -5.458  24.567  -9.778  1.00  0.00     0.000 C 
BRANCH   5   6
ATOM      6  C   UNL     1      -6.958  24.662 -10.105  1.00  0.00     0.000 C 
BRANCH   6   7
ATOM      7  C   UNL     1      -7.626  25.907  -9.503  1.00  0.00     0.000 C 
BRANCH   7   8
ATOM      8  C   UNL     1      -6.613  27.047  -9.326  1.00  0.00     0.000 C 
BRANCH   8   9
ATOM      9  C   UNL     1      -7.201  28.396  -9.774  1.00  0.00     0.000 C 
BRANCH   9  10
ATOM     10  C   UNL     1      -8.625  28.251 -10.349  1.00  0.00     0.000 C 
BRANCH  10  11
ATOM     11  C   UNL     1      -9.686  29.076  -9.599  1.00  0.00     0.000 C 
BRANCH  11  12
ATOM     12  C   UNL     1      -9.080  30.085  -8.612  1.00  0.00     0.000 C 
BRANCH  12  13
ATOM     13  C   UNL     1      -9.601  29.853  -7.187  1.00  0.00     0.006 C 
BRANCH  13  14
ATOM     14  C   UNL     1      -8.982  28.592  -6.576  1.00  0.00     0.053 C 
BRANCH  14  15
ATOM     15  C   UNL     1      -7.775  28.932  -5.758  1.00  0.00     0.041 C 
ATOM     16  O   UNL     1      -6.628  28.586  -6.145  1.00  0.00    -0.550 OA
ATOM     17  O   UNL     1      -7.918  29.639  -4.569  1.00  0.00    -0.550 OA
ENDBRANCH  14  15
ENDBRANCH  13  14
ENDBRANCH  12  13
ENDBRANCH  11  12
ENDBRANCH  10  11
ENDBRANCH   9  10
ENDBRANCH   8   9
ENDBRANCH   7   8
ENDBRANCH   6   7
ENDBRANCH   5   6
ENDBRANCH   4   5
ENDBRANCH   3   4
ENDBRANCH   2   3
ENDBRANCH   1   2
BRANCH   1  18
ATOM     18  C   UNL     1      -7.427  26.540 -13.255  1.00  0.00     0.000 C 
BRANCH  18  19
ATOM     19  C   UNL     1      -7.908  26.858 -14.682  1.00  0.00     0.000 C 
BRANCH  19  20
ATOM     20  C   UNL     1      -8.673  25.680 -15.326  1.00  0.00     0.000 C 
BRANCH  20  21
ATOM     21  C   UNL     1      -7.755  24.518 -15.758  1.00  0.00     0.000 C 
BRANCH  21  22
ATOM     22  C   UNL     1      -7.899  23.228 -14.924  1.00  0.00     0.000 C 
BRANCH  22  23
ATOM     23  C   UNL     1      -9.105  23.177 -13.971  1.00  0.00     0.000 C 
BRANCH  23  24
ATOM     24  C   UNL     1      -8.716  22.971 -12.497  1.00  0.00    -0.000 C 
BRANCH  24  25
ATOM     25  C   UNL     1      -9.315  21.690 -11.894  1.00  0.00    -0.000 C 
BRANCH  25  26
ATOM     26  C   UNL     1      -8.261  20.704 -11.349  1.00  0.00    -0.000 C 
BRANCH  26  27
ATOM     27  C   UNL     1      -6.830  21.104 -11.750  1.00  0.00    -0.000 C 
BRANCH  27  28
ATOM     28  C   UNL     1      -5.810  20.828 -10.636  1.00  0.00    -0.000 C 
BRANCH  28  29
ATOM     29  C   UNL     1      -6.476  20.351  -9.331  1.00  0.00    -0.000 C 
BRANCH  29  30
ATOM     30  C   UNL     1      -6.168  18.879  -9.015  1.00  0.00    -0.000 C 
BRANCH  30  31
ATOM     31  C   UNL     1      -6.687  18.449  -7.634  1.00  0.00    -0.003 C 
ATOM     32  C   UNL     1      -7.883  19.294  -7.208  1.00  0.00     0.004 C 
ENDBRANCH  30  31
ENDBRANCH  29  30
ENDBRANCH  28  29
ENDBRANCH  27  28
ENDBRANCH  26  27
ENDBRANCH  25  26
ENDBRANCH  24  25
ENDBRANCH  23  24
ENDBRANCH  22  23
ENDBRANCH  21  22
ENDBRANCH  20  21
ENDBRANCH  19  20
ENDBRANCH  18  19
ENDBRANCH   1  18
TORSDOF 28
ENDMDL
MODEL 3
REMARK VINA RESULT:    -4.122      2.747      5.696
REMARK INTER + INTRA:         -15.690
REMARK INTER:                 -10.118
REMARK INTRA:                  -5.573
REMARK UNBOUND:                -4.821
REMARK SMILES CCCCCCCCCCCCCCCCCCCCCCCCCCCCCC(=O)[O-]
REMARK SMILES IDX 16 1 17 2 18 3 19 4 20 5 21 6 22 7 23 8 24 9 25 10 26 11
REMARK SMILES IDX 27 12 28 13 29 14 30 15 31 16 32 17 15 18 14 19 13 20 12 21
REMARK SMILES IDX 11 22 10 23 9 24 8 25 7 26 6 27 5 28 4 29 3 30 2 31 1 32
REMARK H PARENT
REMARK Flexibility Score: inf
ROOT
ATOM      1  C   UNL     1      -8.758  28.651  -9.095  1.00  0.00     0.000 C 
ENDROOT
BRANCH   1   2
ATOM      2  C   UNL     1      -7.743  29.705  -9.597  1.00  0.00     0.000 C 
BRANCH   2   3
ATOM      3  C   UNL     1      -6.289  29.369  -9.215  1.00  0.00     0.000 C 
BRANCH   3   4
ATOM      4  C   UNL     1      -5.442  30.636  -8.994  1.00  0.00     0.000 C 
BRANCH   4   5
ATOM      5  C   UNL     1      -5.132  30.885  -7.503  1.00  0.00     0.000 C 
BRANCH   5   6
ATOM      6  C   UNL     1      -6.318  31.460  -6.711  1.00  0.00     0.000 C 
BRANCH   6   7
ATOM      7  C   UNL     1      -6.952  30.440  -5.754  1.00  0.00     0.000 C 
BRANCH   7   8
ATOM      8  C   UNL     1      -8.427  30.772  -5.491  1.00  0.00     0.000 C 
BRANCH   8   9
ATOM      9  C   UNL     1      -9.045  31.554  -6.663  1.00  0.00     0.000 C 
BRANCH   9  10
ATOM     10  C   UNL     1     -10.544  31.239  -6.851  1.00  0.00     0.000 C 
BRANCH  10  11
ATOM     11  C   UNL     1     -11.088  31.612  -8.242  1.00  0.00     0.000 C 
BRANCH  11  12
ATOM     12  C   UNL     1     -11.835  30.458  -8.927  1.00  0.00     0.000 C 
BRANCH  12  13
ATOM     13  C   UNL     1     -12.747  29.719  -7.937  1.00  0.00     0.006 C 
BRANCH  13  14
ATOM     14  C   UNL     1     -12.609  28.202  -8.094  1.00  0.00     0.053 C 
BRANCH  14  15
ATOM     15  C   UNL     1     -12.896  27.782  -9.502  1.00  0.00     0.041 C 
ATOM     16  O   UNL     1     -14.054  27.913  -9.979  1.00  0.00    -0.550 OA
ATOM     17  O   UNL     1     -11.881  27.253 -10.291  1.00  0.00    -0.550 OA
ENDBRANCH  14  15
ENDBRANCH  13  14
ENDBRANCH  12  13
ENDBRANCH  11  12
ENDBRANCH  10  11
ENDBRANCH   9  10
ENDBRANCH   8   9
ENDBRANCH   7   8
ENDBRANCH   6   7
ENDBRANCH   5   6
ENDBRANCH   4   5
ENDBRANCH   3   4
ENDBRANCH   2   3
ENDBRANCH   1   2
BRANCH   1  18
ATOM     18  C   UNL     1      -8.170  27.688  -8.042  1.00  0.00     0.000 C 
BRANCH  18  19
ATOM     19  C   UNL     1      -8.003  26.241  -8.539  1.00  0.00     0.000 C 
BRANCH  19  20
ATOM     20  C   UNL     1      -6.592  25.677  -8.259  1.00  0.00     0.000 C 
BRANCH  20  21
ATOM     21  C   UNL     1      -5.787  25.380  -9.541  1.00  0.00     0.000 C 
BRANCH  21  22
ATOM     22  C   UNL     1      -6.121  24.039 -10.226  1.00  0.00     0.000 C 
BRANCH  22  23
ATOM     23  C   UNL     1      -5.086  23.529 -11.243  1.00  0.00     0.000 C 
BRANCH  23  24
ATOM     24  C   UNL     1      -5.256  24.131 -12.649  1.00  0.00    -0.000 C 
BRANCH  24  25
ATOM     25  C   UNL     1      -4.333  25.334 -12.900  1.00  0.00    -0.000 C 
BRANCH  25  26
ATOM     26  C   UNL     1      -5.083  26.672 -13.071  1.00  0.00    -0.000 C 
BRANCH  26  27
ATOM     27  C   UNL     1      -6.588  26.465 -13.320  1.00  0.00    -0.000 C 
BRANCH  27  28
ATOM     28  C   UNL     1      -7.453  27.027 -12.183  1.00  0.00    -0.000 C 
BRANCH  28  29
ATOM     29  C   UNL     1      -8.838  26.355 -12.108  1.00  0.00    -0.000 C 
BRANCH  29  30
ATOM     30  C   UNL     1      -8.875  24.999 -12.830  1.00  0.00    -0.000 C 
BRANCH  30  31
ATOM     31  C   UNL     1      -9.254  23.840 -11.893  1.00  0.00    -0.003 C 
ATOM     32  C   UNL     1     -10.572  24.120 -11.178  1.00  0.00     0.004 C 
ENDBRANCH  30  31
ENDBRANCH  29  30
ENDBRANCH  28  29
ENDBRANCH  27  28
ENDBRANCH  26  27
ENDBRANCH  25  26
ENDBRANCH  24  25
ENDBRANCH  23  24
ENDBRANCH  22  23
ENDBRANCH  21  22
ENDBRANCH  20  21
ENDBRANCH  19  20
ENDBRANCH  18  19
ENDBRANCH   1  18
TORSDOF 28
ENDMDL
MODEL 4
REMARK VINA RESULT:    -4.087      5.582      8.670
REMARK INTER + INTRA:         -15.599
REMARK INTER:                 -10.694
REMARK INTRA:                  -4.905
REMARK UNBOUND:                -4.821
REMARK SMILES CCCCCCCCCCCCCCCCCCCCCCCCCCCCCC(=O)[O-]
REMARK SMILES IDX 16 1 17 2 18 3 19 4 20 5 21 6 22 7 23 8 24 9 25 10 26 11
REMARK SMILES IDX 27 12 28 13 29 14 30 15 31 16 32 17 15 18 14 19 13 20 12 21
REMARK SMILES IDX 11 22 10 23 9 24 8 25 7 26 6 27 5 28 4 29 3 30 2 31 1 32
REMARK H PARENT
REMARK Flexibility Score: inf
ROOT
ATOM      1  C   UNL     1      -8.327  28.800  -9.714  1.00  0.00     0.000 C 
ENDROOT
BRANCH   1   2
ATOM      2  C   UNL     1      -7.303  29.957  -9.634  1.00  0.00     0.000 C 
BRANCH   2   3
ATOM      3  C   UNL     1      -5.972  29.536  -8.980  1.00  0.00     0.000 C 
BRANCH   3   4
ATOM      4  C   UNL     1      -5.078  30.749  -8.658  1.00  0.00     0.000 C 
BRANCH   4   5
ATOM      5  C   UNL     1      -4.661  30.795  -7.173  1.00  0.00     0.000 C 
BRANCH   5   6
ATOM      6  C   UNL     1      -5.401  31.864  -6.353  1.00  0.00     0.000 C 
BRANCH   6   7
ATOM      7  C   UNL     1      -6.926  31.799  -6.518  1.00  0.00     0.000 C 
BRANCH   7   8
ATOM      8  C   UNL     1      -7.623  31.645  -5.159  1.00  0.00     0.000 C 
BRANCH   8   9
ATOM      9  C   UNL     1      -8.609  30.463  -5.164  1.00  0.00     0.000 C 
BRANCH   9  10
ATOM     10  C   UNL     1      -8.097  29.278  -6.009  1.00  0.00     0.000 C 
BRANCH  10  11
ATOM     11  C   UNL     1      -7.497  28.132  -5.175  1.00  0.00     0.000 C 
BRANCH  11  12
ATOM     12  C   UNL     1      -6.005  28.325  -4.868  1.00  0.00     0.000 C 
BRANCH  12  13
ATOM     13  C   UNL     1      -5.212  27.035  -5.120  1.00  0.00     0.006 C 
BRANCH  13  14
ATOM     14  C   UNL     1      -6.049  25.801  -4.772  1.00  0.00     0.053 C 
BRANCH  14  15
ATOM     15  C   UNL     1      -5.536  24.589  -5.486  1.00  0.00     0.041 C 
ATOM     16  O   UNL     1      -5.464  24.577  -6.743  1.00  0.00    -0.550 OA
ATOM     17  O   UNL     1      -5.130  23.475  -4.761  1.00  0.00    -0.550 OA
ENDBRANCH  14  15
ENDBRANCH  13  14
ENDBRANCH  12  13
ENDBRANCH  11  12
ENDBRANCH  10  11
ENDBRANCH   9  10
ENDBRANCH   8   9
ENDBRANCH   7   8
ENDBRANCH   6   7
ENDBRANCH   5   6
ENDBRANCH   4   5
ENDBRANCH   3   4
ENDBRANCH   2   3
ENDBRANCH   1   2
BRANCH   1  18
ATOM     18  C   UNL     1      -9.785  29.258  -9.502  1.00  0.00     0.000 C 
BRANCH  18  19
ATOM     19  C   UNL     1      -9.922  30.719  -9.036  1.00  0.00     0.000 C 
BRANCH  19  20
ATOM     20  C   UNL     1     -11.386  31.109  -8.731  1.00  0.00     0.000 C 
BRANCH  20  21
ATOM     21  C   UNL     1     -11.665  31.305  -7.226  1.00  0.00     0.000 C 
BRANCH  21  22
ATOM     22  C   UNL     1     -13.119  31.030  -6.791  1.00  0.00     0.000 C 
BRANCH  22  23
ATOM     23  C   UNL     1     -13.342  29.749  -5.968  1.00  0.00     0.000 C 
BRANCH  23  24
ATOM     24  C   UNL     1     -12.053  29.182  -5.350  1.00  0.00    -0.000 C 
BRANCH  24  25
ATOM     25  C   UNL     1     -11.444  28.041  -6.180  1.00  0.00    -0.000 C 
BRANCH  25  26
ATOM     26  C   UNL     1     -12.482  27.231  -6.984  1.00  0.00    -0.000 C 
BRANCH  26  27
ATOM     27  C   UNL     1     -12.201  27.266  -8.496  1.00  0.00    -0.000 C 
BRANCH  27  28
ATOM     28  C   UNL     1     -13.264  28.057  -9.272  1.00  0.00    -0.000 C 
BRANCH  28  29
ATOM     29  C   UNL     1     -13.264  27.725 -10.777  1.00  0.00    -0.000 C 
BRANCH  29  30
ATOM     30  C   UNL     1     -13.643  26.262 -11.057  1.00  0.00    -0.000 C 
BRANCH  30  31
ATOM     31  C   UNL     1     -14.820  26.134 -12.038  1.00  0.00    -0.003 C 
ATOM     32  C   UNL     1     -16.081  26.776 -11.471  1.00  0.00     0.004 C 
ENDBRANCH  30  31
ENDBRANCH  29  30
ENDBRANCH  28  29
ENDBRANCH  27  28
ENDBRANCH  26  27
ENDBRANCH  25  26
ENDBRANCH  24  25
ENDBRANCH  23  24
ENDBRANCH  22  23
ENDBRANCH  21  22
ENDBRANCH  20  21
ENDBRANCH  19  20
ENDBRANCH  18  19
ENDBRANCH   1  18
TORSDOF 28
ENDMDL
MODEL 5
REMARK VINA RESULT:    -4.075      4.740      9.116
REMARK INTER + INTRA:         -15.567
REMARK INTER:                  -8.927
REMARK INTRA:                  -6.640
REMARK UNBOUND:                -4.821
REMARK SMILES CCCCCCCCCCCCCCCCCCCCCCCCCCCCCC(=O)[O-]
REMARK SMILES IDX 16 1 17 2 18 3 19 4 20 5 21 6 22 7 23 8 24 9 25 10 26 11
REMARK SMILES IDX 27 12 28 13 29 14 30 15 31 16 32 17 15 18 14 19 13 20 12 21
REMARK SMILES IDX 11 22 10 23 9 24 8 25 7 26 6 27 5 28 4 29 3 30 2 31 1 32
REMARK H PARENT
REMARK Flexibility Score: inf
ROOT
ATOM      1  C   UNL     1      -8.620  27.998  -4.023  1.00  0.00     0.000 C 
ENDROOT
BRANCH   1   2
ATOM      2  C   UNL     1      -7.075  27.943  -4.076  1.00  0.00     0.000 C 
BRANCH   2   3
ATOM      3  C   UNL     1      -6.546  26.938  -5.118  1.00  0.00     0.000 C 
BRANCH   3   4
ATOM      4  C   UNL     1      -5.121  27.288  -5.586  1.00  0.00     0.000 C 
BRANCH   4   5
ATOM      5  C   UNL     1      -4.526  28.486  -4.818  1.00  0.00     0.000 C 
BRANCH   5   6
ATOM      6  C   UNL     1      -4.223  29.704  -5.706  1.00  0.00     0.000 C 
BRANCH   6   7
ATOM      7  C   UNL     1      -5.080  30.930  -5.357  1.00  0.00     0.000 C 
BRANCH   7   8
ATOM      8  C   UNL     1      -5.416  31.745  -6.613  1.00  0.00     0.000 C 
BRANCH   8   9
ATOM      9  C   UNL     1      -5.076  30.967  -7.896  1.00  0.00     0.000 C 
BRANCH   9  10
ATOM     10  C   UNL     1      -6.339  30.453  -8.620  1.00  0.00     0.000 C 
BRANCH  10  11
ATOM     11  C   UNL     1      -6.601  28.949  -8.424  1.00  0.00     0.000 C 
BRANCH  11  12
ATOM     12  C   UNL     1      -7.922  28.480  -9.051  1.00  0.00     0.000 C 
BRANCH  12  13
ATOM     13  C   UNL     1      -8.452  27.219  -8.355  1.00  0.00     0.006 C 
BRANCH  13  14
ATOM     14  C   UNL     1      -8.359  26.003  -9.282  1.00  0.00     0.053 C 
BRANCH  14  15
ATOM     15  C   UNL     1      -6.939  25.553  -9.431  1.00  0.00     0.041 C 
ATOM     16  O   UNL     1      -6.397  25.533 -10.568  1.00  0.00    -0.550 OA
ATOM     17  O   UNL     1      -6.212  25.162  -8.313  1.00  0.00    -0.550 OA
ENDBRANCH  14  15
ENDBRANCH  13  14
ENDBRANCH  12  13
ENDBRANCH  11  12
ENDBRANCH  10  11
ENDBRANCH   9  10
ENDBRANCH   8   9
ENDBRANCH   7   8
ENDBRANCH   6   7
ENDBRANCH   5   6
ENDBRANCH   4   5
ENDBRANCH   3   4
ENDBRANCH   2   3
ENDBRANCH   1   2
BRANCH   1  18
ATOM     18  C   UNL     1      -9.192  29.405  -4.301  1.00  0.00     0.000 C 
BRANCH  18  19
ATOM     19  C   UNL     1      -8.920  29.922  -5.725  1.00  0.00     0.000 C 
BRANCH  19  20
ATOM     20  C   UNL     1      -8.960  31.464  -5.813  1.00  0.00     0.000 C 
BRANCH  20  21
ATOM     21  C   UNL     1      -9.752  31.987  -7.030  1.00  0.00     0.000 C 
BRANCH  21  22
ATOM     22  C   UNL     1     -10.314  30.894  -7.962  1.00  0.00     0.000 C 
BRANCH  22  23
ATOM     23  C   UNL     1     -11.485  31.319  -8.864  1.00  0.00     0.000 C 
BRANCH  23  24
ATOM     24  C   UNL     1     -12.422  30.159  -9.244  1.00  0.00    -0.000 C 
BRANCH  24  25
ATOM     25  C   UNL     1     -11.728  28.789  -9.190  1.00  0.00    -0.000 C 
BRANCH  25  26
ATOM     26  C   UNL     1     -12.390  27.792  -8.215  1.00  0.00    -0.000 C 
BRANCH  26  27
ATOM     27  C   UNL     1     -11.727  27.812  -6.827  1.00  0.00    -0.000 C 
BRANCH  27  28
ATOM     28  C   UNL     1     -12.704  28.223  -5.716  1.00  0.00    -0.000 C 
BRANCH  28  29
ATOM     29  C   UNL     1     -13.269  29.642  -5.922  1.00  0.00    -0.000 C 
BRANCH  29  30
ATOM     30  C   UNL     1     -12.649  30.669  -4.961  1.00  0.00    -0.000 C 
BRANCH  30  31
ATOM     31  C   UNL     1     -13.502  31.940  -4.823  1.00  0.00    -0.003 C 
ATOM     32  C   UNL     1     -13.309  32.864  -6.022  1.00  0.00     0.004 C 
ENDBRANCH  30  31
ENDBRANCH  29  30
ENDBRANCH  28  29
ENDBRANCH  27  28
ENDBRANCH  26  27
ENDBRANCH  25  26
ENDBRANCH  24  25
ENDBRANCH  23  24
ENDBRANCH  22  23
ENDBRANCH  21  22
ENDBRANCH  20  21
ENDBRANCH  19  20
ENDBRANCH  18  19
ENDBRANCH   1  18
TORSDOF 28
ENDMDL
MODEL 6
REMARK VINA RESULT:    -4.036      3.553      7.507
REMARK INTER + INTRA:         -15.464
REMARK INTER:                  -9.634
REMARK INTRA:                  -5.830
REMARK UNBOUND:                -4.821
REMARK SMILES CCCCCCCCCCCCCCCCCCCCCCCCCCCCCC(=O)[O-]
REMARK SMILES IDX 16 1 17 2 18 3 19 4 20 5 21 6 22 7 23 8 24 9 25 10 26 11
REMARK SMILES IDX 27 12 28 13 29 14 30 15 31 16 32 17 15 18 14 19 13 20 12 21
REMARK SMILES IDX 11 22 10 23 9 24 8 25 7 26 6 27 5 28 4 29 3 30 2 31 1 32
REMARK H PARENT
REMARK Flexibility Score: inf
ROOT
ATOM      1  C   UNL     1      -7.907  26.878 -13.110  1.00  0.00     0.000 C 
ENDROOT
BRANCH   1   2
ATOM      2  C   UNL     1      -6.545  26.507 -13.745  1.00  0.00     0.000 C 
BRANCH   2   3
ATOM      3  C   UNL     1      -5.372  26.610 -12.752  1.00  0.00     0.000 C 
BRANCH   3   4
ATOM      4  C   UNL     1      -4.238  25.625 -13.094  1.00  0.00     0.000 C 
BRANCH   4   5
ATOM      5  C   UNL     1      -3.878  24.706 -11.909  1.00  0.00     0.000 C 
BRANCH   5   6
ATOM      6  C   UNL     1      -4.095  23.211 -12.194  1.00  0.00     0.000 C 
BRANCH   6   7
ATOM      7  C   UNL     1      -5.575  22.844 -12.380  1.00  0.00     0.000 C 
BRANCH   7   8
ATOM      8  C   UNL     1      -6.387  23.169 -11.119  1.00  0.00     0.000 C 
BRANCH   8   9
ATOM      9  C   UNL     1      -7.896  23.197 -11.414  1.00  0.00     0.000 C 
BRANCH   9  10
ATOM     10  C   UNL     1      -8.196  23.278 -12.925  1.00  0.00     0.000 C 
BRANCH  10  11
ATOM     11  C   UNL     1      -9.673  23.032 -13.282  1.00  0.00     0.000 C 
BRANCH  11  12
ATOM     12  C   UNL     1     -10.649  23.631 -12.259  1.00  0.00     0.000 C 
BRANCH  12  13
ATOM     13  C   UNL     1     -11.671  24.553 -12.938  1.00  0.00     0.006 C 
BRANCH  13  14
ATOM     14  C   UNL     1     -11.022  25.343 -14.079  1.00  0.00     0.053 C 
BRANCH  14  15
ATOM     15  C   UNL     1     -11.716  25.072 -15.378  1.00  0.00     0.041 C 
ATOM     16  O   UNL     1     -12.805  24.440 -15.395  1.00  0.00    -0.550 OA
ATOM     17  O   UNL     1     -11.162  25.524 -16.570  1.00  0.00    -0.550 OA
ENDBRANCH  14  15
ENDBRANCH  13  14
ENDBRANCH  12  13
ENDBRANCH  11  12
ENDBRANCH  10  11
ENDBRANCH   9  10
ENDBRANCH   8   9
ENDBRANCH   7   8
ENDBRANCH   6   7
ENDBRANCH   5   6
ENDBRANCH   4   5
ENDBRANCH   3   4
ENDBRANCH   2   3
ENDBRANCH   1   2
BRANCH   1  18
ATOM     18  C   UNL     1      -7.885  26.865 -11.567  1.00  0.00     0.000 C 
BRANCH  18  19
ATOM     19  C   UNL     1      -9.253  26.573 -10.923  1.00  0.00     0.000 C 
BRANCH  19  20
ATOM     20  C   UNL     1      -9.151  26.326  -9.402  1.00  0.00     0.000 C 
BRANCH  20  21
ATOM     21  C   UNL     1      -7.701  26.336  -8.875  1.00  0.00     0.000 C 
BRANCH  21  22
ATOM     22  C   UNL     1      -7.497  27.076  -7.537  1.00  0.00     0.000 C 
BRANCH  22  23
ATOM     23  C   UNL     1      -6.653  28.360  -7.603  1.00  0.00     0.000 C 
BRANCH  23  24
ATOM     24  C   UNL     1      -6.514  28.934  -9.023  1.00  0.00    -0.000 C 
BRANCH  24  25
ATOM     25  C   UNL     1      -7.318  30.228  -9.226  1.00  0.00    -0.000 C 
BRANCH  25  26
ATOM     26  C   UNL     1      -8.735  30.001  -9.794  1.00  0.00    -0.000 C 
BRANCH  26  27
ATOM     27  C   UNL     1      -9.805  29.973  -8.689  1.00  0.00    -0.000 C 
BRANCH  27  28
ATOM     28  C   UNL     1     -11.219  29.758  -9.247  1.00  0.00    -0.000 C 
BRANCH  28  29
ATOM     29  C   UNL     1     -11.976  28.631  -8.518  1.00  0.00    -0.000 C 
BRANCH  29  30
ATOM     30  C   UNL     1     -13.223  28.166  -9.286  1.00  0.00    -0.000 C 
BRANCH  30  31
ATOM     31  C   UNL     1     -12.894  27.142 -10.384  1.00  0.00    -0.003 C 
ATOM     32  C   UNL     1     -14.123  26.831 -11.232  1.00  0.00     0.004 C 
ENDBRANCH  30  31
ENDBRANCH  29  30
ENDBRANCH  28  29
ENDBRANCH  27  28
ENDBRANCH  26  27
ENDBRANCH  25  26
ENDBRANCH  24  25
ENDBRANCH  23  24
ENDBRANCH  22  23
ENDBRANCH  21  22
ENDBRANCH  20  21
ENDBRANCH  19  20
ENDBRANCH  18  19
ENDBRANCH   1  18
TORSDOF 28
ENDMDL
MODEL 7
REMARK VINA RESULT:    -4.036      1.411      2.541
REMARK INTER + INTRA:         -15.463
REMARK INTER:                 -10.075
REMARK INTRA:                  -5.388
REMARK UNBOUND:                -4.821
REMARK SMILES CCCCCCCCCCCCCCCCCCCCCCCCCCCCCC(=O)[O-]
REMARK SMILES IDX 16 1 17 2 18 3 19 4 20 5 21 6 22 7 23 8 24 9 25 10 26 11
REMARK SMILES IDX 27 12 28 13 29 14 30 15 31 16 32 17 15 18 14 19 13 20 12 21
REMARK SMILES IDX 11 22 10 23 9 24 8 25 7 26 6 27 5 28 4 29 3 30 2 31 1 32
REMARK H PARENT
REMARK Flexibility Score: inf
ROOT
ATOM      1  C   UNL     1      -5.517  24.608 -12.224  1.00  0.00     0.000 C 
ENDROOT
BRANCH   1   2
ATOM      2  C   UNL     1      -4.838  24.231 -10.886  1.00  0.00     0.000 C 
BRANCH   2   3
ATOM      3  C   UNL     1      -5.793  24.322  -9.681  1.00  0.00     0.000 C 
BRANCH   3   4
ATOM      4  C   UNL     1      -7.249  24.577 -10.115  1.00  0.00     0.000 C 
BRANCH   4   5
ATOM      5  C   UNL     1      -7.908  25.724  -9.321  1.00  0.00     0.000 C 
BRANCH   5   6
ATOM      6  C   UNL     1      -6.919  26.804  -8.854  1.00  0.00     0.000 C 
BRANCH   6   7
ATOM      7  C   UNL     1      -6.774  27.960  -9.855  1.00  0.00     0.000 C 
BRANCH   7   8
ATOM      8  C   UNL     1      -8.146  28.424 -10.365  1.00  0.00     0.000 C 
BRANCH   8   9
ATOM      9  C   UNL     1      -8.457  29.861  -9.913  1.00  0.00     0.000 C 
BRANCH   9  10
ATOM     10  C   UNL     1      -7.539  30.324  -8.761  1.00  0.00     0.000 C 
BRANCH  10  11
ATOM     11  C   UNL     1      -8.249  30.415  -7.398  1.00  0.00     0.000 C 
BRANCH  11  12
ATOM     12  C   UNL     1      -9.735  30.035  -7.465  1.00  0.00     0.000 C 
BRANCH  12  13
ATOM     13  C   UNL     1      -9.988  28.661  -6.828  1.00  0.00     0.006 C 
BRANCH  13  14
ATOM     14  C   UNL     1     -10.684  27.720  -7.816  1.00  0.00     0.053 C 
BRANCH  14  15
ATOM     15  C   UNL     1     -12.150  27.631  -7.526  1.00  0.00     0.041 C 
ATOM     16  O   UNL     1     -12.991  27.943  -8.410  1.00  0.00    -0.550 OA
ATOM     17  O   UNL     1     -12.588  27.197  -6.280  1.00  0.00    -0.550 OA
ENDBRANCH  14  15
ENDBRANCH  13  14
ENDBRANCH  12  13
ENDBRANCH  11  12
ENDBRANCH  10  11
ENDBRANCH   9  10
ENDBRANCH   8   9
ENDBRANCH   7   8
ENDBRANCH   6   7
ENDBRANCH   5   6
ENDBRANCH   4   5
ENDBRANCH   3   4
ENDBRANCH   2   3
ENDBRANCH   1   2
BRANCH   1  18
ATOM     18  C   UNL     1      -4.978  25.918 -12.836  1.00  0.00     0.000 C 
BRANCH  18  19
ATOM     19  C   UNL     1      -6.074  26.868 -13.350  1.00  0.00     0.000 C 
BRANCH  19  20
ATOM     20  C   UNL     1      -7.472  26.210 -13.361  1.00  0.00     0.000 C 
BRANCH  20  21
ATOM     21  C   UNL     1      -8.080  26.086 -14.774  1.00  0.00     0.000 C 
BRANCH  21  22
ATOM     22  C   UNL     1      -7.453  24.990 -15.660  1.00  0.00     0.000 C 
BRANCH  22  23
ATOM     23  C   UNL     1      -7.547  23.554 -15.116  1.00  0.00     0.000 C 
BRANCH  23  24
ATOM     24  C   UNL     1      -8.967  22.965 -15.174  1.00  0.00    -0.000 C 
BRANCH  24  25
ATOM     25  C   UNL     1      -9.298  22.083 -13.960  1.00  0.00    -0.000 C 
BRANCH  25  26
ATOM     26  C   UNL     1      -8.665  22.574 -12.641  1.00  0.00    -0.000 C 
BRANCH  26  27
ATOM     27  C   UNL     1      -8.125  21.411 -11.789  1.00  0.00    -0.000 C 
BRANCH  27  28
ATOM     28  C   UNL     1      -6.729  20.954 -12.238  1.00  0.00    -0.000 C 
BRANCH  28  29
ATOM     29  C   UNL     1      -5.797  20.650 -11.049  1.00  0.00    -0.000 C 
BRANCH  29  30
ATOM     30  C   UNL     1      -6.558  20.528  -9.720  1.00  0.00    -0.000 C 
BRANCH  30  31
ATOM     31  C   UNL     1      -6.111  19.312  -8.892  1.00  0.00    -0.003 C 
ATOM     32  C   UNL     1      -7.211  18.866  -7.934  1.00  0.00     0.004 C 
ENDBRANCH  30  31
ENDBRANCH  29  30
ENDBRANCH  28  29
ENDBRANCH  27  28
ENDBRANCH  26  27
ENDBRANCH  25  26
ENDBRANCH  24  25
ENDBRANCH  23  24
ENDBRANCH  22  23
ENDBRANCH  21  22
ENDBRANCH  20  21
ENDBRANCH  19  20
ENDBRANCH  18  19
ENDBRANCH   1  18
TORSDOF 28
ENDMDL
MODEL 8
REMARK VINA RESULT:    -4.031      5.945      9.259
REMARK INTER + INTRA:         -15.451
REMARK INTER:                 -10.892
REMARK INTRA:                  -4.558
REMARK UNBOUND:                -4.821
REMARK SMILES CCCCCCCCCCCCCCCCCCCCCCCCCCCCCC(=O)[O-]
REMARK SMILES IDX 16 1 17 2 18 3 19 4 20 5 21 6 22 7 23 8 24 9 25 10 26 11
REMARK SMILES IDX 27 12 28 13 29 14 30 15 31 16 32 17 15 18 14 19 13 20 12 21
REMARK SMILES IDX 11 22 10 23 9 24 8 25 7 26 6 27 5 28 4 29 3 30 2 31 1 32
REMARK H PARENT
REMARK Flexibility Score: inf
ROOT
ATOM      1  C   UNL     1     -13.505  31.175  -5.532  1.00  0.00     0.000 C 
ENDROOT
BRANCH   1   2
ATOM      2  C   UNL     1     -12.621  32.220  -6.252  1.00  0.00     0.000 C 
BRANCH   2   3
ATOM      3  C   UNL     1     -12.683  32.103  -7.788  1.00  0.00     0.000 C 
BRANCH   3   4
ATOM      4  C   UNL     1     -11.287  31.906  -8.409  1.00  0.00     0.000 C 
BRANCH   4   5
ATOM      5  C   UNL     1     -10.200  31.646  -7.345  1.00  0.00     0.000 C 
BRANCH   5   6
ATOM      6  C   UNL     1      -9.655  30.208  -7.354  1.00  0.00     0.000 C 
BRANCH   6   7
ATOM      7  C   UNL     1      -9.196  29.749  -8.746  1.00  0.00     0.000 C 
BRANCH   7   8
ATOM      8  C   UNL     1      -8.231  28.559  -8.645  1.00  0.00     0.000 C 
BRANCH   8   9
ATOM      9  C   UNL     1      -6.881  28.872  -9.311  1.00  0.00     0.000 C 
BRANCH   9  10
ATOM     10  C   UNL     1      -6.494  30.360  -9.180  1.00  0.00     0.000 C 
BRANCH  10  11
ATOM     11  C   UNL     1      -5.039  30.588  -8.730  1.00  0.00     0.000 C 
BRANCH  11  12
ATOM     12  C   UNL     1      -4.931  31.325  -7.387  1.00  0.00     0.000 C 
BRANCH  12  13
ATOM     13  C   UNL     1      -6.171  31.081  -6.516  1.00  0.00     0.006 C 
BRANCH  13  14
ATOM     14  C   UNL     1      -5.827  30.207  -5.307  1.00  0.00     0.053 C 
BRANCH  14  15
ATOM     15  C   UNL     1      -6.353  28.817  -5.486  1.00  0.00     0.041 C 
ATOM     16  O   UNL     1      -5.681  27.962  -6.121  1.00  0.00    -0.550 OA
ATOM     17  O   UNL     1      -7.584  28.463  -4.944  1.00  0.00    -0.550 OA
ENDBRANCH  14  15
ENDBRANCH  13  14
ENDBRANCH  12  13
ENDBRANCH  11  12
ENDBRANCH  10  11
ENDBRANCH   9  10
ENDBRANCH   8   9
ENDBRANCH   7   8
ENDBRANCH   6   7
ENDBRANCH   5   6
ENDBRANCH   4   5
ENDBRANCH   3   4
ENDBRANCH   2   3
ENDBRANCH   1   2
BRANCH   1  18
ATOM     18  C   UNL     1     -12.747  30.372  -4.453  1.00  0.00     0.000 C 
BRANCH  18  19
ATOM     19  C   UNL     1     -13.293  28.950  -4.231  1.00  0.00     0.000 C 
BRANCH  19  20
ATOM     20  C   UNL     1     -12.263  27.856  -4.592  1.00  0.00     0.000 C 
BRANCH  20  21
ATOM     21  C   UNL     1     -12.633  27.063  -5.863  1.00  0.00     0.000 C 
BRANCH  21  22
ATOM     22  C   UNL     1     -11.995  27.584  -7.166  1.00  0.00     0.000 C 
BRANCH  22  23
ATOM     23  C   UNL     1     -12.891  28.476  -8.043  1.00  0.00     0.000 C 
BRANCH  23  24
ATOM     24  C   UNL     1     -12.510  28.456  -9.533  1.00  0.00    -0.000 C 
BRANCH  24  25
ATOM     25  C   UNL     1     -12.442  27.035 -10.113  1.00  0.00    -0.000 C 
BRANCH  25  26
ATOM     26  C   UNL     1     -13.472  26.767 -11.231  1.00  0.00    -0.000 C 
BRANCH  26  27
ATOM     27  C   UNL     1     -14.372  27.987 -11.495  1.00  0.00    -0.000 C 
BRANCH  27  28
ATOM     28  C   UNL     1     -15.863  27.662 -11.331  1.00  0.00    -0.000 C 
BRANCH  28  29
ATOM     29  C   UNL     1     -16.600  27.574 -12.682  1.00  0.00    -0.000 C 
BRANCH  29  30
ATOM     30  C   UNL     1     -16.881  26.125 -13.107  1.00  0.00    -0.000 C 
BRANCH  30  31
ATOM     31  C   UNL     1     -16.866  25.147 -11.921  1.00  0.00    -0.003 C 
ATOM     32  C   UNL     1     -17.771  23.948 -12.186  1.00  0.00     0.004 C 
ENDBRANCH  30  31
ENDBRANCH  29  30
ENDBRANCH  28  29
ENDBRANCH  27  28
ENDBRANCH  26  27
ENDBRANCH  25  26
ENDBRANCH  24  25
ENDBRANCH  23  24
ENDBRANCH  22  23
ENDBRANCH  21  22
ENDBRANCH  20  21
ENDBRANCH  19  20
ENDBRANCH  18  19
ENDBRANCH   1  18
TORSDOF 28
ENDMDL
MODEL 9
REMARK VINA RESULT:    -4.023      2.282      4.217
REMARK INTER + INTRA:         -15.428
REMARK INTER:                 -11.014
REMARK INTRA:                  -4.414
REMARK UNBOUND:                -4.821
REMARK SMILES CCCCCCCCCCCCCCCCCCCCCCCCCCCCCC(=O)[O-]
REMARK SMILES IDX 16 1 17 2 18 3 19 4 20 5 21 6 22 7 23 8 24 9 25 10 26 11
REMARK SMILES IDX 27 12 28 13 29 14 30 15 31 16 32 17 15 18 14 19 13 20 12 21
REMARK SMILES IDX 11 22 10 23 9 24 8 25 7 26 6 27 5 28 4 29 3 30 2 31 1 32
REMARK H PARENT
REMARK Flexibility Score: inf
ROOT
ATOM      1  C   UNL     1      -7.294  26.237  -7.786  1.00  0.00     0.000 C 
ENDROOT
BRANCH   1   2
ATOM      2  C   UNL     1      -6.422  26.323  -6.511  1.00  0.00     0.000 C 
BRANCH   2   3
ATOM      3  C   UNL     1      -5.959  27.758  -6.196  1.00  0.00     0.000 C 
BRANCH   3   4
ATOM      4  C   UNL     1      -7.022  28.549  -5.412  1.00  0.00     0.000 C 
BRANCH   4   5
ATOM      5  C   UNL     1      -6.674  30.048  -5.293  1.00  0.00     0.000 C 
BRANCH   5   6
ATOM      6  C   UNL     1      -5.437  30.464  -6.107  1.00  0.00     0.000 C 
BRANCH   6   7
ATOM      7  C   UNL     1      -5.791  31.269  -7.367  1.00  0.00     0.000 C 
BRANCH   7   8
ATOM      8  C   UNL     1      -5.150  30.648  -8.616  1.00  0.00     0.000 C 
BRANCH   8   9
ATOM      9  C   UNL     1      -6.095  29.639  -9.290  1.00  0.00     0.000 C 
BRANCH   9  10
ATOM     10  C   UNL     1      -7.570  29.863  -8.895  1.00  0.00     0.000 C 
BRANCH  10  11
ATOM     11  C   UNL     1      -8.576  29.453  -9.985  1.00  0.00     0.000 C 
BRANCH  11  12
ATOM     12  C   UNL     1      -9.782  28.680  -9.433  1.00  0.00     0.000 C 
BRANCH  12  13
ATOM     13  C   UNL     1     -10.346  29.353  -8.173  1.00  0.00     0.006 C 
BRANCH  13  14
ATOM     14  C   UNL     1     -10.468  28.348  -7.024  1.00  0.00     0.053 C 
BRANCH  14  15
ATOM     15  C   UNL     1     -11.647  28.667  -6.158  1.00  0.00     0.041 C 
ATOM     16  O   UNL     1     -11.845  28.023  -5.094  1.00  0.00    -0.550 OA
ATOM     17  O   UNL     1     -12.524  29.682  -6.523  1.00  0.00    -0.550 OA
ENDBRANCH  14  15
ENDBRANCH  13  14
ENDBRANCH  12  13
ENDBRANCH  11  12
ENDBRANCH  10  11
ENDBRANCH   9  10
ENDBRANCH   8   9
ENDBRANCH   7   8
ENDBRANCH   6   7
ENDBRANCH   5   6
ENDBRANCH   4   5
ENDBRANCH   3   4
ENDBRANCH   2   3
ENDBRANCH   1   2
BRANCH   1  18
ATOM     18  C   UNL     1      -6.474  26.000  -9.072  1.00  0.00     0.000 C 
BRANCH  18  19
ATOM     19  C   UNL     1      -7.302  25.463 -10.254  1.00  0.00     0.000 C 
BRANCH  19  20
ATOM     20  C   UNL     1      -7.305  26.427 -11.462  1.00  0.00     0.000 C 
BRANCH  20  21
ATOM     21  C   UNL     1      -5.890  26.843 -11.916  1.00  0.00     0.000 C 
BRANCH  21  22
ATOM     22  C   UNL     1      -5.540  26.480 -13.374  1.00  0.00     0.000 C 
BRANCH  22  23
ATOM     23  C   UNL     1      -4.368  25.501 -13.558  1.00  0.00     0.000 C 
BRANCH  23  24
ATOM     24  C   UNL     1      -4.460  24.255 -12.660  1.00  0.00    -0.000 C 
BRANCH  24  25
ATOM     25  C   UNL     1      -5.579  23.291 -13.088  1.00  0.00    -0.000 C 
BRANCH  25  26
ATOM     26  C   UNL     1      -5.354  21.834 -12.634  1.00  0.00    -0.000 C 
BRANCH  26  27
ATOM     27  C   UNL     1      -5.387  21.692 -11.102  1.00  0.00    -0.000 C 
BRANCH  27  28
ATOM     28  C   UNL     1      -6.813  21.762 -10.537  1.00  0.00    -0.000 C 
BRANCH  28  29
ATOM     29  C   UNL     1      -7.282  20.417  -9.950  1.00  0.00    -0.000 C 
BRANCH  29  30
ATOM     30  C   UNL     1      -6.120  19.579  -9.396  1.00  0.00    -0.000 C 
BRANCH  30  31
ATOM     31  C   UNL     1      -6.559  18.626  -8.273  1.00  0.00    -0.003 C 
ATOM     32  C   UNL     1      -7.617  19.274  -7.385  1.00  0.00     0.004 C 
ENDBRANCH  30  31
ENDBRANCH  29  30
ENDBRANCH  28  29
ENDBRANCH  27  28
ENDBRANCH  26  27
ENDBRANCH  25  26
ENDBRANCH  24  25
ENDBRANCH  23  24
ENDBRANCH  22  23
ENDBRANCH  21  22
ENDBRANCH  20  21
ENDBRANCH  19  20
ENDBRANCH  18  19
ENDBRANCH   1  18
TORSDOF 28
ENDMDL
