MODEL 1
REMARK VINA RESULT:    -4.580      0.000      0.000
REMARK INTER + INTRA:          -5.697
REMARK INTER:                  -5.384
REMARK INTRA:                  -0.313
REMARK UNBOUND:                -0.313
REMARK SMILES O=c1cc(-c2ccc(O)c(O)c2)oc2cc(O)cc(O)c12
REMARK SMILES IDX 4 1 3 2 2 3 1 4 21 5 19 6 18 7 16 8 15 9 14 10 13 11 5 12
REMARK SMILES IDX 6 13 7 14 8 15 12 16 10 17 9 18 11 20 20 22 17 24
REMARK H PARENT 9 19 11 21 20 23 17 25
REMARK Flexibility Score: inf
ROOT
ATOM      1  C   UNL     1      73.303  41.017  21.362  1.00  0.00     0.138 A 
ATOM      2  C   UNL     1      73.947  40.800  22.587  1.00  0.00     0.100 A 
ATOM      3  C   UNL     1      75.338  40.904  22.663  1.00  0.00     0.197 A 
ATOM      4  O   UNL     1      75.891  40.649  23.764  1.00  0.00    -0.289 OA
ATOM      5  C   UNL     1      76.081  41.264  21.513  1.00  0.00     0.107 A 
ATOM      6  C   UNL     1      77.498  41.434  21.479  1.00  0.00     0.134 A 
ATOM      7  C   UNL     1      78.132  41.695  20.259  1.00  0.00     0.093 A 
ATOM      8  C   UNL     1      77.396  41.850  19.081  1.00  0.00     0.123 A 
ATOM      9  C   UNL     1      76.009  41.735  19.113  1.00  0.00     0.094 A 
ATOM     10  C   UNL     1      75.349  41.441  20.309  1.00  0.00     0.146 A 
ATOM     11  O   UNL     1      74.026  41.322  20.290  1.00  0.00    -0.456 OA
ENDROOT
BRANCH   1  12
ATOM     12  C   UNL     1      71.826  40.921  21.224  1.00  0.00     0.021 A 
ATOM     13  C   UNL     1      71.038  40.223  22.159  1.00  0.00     0.016 A 
ATOM     14  C   UNL     1      69.653  40.141  21.998  1.00  0.00     0.051 A 
ATOM     15  C   UNL     1      69.031  40.749  20.899  1.00  0.00     0.157 A 
ATOM     16  C   UNL     1      71.196  41.518  20.117  1.00  0.00     0.062 A 
ATOM     17  C   UNL     1      69.808  41.438  19.954  1.00  0.00     0.158 A 
BRANCH  15  18
ATOM     18  O   UNL     1      67.649  40.667  20.743  1.00  0.00    -0.504 OA
ATOM     19  H   UNL     1      67.076  41.496  20.637  1.00  0.00     0.293 HD
ENDBRANCH  15  18
BRANCH  17  20
ATOM     20  O   UNL     1      69.220  42.051  18.848  1.00  0.00    -0.504 OA
ATOM     21  H   UNL     1      68.887  43.006  18.876  1.00  0.00     0.293 HD
ENDBRANCH  17  20
ENDBRANCH   1  12
BRANCH   6  22
ATOM     22  O   UNL     1      78.320  41.381  22.609  1.00  0.00    -0.507 OA
ATOM     23  H   UNL     1      79.028  40.684  22.779  1.00  0.00     0.293 HD
ENDBRANCH   6  22
BRANCH   8  24
ATOM     24  O   UNL     1      78.035  42.125  17.875  1.00  0.00    -0.508 OA
ATOM     25  H   UNL     1      77.512  42.300  17.024  1.00  0.00     0.293 HD
ENDBRANCH   8  24
TORSDOF 5
ENDMDL
MODEL 2
REMARK VINA RESULT:    -4.234      1.148      2.708
REMARK INTER + INTRA:          -5.289
REMARK INTER:                  -4.996
REMARK INTRA:                  -0.293
REMARK UNBOUND:                -0.313
REMARK SMILES O=c1cc(-c2ccc(O)c(O)c2)oc2cc(O)cc(O)c12
REMARK SMILES IDX 4 1 3 2 2 3 1 4 21 5 19 6 18 7 16 8 15 9 14 10 13 11 5 12
REMARK SMILES IDX 6 13 7 14 8 15 12 16 10 17 9 18 11 20 20 22 17 24
REMARK H PARENT 9 19 11 21 20 23 17 25
REMARK Flexibility Score: inf
ROOT
ATOM      1  C   UNL     1      72.910  41.434  20.279  1.00  0.00     0.138 A 
ATOM      2  C   UNL     1      73.525  41.704  19.048  1.00  0.00     0.100 A 
ATOM      3  C   UNL     1      74.914  41.826  18.983  1.00  0.00     0.197 A 
ATOM      4  O   UNL     1      75.431  42.124  17.875  1.00  0.00    -0.289 OA
ATOM      5  C   UNL     1      75.693  41.642  20.151  1.00  0.00     0.107 A 
ATOM      6  C   UNL     1      77.118  41.709  20.198  1.00  0.00     0.134 A 
ATOM      7  C   UNL     1      77.773  41.606  21.432  1.00  0.00     0.093 A 
ATOM      8  C   UNL     1      77.058  41.381  22.611  1.00  0.00     0.123 A 
ATOM      9  C   UNL     1      75.672  41.265  22.569  1.00  0.00     0.094 A 
ATOM     10  C   UNL     1      74.986  41.397  21.358  1.00  0.00     0.146 A 
ATOM     11  O   UNL     1      73.661  41.297  21.366  1.00  0.00    -0.456 OA
ENDROOT
BRANCH   1  12
ATOM     12  C   UNL     1      71.437  41.291  20.405  1.00  0.00     0.021 A 
ATOM     13  C   UNL     1      70.843  40.724  21.549  1.00  0.00     0.016 A 
ATOM     14  C   UNL     1      69.455  40.593  21.636  1.00  0.00     0.051 A 
ATOM     15  C   UNL     1      68.636  41.019  20.581  1.00  0.00     0.157 A 
ATOM     16  C   UNL     1      70.609  41.704  19.346  1.00  0.00     0.062 A 
ATOM     17  C   UNL     1      69.218  41.575  19.430  1.00  0.00     0.158 A 
BRANCH  15  18
ATOM     18  O   UNL     1      67.252  40.888  20.672  1.00  0.00    -0.504 OA
ATOM     19  H   UNL     1      66.737  40.259  20.067  1.00  0.00     0.293 HD
ENDBRANCH  15  18
BRANCH  17  20
ATOM     20  O   UNL     1      68.432  42.005  18.362  1.00  0.00    -0.504 OA
ATOM     21  H   UNL     1      68.162  42.974  18.249  1.00  0.00     0.293 HD
ENDBRANCH  17  20
ENDBRANCH   1  12
BRANCH   6  22
ATOM     22  O   UNL     1      77.933  41.850  19.071  1.00  0.00    -0.507 OA
ATOM     23  H   UNL     1      77.845  41.317  18.220  1.00  0.00     0.293 HD
ENDBRANCH   6  22
BRANCH   8  24
ATOM     24  O   UNL     1      77.720  41.266  23.831  1.00  0.00    -0.508 OA
ATOM     25  H   UNL     1      78.700  41.509  23.929  1.00  0.00     0.293 HD
ENDBRANCH   8  24
TORSDOF 5
ENDMDL
MODEL 3
REMARK VINA RESULT:    -3.846      1.377      3.090
REMARK INTER + INTRA:          -4.834
REMARK INTER:                  -4.531
REMARK INTRA:                  -0.303
REMARK UNBOUND:                -0.313
REMARK SMILES O=c1cc(-c2ccc(O)c(O)c2)oc2cc(O)cc(O)c12
REMARK SMILES IDX 4 1 3 2 2 3 1 4 21 5 19 6 18 7 16 8 15 9 14 10 13 11 5 12
REMARK SMILES IDX 6 13 7 14 8 15 12 16 10 17 9 18 11 20 20 22 17 24
REMARK H PARENT 9 19 11 21 20 23 17 25
REMARK Flexibility Score: inf
ROOT
ATOM      1  C   UNL     1      72.941  41.301  20.740  1.00  0.00     0.138 A 
ATOM      2  C   UNL     1      73.695  41.676  19.620  1.00  0.00     0.100 A 
ATOM      3  C   UNL     1      75.087  41.731  19.712  1.00  0.00     0.197 A 
ATOM      4  O   UNL     1      75.731  42.125  18.706  1.00  0.00    -0.289 OA
ATOM      5  C   UNL     1      75.727  41.374  20.923  1.00  0.00     0.107 A 
ATOM      6  C   UNL     1      77.141  41.360  21.124  1.00  0.00     0.134 A 
ATOM      7  C   UNL     1      77.654  41.084  22.397  1.00  0.00     0.093 A 
ATOM      8  C   UNL     1      76.808  40.764  23.462  1.00  0.00     0.123 A 
ATOM      9  C   UNL     1      75.430  40.727  23.264  1.00  0.00     0.094 A 
ATOM     10  C   UNL     1      74.885  41.031  22.014  1.00  0.00     0.146 A 
ATOM     11  O   UNL     1      73.564  41.001  21.875  1.00  0.00    -0.456 OA
ENDROOT
BRANCH   1  12
ATOM     12  C   UNL     1      71.458  41.222  20.698  1.00  0.00     0.021 A 
ATOM     13  C   UNL     1      70.690  42.116  19.927  1.00  0.00     0.016 A 
ATOM     14  C   UNL     1      69.296  42.024  19.915  1.00  0.00     0.051 A 
ATOM     15  C   UNL     1      68.644  41.045  20.676  1.00  0.00     0.157 A 
ATOM     16  C   UNL     1      70.795  40.250  21.469  1.00  0.00     0.062 A 
ATOM     17  C   UNL     1      69.399  40.155  21.458  1.00  0.00     0.158 A 
BRANCH  15  18
ATOM     18  O   UNL     1      67.254  40.955  20.659  1.00  0.00    -0.504 OA
ATOM     19  H   UNL     1      66.767  40.164  21.064  1.00  0.00     0.293 HD
ENDBRANCH  15  18
BRANCH  17  20
ATOM     20  O   UNL     1      68.781  39.172  22.229  1.00  0.00    -0.504 OA
ATOM     21  H   UNL     1      68.960  39.074  23.220  1.00  0.00     0.293 HD
ENDBRANCH  17  20
ENDBRANCH   1  12
BRANCH   6  22
ATOM     22  O   UNL     1      78.077  41.586  20.110  1.00  0.00    -0.507 OA
ATOM     23  H   UNL     1      79.056  41.776  20.257  1.00  0.00     0.293 HD
ENDBRANCH   6  22
BRANCH   8  24
ATOM     24  O   UNL     1      77.329  40.476  24.721  1.00  0.00    -0.508 OA
ATOM     25  H   UNL     1      77.562  39.528  24.995  1.00  0.00     0.293 HD
ENDBRANCH   8  24
TORSDOF 5
ENDMDL
MODEL 4
REMARK VINA RESULT:    -3.270      1.533      7.110
REMARK INTER + INTRA:          -4.156
REMARK INTER:                  -3.870
REMARK INTRA:                  -0.286
REMARK UNBOUND:                -0.313
REMARK SMILES O=c1cc(-c2ccc(O)c(O)c2)oc2cc(O)cc(O)c12
REMARK SMILES IDX 4 1 3 2 2 3 1 4 21 5 19 6 18 7 16 8 15 9 14 10 13 11 5 12
REMARK SMILES IDX 6 13 7 14 8 15 12 16 10 17 9 18 11 20 20 22 17 24
REMARK H PARENT 9 19 11 21 20 23 17 25
REMARK Flexibility Score: inf
ROOT
ATOM      1  C   UNL     1      72.641  41.156  20.648  1.00  0.00     0.138 A 
ATOM      2  C   UNL     1      72.183  40.538  21.820  1.00  0.00     0.100 A 
ATOM      3  C   UNL     1      70.815  40.324  21.998  1.00  0.00     0.197 A 
ATOM      4  O   UNL     1      70.431  39.818  23.084  1.00  0.00    -0.289 OA
ATOM      5  C   UNL     1      69.905  40.698  20.979  1.00  0.00     0.107 A 
ATOM      6  C   UNL     1      68.493  40.497  21.034  1.00  0.00     0.134 A 
ATOM      7  C   UNL     1      67.685  40.999  20.007  1.00  0.00     0.093 A 
ATOM      8  C   UNL     1      68.242  41.642  18.899  1.00  0.00     0.123 A 
ATOM      9  C   UNL     1      69.623  41.798  18.812  1.00  0.00     0.094 A 
ATOM     10  C   UNL     1      70.454  41.339  19.837  1.00  0.00     0.146 A 
ATOM     11  O   UNL     1      71.764  41.526  19.721  1.00  0.00    -0.456 OA
ENDROOT
BRANCH   1  12
ATOM     12  C   UNL     1      74.085  41.406  20.406  1.00  0.00     0.021 A 
ATOM     13  C   UNL     1      74.627  41.422  19.107  1.00  0.00     0.016 A 
ATOM     14  C   UNL     1      75.991  41.650  18.910  1.00  0.00     0.051 A 
ATOM     15  C   UNL     1      76.839  41.858  20.006  1.00  0.00     0.157 A 
ATOM     16  C   UNL     1      74.945  41.603  21.501  1.00  0.00     0.062 A 
ATOM     17  C   UNL     1      76.312  41.832  21.308  1.00  0.00     0.158 A 
BRANCH  15  18
ATOM     18  O   UNL     1      78.199  42.087  19.806  1.00  0.00    -0.504 OA
ATOM     19  H   UNL     1      78.753  42.612  20.472  1.00  0.00     0.293 HD
ENDBRANCH  15  18
BRANCH  17  20
ATOM     20  O   UNL     1      77.130  42.031  22.419  1.00  0.00    -0.504 OA
ATOM     21  H   UNL     1      77.164  42.916  22.910  1.00  0.00     0.293 HD
ENDBRANCH  17  20
ENDBRANCH   1  12
BRANCH   6  22
ATOM     22  O   UNL     1      67.841  39.798  22.055  1.00  0.00    -0.507 OA
ATOM     23  H   UNL     1      68.292  39.385  22.855  1.00  0.00     0.293 HD
ENDBRANCH   6  22
BRANCH   8  24
ATOM     24  O   UNL     1      67.430  42.124  17.875  1.00  0.00    -0.508 OA
ATOM     25  H   UNL     1      66.431  42.242  18.001  1.00  0.00     0.293 HD
ENDBRANCH   8  24
TORSDOF 5
ENDMDL
MODEL 5
REMARK VINA RESULT:    -3.267      1.396      2.221
REMARK INTER + INTRA:          -4.153
REMARK INTER:                  -3.872
REMARK INTRA:                  -0.281
REMARK UNBOUND:                -0.313
REMARK SMILES O=c1cc(-c2ccc(O)c(O)c2)oc2cc(O)cc(O)c12
REMARK SMILES IDX 4 1 3 2 2 3 1 4 21 5 19 6 18 7 16 8 15 9 14 10 13 11 5 12
REMARK SMILES IDX 6 13 7 14 8 15 12 16 10 17 9 18 11 20 20 22 17 24
REMARK H PARENT 9 19 11 21 20 23 17 25
REMARK Flexibility Score: inf
ROOT
ATOM      1  C   UNL     1      71.831  41.577  20.467  1.00  0.00     0.138 A 
ATOM      2  C   UNL     1      72.207  41.691  21.812  1.00  0.00     0.100 A 
ATOM      3  C   UNL     1      73.560  41.771  22.146  1.00  0.00     0.197 A 
ATOM      4  O   UNL     1      73.867  41.816  23.365  1.00  0.00    -0.289 OA
ATOM      5  C   UNL     1      74.539  41.774  21.123  1.00  0.00     0.107 A 
ATOM      6  C   UNL     1      75.945  41.885  21.342  1.00  0.00     0.134 A 
ATOM      7  C   UNL     1      76.823  41.777  20.256  1.00  0.00     0.093 A 
ATOM      8  C   UNL     1      76.343  41.619  18.954  1.00  0.00     0.123 A 
ATOM      9  C   UNL     1      74.971  41.559  18.724  1.00  0.00     0.094 A 
ATOM     10  C   UNL     1      74.070  41.630  19.790  1.00  0.00     0.146 A 
ATOM     11  O   UNL     1      72.770  41.550  19.528  1.00  0.00    -0.456 OA
ENDROOT
BRANCH   1  12
ATOM     12  C   UNL     1      70.406  41.491  20.055  1.00  0.00     0.021 A 
ATOM     13  C   UNL     1      69.935  42.112  18.882  1.00  0.00     0.016 A 
ATOM     14  C   UNL     1      68.587  42.022  18.525  1.00  0.00     0.051 A 
ATOM     15  C   UNL     1      67.686  41.318  19.334  1.00  0.00     0.157 A 
ATOM     16  C   UNL     1      69.492  40.797  20.868  1.00  0.00     0.062 A 
ATOM     17  C   UNL     1      68.142  40.705  20.512  1.00  0.00     0.158 A 
BRANCH  15  18
ATOM     18  O   UNL     1      66.343  41.229  18.974  1.00  0.00    -0.504 OA
ATOM     19  H   UNL     1      65.834  40.355  19.031  1.00  0.00     0.293 HD
ENDBRANCH  15  18
BRANCH  17  20
ATOM     20  O   UNL     1      67.270  40.000  21.341  1.00  0.00    -0.504 OA
ATOM     21  H   UNL     1      66.288  40.236  21.414  1.00  0.00     0.293 HD
ENDBRANCH  17  20
ENDBRANCH   1  12
BRANCH   6  22
ATOM     22  O   UNL     1      76.527  42.124  22.591  1.00  0.00    -0.507 OA
ATOM     23  H   UNL     1      76.035  42.118  23.471  1.00  0.00     0.293 HD
ENDBRANCH   6  22
BRANCH   8  24
ATOM     24  O   UNL     1      77.224  41.527  17.879  1.00  0.00    -0.508 OA
ATOM     25  H   UNL     1      78.190  41.826  17.957  1.00  0.00     0.293 HD
ENDBRANCH   8  24
TORSDOF 5
ENDMDL
MODEL 6
REMARK VINA RESULT:    -1.758      1.466      3.250
REMARK INTER + INTRA:          -2.380
REMARK INTER:                  -2.066
REMARK INTRA:                  -0.313
REMARK UNBOUND:                -0.313
REMARK SMILES O=c1cc(-c2ccc(O)c(O)c2)oc2cc(O)cc(O)c12
REMARK SMILES IDX 4 1 3 2 2 3 1 4 21 5 19 6 18 7 16 8 15 9 14 10 13 11 5 12
REMARK SMILES IDX 6 13 7 14 8 15 12 16 10 17 9 18 11 20 20 22 17 24
REMARK H PARENT 9 19 11 21 20 23 17 25
REMARK Flexibility Score: inf
ROOT
ATOM      1  C   UNL     1      74.506  41.223  20.367  1.00  0.00     0.138 A 
ATOM      2  C   UNL     1      75.045  41.602  19.130  1.00  0.00     0.100 A 
ATOM      3  C   UNL     1      76.428  41.729  18.989  1.00  0.00     0.197 A 
ATOM      4  O   UNL     1      76.877  42.124  17.883  1.00  0.00    -0.289 OA
ATOM      5  C   UNL     1      77.277  41.439  20.085  1.00  0.00     0.107 A 
ATOM      6  C   UNL     1      78.703  41.501  20.049  1.00  0.00     0.134 A 
ATOM      7  C   UNL     1      79.432  41.287  21.224  1.00  0.00     0.093 A 
ATOM      8  C   UNL     1      78.791  40.957  22.422  1.00  0.00     0.123 A 
ATOM      9  C   UNL     1      77.404  40.846  22.455  1.00  0.00     0.094 A 
ATOM     10  C   UNL     1      76.645  41.087  21.307  1.00  0.00     0.146 A 
ATOM     11  O   UNL     1      75.323  40.987  21.389  1.00  0.00    -0.456 OA
ENDROOT
BRANCH   1  12
ATOM     12  C   UNL     1      73.043  41.070  20.573  1.00  0.00     0.021 A 
ATOM     13  C   UNL     1      72.152  40.940  19.490  1.00  0.00     0.016 A 
ATOM     14  C   UNL     1      70.780  40.808  19.714  1.00  0.00     0.051 A 
ATOM     15  C   UNL     1      70.271  40.810  21.019  1.00  0.00     0.157 A 
ATOM     16  C   UNL     1      72.524  41.084  21.880  1.00  0.00     0.062 A 
ATOM     17  C   UNL     1      71.149  40.951  22.107  1.00  0.00     0.158 A 
BRANCH  15  18
ATOM     18  O   UNL     1      68.902  40.676  21.238  1.00  0.00    -0.504 OA
ATOM     19  H   UNL     1      68.402  39.834  20.977  1.00  0.00     0.293 HD
ENDBRANCH  15  18
BRANCH  17  20
ATOM     20  O   UNL     1      70.675  40.961  23.418  1.00  0.00    -0.504 OA
ATOM     21  H   UNL     1      71.023  41.613  24.111  1.00  0.00     0.293 HD
ENDBRANCH  17  20
ENDBRANCH   1  12
BRANCH   6  22
ATOM     22  O   UNL     1      79.447  41.742  18.890  1.00  0.00    -0.507 OA
ATOM     23  H   UNL     1      79.488  42.622  18.399  1.00  0.00     0.293 HD
ENDBRANCH   6  22
BRANCH   8  24
ATOM     24  O   UNL     1      79.527  40.732  23.582  1.00  0.00    -0.508 OA
ATOM     25  H   UNL     1      79.237  41.110  24.477  1.00  0.00     0.293 HD
ENDBRANCH   8  24
TORSDOF 5
ENDMDL
