MODEL 1
REMARK VINA RESULT:    -3.904      0.000      0.000
REMARK INTER + INTRA:         -12.829
REMARK INTER:                  -8.924
REMARK INTRA:                  -3.905
REMARK UNBOUND:                -3.905
REMARK SMILES CCCCCCCCCCCCCCCCCCCCCCCC(=O)[O-]
REMARK SMILES IDX 13 1 14 2 15 3 16 4 17 5 18 6 19 7 20 8 21 9 22 10 23 11
REMARK SMILES IDX 24 12 25 13 26 14 12 15 11 16 10 17 9 18 8 19 7 20 6 21 5 22
REMARK SMILES IDX 4 23 3 24 2 25 1 26
REMARK H PARENT
REMARK Flexibility Score: inf
ROOT
ATOM      1  C   UNL     1       3.229  -3.541 401.176  1.00  0.00     0.000 C 
ENDROOT
BRANCH   1   2
ATOM      2  C   UNL     1       4.307  -4.510 401.691  1.00  0.00     0.000 C 
BRANCH   2   3
ATOM      3  C   UNL     1       5.467  -3.851 402.465  1.00  0.00     0.000 C 
BRANCH   3   4
ATOM      4  C   UNL     1       6.837  -3.899 401.757  1.00  0.00     0.000 C 
BRANCH   4   5
ATOM      5  C   UNL     1       7.264  -2.582 401.081  1.00  0.00     0.000 C 
BRANCH   5   6
ATOM      6  C   UNL     1       7.311  -1.354 402.014  1.00  0.00     0.000 C 
BRANCH   6   7
ATOM      7  C   UNL     1       7.920  -0.083 401.395  1.00  0.00     0.000 C 
BRANCH   7   8
ATOM      8  C   UNL     1       8.115  -0.197 399.874  1.00  0.00     0.000 C 
BRANCH   8   9
ATOM      9  C   UNL     1       7.599   1.038 399.116  1.00  0.00     0.000 C 
BRANCH   9  10
ATOM     10  C   UNL     1       8.306   1.249 397.769  1.00  0.00     0.006 C 
BRANCH  10  11
ATOM     11  C   UNL     1       7.930   0.145 396.775  1.00  0.00     0.053 C 
BRANCH  11  12
ATOM     12  C   UNL     1       9.137  -0.655 396.400  1.00  0.00     0.041 C 
ATOM     13  O   UNL     1      10.191  -0.571 397.084  1.00  0.00    -0.550 OA
ATOM     14  O   UNL     1       9.086  -1.528 395.320  1.00  0.00    -0.550 OA
ENDBRANCH  11  12
ENDBRANCH  10  11
ENDBRANCH   9  10
ENDBRANCH   8   9
ENDBRANCH   7   8
ENDBRANCH   6   7
ENDBRANCH   5   6
ENDBRANCH   4   5
ENDBRANCH   3   4
ENDBRANCH   2   3
ENDBRANCH   1   2
BRANCH   1  15
ATOM     15  C   UNL     1       3.656  -2.066 401.276  1.00  0.00     0.000 C 
BRANCH  15  16
ATOM     16  C   UNL     1       3.934  -1.436 399.902  1.00  0.00     0.000 C 
BRANCH  16  17
ATOM     17  C   UNL     1       4.438   0.012 400.001  1.00  0.00     0.000 C 
BRANCH  17  18
ATOM     18  C   UNL     1       3.289   0.973 400.335  1.00  0.00    -0.000 C 
BRANCH  18  19
ATOM     19  C   UNL     1       3.824   2.268 400.967  1.00  0.00    -0.000 C 
BRANCH  19  20
ATOM     20  C   UNL     1       4.979   2.012 401.950  1.00  0.00    -0.000 C 
BRANCH  20  21
ATOM     21  C   UNL     1       4.493   1.864 403.402  1.00  0.00    -0.000 C 
BRANCH  21  22
ATOM     22  C   UNL     1       5.168   0.684 404.138  1.00  0.00    -0.000 C 
BRANCH  22  23
ATOM     23  C   UNL     1       4.322  -0.602 404.151  1.00  0.00    -0.000 C 
BRANCH  23  24
ATOM     24  C   UNL     1       4.622  -1.549 405.325  1.00  0.00    -0.000 C 
BRANCH  24  25
ATOM     25  C   UNL     1       3.360  -2.226 405.907  1.00  0.00    -0.003 C 
ATOM     26  C   UNL     1       2.485  -2.872 404.835  1.00  0.00     0.004 C 
ENDBRANCH  24  25
ENDBRANCH  23  24
ENDBRANCH  22  23
ENDBRANCH  21  22
ENDBRANCH  20  21
ENDBRANCH  19  20
ENDBRANCH  18  19
ENDBRANCH  17  18
ENDBRANCH  16  17
ENDBRANCH  15  16
ENDBRANCH   1  15
TORSDOF 22
ENDMDL
MODEL 2
REMARK VINA RESULT:    -3.810      2.957      6.879
REMARK INTER + INTRA:         -12.615
REMARK INTER:                  -8.516
REMARK INTRA:                  -4.099
REMARK UNBOUND:                -3.905
REMARK SMILES CCCCCCCCCCCCCCCCCCCCCCCC(=O)[O-]
REMARK SMILES IDX 13 1 14 2 15 3 16 4 17 5 18 6 19 7 20 8 21 9 22 10 23 11
REMARK SMILES IDX 24 12 25 13 26 14 12 15 11 16 10 17 9 18 8 19 7 20 6 21 5 22
REMARK SMILES IDX 4 23 3 24 2 25 1 26
REMARK H PARENT
REMARK Flexibility Score: inf
ROOT
ATOM      1  C   UNL     1       3.691   1.587 400.548  1.00  0.00     0.000 C 
ENDROOT
BRANCH   1   2
ATOM      2  C   UNL     1       4.178   2.543 401.652  1.00  0.00     0.000 C 
BRANCH   2   3
ATOM      3  C   UNL     1       4.315   1.912 403.053  1.00  0.00     0.000 C 
BRANCH   3   4
ATOM      4  C   UNL     1       5.763   1.631 403.505  1.00  0.00     0.000 C 
BRANCH   4   5
ATOM      5  C   UNL     1       5.958   0.306 404.267  1.00  0.00     0.000 C 
BRANCH   5   6
ATOM      6  C   UNL     1       4.658  -0.458 404.595  1.00  0.00     0.000 C 
BRANCH   6   7
ATOM      7  C   UNL     1       4.796  -1.990 404.659  1.00  0.00     0.000 C 
BRANCH   7   8
ATOM      8  C   UNL     1       3.821  -2.715 403.717  1.00  0.00     0.000 C 
BRANCH   8   9
ATOM      9  C   UNL     1       4.113  -4.221 403.606  1.00  0.00     0.000 C 
BRANCH   9  10
ATOM     10  C   UNL     1       3.859  -4.776 402.196  1.00  0.00     0.006 C 
BRANCH  10  11
ATOM     11  C   UNL     1       5.112  -5.466 401.647  1.00  0.00     0.053 C 
BRANCH  11  12
ATOM     12  C   UNL     1       4.905  -6.946 401.575  1.00  0.00     0.041 C 
ATOM     13  O   UNL     1       3.740  -7.424 401.571  1.00  0.00    -0.550 OA
ATOM     14  O   UNL     1       5.998  -7.798 401.467  1.00  0.00    -0.550 OA
ENDBRANCH  11  12
ENDBRANCH  10  11
ENDBRANCH   9  10
ENDBRANCH   8   9
ENDBRANCH   7   8
ENDBRANCH   6   7
ENDBRANCH   5   6
ENDBRANCH   4   5
ENDBRANCH   3   4
ENDBRANCH   2   3
ENDBRANCH   1   2
BRANCH   1  15
ATOM     15  C   UNL     1       3.656   0.118 401.005  1.00  0.00     0.000 C 
BRANCH  15  16
ATOM     16  C   UNL     1       3.784  -0.869 399.834  1.00  0.00     0.000 C 
BRANCH  16  17
ATOM     17  C   UNL     1       4.768  -2.013 400.123  1.00  0.00     0.000 C 
BRANCH  17  18
ATOM     18  C   UNL     1       5.832  -1.579 401.139  1.00  0.00    -0.000 C 
BRANCH  18  19
ATOM     19  C   UNL     1       7.244  -1.722 400.548  1.00  0.00    -0.000 C 
BRANCH  19  20
ATOM     20  C   UNL     1       8.106  -0.467 400.767  1.00  0.00    -0.000 C 
BRANCH  20  21
ATOM     21  C   UNL     1       7.374   0.826 400.369  1.00  0.00    -0.000 C 
BRANCH  21  22
ATOM     22  C   UNL     1       6.992   0.857 398.872  1.00  0.00    -0.000 C 
BRANCH  22  23
ATOM     23  C   UNL     1       8.188   1.098 397.934  1.00  0.00    -0.000 C 
BRANCH  23  24
ATOM     24  C   UNL     1       8.578  -0.118 397.075  1.00  0.00    -0.000 C 
BRANCH  24  25
ATOM     25  C   UNL     1      10.052  -0.550 397.255  1.00  0.00    -0.003 C 
ATOM     26  C   UNL     1      10.839   0.390 398.164  1.00  0.00     0.004 C 
ENDBRANCH  24  25
ENDBRANCH  23  24
ENDBRANCH  22  23
ENDBRANCH  21  22
ENDBRANCH  20  21
ENDBRANCH  19  20
ENDBRANCH  18  19
ENDBRANCH  17  18
ENDBRANCH  16  17
ENDBRANCH  15  16
ENDBRANCH   1  15
TORSDOF 22
ENDMDL
MODEL 3
REMARK VINA RESULT:    -3.799      1.394      3.679
REMARK INTER + INTRA:         -12.589
REMARK INTER:                  -8.958
REMARK INTRA:                  -3.631
REMARK UNBOUND:                -3.905
REMARK SMILES CCCCCCCCCCCCCCCCCCCCCCCC(=O)[O-]
REMARK SMILES IDX 13 1 14 2 15 3 16 4 17 5 18 6 19 7 20 8 21 9 22 10 23 11
REMARK SMILES IDX 24 12 25 13 26 14 12 15 11 16 10 17 9 18 8 19 7 20 6 21 5 22
REMARK SMILES IDX 4 23 3 24 2 25 1 26
REMARK H PARENT
REMARK Flexibility Score: inf
ROOT
ATOM      1  C   UNL     1       3.999   1.432 403.298  1.00  0.00     0.000 C 
ENDROOT
BRANCH   1   2
ATOM      2  C   UNL     1       5.135   0.713 404.047  1.00  0.00     0.000 C 
BRANCH   2   3
ATOM      3  C   UNL     1       6.561   1.149 403.650  1.00  0.00     0.000 C 
BRANCH   3   4
ATOM      4  C   UNL     1       7.397   0.071 402.931  1.00  0.00     0.000 C 
BRANCH   4   5
ATOM      5  C   UNL     1       7.733   0.385 401.460  1.00  0.00     0.000 C 
BRANCH   5   6
ATOM      6  C   UNL     1       7.770  -0.839 400.522  1.00  0.00     0.000 C 
BRANCH   6   7
ATOM      7  C   UNL     1       7.603  -0.523 399.025  1.00  0.00     0.000 C 
BRANCH   7   8
ATOM      8  C   UNL     1       7.400   0.977 398.752  1.00  0.00     0.000 C 
BRANCH   8   9
ATOM      9  C   UNL     1       8.200   1.472 397.536  1.00  0.00     0.000 C 
BRANCH   9  10
ATOM     10  C   UNL     1       9.399   2.349 397.928  1.00  0.00     0.006 C 
BRANCH  10  11
ATOM     11  C   UNL     1      10.413   1.551 398.753  1.00  0.00     0.053 C 
BRANCH  11  12
ATOM     12  C   UNL     1      11.525   1.058 397.881  1.00  0.00     0.041 C 
ATOM     13  O   UNL     1      11.606  -0.164 397.587  1.00  0.00    -0.550 OA
ATOM     14  O   UNL     1      12.447   1.955 397.355  1.00  0.00    -0.550 OA
ENDBRANCH  11  12
ENDBRANCH  10  11
ENDBRANCH   9  10
ENDBRANCH   8   9
ENDBRANCH   7   8
ENDBRANCH   6   7
ENDBRANCH   5   6
ENDBRANCH   4   5
ENDBRANCH   3   4
ENDBRANCH   2   3
ENDBRANCH   1   2
BRANCH   1  15
ATOM     15  C   UNL     1       4.515   2.480 402.297  1.00  0.00     0.000 C 
BRANCH  15  16
ATOM     16  C   UNL     1       4.451   1.990 400.841  1.00  0.00     0.000 C 
BRANCH  16  17
ATOM     17  C   UNL     1       3.401   0.889 400.628  1.00  0.00     0.000 C 
BRANCH  17  18
ATOM     18  C   UNL     1       4.037  -0.366 400.017  1.00  0.00    -0.000 C 
BRANCH  18  19
ATOM     19  C   UNL     1       4.143  -1.489 401.061  1.00  0.00    -0.000 C 
BRANCH  19  20
ATOM     20  C   UNL     1       3.414  -2.771 400.626  1.00  0.00    -0.000 C 
BRANCH  20  21
ATOM     21  C   UNL     1       3.816  -3.993 401.469  1.00  0.00    -0.000 C 
BRANCH  21  22
ATOM     22  C   UNL     1       4.770  -3.627 402.629  1.00  0.00    -0.000 C 
BRANCH  22  23
ATOM     23  C   UNL     1       4.174  -3.886 404.024  1.00  0.00    -0.000 C 
BRANCH  23  24
ATOM     24  C   UNL     1       2.969  -2.997 404.376  1.00  0.00    -0.000 C 
BRANCH  24  25
ATOM     25  C   UNL     1       3.202  -2.110 405.622  1.00  0.00    -0.003 C 
ATOM     26  C   UNL     1       4.604  -2.265 406.205  1.00  0.00     0.004 C 
ENDBRANCH  24  25
ENDBRANCH  23  24
ENDBRANCH  22  23
ENDBRANCH  21  22
ENDBRANCH  20  21
ENDBRANCH  19  20
ENDBRANCH  18  19
ENDBRANCH  17  18
ENDBRANCH  16  17
ENDBRANCH  15  16
ENDBRANCH   1  15
TORSDOF 22
ENDMDL
MODEL 4
REMARK VINA RESULT:    -3.782      6.022      9.166
REMARK INTER + INTRA:         -12.550
REMARK INTER:                  -9.640
REMARK INTRA:                  -2.910
REMARK UNBOUND:                -3.905
REMARK SMILES CCCCCCCCCCCCCCCCCCCCCCCC(=O)[O-]
REMARK SMILES IDX 13 1 14 2 15 3 16 4 17 5 18 6 19 7 20 8 21 9 22 10 23 11
REMARK SMILES IDX 24 12 25 13 26 14 12 15 11 16 10 17 9 18 8 19 7 20 6 21 5 22
REMARK SMILES IDX 4 23 3 24 2 25 1 26
REMARK H PARENT
REMARK Flexibility Score: inf
ROOT
ATOM      1  C   UNL     1       6.570   3.312 404.291  1.00  0.00     0.000 C 
ENDROOT
BRANCH   1   2
ATOM      2  C   UNL     1       7.006   4.740 403.919  1.00  0.00     0.000 C 
BRANCH   2   3
ATOM      3  C   UNL     1       5.878   5.792 403.923  1.00  0.00     0.000 C 
BRANCH   3   4
ATOM      4  C   UNL     1       6.295   7.200 403.451  1.00  0.00     0.000 C 
BRANCH   4   5
ATOM      5  C   UNL     1       5.193   7.992 402.719  1.00  0.00     0.000 C 
BRANCH   5   6
ATOM      6  C   UNL     1       3.771   7.408 402.852  1.00  0.00     0.000 C 
BRANCH   6   7
ATOM      7  C   UNL     1       2.742   8.335 403.525  1.00  0.00     0.000 C 
BRANCH   7   8
ATOM      8  C   UNL     1       2.856   8.335 405.059  1.00  0.00     0.000 C 
BRANCH   8   9
ATOM      9  C   UNL     1       3.630   9.551 405.595  1.00  0.00     0.000 C 
BRANCH   9  10
ATOM     10  C   UNL     1       4.899   9.156 406.366  1.00  0.00     0.006 C 
BRANCH  10  11
ATOM     11  C   UNL     1       4.820   7.701 406.841  1.00  0.00     0.053 C 
BRANCH  11  12
ATOM     12  C   UNL     1       4.973   7.626 408.327  1.00  0.00     0.041 C 
ATOM     13  O   UNL     1       4.967   8.678 409.019  1.00  0.00    -0.550 OA
ATOM     14  O   UNL     1       5.079   6.391 408.955  1.00  0.00    -0.550 OA
ENDBRANCH  11  12
ENDBRANCH  10  11
ENDBRANCH   9  10
ENDBRANCH   8   9
ENDBRANCH   7   8
ENDBRANCH   6   7
ENDBRANCH   5   6
ENDBRANCH   4   5
ENDBRANCH   3   4
ENDBRANCH   2   3
ENDBRANCH   1   2
BRANCH   1  15
ATOM     15  C   UNL     1       6.110   2.493 403.072  1.00  0.00     0.000 C 
BRANCH  15  16
ATOM     16  C   UNL     1       4.584   2.316 403.020  1.00  0.00     0.000 C 
BRANCH  16  17
ATOM     17  C   UNL     1       3.938   3.059 401.840  1.00  0.00     0.000 C 
BRANCH  17  18
ATOM     18  C   UNL     1       3.969   2.202 400.568  1.00  0.00    -0.000 C 
BRANCH  18  19
ATOM     19  C   UNL     1       3.543   0.757 400.870  1.00  0.00    -0.000 C 
BRANCH  19  20
ATOM     20  C   UNL     1       4.438  -0.281 400.172  1.00  0.00    -0.000 C 
BRANCH  20  21
ATOM     21  C   UNL     1       3.699  -1.601 399.892  1.00  0.00    -0.000 C 
BRANCH  21  22
ATOM     22  C   UNL     1       4.427  -2.827 400.489  1.00  0.00    -0.000 C 
BRANCH  22  23
ATOM     23  C   UNL     1       4.300  -2.936 402.019  1.00  0.00    -0.000 C 
BRANCH  23  24
ATOM     24  C   UNL     1       5.557  -2.503 402.794  1.00  0.00    -0.000 C 
BRANCH  24  25
ATOM     25  C   UNL     1       5.309  -1.316 403.754  1.00  0.00    -0.003 C 
ATOM     26  C   UNL     1       3.839  -1.162 404.139  1.00  0.00     0.004 C 
ENDBRANCH  24  25
ENDBRANCH  23  24
ENDBRANCH  22  23
ENDBRANCH  21  22
ENDBRANCH  20  21
ENDBRANCH  19  20
ENDBRANCH  18  19
ENDBRANCH  17  18
ENDBRANCH  16  17
ENDBRANCH  15  16
ENDBRANCH   1  15
TORSDOF 22
ENDMDL
MODEL 5
REMARK VINA RESULT:    -3.769      3.156      5.880
REMARK INTER + INTRA:         -12.520
REMARK INTER:                  -7.607
REMARK INTRA:                  -4.913
REMARK UNBOUND:                -3.905
REMARK SMILES CCCCCCCCCCCCCCCCCCCCCCCC(=O)[O-]
REMARK SMILES IDX 13 1 14 2 15 3 16 4 17 5 18 6 19 7 20 8 21 9 22 10 23 11
REMARK SMILES IDX 24 12 25 13 26 14 12 15 11 16 10 17 9 18 8 19 7 20 6 21 5 22
REMARK SMILES IDX 4 23 3 24 2 25 1 26
REMARK H PARENT
REMARK Flexibility Score: inf
ROOT
ATOM      1  C   UNL     1       3.996  -1.093 401.041  1.00  0.00     0.000 C 
ENDROOT
BRANCH   1   2
ATOM      2  C   UNL     1       3.960  -2.506 400.433  1.00  0.00     0.000 C 
BRANCH   2   3
ATOM      3  C   UNL     1       3.154  -3.546 401.237  1.00  0.00     0.000 C 
BRANCH   3   4
ATOM      4  C   UNL     1       3.997  -4.481 402.127  1.00  0.00     0.000 C 
BRANCH   4   5
ATOM      5  C   UNL     1       3.617  -4.472 403.621  1.00  0.00     0.000 C 
BRANCH   5   6
ATOM      6  C   UNL     1       2.541  -3.440 404.015  1.00  0.00     0.000 C 
BRANCH   6   7
ATOM      7  C   UNL     1       2.945  -2.468 405.139  1.00  0.00     0.000 C 
BRANCH   7   8
ATOM      8  C   UNL     1       3.887  -1.354 404.652  1.00  0.00     0.000 C 
BRANCH   8   9
ATOM      9  C   UNL     1       5.348  -1.591 405.067  1.00  0.00     0.000 C 
BRANCH   9  10
ATOM     10  C   UNL     1       6.230  -2.064 403.901  1.00  0.00     0.006 C 
BRANCH  10  11
ATOM     11  C   UNL     1       7.575  -2.590 404.411  1.00  0.00     0.053 C 
BRANCH  11  12
ATOM     12  C   UNL     1       7.365  -3.639 405.458  1.00  0.00     0.041 C 
ATOM     13  O   UNL     1       6.786  -4.719 405.166  1.00  0.00    -0.550 OA
ATOM     14  O   UNL     1       7.848  -3.444 406.746  1.00  0.00    -0.550 OA
ENDBRANCH  11  12
ENDBRANCH  10  11
ENDBRANCH   9  10
ENDBRANCH   8   9
ENDBRANCH   7   8
ENDBRANCH   6   7
ENDBRANCH   5   6
ENDBRANCH   4   5
ENDBRANCH   3   4
ENDBRANCH   2   3
ENDBRANCH   1   2
BRANCH   1  15
ATOM     15  C   UNL     1       3.862   0.015 399.981  1.00  0.00     0.000 C 
BRANCH  15  16
ATOM     16  C   UNL     1       3.689   1.411 400.603  1.00  0.00     0.000 C 
BRANCH  16  17
ATOM     17  C   UNL     1       3.640   1.378 402.138  1.00  0.00     0.000 C 
BRANCH  17  18
ATOM     18  C   UNL     1       4.561   2.447 402.740  1.00  0.00    -0.000 C 
BRANCH  18  19
ATOM     19  C   UNL     1       5.703   1.798 403.539  1.00  0.00    -0.000 C 
BRANCH  19  20
ATOM     20  C   UNL     1       7.035   1.795 402.770  1.00  0.00    -0.000 C 
BRANCH  20  21
ATOM     21  C   UNL     1       7.261   0.488 401.990  1.00  0.00    -0.000 C 
BRANCH  21  22
ATOM     22  C   UNL     1       7.383   0.718 400.467  1.00  0.00    -0.000 C 
BRANCH  22  23
ATOM     23  C   UNL     1       7.529  -0.582 399.656  1.00  0.00    -0.000 C 
BRANCH  23  24
ATOM     24  C   UNL     1       7.677  -1.852 400.511  1.00  0.00    -0.000 C 
BRANCH  24  25
ATOM     25  C   UNL     1       7.526  -3.161 399.701  1.00  0.00    -0.003 C 
ATOM     26  C   UNL     1       7.295  -4.383 400.586  1.00  0.00     0.004 C 
ENDBRANCH  24  25
ENDBRANCH  23  24
ENDBRANCH  22  23
ENDBRANCH  21  22
ENDBRANCH  20  21
ENDBRANCH  19  20
ENDBRANCH  18  19
ENDBRANCH  17  18
ENDBRANCH  16  17
ENDBRANCH  15  16
ENDBRANCH   1  15
TORSDOF 22
ENDMDL
MODEL 6
REMARK VINA RESULT:    -3.729      4.109      6.556
REMARK INTER + INTRA:         -12.431
REMARK INTER:                  -9.085
REMARK INTRA:                  -3.346
REMARK UNBOUND:                -3.905
REMARK SMILES CCCCCCCCCCCCCCCCCCCCCCCC(=O)[O-]
REMARK SMILES IDX 13 1 14 2 15 3 16 4 17 5 18 6 19 7 20 8 21 9 22 10 23 11
REMARK SMILES IDX 24 12 25 13 26 14 12 15 11 16 10 17 9 18 8 19 7 20 6 21 5 22
REMARK SMILES IDX 4 23 3 24 2 25 1 26
REMARK H PARENT
REMARK Flexibility Score: inf
ROOT
ATOM      1  C   UNL     1       3.673   0.977 400.478  1.00  0.00     0.000 C 
ENDROOT
BRANCH   1   2
ATOM      2  C   UNL     1       3.646   2.474 400.832  1.00  0.00     0.000 C 
BRANCH   2   3
ATOM      3  C   UNL     1       4.313   2.844 402.173  1.00  0.00     0.000 C 
BRANCH   3   4
ATOM      4  C   UNL     1       4.185   1.780 403.282  1.00  0.00     0.000 C 
BRANCH   4   5
ATOM      5  C   UNL     1       5.411   1.657 404.208  1.00  0.00     0.000 C 
BRANCH   5   6
ATOM      6  C   UNL     1       6.773   1.888 403.521  1.00  0.00     0.000 C 
BRANCH   6   7
ATOM      7  C   UNL     1       7.733   2.832 404.269  1.00  0.00     0.000 C 
BRANCH   7   8
ATOM      8  C   UNL     1       7.042   4.115 404.760  1.00  0.00     0.000 C 
BRANCH   8   9
ATOM      9  C   UNL     1       7.789   5.390 404.334  1.00  0.00     0.000 C 
BRANCH   9  10
ATOM     10  C   UNL     1       6.842   6.513 403.882  1.00  0.00     0.006 C 
BRANCH  10  11
ATOM     11  C   UNL     1       5.416   5.984 403.699  1.00  0.00     0.053 C 
BRANCH  11  12
ATOM     12  C   UNL     1       4.442   7.118 403.630  1.00  0.00     0.041 C 
ATOM     13  O   UNL     1       4.580   8.120 404.381  1.00  0.00    -0.550 OA
ATOM     14  O   UNL     1       3.406   7.090 402.704  1.00  0.00    -0.550 OA
ENDBRANCH  11  12
ENDBRANCH  10  11
ENDBRANCH   9  10
ENDBRANCH   8   9
ENDBRANCH   7   8
ENDBRANCH   6   7
ENDBRANCH   5   6
ENDBRANCH   4   5
ENDBRANCH   3   4
ENDBRANCH   2   3
ENDBRANCH   1   2
BRANCH   1  15
ATOM     15  C   UNL     1       5.084   0.475 400.122  1.00  0.00     0.000 C 
BRANCH  15  16
ATOM     16  C   UNL     1       5.319  -0.982 400.554  1.00  0.00     0.000 C 
BRANCH  16  17
ATOM     17  C   UNL     1       4.105  -1.597 401.267  1.00  0.00     0.000 C 
BRANCH  17  18
ATOM     18  C   UNL     1       3.596  -2.835 400.517  1.00  0.00    -0.000 C 
BRANCH  18  19
ATOM     19  C   UNL     1       3.574  -4.063 401.440  1.00  0.00    -0.000 C 
BRANCH  19  20
ATOM     20  C   UNL     1       4.963  -4.700 401.609  1.00  0.00    -0.000 C 
BRANCH  20  21
ATOM     21  C   UNL     1       5.308  -4.978 403.083  1.00  0.00    -0.000 C 
BRANCH  21  22
ATOM     22  C   UNL     1       6.128  -3.838 403.727  1.00  0.00    -0.000 C 
BRANCH  22  23
ATOM     23  C   UNL     1       5.468  -3.234 404.980  1.00  0.00    -0.000 C 
BRANCH  23  24
ATOM     24  C   UNL     1       4.741  -1.900 404.735  1.00  0.00    -0.000 C 
BRANCH  24  25
ATOM     25  C   UNL     1       3.271  -1.904 405.216  1.00  0.00    -0.003 C 
ATOM     26  C   UNL     1       2.499  -3.137 404.750  1.00  0.00     0.004 C 
ENDBRANCH  24  25
ENDBRANCH  23  24
ENDBRANCH  22  23
ENDBRANCH  21  22
ENDBRANCH  20  21
ENDBRANCH  19  20
ENDBRANCH  18  19
ENDBRANCH  17  18
ENDBRANCH  16  17
ENDBRANCH  15  16
ENDBRANCH   1  15
TORSDOF 22
ENDMDL
MODEL 7
REMARK VINA RESULT:    -3.706      3.041      5.649
REMARK INTER + INTRA:         -12.378
REMARK INTER:                  -7.847
REMARK INTRA:                  -4.530
REMARK UNBOUND:                -3.905
REMARK SMILES CCCCCCCCCCCCCCCCCCCCCCCC(=O)[O-]
REMARK SMILES IDX 13 1 14 2 15 3 16 4 17 5 18 6 19 7 20 8 21 9 22 10 23 11
REMARK SMILES IDX 24 12 25 13 26 14 12 15 11 16 10 17 9 18 8 19 7 20 6 21 5 22
REMARK SMILES IDX 4 23 3 24 2 25 1 26
REMARK H PARENT
REMARK Flexibility Score: inf
ROOT
ATOM      1  C   UNL     1       3.110  -3.525 401.238  1.00  0.00     0.000 C 
ENDROOT
BRANCH   1   2
ATOM      2  C   UNL     1       3.781  -3.365 402.613  1.00  0.00     0.000 C 
BRANCH   2   3
ATOM      3  C   UNL     1       2.826  -3.441 403.822  1.00  0.00     0.000 C 
BRANCH   3   4
ATOM      4  C   UNL     1       2.934  -2.266 404.816  1.00  0.00     0.000 C 
BRANCH   4   5
ATOM      5  C   UNL     1       4.124  -1.318 404.571  1.00  0.00     0.000 C 
BRANCH   5   6
ATOM      6  C   UNL     1       5.299  -1.476 405.559  1.00  0.00     0.000 C 
BRANCH   6   7
ATOM      7  C   UNL     1       6.099  -2.783 405.422  1.00  0.00     0.000 C 
BRANCH   7   8
ATOM      8  C   UNL     1       5.824  -3.773 406.567  1.00  0.00     0.000 C 
BRANCH   8   9
ATOM      9  C   UNL     1       5.483  -5.184 406.061  1.00  0.00     0.000 C 
BRANCH   9  10
ATOM     10  C   UNL     1       5.942  -5.426 404.615  1.00  0.00     0.006 C 
BRANCH  10  11
ATOM     11  C   UNL     1       5.153  -6.574 403.976  1.00  0.00     0.053 C 
BRANCH  11  12
ATOM     12  C   UNL     1       5.472  -6.681 402.518  1.00  0.00     0.041 C 
ATOM     13  O   UNL     1       6.671  -6.707 402.132  1.00  0.00    -0.550 OA
ATOM     14  O   UNL     1       4.447  -6.797 401.587  1.00  0.00    -0.550 OA
ENDBRANCH  11  12
ENDBRANCH  10  11
ENDBRANCH   9  10
ENDBRANCH   8   9
ENDBRANCH   7   8
ENDBRANCH   6   7
ENDBRANCH   5   6
ENDBRANCH   4   5
ENDBRANCH   3   4
ENDBRANCH   2   3
ENDBRANCH   1   2
BRANCH   1  15
ATOM     15  C   UNL     1       3.594  -2.484 400.214  1.00  0.00     0.000 C 
BRANCH  15  16
ATOM     16  C   UNL     1       4.004  -1.155 400.869  1.00  0.00     0.000 C 
BRANCH  16  17
ATOM     17  C   UNL     1       4.069   0.008 399.867  1.00  0.00     0.000 C 
BRANCH  17  18
ATOM     18  C   UNL     1       3.129   1.146 400.285  1.00  0.00    -0.000 C 
BRANCH  18  19
ATOM     19  C   UNL     1       3.913   2.289 400.951  1.00  0.00    -0.000 C 
BRANCH  19  20
ATOM     20  C   UNL     1       4.174   2.034 402.445  1.00  0.00    -0.000 C 
BRANCH  20  21
ATOM     21  C   UNL     1       5.642   2.275 402.836  1.00  0.00    -0.000 C 
BRANCH  21  22
ATOM     22  C   UNL     1       6.490   0.984 402.789  1.00  0.00    -0.000 C 
BRANCH  22  23
ATOM     23  C   UNL     1       7.300   0.823 401.490  1.00  0.00    -0.000 C 
BRANCH  23  24
ATOM     24  C   UNL     1       7.598  -0.636 401.103  1.00  0.00    -0.000 C 
BRANCH  24  25
ATOM     25  C   UNL     1       7.481  -1.623 402.287  1.00  0.00    -0.003 C 
ATOM     26  C   UNL     1       7.271  -3.067 401.837  1.00  0.00     0.004 C 
ENDBRANCH  24  25
ENDBRANCH  23  24
ENDBRANCH  22  23
ENDBRANCH  21  22
ENDBRANCH  20  21
ENDBRANCH  19  20
ENDBRANCH  18  19
ENDBRANCH  17  18
ENDBRANCH  16  17
ENDBRANCH  15  16
ENDBRANCH   1  15
TORSDOF 22
ENDMDL
MODEL 8
REMARK VINA RESULT:    -3.681      1.698      2.658
REMARK INTER + INTRA:         -12.320
REMARK INTER:                  -7.802
REMARK INTRA:                  -4.518
REMARK UNBOUND:                -3.905
REMARK SMILES CCCCCCCCCCCCCCCCCCCCCCCC(=O)[O-]
REMARK SMILES IDX 13 1 14 2 15 3 16 4 17 5 18 6 19 7 20 8 21 9 22 10 23 11
REMARK SMILES IDX 24 12 25 13 26 14 12 15 11 16 10 17 9 18 8 19 7 20 6 21 5 22
REMARK SMILES IDX 4 23 3 24 2 25 1 26
REMARK H PARENT
REMARK Flexibility Score: inf
ROOT
ATOM      1  C   UNL     1       3.580  -2.844 402.304  1.00  0.00     0.000 C 
ENDROOT
BRANCH   1   2
ATOM      2  C   UNL     1       3.798  -4.016 403.278  1.00  0.00     0.000 C 
BRANCH   2   3
ATOM      3  C   UNL     1       4.320  -5.316 402.633  1.00  0.00     0.000 C 
BRANCH   3   4
ATOM      4  C   UNL     1       5.851  -5.499 402.679  1.00  0.00     0.000 C 
BRANCH   4   5
ATOM      5  C   UNL     1       6.539  -5.552 401.301  1.00  0.00     0.000 C 
BRANCH   5   6
ATOM      6  C   UNL     1       6.670  -4.192 400.584  1.00  0.00     0.000 C 
BRANCH   6   7
ATOM      7  C   UNL     1       7.902  -4.048 399.671  1.00  0.00     0.000 C 
BRANCH   7   8
ATOM      8  C   UNL     1       8.449  -2.612 399.632  1.00  0.00     0.000 C 
BRANCH   8   9
ATOM      9  C   UNL     1       7.342  -1.552 399.763  1.00  0.00     0.000 C 
BRANCH   9  10
ATOM     10  C   UNL     1       7.887  -0.163 400.128  1.00  0.00     0.006 C 
BRANCH  10  11
ATOM     11  C   UNL     1       7.231   0.924 399.272  1.00  0.00     0.053 C 
BRANCH  11  12
ATOM     12  C   UNL     1       8.043   1.185 398.043  1.00  0.00     0.041 C 
ATOM     13  O   UNL     1       7.653   0.759 396.923  1.00  0.00    -0.550 OA
ATOM     14  O   UNL     1       9.208   1.937 398.124  1.00  0.00    -0.550 OA
ENDBRANCH  11  12
ENDBRANCH  10  11
ENDBRANCH   9  10
ENDBRANCH   8   9
ENDBRANCH   7   8
ENDBRANCH   6   7
ENDBRANCH   5   6
ENDBRANCH   4   5
ENDBRANCH   3   4
ENDBRANCH   2   3
ENDBRANCH   1   2
BRANCH   1  15
ATOM     15  C   UNL     1       3.220  -3.310 400.882  1.00  0.00     0.000 C 
BRANCH  15  16
ATOM     16  C   UNL     1       3.568  -2.263 399.811  1.00  0.00     0.000 C 
BRANCH  16  17
ATOM     17  C   UNL     1       4.168  -0.979 400.404  1.00  0.00     0.000 C 
BRANCH  17  18
ATOM     18  C   UNL     1       3.541   0.266 399.765  1.00  0.00    -0.000 C 
BRANCH  18  19
ATOM     19  C   UNL     1       3.527   1.442 400.755  1.00  0.00    -0.000 C 
BRANCH  19  20
ATOM     20  C   UNL     1       4.088   1.059 402.134  1.00  0.00    -0.000 C 
BRANCH  20  21
ATOM     21  C   UNL     1       5.291   1.927 402.543  1.00  0.00    -0.000 C 
BRANCH  21  22
ATOM     22  C   UNL     1       6.354   1.134 403.337  1.00  0.00    -0.000 C 
BRANCH  22  23
ATOM     23  C   UNL     1       6.170  -0.392 403.262  1.00  0.00    -0.000 C 
BRANCH  23  24
ATOM     24  C   UNL     1       6.339  -1.120 404.607  1.00  0.00    -0.000 C 
BRANCH  24  25
ATOM     25  C   UNL     1       7.031  -2.496 404.479  1.00  0.00    -0.003 C 
ATOM     26  C   UNL     1       8.144  -2.506 403.433  1.00  0.00     0.004 C 
ENDBRANCH  24  25
ENDBRANCH  23  24
ENDBRANCH  22  23
ENDBRANCH  21  22
ENDBRANCH  20  21
ENDBRANCH  19  20
ENDBRANCH  18  19
ENDBRANCH  17  18
ENDBRANCH  16  17
ENDBRANCH  15  16
ENDBRANCH   1  15
TORSDOF 22
ENDMDL
MODEL 9
REMARK VINA RESULT:    -3.664      3.088      7.281
REMARK INTER + INTRA:         -12.282
REMARK INTER:                  -8.298
REMARK INTRA:                  -3.984
REMARK UNBOUND:                -3.905
REMARK SMILES CCCCCCCCCCCCCCCCCCCCCCCC(=O)[O-]
REMARK SMILES IDX 13 1 14 2 15 3 16 4 17 5 18 6 19 7 20 8 21 9 22 10 23 11
REMARK SMILES IDX 24 12 25 13 26 14 12 15 11 16 10 17 9 18 8 19 7 20 6 21 5 22
REMARK SMILES IDX 4 23 3 24 2 25 1 26
REMARK H PARENT
REMARK Flexibility Score: inf
ROOT
ATOM      1  C   UNL     1       5.508   2.643 402.762  1.00  0.00     0.000 C 
ENDROOT
BRANCH   1   2
ATOM      2  C   UNL     1       4.032   2.442 402.372  1.00  0.00     0.000 C 
BRANCH   2   3
ATOM      3  C   UNL     1       3.712   2.664 400.880  1.00  0.00     0.000 C 
BRANCH   3   4
ATOM      4  C   UNL     1       3.296   1.397 400.105  1.00  0.00     0.000 C 
BRANCH   4   5
ATOM      5  C   UNL     1       3.656   0.067 400.796  1.00  0.00     0.000 C 
BRANCH   5   6
ATOM      6  C   UNL     1       4.014  -1.090 399.840  1.00  0.00     0.000 C 
BRANCH   6   7
ATOM      7  C   UNL     1       3.702  -2.500 400.373  1.00  0.00     0.000 C 
BRANCH   7   8
ATOM      8  C   UNL     1       4.531  -2.863 401.616  1.00  0.00     0.000 C 
BRANCH   8   9
ATOM      9  C   UNL     1       3.672  -2.983 402.886  1.00  0.00     0.000 C 
BRANCH   9  10
ATOM     10  C   UNL     1       3.912  -1.835 403.878  1.00  0.00     0.006 C 
BRANCH  10  11
ATOM     11  C   UNL     1       4.239  -2.376 405.274  1.00  0.00     0.053 C 
BRANCH  11  12
ATOM     12  C   UNL     1       5.712  -2.315 405.528  1.00  0.00     0.041 C 
ATOM     13  O   UNL     1       6.482  -3.162 405.003  1.00  0.00    -0.550 OA
ATOM     14  O   UNL     1       6.242  -1.294 406.307  1.00  0.00    -0.550 OA
ENDBRANCH  11  12
ENDBRANCH  10  11
ENDBRANCH   9  10
ENDBRANCH   8   9
ENDBRANCH   7   8
ENDBRANCH   6   7
ENDBRANCH   5   6
ENDBRANCH   4   5
ENDBRANCH   3   4
ENDBRANCH   2   3
ENDBRANCH   1   2
BRANCH   1  15
ATOM     15  C   UNL     1       6.004   1.598 403.776  1.00  0.00     0.000 C 
BRANCH  15  16
ATOM     16  C   UNL     1       6.649   0.377 403.100  1.00  0.00     0.000 C 
BRANCH  16  17
ATOM     17  C   UNL     1       7.123   0.670 401.668  1.00  0.00     0.000 C 
BRANCH  17  18
ATOM     18  C   UNL     1       7.701  -0.591 401.012  1.00  0.00    -0.000 C 
BRANCH  18  19
ATOM     19  C   UNL     1       7.577  -0.519 399.482  1.00  0.00    -0.000 C 
BRANCH  19  20
ATOM     20  C   UNL     1       7.073   0.850 398.995  1.00  0.00    -0.000 C 
BRANCH  20  21
ATOM     21  C   UNL     1       7.918   1.411 397.838  1.00  0.00    -0.000 C 
BRANCH  21  22
ATOM     22  C   UNL     1       9.374   0.892 397.859  1.00  0.00    -0.000 C 
BRANCH  22  23
ATOM     23  C   UNL     1      10.398   1.946 398.318  1.00  0.00    -0.000 C 
BRANCH  23  24
ATOM     24  C   UNL     1      11.582   1.376 399.119  1.00  0.00    -0.000 C 
BRANCH  24  25
ATOM     25  C   UNL     1      11.152   0.612 400.393  1.00  0.00    -0.003 C 
ATOM     26  C   UNL     1      11.482  -0.878 400.331  1.00  0.00     0.004 C 
ENDBRANCH  24  25
ENDBRANCH  23  24
ENDBRANCH  22  23
ENDBRANCH  21  22
ENDBRANCH  20  21
ENDBRANCH  19  20
ENDBRANCH  18  19
ENDBRANCH  17  18
ENDBRANCH  16  17
ENDBRANCH  15  16
ENDBRANCH   1  15
TORSDOF 22
ENDMDL
