MODEL 1
REMARK VINA RESULT:    -4.572      0.000      0.000
REMARK INTER + INTRA:         -13.365
REMARK INTER:                 -10.452
REMARK INTRA:                  -2.912
REMARK UNBOUND:                -2.912
REMARK SMILES CCCCCCCCCCCCCCCCCCCCCCCC(=O)[O-]
REMARK SMILES IDX 13 1 14 2 15 3 16 4 17 5 18 6 19 7 20 8 21 9 22 10 23 11
REMARK SMILES IDX 24 12 25 13 26 14 12 15 11 16 10 17 9 18 8 19 7 20 6 21 5 22
REMARK SMILES IDX 4 23 3 24 2 25 1 26
REMARK H PARENT
REMARK Flexibility Score: inf
ROOT
ATOM      1  C   UNL     1     -12.657   5.177   5.695  1.00  0.00     0.000 C 
ENDROOT
BRANCH   1   2
ATOM      2  C   UNL     1     -12.500   4.136   6.813  1.00  0.00     0.000 C 
BRANCH   2   3
ATOM      3  C   UNL     1     -11.029   3.853   7.156  1.00  0.00     0.000 C 
BRANCH   3   4
ATOM      4  C   UNL     1     -10.544   4.644   8.380  1.00  0.00     0.000 C 
BRANCH   4   5
ATOM      5  C   UNL     1      -9.874   5.956   7.954  1.00  0.00     0.000 C 
BRANCH   5   6
ATOM      6  C   UNL     1      -9.209   5.813   6.576  1.00  0.00     0.000 C 
BRANCH   6   7
ATOM      7  C   UNL     1      -9.277   7.108   5.751  1.00  0.00     0.000 C 
BRANCH   7   8
ATOM      8  C   UNL     1      -8.292   8.180   6.247  1.00  0.00     0.000 C 
BRANCH   8   9
ATOM      9  C   UNL     1      -7.797   9.094   5.116  1.00  0.00     0.000 C 
BRANCH   9  10
ATOM     10  C   UNL     1      -8.025  10.585   5.418  1.00  0.00     0.006 C 
BRANCH  10  11
ATOM     11  C   UNL     1      -6.707  11.363   5.532  1.00  0.00     0.053 C 
BRANCH  11  12
ATOM     12  C   UNL     1      -5.873  10.879   6.677  1.00  0.00     0.041 C 
ATOM     13  O   UNL     1      -4.720  10.417   6.471  1.00  0.00    -0.550 OA
ATOM     14  O   UNL     1      -6.383  10.905   7.970  1.00  0.00    -0.550 OA
ENDBRANCH  11  12
ENDBRANCH  10  11
ENDBRANCH   9  10
ENDBRANCH   8   9
ENDBRANCH   7   8
ENDBRANCH   6   7
ENDBRANCH   5   6
ENDBRANCH   4   5
ENDBRANCH   3   4
ENDBRANCH   2   3
ENDBRANCH   1   2
BRANCH   1  15
ATOM     15  C   UNL     1     -13.831   6.121   5.982  1.00  0.00     0.000 C 
BRANCH  15  16
ATOM     16  C   UNL     1     -14.667   6.359   4.716  1.00  0.00     0.000 C 
BRANCH  16  17
ATOM     17  C   UNL     1     -14.032   5.742   3.460  1.00  0.00     0.000 C 
BRANCH  17  18
ATOM     18  C   UNL     1     -13.977   6.726   2.281  1.00  0.00    -0.000 C 
BRANCH  18  19
ATOM     19  C   UNL     1     -13.978   8.180   2.781  1.00  0.00    -0.000 C 
BRANCH  19  20
ATOM     20  C   UNL     1     -13.647   9.190   1.670  1.00  0.00    -0.000 C 
BRANCH  20  21
ATOM     21  C   UNL     1     -13.504  10.625   2.197  1.00  0.00    -0.000 C 
BRANCH  21  22
ATOM     22  C   UNL     1     -14.299  10.816   3.495  1.00  0.00    -0.000 C 
BRANCH  22  23
ATOM     23  C   UNL     1     -13.498  11.641   4.514  1.00  0.00    -0.000 C 
BRANCH  23  24
ATOM     24  C   UNL     1     -12.005  11.270   4.533  1.00  0.00    -0.000 C 
BRANCH  24  25
ATOM     25  C   UNL     1     -11.572  10.631   5.859  1.00  0.00    -0.003 C 
ATOM     26  C   UNL     1     -12.237   9.272   6.057  1.00  0.00     0.004 C 
ENDBRANCH  24  25
ENDBRANCH  23  24
ENDBRANCH  22  23
ENDBRANCH  21  22
ENDBRANCH  20  21
ENDBRANCH  19  20
ENDBRANCH  18  19
ENDBRANCH  17  18
ENDBRANCH  16  17
ENDBRANCH  15  16
ENDBRANCH   1  15
TORSDOF 22
ENDMDL
MODEL 2
REMARK VINA RESULT:    -4.352      2.810      6.080
REMARK INTER + INTRA:         -12.861
REMARK INTER:                 -10.139
REMARK INTRA:                  -2.722
REMARK UNBOUND:                -2.912
REMARK SMILES CCCCCCCCCCCCCCCCCCCCCCCC(=O)[O-]
REMARK SMILES IDX 13 1 14 2 15 3 16 4 17 5 18 6 19 7 20 8 21 9 22 10 23 11
REMARK SMILES IDX 24 12 25 13 26 14 12 15 11 16 10 17 9 18 8 19 7 20 6 21 5 22
REMARK SMILES IDX 4 23 3 24 2 25 1 26
REMARK H PARENT
REMARK Flexibility Score: inf
ROOT
ATOM      1  C   UNL     1     -12.093   4.165   6.405  1.00  0.00     0.000 C 
ENDROOT
BRANCH   1   2
ATOM      2  C   UNL     1     -13.200   5.155   6.014  1.00  0.00     0.000 C 
BRANCH   2   3
ATOM      3  C   UNL     1     -12.713   6.229   5.028  1.00  0.00     0.000 C 
BRANCH   3   4
ATOM      4  C   UNL     1     -12.921   7.656   5.557  1.00  0.00     0.000 C 
BRANCH   4   5
ATOM      5  C   UNL     1     -14.068   8.354   4.816  1.00  0.00     0.000 C 
BRANCH   5   6
ATOM      6  C   UNL     1     -14.419   9.694   5.480  1.00  0.00     0.000 C 
BRANCH   6   7
ATOM      7  C   UNL     1     -13.285  10.224   6.373  1.00  0.00     0.000 C 
BRANCH   7   8
ATOM      8  C   UNL     1     -12.702  11.553   5.863  1.00  0.00     0.000 C 
BRANCH   8   9
ATOM      9  C   UNL     1     -11.384  11.362   5.095  1.00  0.00     0.000 C 
BRANCH   9  10
ATOM     10  C   UNL     1     -11.447  11.922   3.664  1.00  0.00     0.006 C 
BRANCH  10  11
ATOM     11  C   UNL     1     -12.819  11.697   3.014  1.00  0.00     0.053 C 
BRANCH  11  12
ATOM     12  C   UNL     1     -12.706  10.949   1.722  1.00  0.00     0.041 C 
ATOM     13  O   UNL     1     -13.483   9.988   1.476  1.00  0.00    -0.550 OA
ATOM     14  O   UNL     1     -11.720  11.288   0.804  1.00  0.00    -0.550 OA
ENDBRANCH  11  12
ENDBRANCH  10  11
ENDBRANCH   9  10
ENDBRANCH   8   9
ENDBRANCH   7   8
ENDBRANCH   6   7
ENDBRANCH   5   6
ENDBRANCH   4   5
ENDBRANCH   3   4
ENDBRANCH   2   3
ENDBRANCH   1   2
BRANCH   1  15
ATOM     15  C   UNL     1     -12.060   3.945   7.922  1.00  0.00     0.000 C 
BRANCH  15  16
ATOM     16  C   UNL     1     -10.615   3.903   8.441  1.00  0.00     0.000 C 
BRANCH  16  17
ATOM     17  C   UNL     1     -10.130   5.266   8.958  1.00  0.00     0.000 C 
BRANCH  17  18
ATOM     18  C   UNL     1     -10.066   6.330   7.852  1.00  0.00    -0.000 C 
BRANCH  18  19
ATOM     19  C   UNL     1      -9.014   5.958   6.795  1.00  0.00    -0.000 C 
BRANCH  19  20
ATOM     20  C   UNL     1      -9.086   6.851   5.545  1.00  0.00    -0.000 C 
BRANCH  20  21
ATOM     21  C   UNL     1      -8.922   8.342   5.871  1.00  0.00    -0.000 C 
BRANCH  21  22
ATOM     22  C   UNL     1      -7.918   9.006   4.920  1.00  0.00    -0.000 C 
BRANCH  22  23
ATOM     23  C   UNL     1      -7.704  10.481   5.288  1.00  0.00    -0.000 C 
BRANCH  23  24
ATOM     24  C   UNL     1      -6.223  10.826   5.514  1.00  0.00    -0.000 C 
BRANCH  24  25
ATOM     25  C   UNL     1      -5.757  10.525   6.945  1.00  0.00    -0.003 C 
ATOM     26  C   UNL     1      -6.677  11.180   7.971  1.00  0.00     0.004 C 
ENDBRANCH  24  25
ENDBRANCH  23  24
ENDBRANCH  22  23
ENDBRANCH  21  22
ENDBRANCH  20  21
ENDBRANCH  19  20
ENDBRANCH  18  19
ENDBRANCH  17  18
ENDBRANCH  16  17
ENDBRANCH  15  16
ENDBRANCH   1  15
TORSDOF 22
ENDMDL
MODEL 3
REMARK VINA RESULT:    -4.289      2.860      6.023
REMARK INTER + INTRA:         -12.717
REMARK INTER:                  -9.706
REMARK INTRA:                  -3.011
REMARK UNBOUND:                -2.912
REMARK SMILES CCCCCCCCCCCCCCCCCCCCCCCC(=O)[O-]
REMARK SMILES IDX 13 1 14 2 15 3 16 4 17 5 18 6 19 7 20 8 21 9 22 10 23 11
REMARK SMILES IDX 24 12 25 13 26 14 12 15 11 16 10 17 9 18 8 19 7 20 6 21 5 22
REMARK SMILES IDX 4 23 3 24 2 25 1 26
REMARK H PARENT
REMARK Flexibility Score: inf
ROOT
ATOM      1  C   UNL     1     -10.960   4.034   7.648  1.00  0.00     0.000 C 
ENDROOT
BRANCH   1   2
ATOM      2  C   UNL     1     -12.031   3.994   6.548  1.00  0.00     0.000 C 
BRANCH   2   3
ATOM      3  C   UNL     1     -12.896   5.265   6.517  1.00  0.00     0.000 C 
BRANCH   3   4
ATOM      4  C   UNL     1     -12.764   6.039   5.197  1.00  0.00     0.000 C 
BRANCH   4   5
ATOM      5  C   UNL     1     -13.191   7.501   5.375  1.00  0.00     0.000 C 
BRANCH   5   6
ATOM      6  C   UNL     1     -12.072   8.326   6.029  1.00  0.00     0.000 C 
BRANCH   6   7
ATOM      7  C   UNL     1     -12.587   9.642   6.635  1.00  0.00     0.000 C 
BRANCH   7   8
ATOM      8  C   UNL     1     -13.974  10.037   6.102  1.00  0.00     0.000 C 
BRANCH   8   9
ATOM      9  C   UNL     1     -13.953  11.370   5.336  1.00  0.00     0.000 C 
BRANCH   9  10
ATOM     10  C   UNL     1     -13.994  11.175   3.810  1.00  0.00     0.006 C 
BRANCH  10  11
ATOM     11  C   UNL     1     -12.604  11.302   3.172  1.00  0.00     0.053 C 
BRANCH  11  12
ATOM     12  C   UNL     1     -12.632  10.976   1.711  1.00  0.00     0.041 C 
ATOM     13  O   UNL     1     -13.396  10.073   1.277  1.00  0.00    -0.550 OA
ATOM     14  O   UNL     1     -11.788  11.644   0.832  1.00  0.00    -0.550 OA
ENDBRANCH  11  12
ENDBRANCH  10  11
ENDBRANCH   9  10
ENDBRANCH   8   9
ENDBRANCH   7   8
ENDBRANCH   6   7
ENDBRANCH   5   6
ENDBRANCH   4   5
ENDBRANCH   3   4
ENDBRANCH   2   3
ENDBRANCH   1   2
BRANCH   1  15
ATOM     15  C   UNL     1     -10.815   5.448   8.225  1.00  0.00     0.000 C 
BRANCH  15  16
ATOM     16  C   UNL     1      -9.554   6.136   7.683  1.00  0.00     0.000 C 
BRANCH  16  17
ATOM     17  C   UNL     1      -9.165   5.644   6.280  1.00  0.00     0.000 C 
BRANCH  17  18
ATOM     18  C   UNL     1      -8.800   6.794   5.330  1.00  0.00    -0.000 C 
BRANCH  18  19
ATOM     19  C   UNL     1      -8.666   8.118   6.099  1.00  0.00    -0.000 C 
BRANCH  19  20
ATOM     20  C   UNL     1      -8.199   9.279   5.206  1.00  0.00    -0.000 C 
BRANCH  20  21
ATOM     21  C   UNL     1      -9.052  10.543   5.382  1.00  0.00    -0.000 C 
BRANCH  21  22
ATOM     22  C   UNL     1      -8.183  11.741   5.787  1.00  0.00    -0.000 C 
BRANCH  22  23
ATOM     23  C   UNL     1      -7.950  11.764   7.305  1.00  0.00    -0.000 C 
BRANCH  23  24
ATOM     24  C   UNL     1      -6.464  11.917   7.674  1.00  0.00    -0.000 C 
BRANCH  24  25
ATOM     25  C   UNL     1      -5.545  11.904   6.444  1.00  0.00    -0.003 C 
ATOM     26  C   UNL     1      -4.769  10.594   6.353  1.00  0.00     0.004 C 
ENDBRANCH  24  25
ENDBRANCH  23  24
ENDBRANCH  22  23
ENDBRANCH  21  22
ENDBRANCH  20  21
ENDBRANCH  19  20
ENDBRANCH  18  19
ENDBRANCH  17  18
ENDBRANCH  16  17
ENDBRANCH  15  16
ENDBRANCH   1  15
TORSDOF 22
ENDMDL
MODEL 4
REMARK VINA RESULT:    -4.280      2.073      5.947
REMARK INTER + INTRA:         -12.696
REMARK INTER:                 -10.131
REMARK INTRA:                  -2.565
REMARK UNBOUND:                -2.912
REMARK SMILES CCCCCCCCCCCCCCCCCCCCCCCC(=O)[O-]
REMARK SMILES IDX 13 1 14 2 15 3 16 4 17 5 18 6 19 7 20 8 21 9 22 10 23 11
REMARK SMILES IDX 24 12 25 13 26 14 12 15 11 16 10 17 9 18 8 19 7 20 6 21 5 22
REMARK SMILES IDX 4 23 3 24 2 25 1 26
REMARK H PARENT
REMARK Flexibility Score: inf
ROOT
ATOM      1  C   UNL     1     -12.897   5.648   4.587  1.00  0.00     0.000 C 
ENDROOT
BRANCH   1   2
ATOM      2  C   UNL     1     -14.189   6.070   3.872  1.00  0.00     0.000 C 
BRANCH   2   3
ATOM      3  C   UNL     1     -13.949   6.483   2.411  1.00  0.00     0.000 C 
BRANCH   3   4
ATOM      4  C   UNL     1     -13.944   8.007   2.221  1.00  0.00     0.000 C 
BRANCH   4   5
ATOM      5  C   UNL     1     -13.983   8.729   3.574  1.00  0.00     0.000 C 
BRANCH   5   6
ATOM      6  C   UNL     1     -14.110  10.248   3.385  1.00  0.00     0.000 C 
BRANCH   6   7
ATOM      7  C   UNL     1     -13.398  10.746   2.116  1.00  0.00     0.000 C 
BRANCH   7   8
ATOM      8  C   UNL     1     -12.133  11.563   2.429  1.00  0.00     0.000 C 
BRANCH   8   9
ATOM      9  C   UNL     1     -12.118  12.097   3.870  1.00  0.00     0.000 C 
BRANCH   9  10
ATOM     10  C   UNL     1     -11.002  11.466   4.721  1.00  0.00     0.006 C 
BRANCH  10  11
ATOM     11  C   UNL     1     -11.179  11.757   6.217  1.00  0.00     0.053 C 
BRANCH  11  12
ATOM     12  C   UNL     1     -12.134  10.799   6.861  1.00  0.00     0.041 C 
ATOM     13  O   UNL     1     -12.820  11.159   7.854  1.00  0.00    -0.550 OA
ATOM     14  O   UNL     1     -12.239   9.497   6.388  1.00  0.00    -0.550 OA
ENDBRANCH  11  12
ENDBRANCH  10  11
ENDBRANCH   9  10
ENDBRANCH   8   9
ENDBRANCH   7   8
ENDBRANCH   6   7
ENDBRANCH   5   6
ENDBRANCH   4   5
ENDBRANCH   3   4
ENDBRANCH   2   3
ENDBRANCH   1   2
BRANCH   1  15
ATOM     15  C   UNL     1     -13.019   5.840   6.104  1.00  0.00     0.000 C 
BRANCH  15  16
ATOM     16  C   UNL     1     -12.880   4.499   6.840  1.00  0.00     0.000 C 
BRANCH  16  17
ATOM     17  C   UNL     1     -11.417   4.060   7.003  1.00  0.00     0.000 C 
BRANCH  17  18
ATOM     18  C   UNL     1     -10.755   4.659   8.254  1.00  0.00    -0.000 C 
BRANCH  18  19
ATOM     19  C   UNL     1      -9.715   5.722   7.867  1.00  0.00    -0.000 C 
BRANCH  19  20
ATOM     20  C   UNL     1      -9.399   5.723   6.362  1.00  0.00    -0.000 C 
BRANCH  20  21
ATOM     21  C   UNL     1      -9.484   7.124   5.739  1.00  0.00    -0.000 C 
BRANCH  21  22
ATOM     22  C   UNL     1      -8.347   8.021   6.244  1.00  0.00    -0.000 C 
BRANCH  22  23
ATOM     23  C   UNL     1      -7.990   9.094   5.205  1.00  0.00    -0.000 C 
BRANCH  23  24
ATOM     24  C   UNL     1      -7.668  10.455   5.846  1.00  0.00    -0.000 C 
BRANCH  24  25
ATOM     25  C   UNL     1      -6.451  11.137   5.206  1.00  0.00    -0.003 C 
ATOM     26  C   UNL     1      -5.233  11.058   6.122  1.00  0.00     0.004 C 
ENDBRANCH  24  25
ENDBRANCH  23  24
ENDBRANCH  22  23
ENDBRANCH  21  22
ENDBRANCH  20  21
ENDBRANCH  19  20
ENDBRANCH  18  19
ENDBRANCH  17  18
ENDBRANCH  16  17
ENDBRANCH  15  16
ENDBRANCH   1  15
TORSDOF 22
ENDMDL
MODEL 5
REMARK VINA RESULT:    -4.232      2.006      6.339
REMARK INTER + INTRA:         -12.587
REMARK INTER:                 -10.664
REMARK INTRA:                  -1.923
REMARK UNBOUND:                -2.912
REMARK SMILES CCCCCCCCCCCCCCCCCCCCCCCC(=O)[O-]
REMARK SMILES IDX 13 1 14 2 15 3 16 4 17 5 18 6 19 7 20 8 21 9 22 10 23 11
REMARK SMILES IDX 24 12 25 13 26 14 12 15 11 16 10 17 9 18 8 19 7 20 6 21 5 22
REMARK SMILES IDX 4 23 3 24 2 25 1 26
REMARK H PARENT
REMARK Flexibility Score: inf
ROOT
ATOM      1  C   UNL     1     -11.237   4.161   6.715  1.00  0.00     0.000 C 
ENDROOT
BRANCH   1   2
ATOM      2  C   UNL     1     -12.626   4.438   6.120  1.00  0.00     0.000 C 
BRANCH   2   3
ATOM      3  C   UNL     1     -12.902   5.939   5.934  1.00  0.00     0.000 C 
BRANCH   3   4
ATOM      4  C   UNL     1     -14.017   6.214   4.915  1.00  0.00     0.000 C 
BRANCH   4   5
ATOM      5  C   UNL     1     -13.626   5.701   3.524  1.00  0.00     0.000 C 
BRANCH   5   6
ATOM      6  C   UNL     1     -13.979   6.730   2.438  1.00  0.00     0.000 C 
BRANCH   6   7
ATOM      7  C   UNL     1     -13.948   8.175   2.963  1.00  0.00     0.000 C 
BRANCH   7   8
ATOM      8  C   UNL     1     -13.612   9.197   1.865  1.00  0.00     0.000 C 
BRANCH   8   9
ATOM      9  C   UNL     1     -13.763  10.650   2.345  1.00  0.00     0.000 C 
BRANCH   9  10
ATOM     10  C   UNL     1     -12.408  11.331   2.602  1.00  0.00     0.006 C 
BRANCH  10  11
ATOM     11  C   UNL     1     -12.341  11.984   3.989  1.00  0.00     0.053 C 
BRANCH  11  12
ATOM     12  C   UNL     1     -11.602  11.129   4.971  1.00  0.00     0.041 C 
ATOM     13  O   UNL     1     -10.486  11.500   5.421  1.00  0.00    -0.550 OA
ATOM     14  O   UNL     1     -12.129   9.904   5.364  1.00  0.00    -0.550 OA
ENDBRANCH  11  12
ENDBRANCH  10  11
ENDBRANCH   9  10
ENDBRANCH   8   9
ENDBRANCH   7   8
ENDBRANCH   6   7
ENDBRANCH   5   6
ENDBRANCH   4   5
ENDBRANCH   3   4
ENDBRANCH   2   3
ENDBRANCH   1   2
BRANCH   1  15
ATOM     15  C   UNL     1     -11.035   4.934   8.024  1.00  0.00     0.000 C 
BRANCH  15  16
ATOM     16  C   UNL     1      -9.841   5.894   7.916  1.00  0.00     0.000 C 
BRANCH  16  17
ATOM     17  C   UNL     1      -9.149   5.829   6.545  1.00  0.00     0.000 C 
BRANCH  17  18
ATOM     18  C   UNL     1      -9.380   7.095   5.705  1.00  0.00    -0.000 C 
BRANCH  18  19
ATOM     19  C   UNL     1      -8.367   8.189   6.074  1.00  0.00    -0.000 C 
BRANCH  19  20
ATOM     20  C   UNL     1      -8.011   9.094   4.884  1.00  0.00    -0.000 C 
BRANCH  20  21
ATOM     21  C   UNL     1      -7.124  10.282   5.285  1.00  0.00    -0.000 C 
BRANCH  21  22
ATOM     22  C   UNL     1      -6.366   9.986   6.586  1.00  0.00    -0.000 C 
BRANCH  22  23
ATOM     23  C   UNL     1      -5.249  11.014   6.817  1.00  0.00    -0.000 C 
BRANCH  23  24
ATOM     24  C   UNL     1      -4.598  11.486   5.506  1.00  0.00    -0.000 C 
BRANCH  24  25
ATOM     25  C   UNL     1      -3.088  11.721   5.646  1.00  0.00    -0.003 C 
ATOM     26  C   UNL     1      -2.419  11.824   4.278  1.00  0.00     0.004 C 
ENDBRANCH  24  25
ENDBRANCH  23  24
ENDBRANCH  22  23
ENDBRANCH  21  22
ENDBRANCH  20  21
ENDBRANCH  19  20
ENDBRANCH  18  19
ENDBRANCH  17  18
ENDBRANCH  16  17
ENDBRANCH  15  16
ENDBRANCH   1  15
TORSDOF 22
ENDMDL
MODEL 6
REMARK VINA RESULT:    -4.225      1.081      2.247
REMARK INTER + INTRA:         -12.571
REMARK INTER:                 -10.004
REMARK INTRA:                  -2.567
REMARK UNBOUND:                -2.912
REMARK SMILES CCCCCCCCCCCCCCCCCCCCCCCC(=O)[O-]
REMARK SMILES IDX 13 1 14 2 15 3 16 4 17 5 18 6 19 7 20 8 21 9 22 10 23 11
REMARK SMILES IDX 24 12 25 13 26 14 12 15 11 16 10 17 9 18 8 19 7 20 6 21 5 22
REMARK SMILES IDX 4 23 3 24 2 25 1 26
REMARK H PARENT
REMARK Flexibility Score: inf
ROOT
ATOM      1  C   UNL     1     -13.134   5.451   6.140  1.00  0.00     0.000 C 
ENDROOT
BRANCH   1   2
ATOM      2  C   UNL     1     -12.561   4.127   6.668  1.00  0.00     0.000 C 
BRANCH   2   3
ATOM      3  C   UNL     1     -11.833   4.292   8.012  1.00  0.00     0.000 C 
BRANCH   3   4
ATOM      4  C   UNL     1     -10.316   4.461   7.847  1.00  0.00     0.000 C 
BRANCH   4   5
ATOM      5  C   UNL     1      -9.915   5.938   7.951  1.00  0.00     0.000 C 
BRANCH   5   6
ATOM      6  C   UNL     1      -8.815   6.283   6.935  1.00  0.00     0.000 C 
BRANCH   6   7
ATOM      7  C   UNL     1      -9.337   7.141   5.771  1.00  0.00     0.000 C 
BRANCH   7   8
ATOM      8  C   UNL     1      -8.313   8.188   5.301  1.00  0.00     0.000 C 
BRANCH   8   9
ATOM      9  C   UNL     1      -8.880   9.616   5.319  1.00  0.00     0.000 C 
BRANCH   9  10
ATOM     10  C   UNL     1      -7.852  10.653   5.803  1.00  0.00     0.006 C 
BRANCH  10  11
ATOM     11  C   UNL     1      -6.853  10.057   6.803  1.00  0.00     0.053 C 
BRANCH  11  12
ATOM     12  C   UNL     1      -5.830  11.062   7.235  1.00  0.00     0.041 C 
ATOM     13  O   UNL     1      -6.021  11.757   8.268  1.00  0.00    -0.550 OA
ATOM     14  O   UNL     1      -4.682  11.258   6.477  1.00  0.00    -0.550 OA
ENDBRANCH  11  12
ENDBRANCH  10  11
ENDBRANCH   9  10
ENDBRANCH   8   9
ENDBRANCH   7   8
ENDBRANCH   6   7
ENDBRANCH   5   6
ENDBRANCH   4   5
ENDBRANCH   3   4
ENDBRANCH   2   3
ENDBRANCH   1   2
BRANCH   1  15
ATOM     15  C   UNL     1     -12.529   5.808   4.777  1.00  0.00     0.000 C 
BRANCH  15  16
ATOM     16  C   UNL     1     -13.581   5.698   3.663  1.00  0.00     0.000 C 
BRANCH  16  17
ATOM     17  C   UNL     1     -14.634   6.816   3.728  1.00  0.00     0.000 C 
BRANCH  17  18
ATOM     18  C   UNL     1     -14.010   8.203   3.945  1.00  0.00    -0.000 C 
BRANCH  18  19
ATOM     19  C   UNL     1     -14.566   8.860   5.218  1.00  0.00    -0.000 C 
BRANCH  19  20
ATOM     20  C   UNL     1     -13.503   9.667   5.982  1.00  0.00    -0.000 C 
BRANCH  20  21
ATOM     21  C   UNL     1     -13.377  11.111   5.475  1.00  0.00    -0.000 C 
BRANCH  21  22
ATOM     22  C   UNL     1     -11.905  11.520   5.339  1.00  0.00    -0.000 C 
BRANCH  22  23
ATOM     23  C   UNL     1     -11.628  12.125   3.955  1.00  0.00    -0.000 C 
BRANCH  23  24
ATOM     24  C   UNL     1     -12.828  11.997   3.002  1.00  0.00    -0.000 C 
BRANCH  24  25
ATOM     25  C   UNL     1     -12.443  11.400   1.642  1.00  0.00    -0.003 C 
ATOM     26  C   UNL     1     -13.322  10.201   1.299  1.00  0.00     0.004 C 
ENDBRANCH  24  25
ENDBRANCH  23  24
ENDBRANCH  22  23
ENDBRANCH  21  22
ENDBRANCH  20  21
ENDBRANCH  19  20
ENDBRANCH  18  19
ENDBRANCH  17  18
ENDBRANCH  16  17
ENDBRANCH  15  16
ENDBRANCH   1  15
TORSDOF 22
ENDMDL
MODEL 7
REMARK VINA RESULT:    -4.194      2.598      5.781
REMARK INTER + INTRA:         -12.499
REMARK INTER:                  -9.968
REMARK INTRA:                  -2.531
REMARK UNBOUND:                -2.912
REMARK SMILES CCCCCCCCCCCCCCCCCCCCCCCC(=O)[O-]
REMARK SMILES IDX 13 1 14 2 15 3 16 4 17 5 18 6 19 7 20 8 21 9 22 10 23 11
REMARK SMILES IDX 24 12 25 13 26 14 12 15 11 16 10 17 9 18 8 19 7 20 6 21 5 22
REMARK SMILES IDX 4 23 3 24 2 25 1 26
REMARK H PARENT
REMARK Flexibility Score: inf
ROOT
ATOM      1  C   UNL     1     -10.243   5.491   7.874  1.00  0.00     0.000 C 
ENDROOT
BRANCH   1   2
ATOM      2  C   UNL     1     -10.676   4.106   7.370  1.00  0.00     0.000 C 
BRANCH   2   3
ATOM      3  C   UNL     1     -12.200   3.909   7.416  1.00  0.00     0.000 C 
BRANCH   3   4
ATOM      4  C   UNL     1     -12.966   5.068   6.764  1.00  0.00     0.000 C 
BRANCH   4   5
ATOM      5  C   UNL     1     -12.856   5.006   5.235  1.00  0.00     0.000 C 
BRANCH   5   6
ATOM      6  C   UNL     1     -13.813   6.009   4.572  1.00  0.00     0.000 C 
BRANCH   6   7
ATOM      7  C   UNL     1     -13.667   6.042   3.042  1.00  0.00     0.000 C 
BRANCH   7   8
ATOM      8  C   UNL     1     -13.969   7.427   2.448  1.00  0.00     0.000 C 
BRANCH   8   9
ATOM      9  C   UNL     1     -13.975   8.537   3.511  1.00  0.00     0.000 C 
BRANCH   9  10
ATOM     10  C   UNL     1     -13.986   9.946   2.895  1.00  0.00     0.006 C 
BRANCH  10  11
ATOM     11  C   UNL     1     -13.252   9.996   1.548  1.00  0.00     0.053 C 
BRANCH  11  12
ATOM     12  C   UNL     1     -12.288  11.140   1.482  1.00  0.00     0.041 C 
ATOM     13  O   UNL     1     -12.018  11.803   2.518  1.00  0.00    -0.550 OA
ATOM     14  O   UNL     1     -11.715  11.499   0.268  1.00  0.00    -0.550 OA
ENDBRANCH  11  12
ENDBRANCH  10  11
ENDBRANCH   9  10
ENDBRANCH   8   9
ENDBRANCH   7   8
ENDBRANCH   6   7
ENDBRANCH   5   6
ENDBRANCH   4   5
ENDBRANCH   3   4
ENDBRANCH   2   3
ENDBRANCH   1   2
BRANCH   1  15
ATOM     15  C   UNL     1      -9.288   6.165   6.880  1.00  0.00     0.000 C 
BRANCH  15  16
ATOM     16  C   UNL     1     -10.048   7.126   5.954  1.00  0.00     0.000 C 
BRANCH  16  17
ATOM     17  C   UNL     1     -11.257   7.781   6.641  1.00  0.00     0.000 C 
BRANCH  17  18
ATOM     18  C   UNL     1     -11.859   8.926   5.812  1.00  0.00    -0.000 C 
BRANCH  18  19
ATOM     19  C   UNL     1     -12.444  10.014   6.725  1.00  0.00    -0.000 C 
BRANCH  19  20
ATOM     20  C   UNL     1     -11.616  11.309   6.711  1.00  0.00    -0.000 C 
BRANCH  20  21
ATOM     21  C   UNL     1     -10.570  11.332   5.586  1.00  0.00    -0.000 C 
BRANCH  21  22
ATOM     22  C   UNL     1      -9.151  11.447   6.158  1.00  0.00    -0.000 C 
BRANCH  22  23
ATOM     23  C   UNL     1      -8.249  10.326   5.619  1.00  0.00    -0.000 C 
BRANCH  23  24
ATOM     24  C   UNL     1      -6.931  10.199   6.402  1.00  0.00    -0.000 C 
BRANCH  24  25
ATOM     25  C   UNL     1      -5.752  10.875   5.690  1.00  0.00    -0.003 C 
ATOM     26  C   UNL     1      -4.459  10.700   6.480  1.00  0.00     0.004 C 
ENDBRANCH  24  25
ENDBRANCH  23  24
ENDBRANCH  22  23
ENDBRANCH  21  22
ENDBRANCH  20  21
ENDBRANCH  19  20
ENDBRANCH  18  19
ENDBRANCH  17  18
ENDBRANCH  16  17
ENDBRANCH  15  16
ENDBRANCH   1  15
TORSDOF 22
ENDMDL
MODEL 8
REMARK VINA RESULT:    -4.108      2.195      6.035
REMARK INTER + INTRA:         -12.304
REMARK INTER:                  -9.764
REMARK INTRA:                  -2.540
REMARK UNBOUND:                -2.912
REMARK SMILES CCCCCCCCCCCCCCCCCCCCCCCC(=O)[O-]
REMARK SMILES IDX 13 1 14 2 15 3 16 4 17 5 18 6 19 7 20 8 21 9 22 10 23 11
REMARK SMILES IDX 24 12 25 13 26 14 12 15 11 16 10 17 9 18 8 19 7 20 6 21 5 22
REMARK SMILES IDX 4 23 3 24 2 25 1 26
REMARK H PARENT
REMARK Flexibility Score: inf
ROOT
ATOM      1  C   UNL     1     -10.662   5.064   8.534  1.00  0.00     0.000 C 
ENDROOT
BRANCH   1   2
ATOM      2  C   UNL     1     -10.686   3.823   7.630  1.00  0.00     0.000 C 
BRANCH   2   3
ATOM      3  C   UNL     1     -11.777   3.900   6.549  1.00  0.00     0.000 C 
BRANCH   3   4
ATOM      4  C   UNL     1     -12.867   4.929   6.881  1.00  0.00     0.000 C 
BRANCH   4   5
ATOM      5  C   UNL     1     -12.927   6.027   5.812  1.00  0.00     0.000 C 
BRANCH   5   6
ATOM      6  C   UNL     1     -12.533   5.476   4.433  1.00  0.00     0.000 C 
BRANCH   6   7
ATOM      7  C   UNL     1     -13.555   5.833   3.341  1.00  0.00     0.000 C 
BRANCH   7   8
ATOM      8  C   UNL     1     -14.206   7.208   3.565  1.00  0.00     0.000 C 
BRANCH   8   9
ATOM      9  C   UNL     1     -13.912   8.193   2.422  1.00  0.00     0.000 C 
BRANCH   9  10
ATOM     10  C   UNL     1     -13.725   9.637   2.919  1.00  0.00     0.006 C 
BRANCH  10  11
ATOM     11  C   UNL     1     -14.008   9.774   4.421  1.00  0.00     0.053 C 
BRANCH  11  12
ATOM     12  C   UNL     1     -12.864  10.414   5.146  1.00  0.00     0.041 C 
ATOM     13  O   UNL     1     -12.287  11.421   4.657  1.00  0.00    -0.550 OA
ATOM     14  O   UNL     1     -12.411   9.876   6.345  1.00  0.00    -0.550 OA
ENDBRANCH  11  12
ENDBRANCH  10  11
ENDBRANCH   9  10
ENDBRANCH   8   9
ENDBRANCH   7   8
ENDBRANCH   6   7
ENDBRANCH   5   6
ENDBRANCH   4   5
ENDBRANCH   3   4
ENDBRANCH   2   3
ENDBRANCH   1   2
BRANCH   1  15
ATOM     15  C   UNL     1      -9.602   6.068   8.064  1.00  0.00     0.000 C 
BRANCH  15  16
ATOM     16  C   UNL     1      -9.165   5.771   6.622  1.00  0.00     0.000 C 
BRANCH  16  17
ATOM     17  C   UNL     1      -9.191   7.019   5.725  1.00  0.00     0.000 C 
BRANCH  17  18
ATOM     18  C   UNL     1      -8.365   8.179   6.303  1.00  0.00    -0.000 C 
BRANCH  18  19
ATOM     19  C   UNL     1      -8.036   9.212   5.214  1.00  0.00    -0.000 C 
BRANCH  19  20
ATOM     20  C   UNL     1      -9.109  10.305   5.089  1.00  0.00    -0.000 C 
BRANCH  20  21
ATOM     21  C   UNL     1      -9.031  11.346   6.216  1.00  0.00    -0.000 C 
BRANCH  21  22
ATOM     22  C   UNL     1      -7.640  11.991   6.273  1.00  0.00    -0.000 C 
BRANCH  22  23
ATOM     23  C   UNL     1      -6.981  11.756   7.640  1.00  0.00    -0.000 C 
BRANCH  23  24
ATOM     24  C   UNL     1      -5.449  11.655   7.549  1.00  0.00    -0.000 C 
BRANCH  24  25
ATOM     25  C   UNL     1      -4.984  10.655   6.481  1.00  0.00    -0.003 C 
ATOM     26  C   UNL     1      -3.600  11.018   5.954  1.00  0.00     0.004 C 
ENDBRANCH  24  25
ENDBRANCH  23  24
ENDBRANCH  22  23
ENDBRANCH  21  22
ENDBRANCH  20  21
ENDBRANCH  19  20
ENDBRANCH  18  19
ENDBRANCH  17  18
ENDBRANCH  16  17
ENDBRANCH  15  16
ENDBRANCH   1  15
TORSDOF 22
ENDMDL
MODEL 9
REMARK VINA RESULT:    -4.098      2.590      5.815
REMARK INTER + INTRA:         -12.280
REMARK INTER:                  -9.572
REMARK INTRA:                  -2.708
REMARK UNBOUND:                -2.912
REMARK SMILES CCCCCCCCCCCCCCCCCCCCCCCC(=O)[O-]
REMARK SMILES IDX 13 1 14 2 15 3 16 4 17 5 18 6 19 7 20 8 21 9 22 10 23 11
REMARK SMILES IDX 24 12 25 13 26 14 12 15 11 16 10 17 9 18 8 19 7 20 6 21 5 22
REMARK SMILES IDX 4 23 3 24 2 25 1 26
REMARK H PARENT
REMARK Flexibility Score: inf
ROOT
ATOM      1  C   UNL     1     -10.823   4.877   8.518  1.00  0.00     0.000 C 
ENDROOT
BRANCH   1   2
ATOM      2  C   UNL     1     -10.857   3.860   7.367  1.00  0.00     0.000 C 
BRANCH   2   3
ATOM      3  C   UNL     1     -12.202   3.853   6.623  1.00  0.00     0.000 C 
BRANCH   3   4
ATOM      4  C   UNL     1     -12.825   5.253   6.513  1.00  0.00     0.000 C 
BRANCH   4   5
ATOM      5  C   UNL     1     -12.583   5.853   5.122  1.00  0.00     0.000 C 
BRANCH   5   6
ATOM      6  C   UNL     1     -13.842   5.741   4.248  1.00  0.00     0.000 C 
BRANCH   6   7
ATOM      7  C   UNL     1     -14.945   6.724   4.675  1.00  0.00     0.000 C 
BRANCH   7   8
ATOM      8  C   UNL     1     -14.480   8.189   4.637  1.00  0.00     0.000 C 
BRANCH   8   9
ATOM      9  C   UNL     1     -13.979   8.613   3.246  1.00  0.00     0.000 C 
BRANCH   9  10
ATOM     10  C   UNL     1     -13.828  10.138   3.113  1.00  0.00     0.006 C 
BRANCH  10  11
ATOM     11  C   UNL     1     -13.509  10.565   1.674  1.00  0.00     0.053 C 
BRANCH  11  12
ATOM     12  C   UNL     1     -12.274  11.409   1.605  1.00  0.00     0.041 C 
ATOM     13  O   UNL     1     -11.826  11.963   2.644  1.00  0.00    -0.550 OA
ATOM     14  O   UNL     1     -11.637  11.614   0.387  1.00  0.00    -0.550 OA
ENDBRANCH  11  12
ENDBRANCH  10  11
ENDBRANCH   9  10
ENDBRANCH   8   9
ENDBRANCH   7   8
ENDBRANCH   6   7
ENDBRANCH   5   6
ENDBRANCH   4   5
ENDBRANCH   3   4
ENDBRANCH   2   3
ENDBRANCH   1   2
BRANCH   1  15
ATOM     15  C   UNL     1      -9.630   5.831   8.375  1.00  0.00     0.000 C 
BRANCH  15  16
ATOM     16  C   UNL     1      -9.236   6.001   6.900  1.00  0.00     0.000 C 
BRANCH  16  17
ATOM     17  C   UNL     1      -8.483   7.314   6.635  1.00  0.00     0.000 C 
BRANCH  17  18
ATOM     18  C   UNL     1      -8.568   7.758   5.166  1.00  0.00    -0.000 C 
BRANCH  18  19
ATOM     19  C   UNL     1      -7.939   9.147   4.977  1.00  0.00    -0.000 C 
BRANCH  19  20
ATOM     20  C   UNL     1      -7.290   9.685   6.263  1.00  0.00    -0.000 C 
BRANCH  20  21
ATOM     21  C   UNL     1      -7.236  11.220   6.303  1.00  0.00    -0.000 C 
BRANCH  21  22
ATOM     22  C   UNL     1      -8.458  11.794   7.033  1.00  0.00    -0.000 C 
BRANCH  22  23
ATOM     23  C   UNL     1      -9.670  11.879   6.093  1.00  0.00    -0.000 C 
BRANCH  23  24
ATOM     24  C   UNL     1     -10.990  12.107   6.849  1.00  0.00    -0.000 C 
BRANCH  24  25
ATOM     25  C   UNL     1     -12.007  10.982   6.615  1.00  0.00    -0.003 C 
ATOM     26  C   UNL     1     -11.401   9.859   5.778  1.00  0.00     0.004 C 
ENDBRANCH  24  25
ENDBRANCH  23  24
ENDBRANCH  22  23
ENDBRANCH  21  22
ENDBRANCH  20  21
ENDBRANCH  19  20
ENDBRANCH  18  19
ENDBRANCH  17  18
ENDBRANCH  16  17
ENDBRANCH  15  16
ENDBRANCH   1  15
TORSDOF 22
ENDMDL
