MODEL 1
REMARK VINA RESULT:     4.434      0.000      0.000
REMARK INTER + INTRA:           5.483
REMARK INTER:                   5.471
REMARK INTRA:                   0.011
REMARK UNBOUND:                 0.011
REMARK SMILES Oc1cc(O)c2cc(O)c(-c3cc(O)c(O)c(O)c3)[o+]c2c1
REMARK SMILES IDX 10 1 20 2 21 3 22 4 2 5 3 6 4 7 6 8 7 9 8 10 11 11 12 12
REMARK SMILES IDX 13 13 19 14 15 15 17 16 14 17 16 19 18 21 9 23 1 25 5 27
REMARK H PARENT 14 18 16 20 18 22 9 24 1 26 5 28
REMARK Flexibility Score: inf
ROOT
ATOM      1  C   UNL     1     -22.022 -16.229 -13.966  1.00  0.00     0.402 A 
ATOM      2  O   UNL     1     -22.367 -17.502 -14.135  1.00  0.00    -0.202 OA
ATOM      3  C   UNL     1     -23.574 -17.885 -14.537  1.00  0.00     0.368 A 
ATOM      4  C   UNL     1     -23.841 -19.248 -14.689  1.00  0.00     0.162 A 
ATOM      5  C   UNL     1     -25.102 -19.677 -15.113  1.00  0.00     0.128 A 
ATOM      6  C   UNL     1     -26.099 -18.740 -15.389  1.00  0.00     0.093 A 
ATOM      7  C   UNL     1     -25.857 -17.368 -15.246  1.00  0.00     0.136 A 
ATOM      8  C   UNL     1     -24.581 -16.927 -14.813  1.00  0.00     0.125 A 
ATOM      9  C   UNL     1     -24.252 -15.574 -14.629  1.00  0.00     0.078 A 
ATOM     10  C   UNL     1     -22.973 -15.215 -14.194  1.00  0.00     0.223 A 
ENDROOT
BRANCH   1  11
ATOM     11  C   UNL     1     -20.641 -15.929 -13.524  1.00  0.00     0.091 A 
ATOM     12  C   UNL     1     -20.437 -15.052 -12.449  1.00  0.00     0.068 A 
ATOM     13  C   UNL     1     -19.145 -14.765 -11.997  1.00  0.00     0.162 A 
ATOM     14  C   UNL     1     -19.530 -16.548 -14.123  1.00  0.00     0.068 A 
ATOM     15  C   UNL     1     -18.035 -15.369 -12.612  1.00  0.00     0.200 A 
ATOM     16  C   UNL     1     -18.232 -16.267 -13.675  1.00  0.00     0.162 A 
BRANCH  13  17
ATOM     17  O   UNL     1     -18.984 -13.875 -10.934  1.00  0.00    -0.504 OA
ATOM     18  H   UNL     1     -19.637 -13.835 -10.161  1.00  0.00     0.293 HD
ENDBRANCH  13  17
BRANCH  15  19
ATOM     19  O   UNL     1     -16.749 -15.075 -12.157  1.00  0.00    -0.502 OA
ATOM     20  H   UNL     1     -16.257 -14.234 -12.435  1.00  0.00     0.293 HD
ENDBRANCH  15  19
BRANCH  16  21
ATOM     21  O   UNL     1     -17.137 -16.883 -14.280  1.00  0.00    -0.504 OA
ATOM     22  H   UNL     1     -16.283 -17.073 -13.768  1.00  0.00     0.293 HD
ENDBRANCH  16  21
ENDBRANCH   1  11
BRANCH  10  23
ATOM     23  O   UNL     1     -22.661 -13.876 -13.963  1.00  0.00    -0.500 OA
ATOM     24  H   UNL     1     -22.887 -13.152 -14.637  1.00  0.00     0.294 HD
ENDBRANCH  10  23
BRANCH   5  25
ATOM     25  O   UNL     1     -25.375 -21.035 -15.265  1.00  0.00    -0.507 OA
ATOM     26  H   UNL     1     -25.661 -21.609 -14.481  1.00  0.00     0.293 HD
ENDBRANCH   5  25
BRANCH   7  27
ATOM     27  O   UNL     1     -26.908 -16.494 -15.546  1.00  0.00    -0.507 OA
ATOM     28  H   UNL     1     -27.166 -15.698 -14.981  1.00  0.00     0.293 HD
ENDBRANCH   7  27
TORSDOF 7
ENDMDL
