MODEL 1
REMARK VINA RESULT:    -5.360      0.000      0.000
REMARK INTER + INTRA:          -8.982
REMARK INTER:                  -7.083
REMARK INTRA:                  -1.899
REMARK UNBOUND:                -1.899
REMARK SMILES CC[C@H](C=C[C@@H](C)[C@H]1CC[C@@H]2[C@H]3CC=C4C[C@H](O)CC[C@@]4(C)[C@H]3CC[C@@]21C)C(C)C
REMARK SMILES IDX 6 1 7 2 5 3 4 4 3 5 2 6 1 7 28 8 29 9 30 10 8 11 9 12 26 13
REMARK SMILES IDX 10 14 11 15 25 16 27 17 12 18 24 19 23 20 13 21 21 22 14 23
REMARK SMILES IDX 15 24 20 25 22 26 16 27 19 28 17 29 18 30
REMARK H PARENT 18 31
REMARK Flexibility Score: inf
ROOT
ATOM      1  C   UNL     1      16.364  12.441  -6.902  1.00  0.00     0.012 C 
ATOM      2  C   UNL     1      16.488  12.314  -8.426  1.00  0.00     0.012 C 
ENDROOT
BRANCH   1   3
ATOM      3  C   UNL     1      17.709  12.607  -6.212  1.00  0.00    -0.028 C 
ATOM      4  C   UNL     1      17.904  13.354  -5.108  1.00  0.00    -0.027 C 
BRANCH   4   5
ATOM      5  C   UNL     1      19.246  13.387  -4.408  1.00  0.00     0.014 C 
BRANCH   5   6
ATOM      6  C   UNL     1      19.014  13.038  -2.918  1.00  0.00     0.004 C 
ATOM      7  C   UNL     1      17.589  13.318  -2.448  1.00  0.00     0.004 C 
ENDBRANCH   5   6
BRANCH   5   8
ATOM      8  C   UNL     1      20.320  12.452  -5.078  1.00  0.00    -0.011 C 
ATOM      9  C   UNL     1      21.712  13.094  -5.215  1.00  0.00     0.008 C 
ATOM     10  C   UNL     1      20.443  11.096  -4.341  1.00  0.00     0.008 C 
ENDBRANCH   5   8
ENDBRANCH   4   5
ENDBRANCH   1   3
BRANCH   1  11
ATOM     11  C   UNL     1      15.478  11.300  -6.295  1.00  0.00     0.002 C 
ATOM     12  C   UNL     1      16.311  10.158  -5.685  1.00  0.00     0.005 C 
ATOM     13  C   UNL     1      14.439  11.697  -5.184  1.00  0.00    -0.026 C 
ATOM     14  C   UNL     1      16.050  10.159  -4.177  1.00  0.00     0.005 C 
ATOM     15  C   UNL     1      15.175  11.381  -3.861  1.00  0.00    -0.001 C 
ATOM     16  C   UNL     1      13.202  10.772  -5.345  1.00  0.00     0.007 C 
ATOM     17  C   UNL     1      13.978  13.179  -5.282  1.00  0.00     0.012 C 
ATOM     18  C   UNL     1      14.276  11.160  -2.601  1.00  0.00     0.000 C 
ATOM     19  C   UNL     1      12.291  10.757  -4.122  1.00  0.00     0.005 C 
ATOM     20  C   UNL     1      13.045  10.244  -2.861  1.00  0.00     0.003 C 
ATOM     21  C   UNL     1      13.912  12.509  -1.910  1.00  0.00     0.031 C 
ATOM     22  C   UNL     1      12.128  10.161  -1.573  1.00  0.00    -0.008 C 
ATOM     23  C   UNL     1      12.494  12.626  -1.392  1.00  0.00    -0.027 C 
ATOM     24  C   UNL     1      11.648  11.585  -1.254  1.00  0.00    -0.065 C 
ATOM     25  C   UNL     1      10.960   9.129  -1.787  1.00  0.00     0.014 C 
ATOM     26  C   UNL     1      12.927   9.662  -0.336  1.00  0.00     0.016 C 
ATOM     27  C   UNL     1      10.271  11.843  -0.670  1.00  0.00     0.063 C 
ATOM     28  C   UNL     1       9.663   9.440  -1.027  1.00  0.00     0.033 C 
ATOM     29  C   UNL     1       9.240  10.886  -1.269  1.00  0.00     0.118 C 
BRANCH  29  30
ATOM     30  O   UNL     1       7.966  11.138  -0.734  1.00  0.00    -0.393 OA
ATOM     31  H   UNL     1       7.417  11.579  -1.434  1.00  0.00     0.210 HD
ENDBRANCH  29  30
ENDBRANCH   1  11
TORSDOF 6
ENDMDL
MODEL 2
REMARK VINA RESULT:    -5.330      3.606      6.287
REMARK INTER + INTRA:          -8.943
REMARK INTER:                  -7.469
REMARK INTRA:                  -1.475
REMARK UNBOUND:                -1.899
REMARK SMILES CC[C@H](C=C[C@@H](C)[C@H]1CC[C@@H]2[C@H]3CC=C4C[C@H](O)CC[C@@]4(C)[C@H]3CC[C@@]21C)C(C)C
REMARK SMILES IDX 6 1 7 2 5 3 4 4 3 5 2 6 1 7 28 8 29 9 30 10 8 11 9 12 26 13
REMARK SMILES IDX 10 14 11 15 25 16 27 17 12 18 24 19 23 20 13 21 21 22 14 23
REMARK SMILES IDX 15 24 20 25 22 26 16 27 19 28 17 29 18 30
REMARK H PARENT 18 31
REMARK Flexibility Score: inf
ROOT
ATOM      1  C   UNL     1      13.643  12.377  -4.493  1.00  0.00     0.012 C 
ATOM      2  C   UNL     1      12.160  12.207  -4.848  1.00  0.00     0.012 C 
ENDROOT
BRANCH   1   3
ATOM      3  C   UNL     1      14.573  11.779  -5.538  1.00  0.00    -0.028 C 
ATOM      4  C   UNL     1      15.314  12.508  -6.394  1.00  0.00    -0.027 C 
BRANCH   4   5
ATOM      5  C   UNL     1      16.302  11.851  -7.335  1.00  0.00     0.014 C 
BRANCH   5   6
ATOM      6  C   UNL     1      15.981  12.331  -8.771  1.00  0.00     0.004 C 
ATOM      7  C   UNL     1      14.573  11.961  -9.229  1.00  0.00     0.004 C 
ENDBRANCH   5   6
BRANCH   5   8
ATOM      8  C   UNL     1      17.803  12.112  -6.942  1.00  0.00    -0.011 C 
ATOM      9  C   UNL     1      18.664  12.667  -8.091  1.00  0.00     0.008 C 
ATOM     10  C   UNL     1      17.923  13.039  -5.707  1.00  0.00     0.008 C 
ENDBRANCH   5   8
ENDBRANCH   4   5
ENDBRANCH   1   3
BRANCH   1  11
ATOM     11  C   UNL     1      13.947  11.904  -3.031  1.00  0.00     0.002 C 
ATOM     12  C   UNL     1      14.051  10.372  -2.909  1.00  0.00     0.005 C 
ATOM     13  C   UNL     1      15.242  12.464  -2.337  1.00  0.00    -0.026 C 
ATOM     14  C   UNL     1      15.497  10.041  -2.533  1.00  0.00     0.005 C 
ATOM     15  C   UNL     1      16.294  11.353  -2.566  1.00  0.00    -0.001 C 
ATOM     16  C   UNL     1      14.937  12.611  -0.822  1.00  0.00     0.007 C 
ATOM     17  C   UNL     1      15.686  13.844  -2.900  1.00  0.00     0.012 C 
ATOM     18  C   UNL     1      17.510  11.336  -1.584  1.00  0.00     0.000 C 
ATOM     19  C   UNL     1      16.187  12.762   0.038  1.00  0.00     0.005 C 
ATOM     20  C   UNL     1      17.115  11.519  -0.090  1.00  0.00     0.003 C 
ATOM     21  C   UNL     1      18.640  12.303  -2.051  1.00  0.00     0.031 C 
ATOM     22  C   UNL     1      18.405  11.602   0.823  1.00  0.00    -0.008 C 
ATOM     23  C   UNL     1      19.332  13.089  -0.958  1.00  0.00    -0.027 C 
ATOM     24  C   UNL     1      19.224  12.816   0.359  1.00  0.00    -0.065 C 
ATOM     25  C   UNL     1      18.008  11.647   2.345  1.00  0.00     0.014 C 
ATOM     26  C   UNL     1      19.309  10.349   0.649  1.00  0.00     0.016 C 
ATOM     27  C   UNL     1      20.018  13.657   1.341  1.00  0.00     0.063 C 
ATOM     28  C   UNL     1      18.976  12.420   3.252  1.00  0.00     0.033 C 
ATOM     29  C   UNL     1      19.268  13.798   2.666  1.00  0.00     0.118 C 
BRANCH  29  30
ATOM     30  O   UNL     1      20.003  14.586   3.565  1.00  0.00    -0.393 OA
ATOM     31  H   UNL     1      19.931  15.534   3.277  1.00  0.00     0.210 HD
ENDBRANCH  29  30
ENDBRANCH   1  11
TORSDOF 6
ENDMDL
MODEL 3
REMARK VINA RESULT:    -5.325      2.853      5.343
REMARK INTER + INTRA:          -8.937
REMARK INTER:                  -7.502
REMARK INTRA:                  -1.435
REMARK UNBOUND:                -1.899
REMARK SMILES CC[C@H](C=C[C@@H](C)[C@H]1CC[C@@H]2[C@H]3CC=C4C[C@H](O)CC[C@@]4(C)[C@H]3CC[C@@]21C)C(C)C
REMARK SMILES IDX 6 1 7 2 5 3 4 4 3 5 2 6 1 7 28 8 29 9 30 10 8 11 9 12 26 13
REMARK SMILES IDX 10 14 11 15 25 16 27 17 12 18 24 19 23 20 13 21 21 22 14 23
REMARK SMILES IDX 15 24 20 25 22 26 16 27 19 28 17 29 18 30
REMARK H PARENT 18 31
REMARK Flexibility Score: inf
ROOT
ATOM      1  C   UNL     1      17.595  12.805  -3.773  1.00  0.00     0.012 C 
ATOM      2  C   UNL     1      19.056  13.271  -3.715  1.00  0.00     0.012 C 
ENDROOT
BRANCH   1   3
ATOM      3  C   UNL     1      16.945  13.069  -5.123  1.00  0.00    -0.028 C 
ATOM      4  C   UNL     1      16.077  12.228  -5.719  1.00  0.00    -0.027 C 
BRANCH   4   5
ATOM      5  C   UNL     1      15.382  12.604  -7.011  1.00  0.00     0.014 C 
BRANCH   5   6
ATOM      6  C   UNL     1      15.804  11.580  -8.093  1.00  0.00     0.004 C 
ATOM      7  C   UNL     1      16.700  12.180  -9.173  1.00  0.00     0.004 C 
ENDBRANCH   5   6
BRANCH   5   8
ATOM      8  C   UNL     1      13.818  12.707  -6.868  1.00  0.00    -0.011 C 
ATOM      9  C   UNL     1      13.047  12.346  -8.151  1.00  0.00     0.008 C 
ATOM     10  C   UNL     1      13.290  11.857  -5.687  1.00  0.00     0.008 C 
ENDBRANCH   5   8
ENDBRANCH   4   5
ENDBRANCH   1   3
BRANCH   1  11
ATOM     11  C   UNL     1      16.766  13.339  -2.556  1.00  0.00     0.002 C 
ATOM     12  C   UNL     1      15.494  14.093  -2.985  1.00  0.00     0.005 C 
ATOM     13  C   UNL     1      16.288  12.293  -1.485  1.00  0.00    -0.026 C 
ATOM     14  C   UNL     1      14.295  13.274  -2.503  1.00  0.00     0.005 C 
ATOM     15  C   UNL     1      14.837  11.966  -1.909  1.00  0.00    -0.001 C 
ATOM     16  C   UNL     1      16.297  12.999  -0.102  1.00  0.00     0.007 C 
ATOM     17  C   UNL     1      17.197  11.033  -1.415  1.00  0.00     0.012 C 
ATOM     18  C   UNL     1      13.903  11.382  -0.800  1.00  0.00     0.000 C 
ATOM     19  C   UNL     1      15.495  12.259   0.964  1.00  0.00     0.005 C 
ATOM     20  C   UNL     1      13.998  12.133   0.560  1.00  0.00     0.003 C 
ATOM     21  C   UNL     1      14.061   9.837  -0.669  1.00  0.00     0.031 C 
ATOM     22  C   UNL     1      13.111  11.416   1.657  1.00  0.00    -0.008 C 
ATOM     23  C   UNL     1      14.044   9.287   0.741  1.00  0.00    -0.027 C 
ATOM     24  C   UNL     1      13.646   9.986   1.824  1.00  0.00    -0.065 C 
ATOM     25  C   UNL     1      13.095  12.249   2.992  1.00  0.00     0.014 C 
ATOM     26  C   UNL     1      11.628  11.297   1.203  1.00  0.00     0.016 C 
ATOM     27  C   UNL     1      13.631   9.288   3.171  1.00  0.00     0.063 C 
ATOM     28  C   UNL     1      12.937  11.424   4.277  1.00  0.00     0.033 C 
ATOM     29  C   UNL     1      13.940  10.275   4.297  1.00  0.00     0.118 C 
BRANCH  29  30
ATOM     30  O   UNL     1      13.936   9.621   5.539  1.00  0.00    -0.393 OA
ATOM     31  H   UNL     1      13.760  10.296   6.246  1.00  0.00     0.210 HD
ENDBRANCH  29  30
ENDBRANCH   1  11
TORSDOF 6
ENDMDL
MODEL 4
REMARK VINA RESULT:    -5.313      3.555      6.299
REMARK INTER + INTRA:          -8.920
REMARK INTER:                  -7.584
REMARK INTRA:                  -1.336
REMARK UNBOUND:                -1.899
REMARK SMILES CC[C@H](C=C[C@@H](C)[C@H]1CC[C@@H]2[C@H]3CC=C4C[C@H](O)CC[C@@]4(C)[C@H]3CC[C@@]21C)C(C)C
REMARK SMILES IDX 6 1 7 2 5 3 4 4 3 5 2 6 1 7 28 8 29 9 30 10 8 11 9 12 26 13
REMARK SMILES IDX 10 14 11 15 25 16 27 17 12 18 24 19 23 20 13 21 21 22 14 23
REMARK SMILES IDX 15 24 20 25 22 26 16 27 19 28 17 29 18 30
REMARK H PARENT 18 31
REMARK Flexibility Score: inf
ROOT
ATOM      1  C   UNL     1      12.860  12.358  -4.218  1.00  0.00     0.012 C 
ATOM      2  C   UNL     1      11.470  11.871  -4.646  1.00  0.00     0.012 C 
ENDROOT
BRANCH   1   3
ATOM      3  C   UNL     1      13.932  12.073  -5.259  1.00  0.00    -0.028 C 
ATOM      4  C   UNL     1      14.283  12.932  -6.236  1.00  0.00    -0.027 C 
BRANCH   4   5
ATOM      5  C   UNL     1      15.434  12.630  -7.172  1.00  0.00     0.014 C 
BRANCH   5   6
ATOM      6  C   UNL     1      16.566  11.981  -6.339  1.00  0.00     0.004 C 
ATOM      7  C   UNL     1      17.473  13.001  -5.656  1.00  0.00     0.004 C 
ENDBRANCH   5   6
BRANCH   5   8
ATOM      8  C   UNL     1      15.018  11.743  -8.403  1.00  0.00    -0.011 C 
ATOM      9  C   UNL     1      13.608  12.044  -8.944  1.00  0.00     0.008 C 
ATOM     10  C   UNL     1      16.047  11.838  -9.556  1.00  0.00     0.008 C 
ENDBRANCH   5   8
ENDBRANCH   4   5
ENDBRANCH   1   3
BRANCH   1  11
ATOM     11  C   UNL     1      13.230  11.866  -2.778  1.00  0.00     0.002 C 
ATOM     12  C   UNL     1      13.293  10.330  -2.670  1.00  0.00     0.005 C 
ATOM     13  C   UNL     1      14.578  12.381  -2.155  1.00  0.00    -0.026 C 
ATOM     14  C   UNL     1      14.747   9.953  -2.378  1.00  0.00     0.005 C 
ATOM     15  C   UNL     1      15.581  11.241  -2.448  1.00  0.00    -0.001 C 
ATOM     16  C   UNL     1      14.362  12.527  -0.624  1.00  0.00     0.007 C 
ATOM     17  C   UNL     1      15.033  13.751  -2.734  1.00  0.00     0.012 C 
ATOM     18  C   UNL     1      16.849  11.179  -1.536  1.00  0.00     0.000 C 
ATOM     19  C   UNL     1      15.663  12.632   0.166  1.00  0.00     0.005 C 
ATOM     20  C   UNL     1      16.543  11.363  -0.021  1.00  0.00     0.003 C 
ATOM     21  C   UNL     1      17.981  12.115  -2.059  1.00  0.00     0.031 C 
ATOM     22  C   UNL     1      17.883  11.400   0.820  1.00  0.00    -0.008 C 
ATOM     23  C   UNL     1      18.756  12.871  -1.002  1.00  0.00    -0.027 C 
ATOM     24  C   UNL     1      18.712  12.592   0.317  1.00  0.00    -0.065 C 
ATOM     25  C   UNL     1      17.573  11.446   2.362  1.00  0.00     0.014 C 
ATOM     26  C   UNL     1      18.737  10.121   0.588  1.00  0.00     0.016 C 
ATOM     27  C   UNL     1      19.586  13.400   1.258  1.00  0.00     0.063 C 
ATOM     28  C   UNL     1      18.614  12.182   3.218  1.00  0.00     0.033 C 
ATOM     29  C   UNL     1      18.915  13.555   2.624  1.00  0.00     0.118 C 
BRANCH  29  30
ATOM     30  O   UNL     1      19.723  14.314   3.485  1.00  0.00    -0.393 OA
ATOM     31  H   UNL     1      20.672  14.157   3.240  1.00  0.00     0.210 HD
ENDBRANCH  29  30
ENDBRANCH   1  11
TORSDOF 6
ENDMDL
MODEL 5
REMARK VINA RESULT:    -5.289      3.595      7.771
REMARK INTER + INTRA:          -8.888
REMARK INTER:                  -7.528
REMARK INTRA:                  -1.360
REMARK UNBOUND:                -1.899
REMARK SMILES CC[C@H](C=C[C@@H](C)[C@H]1CC[C@@H]2[C@H]3CC=C4C[C@H](O)CC[C@@]4(C)[C@H]3CC[C@@]21C)C(C)C
REMARK SMILES IDX 6 1 7 2 5 3 4 4 3 5 2 6 1 7 28 8 29 9 30 10 8 11 9 12 26 13
REMARK SMILES IDX 10 14 11 15 25 16 27 17 12 18 24 19 23 20 13 21 21 22 14 23
REMARK SMILES IDX 15 24 20 25 22 26 16 27 19 28 17 29 18 30
REMARK H PARENT 18 31
REMARK Flexibility Score: inf
ROOT
ATOM      1  C   UNL     1      13.677  12.197  -2.849  1.00  0.00     0.012 C 
ATOM      2  C   UNL     1      12.145  12.224  -2.929  1.00  0.00     0.012 C 
ENDROOT
BRANCH   1   3
ATOM      3  C   UNL     1      14.206  12.646  -1.495  1.00  0.00    -0.028 C 
ATOM      4  C   UNL     1      14.869  11.844  -0.640  1.00  0.00    -0.027 C 
BRANCH   4   5
ATOM      5  C   UNL     1      15.464  12.384   0.643  1.00  0.00     0.014 C 
BRANCH   5   6
ATOM      6  C   UNL     1      14.920  11.532   1.815  1.00  0.00     0.004 C 
ATOM      7  C   UNL     1      13.575  12.023   2.343  1.00  0.00     0.004 C 
ENDBRANCH   5   6
BRANCH   5   8
ATOM      8  C   UNL     1      17.037  12.436   0.625  1.00  0.00    -0.011 C 
ATOM      9  C   UNL     1      17.620  13.419  -0.407  1.00  0.00     0.008 C 
ATOM     10  C   UNL     1      17.619  12.746   2.026  1.00  0.00     0.008 C 
ENDBRANCH   5   8
ENDBRANCH   4   5
ENDBRANCH   1   3
BRANCH   1  11
ATOM     11  C   UNL     1      14.335  12.937  -4.063  1.00  0.00     0.002 C 
ATOM     12  C   UNL     1      15.400  13.963  -3.630  1.00  0.00     0.005 C 
ATOM     13  C   UNL     1      15.030  12.058  -5.164  1.00  0.00    -0.026 C 
ATOM     14  C   UNL     1      16.751  13.463  -4.146  1.00  0.00     0.005 C 
ATOM     15  C   UNL     1      16.523  12.076  -4.765  1.00  0.00    -0.001 C 
ATOM     16  C   UNL     1      14.830  12.770  -6.529  1.00  0.00     0.007 C 
ATOM     17  C   UNL     1      14.444  10.620  -5.254  1.00  0.00     0.012 C 
ATOM     18  C   UNL     1      17.551  11.753  -5.898  1.00  0.00     0.000 C 
ATOM     19  C   UNL     1      15.766  12.263  -7.622  1.00  0.00     0.005 C 
ATOM     20  C   UNL     1      17.258  12.488  -7.239  1.00  0.00     0.003 C 
ATOM     21  C   UNL     1      17.761  10.218  -6.065  1.00  0.00     0.031 C 
ATOM     22  C   UNL     1      18.271  12.025  -8.363  1.00  0.00    -0.008 C 
ATOM     23  C   UNL     1      17.884   9.717  -7.488  1.00  0.00    -0.027 C 
ATOM     24  C   UNL     1      18.086  10.513  -8.558  1.00  0.00    -0.065 C 
ATOM     25  C   UNL     1      18.066  12.866  -9.677  1.00  0.00     0.014 C 
ATOM     26  C   UNL     1      19.747  12.252  -7.929  1.00  0.00     0.016 C 
ATOM     27  C   UNL     1      18.244   9.866  -9.922  1.00  0.00     0.063 C 
ATOM     28  C   UNL     1      18.393  12.128 -10.984  1.00  0.00     0.033 C 
ATOM     29  C   UNL     1      17.691  10.775 -11.020  1.00  0.00     0.118 C 
BRANCH  29  30
ATOM     30  O   UNL     1      17.828  10.166 -12.278  1.00  0.00    -0.393 OA
ATOM     31  H   UNL     1      17.701  10.861 -12.975  1.00  0.00     0.210 HD
ENDBRANCH  29  30
ENDBRANCH   1  11
TORSDOF 6
ENDMDL
MODEL 6
REMARK VINA RESULT:    -5.279      3.070      6.516
REMARK INTER + INTRA:          -8.876
REMARK INTER:                  -7.510
REMARK INTRA:                  -1.365
REMARK UNBOUND:                -1.899
REMARK SMILES CC[C@H](C=C[C@@H](C)[C@H]1CC[C@@H]2[C@H]3CC=C4C[C@H](O)CC[C@@]4(C)[C@H]3CC[C@@]21C)C(C)C
REMARK SMILES IDX 6 1 7 2 5 3 4 4 3 5 2 6 1 7 28 8 29 9 30 10 8 11 9 12 26 13
REMARK SMILES IDX 10 14 11 15 25 16 27 17 12 18 24 19 23 20 13 21 21 22 14 23
REMARK SMILES IDX 15 24 20 25 22 26 16 27 19 28 17 29 18 30
REMARK H PARENT 18 31
REMARK Flexibility Score: inf
ROOT
ATOM      1  C   UNL     1      17.290  13.013  -2.174  1.00  0.00     0.012 C 
ATOM      2  C   UNL     1      18.691  13.260  -1.600  1.00  0.00     0.012 C 
ENDROOT
BRANCH   1   3
ATOM      3  C   UNL     1      16.415  12.172  -1.256  1.00  0.00    -0.028 C 
ATOM      4  C   UNL     1      15.355  12.650  -0.578  1.00  0.00    -0.027 C 
BRANCH   4   5
ATOM      5  C   UNL     1      14.461  11.733   0.231  1.00  0.00     0.014 C 
BRANCH   5   6
ATOM      6  C   UNL     1      14.537  12.181   1.711  1.00  0.00     0.004 C 
ATOM      7  C   UNL     1      15.966  12.277   2.239  1.00  0.00     0.004 C 
ENDBRANCH   5   6
BRANCH   5   8
ATOM      8  C   UNL     1      12.981  11.680  -0.299  1.00  0.00    -0.011 C 
ATOM      9  C   UNL     1      11.917  11.924   0.787  1.00  0.00     0.008 C 
ATOM     10  C   UNL     1      12.755  12.659  -1.478  1.00  0.00     0.008 C 
ENDBRANCH   5   8
ENDBRANCH   4   5
ENDBRANCH   1   3
BRANCH   1  11
ATOM     11  C   UNL     1      17.351  12.486  -3.648  1.00  0.00     0.002 C 
ATOM     12  C   UNL     1      17.746  11.000  -3.734  1.00  0.00     0.005 C 
ATOM     13  C   UNL     1      16.054  12.622  -4.526  1.00  0.00    -0.026 C 
ATOM     14  C   UNL     1      16.540  10.239  -4.289  1.00  0.00     0.005 C 
ATOM     15  C   UNL     1      15.378  11.236  -4.405  1.00  0.00    -0.001 C 
ATOM     16  C   UNL     1      16.502  12.876  -5.990  1.00  0.00     0.007 C 
ATOM     17  C   UNL     1      15.130  13.788  -4.071  1.00  0.00     0.012 C 
ATOM     18  C   UNL     1      14.373  10.852  -5.539  1.00  0.00     0.000 C 
ATOM     19  C   UNL     1      15.397  12.638  -7.014  1.00  0.00     0.005 C 
ATOM     20  C   UNL     1      14.893  11.166  -6.972  1.00  0.00     0.003 C 
ATOM     21  C   UNL     1      12.946  11.413  -5.258  1.00  0.00     0.031 C 
ATOM     22  C   UNL     1      13.779  10.854  -8.051  1.00  0.00    -0.008 C 
ATOM     23  C   UNL     1      12.201  11.956  -6.459  1.00  0.00    -0.027 C 
ATOM     24  C   UNL     1      12.568  11.746  -7.739  1.00  0.00    -0.065 C 
ATOM     25  C   UNL     1      14.347  11.038  -9.507  1.00  0.00     0.014 C 
ATOM     26  C   UNL     1      13.294   9.379  -7.960  1.00  0.00     0.016 C 
ATOM     27  C   UNL     1      11.694  12.308  -8.845  1.00  0.00     0.063 C 
ATOM     28  C   UNL     1      13.320  11.481 -10.560  1.00  0.00     0.033 C 
ATOM     29  C   UNL     1      12.537  12.692 -10.062  1.00  0.00     0.118 C 
BRANCH  29  30
ATOM     30  O   UNL     1      11.724  13.222 -11.076  1.00  0.00    -0.393 OA
ATOM     31  H   UNL     1      12.232  13.939 -11.538  1.00  0.00     0.210 HD
ENDBRANCH  29  30
ENDBRANCH   1  11
TORSDOF 6
ENDMDL
MODEL 7
REMARK VINA RESULT:    -5.225      1.775      2.543
REMARK INTER + INTRA:          -8.805
REMARK INTER:                  -6.995
REMARK INTRA:                  -1.810
REMARK UNBOUND:                -1.899
REMARK SMILES CC[C@H](C=C[C@@H](C)[C@H]1CC[C@@H]2[C@H]3CC=C4C[C@H](O)CC[C@@]4(C)[C@H]3CC[C@@]21C)C(C)C
REMARK SMILES IDX 6 1 7 2 5 3 4 4 3 5 2 6 1 7 28 8 29 9 30 10 8 11 9 12 26 13
REMARK SMILES IDX 10 14 11 15 25 16 27 17 12 18 24 19 23 20 13 21 21 22 14 23
REMARK SMILES IDX 15 24 20 25 22 26 16 27 19 28 17 29 18 30
REMARK H PARENT 18 31
REMARK Flexibility Score: inf
ROOT
ATOM      1  C   UNL     1      16.753  12.875  -5.254  1.00  0.00     0.012 C 
ATOM      2  C   UNL     1      16.959  12.963  -6.771  1.00  0.00     0.012 C 
ENDROOT
BRANCH   1   3
ATOM      3  C   UNL     1      17.978  12.349  -4.521  1.00  0.00    -0.028 C 
ATOM      4  C   UNL     1      18.541  12.956  -3.459  1.00  0.00    -0.027 C 
BRANCH   4   5
ATOM      5  C   UNL     1      19.693  12.321  -2.709  1.00  0.00     0.014 C 
BRANCH   5   6
ATOM      6  C   UNL     1      20.909  13.273  -2.810  1.00  0.00     0.004 C 
ATOM      7  C   UNL     1      21.814  12.970  -4.001  1.00  0.00     0.004 C 
ENDBRANCH   5   6
BRANCH   5   8
ATOM      8  C   UNL     1      19.341  11.962  -1.218  1.00  0.00    -0.011 C 
ATOM      9  C   UNL     1      18.460  13.010  -0.512  1.00  0.00     0.008 C 
ATOM     10  C   UNL     1      18.681  10.566  -1.101  1.00  0.00     0.008 C 
ENDBRANCH   5   8
ENDBRANCH   4   5
ENDBRANCH   1   3
BRANCH   1  11
ATOM     11  C   UNL     1      15.428  12.123  -4.890  1.00  0.00     0.002 C 
ATOM     12  C   UNL     1      15.550  10.595  -5.034  1.00  0.00     0.005 C 
ATOM     13  C   UNL     1      14.824  12.360  -3.459  1.00  0.00    -0.026 C 
ATOM     14  C   UNL     1      15.411   9.993  -3.633  1.00  0.00     0.005 C 
ATOM     15  C   UNL     1      15.345  11.158  -2.635  1.00  0.00    -0.001 C 
ATOM     16  C   UNL     1      13.278  12.295  -3.584  1.00  0.00     0.007 C 
ATOM     17  C   UNL     1      15.225  13.732  -2.847  1.00  0.00     0.012 C 
ATOM     18  C   UNL     1      14.536  10.795  -1.348  1.00  0.00     0.000 C 
ATOM     19  C   UNL     1      12.567  12.111  -2.247  1.00  0.00     0.005 C 
ATOM     20  C   UNL     1      12.994  10.782  -1.558  1.00  0.00     0.003 C 
ATOM     21  C   UNL     1      14.990  11.647  -0.123  1.00  0.00     0.031 C 
ATOM     22  C   UNL     1      12.246  10.517  -0.188  1.00  0.00    -0.008 C 
ATOM     23  C   UNL     1      13.885  12.126   0.795  1.00  0.00    -0.027 C 
ATOM     24  C   UNL     1      12.622  11.656   0.772  1.00  0.00    -0.065 C 
ATOM     25  C   UNL     1      10.697  10.366  -0.420  1.00  0.00     0.014 C 
ATOM     26  C   UNL     1      12.717   9.191   0.472  1.00  0.00     0.016 C 
ATOM     27  C   UNL     1      11.631  12.192   1.790  1.00  0.00     0.063 C 
ATOM     28  C   UNL     1       9.812  10.822   0.748  1.00  0.00     0.033 C 
ATOM     29  C   UNL     1      10.217  12.219   1.208  1.00  0.00     0.118 C 
BRANCH  29  30
ATOM     30  O   UNL     1       9.308  12.727   2.149  1.00  0.00    -0.393 OA
ATOM     31  H   UNL     1       9.764  13.442   2.666  1.00  0.00     0.210 HD
ENDBRANCH  29  30
ENDBRANCH   1  11
TORSDOF 6
ENDMDL
MODEL 8
REMARK VINA RESULT:    -5.194      3.312      7.249
REMARK INTER + INTRA:          -8.763
REMARK INTER:                  -6.755
REMARK INTRA:                  -2.008
REMARK UNBOUND:                -1.899
REMARK SMILES CC[C@H](C=C[C@@H](C)[C@H]1CC[C@@H]2[C@H]3CC=C4C[C@H](O)CC[C@@]4(C)[C@H]3CC[C@@]21C)C(C)C
REMARK SMILES IDX 6 1 7 2 5 3 4 4 3 5 2 6 1 7 28 8 29 9 30 10 8 11 9 12 26 13
REMARK SMILES IDX 10 14 11 15 25 16 27 17 12 18 24 19 23 20 13 21 21 22 14 23
REMARK SMILES IDX 15 24 20 25 22 26 16 27 19 28 17 29 18 30
REMARK H PARENT 18 31
REMARK Flexibility Score: inf
ROOT
ATOM      1  C   UNL     1      11.939  11.734  -4.904  1.00  0.00     0.012 C 
ATOM      2  C   UNL     1      10.574  11.525  -4.234  1.00  0.00     0.012 C 
ENDROOT
BRANCH   1   3
ATOM      3  C   UNL     1      11.925  11.401  -6.388  1.00  0.00    -0.028 C 
ATOM      4  C   UNL     1      12.582  12.110  -7.326  1.00  0.00    -0.027 C 
BRANCH   4   5
ATOM      5  C   UNL     1      12.616  11.659  -8.771  1.00  0.00     0.014 C 
BRANCH   5   6
ATOM      6  C   UNL     1      11.904  12.738  -9.623  1.00  0.00     0.004 C 
ATOM      7  C   UNL     1      12.184  12.608 -11.117  1.00  0.00     0.004 C 
ENDBRANCH   5   6
BRANCH   5   8
ATOM      8  C   UNL     1      14.069  11.353  -9.293  1.00  0.00    -0.011 C 
ATOM      9  C   UNL     1      15.162  12.225  -8.650  1.00  0.00     0.008 C 
ATOM     10  C   UNL     1      14.436   9.857  -9.132  1.00  0.00     0.008 C 
ENDBRANCH   5   8
ENDBRANCH   4   5
ENDBRANCH   1   3
BRANCH   1  11
ATOM     11  C   UNL     1      13.089  11.030  -4.108  1.00  0.00     0.002 C 
ATOM     12  C   UNL     1      13.394   9.612  -4.628  1.00  0.00     0.005 C 
ATOM     13  C   UNL     1      14.481  11.756  -4.042  1.00  0.00    -0.026 C 
ATOM     14  C   UNL     1      14.808   9.636  -5.213  1.00  0.00     0.005 C 
ATOM     15  C   UNL     1      15.300  11.090  -5.173  1.00  0.00    -0.001 C 
ATOM     16  C   UNL     1      15.114  11.437  -2.661  1.00  0.00     0.007 C 
ATOM     17  C   UNL     1      14.372  13.300  -4.203  1.00  0.00     0.012 C 
ATOM     18  C   UNL     1      16.855  11.190  -5.057  1.00  0.00     0.000 C 
ATOM     19  C   UNL     1      16.609  11.731  -2.595  1.00  0.00     0.005 C 
ATOM     20  C   UNL     1      17.400  10.881  -3.632  1.00  0.00     0.003 C 
ATOM     21  C   UNL     1      17.393  12.527  -5.652  1.00  0.00     0.031 C 
ATOM     22  C   UNL     1      18.964  11.112  -3.569  1.00  0.00    -0.008 C 
ATOM     23  C   UNL     1      18.515  13.190  -4.881  1.00  0.00    -0.027 C 
ATOM     24  C   UNL     1      19.229  12.586  -3.910  1.00  0.00    -0.065 C 
ATOM     25  C   UNL     1      19.537  10.669  -2.172  1.00  0.00     0.014 C 
ATOM     26  C   UNL     1      19.710  10.258  -4.633  1.00  0.00     0.016 C 
ATOM     27  C   UNL     1      20.363  13.357  -3.259  1.00  0.00     0.063 C 
ATOM     28  C   UNL     1      20.772  11.446  -1.694  1.00  0.00     0.033 C 
ATOM     29  C   UNL     1      20.527  12.948  -1.795  1.00  0.00     0.118 C 
BRANCH  29  30
ATOM     30  O   UNL     1      21.569  13.674  -1.195  1.00  0.00    -0.393 OA
ATOM     31  H   UNL     1      21.173  14.287  -0.522  1.00  0.00     0.210 HD
ENDBRANCH  29  30
ENDBRANCH   1  11
TORSDOF 6
ENDMDL
MODEL 9
REMARK VINA RESULT:    -5.180      2.877      4.520
REMARK INTER + INTRA:          -8.745
REMARK INTER:                  -6.931
REMARK INTRA:                  -1.814
REMARK UNBOUND:                -1.899
REMARK SMILES CC[C@H](C=C[C@@H](C)[C@H]1CC[C@@H]2[C@H]3CC=C4C[C@H](O)CC[C@@]4(C)[C@H]3CC[C@@]21C)C(C)C
REMARK SMILES IDX 6 1 7 2 5 3 4 4 3 5 2 6 1 7 28 8 29 9 30 10 8 11 9 12 26 13
REMARK SMILES IDX 10 14 11 15 25 16 27 17 12 18 24 19 23 20 13 21 21 22 14 23
REMARK SMILES IDX 15 24 20 25 22 26 16 27 19 28 17 29 18 30
REMARK H PARENT 18 31
REMARK Flexibility Score: inf
ROOT
ATOM      1  C   UNL     1      19.053  13.049  -2.148  1.00  0.00     0.012 C 
ATOM      2  C   UNL     1      20.487  13.183  -2.675  1.00  0.00     0.012 C 
ENDROOT
BRANCH   1   3
ATOM      3  C   UNL     1      18.994  12.820  -0.646  1.00  0.00    -0.028 C 
ATOM      4  C   UNL     1      18.054  13.346   0.162  1.00  0.00    -0.027 C 
BRANCH   4   5
ATOM      5  C   UNL     1      17.990  12.988   1.632  1.00  0.00     0.014 C 
BRANCH   5   6
ATOM      6  C   UNL     1      17.008  11.801   1.790  1.00  0.00     0.004 C 
ATOM      7  C   UNL     1      15.543  12.213   1.682  1.00  0.00     0.004 C 
ENDBRANCH   5   6
BRANCH   5   8
ATOM      8  C   UNL     1      19.400  12.681   2.259  1.00  0.00    -0.011 C 
ATOM      9  C   UNL     1      20.030  13.875   2.999  1.00  0.00     0.008 C 
ATOM     10  C   UNL     1      19.358  11.451   3.198  1.00  0.00     0.008 C 
ENDBRANCH   5   8
ENDBRANCH   4   5
ENDBRANCH   1   3
BRANCH   1  11
ATOM     11  C   UNL     1      18.223  12.013  -2.979  1.00  0.00     0.002 C 
ATOM     12  C   UNL     1      18.397  10.568  -2.475  1.00  0.00     0.005 C 
ATOM     13  C   UNL     1      16.670  12.234  -3.080  1.00  0.00    -0.026 C 
ATOM     14  C   UNL     1      17.042  10.110  -1.929  1.00  0.00     0.005 C 
ATOM     15  C   UNL     1      16.094  11.317  -1.976  1.00  0.00    -0.001 C 
ATOM     16  C   UNL     1      16.215  11.741  -4.480  1.00  0.00     0.007 C 
ATOM     17  C   UNL     1      16.254  13.723  -2.909  1.00  0.00     0.012 C 
ATOM     18  C   UNL     1      14.598  10.893  -2.135  1.00  0.00     0.000 C 
ATOM     19  C   UNL     1      14.710  11.520  -4.587  1.00  0.00     0.005 C 
ATOM     20  C   UNL     1      14.223  10.441  -3.577  1.00  0.00     0.003 C 
ATOM     21  C   UNL     1      13.630  11.966  -1.550  1.00  0.00     0.031 C 
ATOM     22  C   UNL     1      12.674  10.137  -3.682  1.00  0.00    -0.008 C 
ATOM     23  C   UNL     1      12.370  12.227  -2.348  1.00  0.00    -0.027 C 
ATOM     24  C   UNL     1      11.923  11.433  -3.342  1.00  0.00    -0.065 C 
ATOM     25  C   UNL     1      12.317   9.547  -5.097  1.00  0.00     0.014 C 
ATOM     26  C   UNL     1      12.230   9.068  -2.644  1.00  0.00     0.016 C 
ATOM     27  C   UNL     1      10.613  11.790  -4.021  1.00  0.00     0.063 C 
ATOM     28  C   UNL     1      10.905   9.874  -5.605  1.00  0.00     0.033 C 
ATOM     29  C   UNL     1      10.632  11.370  -5.491  1.00  0.00     0.118 C 
BRANCH  29  30
ATOM     30  O   UNL     1       9.423  11.715  -6.116  1.00  0.00    -0.393 OA
ATOM     31  H   UNL     1       9.414  11.308  -7.022  1.00  0.00     0.210 HD
ENDBRANCH  29  30
ENDBRANCH   1  11
TORSDOF 6
ENDMDL
