MODEL 1
REMARK VINA RESULT:    -4.891      0.000      0.000
REMARK INTER + INTRA:          -5.643
REMARK INTER:                  -5.891
REMARK INTRA:                   0.249
REMARK UNBOUND:                 0.249
REMARK SMILES O=c1c(O)c(-c2ccc(O)c(O)c2)oc2cc(O)cc(O)c12
REMARK SMILES IDX 5 1 3 2 2 3 1 4 22 5 20 6 19 7 17 8 16 9 15 10 14 11 6 12
REMARK SMILES IDX 7 13 8 14 9 15 13 16 11 17 10 18 12 20 4 22 21 24 18 26
REMARK H PARENT 10 19 12 21 4 23 21 25 18 27
REMARK Flexibility Score: inf
ROOT
ATOM      1  C   UNL     1     -54.081  37.396  27.750  1.00  0.00     0.180 A 
ATOM      2  C   UNL     1     -54.574  36.985  26.500  1.00  0.00     0.208 A 
ATOM      3  C   UNL     1     -54.542  35.621  26.169  1.00  0.00     0.238 A 
ATOM      4  O   UNL     1     -55.034  35.252  25.071  1.00  0.00    -0.285 OA
ATOM      5  C   UNL     1     -54.002  34.686  27.086  1.00  0.00     0.111 A 
ATOM      6  C   UNL     1     -53.882  33.285  26.841  1.00  0.00     0.134 A 
ATOM      7  C   UNL     1     -53.453  32.438  27.870  1.00  0.00     0.093 A 
ATOM      8  C   UNL     1     -53.079  32.946  29.113  1.00  0.00     0.123 A 
ATOM      9  C   UNL     1     -53.136  34.321  29.345  1.00  0.00     0.094 A 
ATOM     10  C   UNL     1     -53.594  35.188  28.350  1.00  0.00     0.146 A 
ATOM     11  O   UNL     1     -53.642  36.488  28.615  1.00  0.00    -0.452 OA
ENDROOT
BRANCH   1  12
ATOM     12  C   UNL     1     -54.059  38.818  28.160  1.00  0.00     0.025 A 
ATOM     13  C   UNL     1     -55.049  39.718  27.731  1.00  0.00     0.016 A 
ATOM     14  C   UNL     1     -54.994  41.060  28.111  1.00  0.00     0.051 A 
ATOM     15  C   UNL     1     -53.950  41.535  28.912  1.00  0.00     0.157 A 
ATOM     16  C   UNL     1     -52.999  39.296  28.946  1.00  0.00     0.062 A 
ATOM     17  C   UNL     1     -52.936  40.642  29.332  1.00  0.00     0.158 A 
BRANCH  15  18
ATOM     18  O   UNL     1     -53.957  42.886  29.260  1.00  0.00    -0.504 OA
ATOM     19  H   UNL     1     -53.804  43.229  30.198  1.00  0.00     0.293 HD
ENDBRANCH  15  18
BRANCH  17  20
ATOM     20  O   UNL     1     -51.859  41.042  30.124  1.00  0.00    -0.504 OA
ATOM     21  H   UNL     1     -50.982  41.379  29.755  1.00  0.00     0.293 HD
ENDBRANCH  17  20
ENDBRANCH   1  12
BRANCH   2  22
ATOM     22  O   UNL     1     -55.122  37.921  25.618  1.00  0.00    -0.502 OA
ATOM     23  H   UNL     1     -54.827  37.997  24.653  1.00  0.00     0.293 HD
ENDBRANCH   2  22
BRANCH   6  24
ATOM     24  O   UNL     1     -54.143  32.685  25.606  1.00  0.00    -0.507 OA
ATOM     25  H   UNL     1     -54.662  31.829  25.480  1.00  0.00     0.293 HD
ENDBRANCH   6  24
BRANCH   8  26
ATOM     26  O   UNL     1     -52.642  32.075  30.108  1.00  0.00    -0.508 OA
ATOM     27  H   UNL     1     -53.140  31.981  30.985  1.00  0.00     0.293 HD
ENDBRANCH   8  26
TORSDOF 6
ENDMDL
MODEL 2
REMARK VINA RESULT:    -4.186      3.840      8.944
REMARK INTER + INTRA:          -4.794
REMARK INTER:                  -5.076
REMARK INTRA:                   0.283
REMARK UNBOUND:                 0.249
REMARK SMILES O=c1c(O)c(-c2ccc(O)c(O)c2)oc2cc(O)cc(O)c12
REMARK SMILES IDX 5 1 3 2 2 3 1 4 22 5 20 6 19 7 17 8 16 9 15 10 14 11 6 12
REMARK SMILES IDX 7 13 8 14 9 15 13 16 11 17 10 18 12 20 4 22 21 24 18 26
REMARK H PARENT 10 19 12 21 4 23 21 25 18 27
REMARK Flexibility Score: inf
ROOT
ATOM      1  C   UNL     1     -53.277  42.591  28.576  1.00  0.00     0.180 A 
ATOM      2  C   UNL     1     -54.063  43.336  27.681  1.00  0.00     0.208 A 
ATOM      3  C   UNL     1     -53.741  44.682  27.448  1.00  0.00     0.238 A 
ATOM      4  O   UNL     1     -54.415  45.328  26.604  1.00  0.00    -0.285 OA
ATOM      5  C   UNL     1     -52.648  45.273  28.127  1.00  0.00     0.111 A 
ATOM      6  C   UNL     1     -52.255  46.639  27.999  1.00  0.00     0.134 A 
ATOM      7  C   UNL     1     -51.080  47.081  28.618  1.00  0.00     0.093 A 
ATOM      8  C   UNL     1     -50.317  46.225  29.411  1.00  0.00     0.123 A 
ATOM      9  C   UNL     1     -50.723  44.902  29.592  1.00  0.00     0.094 A 
ATOM     10  C   UNL     1     -51.872  44.422  28.958  1.00  0.00     0.146 A 
ATOM     11  O   UNL     1     -52.218  43.154  29.147  1.00  0.00    -0.452 OA
ENDROOT
BRANCH   1  12
ATOM     12  C   UNL     1     -53.568  41.174  28.891  1.00  0.00     0.025 A 
ATOM     13  C   UNL     1     -54.870  40.656  28.791  1.00  0.00     0.016 A 
ATOM     14  C   UNL     1     -55.125  39.322  29.116  1.00  0.00     0.051 A 
ATOM     15  C   UNL     1     -54.095  38.485  29.558  1.00  0.00     0.157 A 
ATOM     16  C   UNL     1     -52.537  40.342  29.354  1.00  0.00     0.062 A 
ATOM     17  C   UNL     1     -52.784  39.002  29.683  1.00  0.00     0.158 A 
BRANCH  15  18
ATOM     18  O   UNL     1     -54.416  37.161  29.862  1.00  0.00    -0.504 OA
ATOM     19  H   UNL     1     -54.538  36.436  29.170  1.00  0.00     0.293 HD
ENDBRANCH  15  18
BRANCH  17  20
ATOM     20  O   UNL     1     -51.708  38.231  30.125  1.00  0.00    -0.504 OA
ATOM     21  H   UNL     1     -50.785  38.601  30.305  1.00  0.00     0.293 HD
ENDBRANCH  17  20
ENDBRANCH   1  12
BRANCH   2  22
ATOM     22  O   UNL     1     -55.124  42.728  27.004  1.00  0.00    -0.502 OA
ATOM     23  H   UNL     1     -55.199  41.723  26.901  1.00  0.00     0.293 HD
ENDBRANCH   2  22
BRANCH   6  24
ATOM     24  O   UNL     1     -52.995  47.600  27.305  1.00  0.00    -0.507 OA
ATOM     25  H   UNL     1     -52.597  48.329  26.732  1.00  0.00     0.293 HD
ENDBRANCH   6  24
BRANCH   8  26
ATOM     26  O   UNL     1     -49.161  46.703  30.024  1.00  0.00    -0.508 OA
ATOM     27  H   UNL     1     -48.416  47.132  29.488  1.00  0.00     0.293 HD
ENDBRANCH   8  26
TORSDOF 6
ENDMDL
MODEL 3
REMARK VINA RESULT:    -3.975      1.339      2.031
REMARK INTER + INTRA:          -4.540
REMARK INTER:                  -5.026
REMARK INTRA:                   0.486
REMARK UNBOUND:                 0.249
REMARK SMILES O=c1c(O)c(-c2ccc(O)c(O)c2)oc2cc(O)cc(O)c12
REMARK SMILES IDX 5 1 3 2 2 3 1 4 22 5 20 6 19 7 17 8 16 9 15 10 14 11 6 12
REMARK SMILES IDX 7 13 8 14 9 15 13 16 11 17 10 18 12 20 4 22 21 24 18 26
REMARK H PARENT 10 19 12 21 4 23 21 25 18 27
REMARK Flexibility Score: inf
ROOT
ATOM      1  C   UNL     1     -53.840  35.916  27.814  1.00  0.00     0.180 A 
ATOM      2  C   UNL     1     -54.444  35.636  26.577  1.00  0.00     0.208 A 
ATOM      3  C   UNL     1     -54.527  34.303  26.145  1.00  0.00     0.238 A 
ATOM      4  O   UNL     1     -55.119  34.053  25.062  1.00  0.00    -0.285 OA
ATOM      5  C   UNL     1     -53.990  33.267  26.947  1.00  0.00     0.111 A 
ATOM      6  C   UNL     1     -53.982  31.885  26.590  1.00  0.00     0.134 A 
ATOM      7  C   UNL     1     -53.540  30.934  27.518  1.00  0.00     0.093 A 
ATOM      8  C   UNL     1     -53.048  31.319  28.765  1.00  0.00     0.123 A 
ATOM      9  C   UNL     1     -52.995  32.673  29.101  1.00  0.00     0.094 A 
ATOM     10  C   UNL     1     -53.461  33.642  28.211  1.00  0.00     0.146 A 
ATOM     11  O   UNL     1     -53.404  34.917  28.574  1.00  0.00    -0.452 OA
ENDROOT
BRANCH   1  12
ATOM     12  C   UNL     1     -53.694  37.298  28.325  1.00  0.00     0.025 A 
ATOM     13  C   UNL     1     -52.855  37.589  29.413  1.00  0.00     0.016 A 
ATOM     14  C   UNL     1     -52.751  38.896  29.894  1.00  0.00     0.051 A 
ATOM     15  C   UNL     1     -53.487  39.932  29.311  1.00  0.00     0.157 A 
ATOM     16  C   UNL     1     -54.450  38.332  27.752  1.00  0.00     0.062 A 
ATOM     17  C   UNL     1     -54.352  39.646  28.228  1.00  0.00     0.158 A 
BRANCH  15  18
ATOM     18  O   UNL     1     -53.335  41.217  29.836  1.00  0.00    -0.504 OA
ATOM     19  H   UNL     1     -53.765  41.530  30.694  1.00  0.00     0.293 HD
ENDBRANCH  15  18
BRANCH  17  20
ATOM     20  O   UNL     1     -55.125  40.625  27.601  1.00  0.00    -0.504 OA
ATOM     21  H   UNL     1     -55.983  40.996  27.982  1.00  0.00     0.293 HD
ENDBRANCH  17  20
ENDBRANCH   1  12
BRANCH   2  22
ATOM     22  O   UNL     1     -54.989  36.670  25.810  1.00  0.00    -0.502 OA
ATOM     23  H   UNL     1     -55.987  36.781  25.676  1.00  0.00     0.293 HD
ENDBRANCH   2  22
BRANCH   6  24
ATOM     24  O   UNL     1     -54.368  31.402  25.337  1.00  0.00    -0.507 OA
ATOM     25  H   UNL     1     -55.287  31.511  24.936  1.00  0.00     0.293 HD
ENDBRANCH   6  24
BRANCH   8  26
ATOM     26  O   UNL     1     -52.602  30.347  29.657  1.00  0.00    -0.508 OA
ATOM     27  H   UNL     1     -52.561  30.522  30.654  1.00  0.00     0.293 HD
ENDBRANCH   8  26
TORSDOF 6
ENDMDL
MODEL 4
REMARK VINA RESULT:    -3.918      1.980      4.498
REMARK INTER + INTRA:          -4.471
REMARK INTER:                  -4.895
REMARK INTRA:                   0.425
REMARK UNBOUND:                 0.249
REMARK SMILES O=c1c(O)c(-c2ccc(O)c(O)c2)oc2cc(O)cc(O)c12
REMARK SMILES IDX 5 1 3 2 2 3 1 4 22 5 20 6 19 7 17 8 16 9 15 10 14 11 6 12
REMARK SMILES IDX 7 13 8 14 9 15 13 16 11 17 10 18 12 20 4 22 21 24 18 26
REMARK H PARENT 10 19 12 21 4 23 21 25 18 27
REMARK Flexibility Score: inf
ROOT
ATOM      1  C   UNL     1     -53.612  34.179  27.854  1.00  0.00     0.180 A 
ATOM      2  C   UNL     1     -52.883  33.506  28.849  1.00  0.00     0.208 A 
ATOM      3  C   UNL     1     -52.768  32.109  28.782  1.00  0.00     0.238 A 
ATOM      4  O   UNL     1     -52.068  31.517  29.646  1.00  0.00    -0.285 OA
ATOM      5  C   UNL     1     -53.397  31.399  27.731  1.00  0.00     0.111 A 
ATOM      6  C   UNL     1     -53.381  29.980  27.586  1.00  0.00     0.134 A 
ATOM      7  C   UNL     1     -53.927  29.396  26.437  1.00  0.00     0.093 A 
ATOM      8  C   UNL     1     -54.545  30.173  25.458  1.00  0.00     0.123 A 
ATOM      9  C   UNL     1     -54.619  31.558  25.618  1.00  0.00     0.094 A 
ATOM     10  C   UNL     1     -54.052  32.172  26.736  1.00  0.00     0.146 A 
ATOM     11  O   UNL     1     -54.135  33.493  26.844  1.00  0.00    -0.452 OA
ENDROOT
BRANCH   1  12
ATOM     12  C   UNL     1     -53.797  35.648  27.870  1.00  0.00     0.025 A 
ATOM     13  C   UNL     1     -53.475  36.413  29.003  1.00  0.00     0.016 A 
ATOM     14  C   UNL     1     -53.681  37.795  29.003  1.00  0.00     0.051 A 
ATOM     15  C   UNL     1     -54.222  38.437  27.885  1.00  0.00     0.157 A 
ATOM     16  C   UNL     1     -54.361  36.287  26.755  1.00  0.00     0.062 A 
ATOM     17  C   UNL     1     -54.572  37.672  26.746  1.00  0.00     0.158 A 
BRANCH  15  18
ATOM     18  O   UNL     1     -54.399  39.820  27.948  1.00  0.00    -0.504 OA
ATOM     19  H   UNL     1     -53.971  40.412  28.645  1.00  0.00     0.293 HD
ENDBRANCH  15  18
BRANCH  17  20
ATOM     20  O   UNL     1     -55.125  38.240  25.597  1.00  0.00    -0.504 OA
ATOM     21  H   UNL     1     -55.934  38.844  25.600  1.00  0.00     0.293 HD
ENDBRANCH  17  20
ENDBRANCH   1  12
BRANCH   2  22
ATOM     22  O   UNL     1     -52.251  34.228  29.866  1.00  0.00    -0.502 OA
ATOM     23  H   UNL     1     -51.242  34.294  29.940  1.00  0.00     0.293 HD
ENDBRANCH   2  22
BRANCH   6  24
ATOM     24  O   UNL     1     -52.870  29.104  28.549  1.00  0.00    -0.507 OA
ATOM     25  H   UNL     1     -53.123  29.112  29.526  1.00  0.00     0.293 HD
ENDBRANCH   6  24
BRANCH   8  26
ATOM     26  O   UNL     1     -55.092  29.557  24.335  1.00  0.00    -0.508 OA
ATOM     27  H   UNL     1     -54.620  29.575  23.439  1.00  0.00     0.293 HD
ENDBRANCH   8  26
TORSDOF 6
ENDMDL
MODEL 5
REMARK VINA RESULT:    -3.879      1.460      3.127
REMARK INTER + INTRA:          -4.424
REMARK INTER:                  -4.948
REMARK INTRA:                   0.524
REMARK UNBOUND:                 0.249
REMARK SMILES O=c1c(O)c(-c2ccc(O)c(O)c2)oc2cc(O)cc(O)c12
REMARK SMILES IDX 5 1 3 2 2 3 1 4 22 5 20 6 19 7 17 8 16 9 15 10 14 11 6 12
REMARK SMILES IDX 7 13 8 14 9 15 13 16 11 17 10 18 12 20 4 22 21 24 18 26
REMARK H PARENT 10 19 12 21 4 23 21 25 18 27
REMARK Flexibility Score: inf
ROOT
ATOM      1  C   UNL     1     -53.672  35.936  28.177  1.00  0.00     0.180 A 
ATOM      2  C   UNL     1     -52.859  35.286  29.120  1.00  0.00     0.208 A 
ATOM      3  C   UNL     1     -52.666  33.900  29.014  1.00  0.00     0.238 A 
ATOM      4  O   UNL     1     -51.892  33.333  29.829  1.00  0.00    -0.285 OA
ATOM      5  C   UNL     1     -53.302  33.178  27.975  1.00  0.00     0.111 A 
ATOM      6  C   UNL     1     -53.209  31.765  27.795  1.00  0.00     0.134 A 
ATOM      7  C   UNL     1     -53.774  31.175  26.658  1.00  0.00     0.093 A 
ATOM      8  C   UNL     1     -54.481  31.935  25.728  1.00  0.00     0.123 A 
ATOM      9  C   UNL     1     -54.629  33.309  25.925  1.00  0.00     0.094 A 
ATOM     10  C   UNL     1     -54.047  33.932  27.031  1.00  0.00     0.146 A 
ATOM     11  O   UNL     1     -54.202  35.242  27.175  1.00  0.00    -0.452 OA
ENDROOT
BRANCH   1  12
ATOM     12  C   UNL     1     -53.943  37.391  28.237  1.00  0.00     0.025 A 
ATOM     13  C   UNL     1     -54.873  37.997  27.377  1.00  0.00     0.016 A 
ATOM     14  C   UNL     1     -55.095  39.375  27.436  1.00  0.00     0.051 A 
ATOM     15  C   UNL     1     -54.387  40.174  28.340  1.00  0.00     0.157 A 
ATOM     16  C   UNL     1     -53.216  38.194  29.130  1.00  0.00     0.062 A 
ATOM     17  C   UNL     1     -53.431  39.577  29.196  1.00  0.00     0.158 A 
BRANCH  15  18
ATOM     18  O   UNL     1     -54.659  41.544  28.351  1.00  0.00    -0.504 OA
ATOM     19  H   UNL     1     -55.157  42.026  27.618  1.00  0.00     0.293 HD
ENDBRANCH  15  18
BRANCH  17  20
ATOM     20  O   UNL     1     -52.681  40.310  30.117  1.00  0.00    -0.504 OA
ATOM     21  H   UNL     1     -52.676  40.131  31.111  1.00  0.00     0.293 HD
ENDBRANCH  17  20
ENDBRANCH   1  12
BRANCH   2  22
ATOM     22  O   UNL     1     -52.223  36.022  30.125  1.00  0.00    -0.502 OA
ATOM     23  H   UNL     1     -51.387  36.566  29.953  1.00  0.00     0.293 HD
ENDBRANCH   2  22
BRANCH   6  24
ATOM     24  O   UNL     1     -52.603  30.901  28.711  1.00  0.00    -0.507 OA
ATOM     25  H   UNL     1     -52.789  30.891  29.703  1.00  0.00     0.293 HD
ENDBRANCH   6  24
BRANCH   8  26
ATOM     26  O   UNL     1     -55.043  31.312  24.616  1.00  0.00    -0.508 OA
ATOM     27  H   UNL     1     -55.976  30.919  24.645  1.00  0.00     0.293 HD
ENDBRANCH   8  26
TORSDOF 6
ENDMDL
MODEL 6
REMARK VINA RESULT:    -3.620      1.778      3.263
REMARK INTER + INTRA:          -4.112
REMARK INTER:                  -4.636
REMARK INTRA:                   0.524
REMARK UNBOUND:                 0.249
REMARK SMILES O=c1c(O)c(-c2ccc(O)c(O)c2)oc2cc(O)cc(O)c12
REMARK SMILES IDX 5 1 3 2 2 3 1 4 22 5 20 6 19 7 17 8 16 9 15 10 14 11 6 12
REMARK SMILES IDX 7 13 8 14 9 15 13 16 11 17 10 18 12 20 4 22 21 24 18 26
REMARK H PARENT 10 19 12 21 4 23 21 25 18 27
REMARK Flexibility Score: inf
ROOT
ATOM      1  C   UNL     1     -53.676  34.430  27.842  1.00  0.00     0.180 A 
ATOM      2  C   UNL     1     -54.251  34.026  26.626  1.00  0.00     0.208 A 
ATOM      3  C   UNL     1     -54.265  32.661  26.298  1.00  0.00     0.238 A 
ATOM      4  O   UNL     1     -54.831  32.301  25.233  1.00  0.00    -0.285 OA
ATOM      5  C   UNL     1     -53.689  31.718  27.183  1.00  0.00     0.111 A 
ATOM      6  C   UNL     1     -53.612  30.315  26.935  1.00  0.00     0.134 A 
ATOM      7  C   UNL     1     -53.137  29.461  27.939  1.00  0.00     0.093 A 
ATOM      8  C   UNL     1     -52.679  29.964  29.155  1.00  0.00     0.123 A 
ATOM      9  C   UNL     1     -52.695  31.340  29.386  1.00  0.00     0.094 A 
ATOM     10  C   UNL     1     -53.195  32.214  28.419  1.00  0.00     0.146 A 
ATOM     11  O   UNL     1     -53.203  33.515  28.682  1.00  0.00    -0.452 OA
ENDROOT
BRANCH   1  12
ATOM     12  C   UNL     1     -53.601  35.853  28.246  1.00  0.00     0.025 A 
ATOM     13  C   UNL     1     -52.870  36.254  29.375  1.00  0.00     0.016 A 
ATOM     14  C   UNL     1     -52.833  37.599  29.751  1.00  0.00     0.051 A 
ATOM     15  C   UNL     1     -53.533  38.564  29.020  1.00  0.00     0.157 A 
ATOM     16  C   UNL     1     -54.322  36.816  27.523  1.00  0.00     0.062 A 
ATOM     17  C   UNL     1     -54.291  38.167  27.893  1.00  0.00     0.158 A 
BRANCH  15  18
ATOM     18  O   UNL     1     -53.452  39.891  29.445  1.00  0.00    -0.504 OA
ATOM     19  H   UNL     1     -52.630  40.469  29.340  1.00  0.00     0.293 HD
ENDBRANCH  15  18
BRANCH  17  20
ATOM     20  O   UNL     1     -55.022  39.071  27.119  1.00  0.00    -0.504 OA
ATOM     21  H   UNL     1     -55.222  38.941  26.138  1.00  0.00     0.293 HD
ENDBRANCH  17  20
ENDBRANCH   1  12
BRANCH   2  22
ATOM     22  O   UNL     1     -54.834  34.971  25.776  1.00  0.00    -0.502 OA
ATOM     23  H   UNL     1     -54.617  35.959  25.832  1.00  0.00     0.293 HD
ENDBRANCH   2  22
BRANCH   6  24
ATOM     24  O   UNL     1     -53.958  29.718  25.720  1.00  0.00    -0.507 OA
ATOM     25  H   UNL     1     -53.725  30.087  24.810  1.00  0.00     0.293 HD
ENDBRANCH   6  24
BRANCH   8  26
ATOM     26  O   UNL     1     -52.199  29.086  30.125  1.00  0.00    -0.508 OA
ATOM     27  H   UNL     1     -52.408  29.217  31.107  1.00  0.00     0.293 HD
ENDBRANCH   8  26
TORSDOF 6
ENDMDL
MODEL 7
REMARK VINA RESULT:    -2.863      1.951      7.422
REMARK INTER + INTRA:          -3.201
REMARK INTER:                  -3.724
REMARK INTRA:                   0.524
REMARK UNBOUND:                 0.249
REMARK SMILES O=c1c(O)c(-c2ccc(O)c(O)c2)oc2cc(O)cc(O)c12
REMARK SMILES IDX 5 1 3 2 2 3 1 4 22 5 20 6 19 7 17 8 16 9 15 10 14 11 6 12
REMARK SMILES IDX 7 13 8 14 9 15 13 16 11 17 10 18 12 20 4 22 21 24 18 26
REMARK H PARENT 10 19 12 21 4 23 21 25 18 27
REMARK Flexibility Score: inf
ROOT
ATOM      1  C   UNL     1     -53.750  34.507  27.306  1.00  0.00     0.180 A 
ATOM      2  C   UNL     1     -52.919  34.501  28.439  1.00  0.00     0.208 A 
ATOM      3  C   UNL     1     -52.630  35.716  29.079  1.00  0.00     0.238 A 
ATOM      4  O   UNL     1     -51.929  35.697  30.125  1.00  0.00    -0.285 OA
ATOM      5  C   UNL     1     -53.163  36.925  28.570  1.00  0.00     0.111 A 
ATOM      6  C   UNL     1     -52.904  38.219  29.114  1.00  0.00     0.134 A 
ATOM      7  C   UNL     1     -53.588  39.331  28.609  1.00  0.00     0.093 A 
ATOM      8  C   UNL     1     -54.473  39.207  27.538  1.00  0.00     0.123 A 
ATOM      9  C   UNL     1     -54.688  37.955  26.959  1.00  0.00     0.094 A 
ATOM     10  C   UNL     1     -54.048  36.822  27.464  1.00  0.00     0.146 A 
ATOM     11  O   UNL     1     -54.289  35.649  26.892  1.00  0.00    -0.452 OA
ENDROOT
BRANCH   1  12
ATOM     12  C   UNL     1     -54.081  33.270  26.563  1.00  0.00     0.025 A 
ATOM     13  C   UNL     1     -54.792  33.312  25.353  1.00  0.00     0.016 A 
ATOM     14  C   UNL     1     -55.113  32.130  24.682  1.00  0.00     0.051 A 
ATOM     15  C   UNL     1     -54.745  30.887  25.207  1.00  0.00     0.157 A 
ATOM     16  C   UNL     1     -53.729  32.023  27.104  1.00  0.00     0.062 A 
ATOM     17  C   UNL     1     -54.047  30.832  26.437  1.00  0.00     0.158 A 
BRANCH  15  18
ATOM     18  O   UNL     1     -55.092  29.745  24.485  1.00  0.00    -0.504 OA
ATOM     19  H   UNL     1     -54.594  28.868  24.541  1.00  0.00     0.293 HD
ENDBRANCH  15  18
BRANCH  17  20
ATOM     20  O   UNL     1     -53.654  29.630  27.028  1.00  0.00    -0.504 OA
ATOM     21  H   UNL     1     -52.693  29.376  27.205  1.00  0.00     0.293 HD
ENDBRANCH  17  20
ENDBRANCH   1  12
BRANCH   2  22
ATOM     22  O   UNL     1     -52.421  33.294  28.938  1.00  0.00    -0.502 OA
ATOM     23  H   UNL     1     -52.666  32.943  29.856  1.00  0.00     0.293 HD
ENDBRANCH   2  22
BRANCH   6  24
ATOM     24  O   UNL     1     -51.971  38.466  30.125  1.00  0.00    -0.507 OA
ATOM     25  H   UNL     1     -52.124  38.286  31.106  1.00  0.00     0.293 HD
ENDBRANCH   6  24
BRANCH   8  26
ATOM     26  O   UNL     1     -55.124  40.338  27.050  1.00  0.00    -0.508 OA
ATOM     27  H   UNL     1     -55.849  40.802  27.584  1.00  0.00     0.293 HD
ENDBRANCH   8  26
TORSDOF 6
ENDMDL
