MODEL 1
REMARK VINA RESULT:    -4.664      0.000      0.000
REMARK INTER + INTRA:         -17.013
REMARK INTER:                 -12.299
REMARK INTRA:                  -4.713
REMARK UNBOUND:                -4.713
REMARK SMILES CCCCCCCCCCCCCCCCCCCCCCCCCCCCCC(=O)[O-]
REMARK SMILES IDX 16 1 17 2 18 3 19 4 20 5 21 6 22 7 23 8 24 9 25 10 26 11
REMARK SMILES IDX 27 12 28 13 29 14 30 15 31 16 32 17 15 18 14 19 13 20 12 21
REMARK SMILES IDX 11 22 10 23 9 24 8 25 7 26 6 27 5 28 4 29 3 30 2 31 1 32
REMARK H PARENT
REMARK Flexibility Score: inf
ROOT
ATOM      1  C   UNL     1      52.254  21.022  53.472  1.00  0.00     0.000 C 
ENDROOT
BRANCH   1   2
ATOM      2  C   UNL     1      51.485  21.019  54.809  1.00  0.00     0.000 C 
BRANCH   2   3
ATOM      3  C   UNL     1      50.582  22.240  55.051  1.00  0.00     0.000 C 
BRANCH   3   4
ATOM      4  C   UNL     1      51.201  23.256  56.025  1.00  0.00     0.000 C 
BRANCH   4   5
ATOM      5  C   UNL     1      50.154  24.199  56.645  1.00  0.00     0.000 C 
BRANCH   5   6
ATOM      6  C   UNL     1      49.048  24.677  55.681  1.00  0.00     0.000 C 
BRANCH   6   7
ATOM      7  C   UNL     1      47.637  24.778  56.290  1.00  0.00     0.000 C 
BRANCH   7   8
ATOM      8  C   UNL     1      47.020  23.402  56.598  1.00  0.00     0.000 C 
BRANCH   8   9
ATOM      9  C   UNL     1      46.690  22.597  55.327  1.00  0.00     0.000 C 
BRANCH   9  10
ATOM     10  C   UNL     1      46.753  21.065  55.482  1.00  0.00     0.000 C 
BRANCH  10  11
ATOM     11  C   UNL     1      45.819  20.273  54.549  1.00  0.00     0.000 C 
BRANCH  11  12
ATOM     12  C   UNL     1      44.447  19.990  55.178  1.00  0.00     0.000 C 
BRANCH  12  13
ATOM     13  C   UNL     1      43.727  18.853  54.437  1.00  0.00     0.006 C 
BRANCH  13  14
ATOM     14  C   UNL     1      44.609  18.214  53.355  1.00  0.00     0.053 C 
BRANCH  14  15
ATOM     15  C   UNL     1      43.907  18.135  52.035  1.00  0.00     0.041 C 
ATOM     16  O   UNL     1      42.870  18.821  51.826  1.00  0.00    -0.550 OA
ATOM     17  O   UNL     1      44.378  17.280  51.046  1.00  0.00    -0.550 OA
ENDBRANCH  14  15
ENDBRANCH  13  14
ENDBRANCH  12  13
ENDBRANCH  11  12
ENDBRANCH  10  11
ENDBRANCH   9  10
ENDBRANCH   8   9
ENDBRANCH   7   8
ENDBRANCH   6   7
ENDBRANCH   5   6
ENDBRANCH   4   5
ENDBRANCH   3   4
ENDBRANCH   2   3
ENDBRANCH   1   2
BRANCH   1  18
ATOM     18  C   UNL     1      53.361  22.094  53.383  1.00  0.00     0.000 C 
BRANCH  18  19
ATOM     19  C   UNL     1      53.111  23.100  52.247  1.00  0.00     0.000 C 
BRANCH  19  20
ATOM     20  C   UNL     1      52.610  24.466  52.755  1.00  0.00     0.000 C 
BRANCH  20  21
ATOM     21  C   UNL     1      51.142  24.791  52.416  1.00  0.00     0.000 C 
BRANCH  21  22
ATOM     22  C   UNL     1      50.388  23.686  51.648  1.00  0.00     0.000 C 
BRANCH  22  23
ATOM     23  C   UNL     1      48.947  23.422  52.132  1.00  0.00     0.000 C 
BRANCH  23  24
ATOM     24  C   UNL     1      48.573  21.936  52.269  1.00  0.00    -0.000 C 
BRANCH  24  25
ATOM     25  C   UNL     1      47.726  21.426  51.095  1.00  0.00    -0.000 C 
BRANCH  25  26
ATOM     26  C   UNL     1      48.575  20.585  50.132  1.00  0.00    -0.000 C 
BRANCH  26  27
ATOM     27  C   UNL     1      49.957  20.223  50.708  1.00  0.00    -0.000 C 
BRANCH  27  28
ATOM     28  C   UNL     1      51.038  19.860  49.664  1.00  0.00    -0.000 C 
BRANCH  28  29
ATOM     29  C   UNL     1      52.415  20.515  49.890  1.00  0.00    -0.000 C 
BRANCH  29  30
ATOM     30  C   UNL     1      53.543  19.899  49.032  1.00  0.00    -0.000 C 
BRANCH  30  31
ATOM     31  C   UNL     1      54.875  20.658  49.146  1.00  0.00    -0.003 C 
ATOM     32  C   UNL     1      55.250  21.387  47.857  1.00  0.00     0.004 C 
ENDBRANCH  30  31
ENDBRANCH  29  30
ENDBRANCH  28  29
ENDBRANCH  27  28
ENDBRANCH  26  27
ENDBRANCH  25  26
ENDBRANCH  24  25
ENDBRANCH  23  24
ENDBRANCH  22  23
ENDBRANCH  21  22
ENDBRANCH  20  21
ENDBRANCH  19  20
ENDBRANCH  18  19
ENDBRANCH   1  18
TORSDOF 28
ENDMDL
MODEL 2
REMARK VINA RESULT:    -4.497      1.893      3.656
REMARK INTER + INTRA:         -16.571
REMARK INTER:                 -13.160
REMARK INTRA:                  -3.410
REMARK UNBOUND:                -4.713
REMARK SMILES CCCCCCCCCCCCCCCCCCCCCCCCCCCCCC(=O)[O-]
REMARK SMILES IDX 16 1 17 2 18 3 19 4 20 5 21 6 22 7 23 8 24 9 25 10 26 11
REMARK SMILES IDX 27 12 28 13 29 14 30 15 31 16 32 17 15 18 14 19 13 20 12 21
REMARK SMILES IDX 11 22 10 23 9 24 8 25 7 26 6 27 5 28 4 29 3 30 2 31 1 32
REMARK H PARENT
REMARK Flexibility Score: inf
ROOT
ATOM      1  C   UNL     1      47.908  21.845  53.829  1.00  0.00     0.000 C 
ENDROOT
BRANCH   1   2
ATOM      2  C   UNL     1      48.002  22.382  55.271  1.00  0.00     0.000 C 
BRANCH   2   3
ATOM      3  C   UNL     1      47.813  23.901  55.421  1.00  0.00     0.000 C 
BRANCH   3   4
ATOM      4  C   UNL     1      46.411  24.282  55.925  1.00  0.00     0.000 C 
BRANCH   4   5
ATOM      5  C   UNL     1      45.622  25.124  54.907  1.00  0.00     0.000 C 
BRANCH   5   6
ATOM      6  C   UNL     1      44.090  25.104  55.086  1.00  0.00     0.000 C 
BRANCH   6   7
ATOM      7  C   UNL     1      43.453  23.705  55.189  1.00  0.00     0.000 C 
BRANCH   7   8
ATOM      8  C   UNL     1      41.924  23.731  55.026  1.00  0.00     0.000 C 
BRANCH   8   9
ATOM      9  C   UNL     1      41.268  22.368  55.318  1.00  0.00     0.000 C 
BRANCH   9  10
ATOM     10  C   UNL     1      41.466  21.295  54.229  1.00  0.00     0.000 C 
BRANCH  10  11
ATOM     11  C   UNL     1      41.995  19.940  54.733  1.00  0.00     0.000 C 
BRANCH  11  12
ATOM     12  C   UNL     1      43.462  20.002  55.183  1.00  0.00     0.000 C 
BRANCH  12  13
ATOM     13  C   UNL     1      44.295  18.913  54.490  1.00  0.00     0.006 C 
BRANCH  13  14
ATOM     14  C   UNL     1      43.476  18.118  53.465  1.00  0.00     0.053 C 
BRANCH  14  15
ATOM     15  C   UNL     1      44.280  17.781  52.247  1.00  0.00     0.041 C 
ATOM     16  O   UNL     1      43.939  16.819  51.508  1.00  0.00    -0.550 OA
ATOM     17  O   UNL     1      45.424  18.510  51.945  1.00  0.00    -0.550 OA
ENDBRANCH  14  15
ENDBRANCH  13  14
ENDBRANCH  12  13
ENDBRANCH  11  12
ENDBRANCH  10  11
ENDBRANCH   9  10
ENDBRANCH   8   9
ENDBRANCH   7   8
ENDBRANCH   6   7
ENDBRANCH   5   6
ENDBRANCH   4   5
ENDBRANCH   3   4
ENDBRANCH   2   3
ENDBRANCH   1   2
BRANCH   1  18
ATOM     18  C   UNL     1      47.836  22.945  52.749  1.00  0.00     0.000 C 
BRANCH  18  19
ATOM     19  C   UNL     1      49.201  23.207  52.088  1.00  0.00     0.000 C 
BRANCH  19  20
ATOM     20  C   UNL     1      49.772  24.598  52.422  1.00  0.00     0.000 C 
BRANCH  20  21
ATOM     21  C   UNL     1      51.296  24.641  52.649  1.00  0.00     0.000 C 
BRANCH  21  22
ATOM     22  C   UNL     1      51.752  24.342  54.092  1.00  0.00     0.000 C 
BRANCH  22  23
ATOM     23  C   UNL     1      53.168  23.746  54.219  1.00  0.00     0.000 C 
BRANCH  23  24
ATOM     24  C   UNL     1      53.211  22.254  54.593  1.00  0.00    -0.000 C 
BRANCH  24  25
ATOM     25  C   UNL     1      51.812  21.636  54.729  1.00  0.00    -0.000 C 
BRANCH  25  26
ATOM     26  C   UNL     1      51.510  20.700  53.550  1.00  0.00    -0.000 C 
BRANCH  26  27
ATOM     27  C   UNL     1      52.198  21.137  52.243  1.00  0.00    -0.000 C 
BRANCH  27  28
ATOM     28  C   UNL     1      51.496  20.690  50.940  1.00  0.00    -0.000 C 
BRANCH  28  29
ATOM     29  C   UNL     1      52.406  20.611  49.699  1.00  0.00    -0.000 C 
BRANCH  29  30
ATOM     30  C   UNL     1      53.907  20.795  50.018  1.00  0.00    -0.000 C 
BRANCH  30  31
ATOM     31  C   UNL     1      54.832  20.262  48.912  1.00  0.00    -0.003 C 
ATOM     32  C   UNL     1      55.233  21.342  47.909  1.00  0.00     0.004 C 
ENDBRANCH  30  31
ENDBRANCH  29  30
ENDBRANCH  28  29
ENDBRANCH  27  28
ENDBRANCH  26  27
ENDBRANCH  25  26
ENDBRANCH  24  25
ENDBRANCH  23  24
ENDBRANCH  22  23
ENDBRANCH  21  22
ENDBRANCH  20  21
ENDBRANCH  19  20
ENDBRANCH  18  19
ENDBRANCH   1  18
TORSDOF 28
ENDMDL
MODEL 3
REMARK VINA RESULT:    -4.461      1.842      3.678
REMARK INTER + INTRA:         -16.477
REMARK INTER:                 -12.189
REMARK INTRA:                  -4.287
REMARK UNBOUND:                -4.713
REMARK SMILES CCCCCCCCCCCCCCCCCCCCCCCCCCCCCC(=O)[O-]
REMARK SMILES IDX 16 1 17 2 18 3 19 4 20 5 21 6 22 7 23 8 24 9 25 10 26 11
REMARK SMILES IDX 27 12 28 13 29 14 30 15 31 16 32 17 15 18 14 19 13 20 12 21
REMARK SMILES IDX 11 22 10 23 9 24 8 25 7 26 6 27 5 28 4 29 3 30 2 31 1 32
REMARK H PARENT
REMARK Flexibility Score: inf
ROOT
ATOM      1  C   UNL     1      53.206  24.886  51.805  1.00  0.00     0.000 C 
ENDROOT
BRANCH   1   2
ATOM      2  C   UNL     1      51.895  24.667  52.586  1.00  0.00     0.000 C 
BRANCH   2   3
ATOM      3  C   UNL     1      51.932  25.089  54.065  1.00  0.00     0.000 C 
BRANCH   3   4
ATOM      4  C   UNL     1      50.750  24.531  54.874  1.00  0.00     0.000 C 
BRANCH   4   5
ATOM      5  C   UNL     1      49.551  24.148  53.988  1.00  0.00     0.000 C 
BRANCH   5   6
ATOM      6  C   UNL     1      48.416  23.393  54.710  1.00  0.00     0.000 C 
BRANCH   6   7
ATOM      7  C   UNL     1      47.335  22.789  53.793  1.00  0.00     0.000 C 
BRANCH   7   8
ATOM      8  C   UNL     1      47.786  21.480  53.121  1.00  0.00     0.000 C 
BRANCH   8   9
ATOM      9  C   UNL     1      47.888  21.600  51.589  1.00  0.00     0.000 C 
BRANCH   9  10
ATOM     10  C   UNL     1      47.319  20.407  50.795  1.00  0.00     0.000 C 
BRANCH  10  11
ATOM     11  C   UNL     1      46.383  19.479  51.589  1.00  0.00     0.000 C 
BRANCH  11  12
ATOM     12  C   UNL     1      45.140  19.060  50.791  1.00  0.00     0.000 C 
BRANCH  12  13
ATOM     13  C   UNL     1      44.140  18.311  51.685  1.00  0.00     0.006 C 
BRANCH  13  14
ATOM     14  C   UNL     1      44.590  18.269  53.151  1.00  0.00     0.053 C 
BRANCH  14  15
ATOM     15  C   UNL     1      43.427  18.310  54.095  1.00  0.00     0.041 C 
ATOM     16  O   UNL     1      43.382  17.526  55.080  1.00  0.00    -0.550 OA
ATOM     17  O   UNL     1      42.378  19.192  53.867  1.00  0.00    -0.550 OA
ENDBRANCH  14  15
ENDBRANCH  13  14
ENDBRANCH  12  13
ENDBRANCH  11  12
ENDBRANCH  10  11
ENDBRANCH   9  10
ENDBRANCH   8   9
ENDBRANCH   7   8
ENDBRANCH   6   7
ENDBRANCH   5   6
ENDBRANCH   4   5
ENDBRANCH   3   4
ENDBRANCH   2   3
ENDBRANCH   1   2
BRANCH   1  18
ATOM     18  C   UNL     1      54.387  24.023  52.297  1.00  0.00     0.000 C 
BRANCH  18  19
ATOM     19  C   UNL     1      55.456  24.854  53.026  1.00  0.00     0.000 C 
BRANCH  19  20
ATOM     20  C   UNL     1      55.419  24.672  54.555  1.00  0.00     0.000 C 
BRANCH  20  21
ATOM     21  C   UNL     1      56.256  23.496  55.094  1.00  0.00     0.000 C 
BRANCH  21  22
ATOM     22  C   UNL     1      55.459  22.423  55.865  1.00  0.00     0.000 C 
BRANCH  22  23
ATOM     23  C   UNL     1      53.940  22.421  55.597  1.00  0.00     0.000 C 
BRANCH  23  24
ATOM     24  C   UNL     1      53.455  21.328  54.629  1.00  0.00    -0.000 C 
BRANCH  24  25
ATOM     25  C   UNL     1      51.931  21.150  54.649  1.00  0.00    -0.000 C 
BRANCH  25  26
ATOM     26  C   UNL     1      51.430  20.563  53.322  1.00  0.00    -0.000 C 
BRANCH  26  27
ATOM     27  C   UNL     1      51.918  21.354  52.093  1.00  0.00    -0.000 C 
BRANCH  27  28
ATOM     28  C   UNL     1      51.365  20.873  50.732  1.00  0.00    -0.000 C 
BRANCH  28  29
ATOM     29  C   UNL     1      52.420  20.696  49.621  1.00  0.00    -0.000 C 
BRANCH  29  30
ATOM     30  C   UNL     1      53.875  20.842  50.121  1.00  0.00    -0.000 C 
BRANCH  30  31
ATOM     31  C   UNL     1      54.919  20.388  49.088  1.00  0.00    -0.003 C 
ATOM     32  C   UNL     1      55.007  21.327  47.887  1.00  0.00     0.004 C 
ENDBRANCH  30  31
ENDBRANCH  29  30
ENDBRANCH  28  29
ENDBRANCH  27  28
ENDBRANCH  26  27
ENDBRANCH  25  26
ENDBRANCH  24  25
ENDBRANCH  23  24
ENDBRANCH  22  23
ENDBRANCH  21  22
ENDBRANCH  20  21
ENDBRANCH  19  20
ENDBRANCH  18  19
ENDBRANCH   1  18
TORSDOF 28
ENDMDL
MODEL 4
REMARK VINA RESULT:    -4.348      1.824      4.115
REMARK INTER + INTRA:         -16.178
REMARK INTER:                 -12.271
REMARK INTRA:                  -3.907
REMARK UNBOUND:                -4.713
REMARK SMILES CCCCCCCCCCCCCCCCCCCCCCCCCCCCCC(=O)[O-]
REMARK SMILES IDX 16 1 17 2 18 3 19 4 20 5 21 6 22 7 23 8 24 9 25 10 26 11
REMARK SMILES IDX 27 12 28 13 29 14 30 15 31 16 32 17 15 18 14 19 13 20 12 21
REMARK SMILES IDX 11 22 10 23 9 24 8 25 7 26 6 27 5 28 4 29 3 30 2 31 1 32
REMARK H PARENT
REMARK Flexibility Score: inf
ROOT
ATOM      1  C   UNL     1      50.783  21.640  54.753  1.00  0.00     0.000 C 
ENDROOT
BRANCH   1   2
ATOM      2  C   UNL     1      50.635  23.061  55.332  1.00  0.00     0.000 C 
BRANCH   2   3
ATOM      3  C   UNL     1      49.250  23.396  55.910  1.00  0.00     0.000 C 
BRANCH   3   4
ATOM      4  C   UNL     1      48.534  24.514  55.134  1.00  0.00     0.000 C 
BRANCH   4   5
ATOM      5  C   UNL     1      48.923  24.547  53.646  1.00  0.00     0.000 C 
BRANCH   5   6
ATOM      6  C   UNL     1      47.909  23.888  52.687  1.00  0.00     0.000 C 
BRANCH   6   7
ATOM      7  C   UNL     1      47.758  22.361  52.831  1.00  0.00     0.000 C 
BRANCH   7   8
ATOM      8  C   UNL     1      48.491  21.583  51.725  1.00  0.00     0.000 C 
BRANCH   8   9
ATOM      9  C   UNL     1      47.539  21.048  50.639  1.00  0.00     0.000 C 
BRANCH   9  10
ATOM     10  C   UNL     1      47.208  19.545  50.734  1.00  0.00     0.000 C 
BRANCH  10  11
ATOM     11  C   UNL     1      46.281  19.152  51.899  1.00  0.00     0.000 C 
BRANCH  11  12
ATOM     12  C   UNL     1      45.184  18.162  51.481  1.00  0.00     0.000 C 
BRANCH  12  13
ATOM     13  C   UNL     1      44.230  17.874  52.650  1.00  0.00     0.006 C 
BRANCH  13  14
ATOM     14  C   UNL     1      44.455  18.827  53.832  1.00  0.00     0.053 C 
BRANCH  14  15
ATOM     15  C   UNL     1      43.397  18.676  54.881  1.00  0.00     0.041 C 
ATOM     16  O   UNL     1      43.073  17.531  55.296  1.00  0.00    -0.550 OA
ATOM     17  O   UNL     1      42.745  19.798  55.379  1.00  0.00    -0.550 OA
ENDBRANCH  14  15
ENDBRANCH  13  14
ENDBRANCH  12  13
ENDBRANCH  11  12
ENDBRANCH  10  11
ENDBRANCH   9  10
ENDBRANCH   8   9
ENDBRANCH   7   8
ENDBRANCH   6   7
ENDBRANCH   5   6
ENDBRANCH   4   5
ENDBRANCH   3   4
ENDBRANCH   2   3
ENDBRANCH   1   2
BRANCH   1  18
ATOM     18  C   UNL     1      52.185  21.024  54.940  1.00  0.00     0.000 C 
BRANCH  18  19
ATOM     19  C   UNL     1      53.193  22.028  55.525  1.00  0.00     0.000 C 
BRANCH  19  20
ATOM     20  C   UNL     1      54.530  22.052  54.759  1.00  0.00     0.000 C 
BRANCH  20  21
ATOM     21  C   UNL     1      55.692  22.746  55.495  1.00  0.00     0.000 C 
BRANCH  21  22
ATOM     22  C   UNL     1      55.846  24.253  55.202  1.00  0.00     0.000 C 
BRANCH  22  23
ATOM     23  C   UNL     1      54.806  24.837  54.224  1.00  0.00     0.000 C 
BRANCH  23  24
ATOM     24  C   UNL     1      55.280  24.945  52.764  1.00  0.00    -0.000 C 
BRANCH  24  25
ATOM     25  C   UNL     1      54.339  24.234  51.781  1.00  0.00    -0.000 C 
BRANCH  25  26
ATOM     26  C   UNL     1      52.876  24.371  52.226  1.00  0.00    -0.000 C 
BRANCH  26  27
ATOM     27  C   UNL     1      52.034  23.118  51.915  1.00  0.00    -0.000 C 
BRANCH  27  28
ATOM     28  C   UNL     1      52.839  21.848  51.558  1.00  0.00    -0.000 C 
BRANCH  28  29
ATOM     29  C   UNL     1      52.083  20.811  50.704  1.00  0.00    -0.000 C 
BRANCH  29  30
ATOM     30  C   UNL     1      52.822  20.421  49.404  1.00  0.00    -0.000 C 
BRANCH  30  31
ATOM     31  C   UNL     1      54.342  20.633  49.484  1.00  0.00    -0.003 C 
ATOM     32  C   UNL     1      54.920  21.240  48.207  1.00  0.00     0.004 C 
ENDBRANCH  30  31
ENDBRANCH  29  30
ENDBRANCH  28  29
ENDBRANCH  27  28
ENDBRANCH  26  27
ENDBRANCH  25  26
ENDBRANCH  24  25
ENDBRANCH  23  24
ENDBRANCH  22  23
ENDBRANCH  21  22
ENDBRANCH  20  21
ENDBRANCH  19  20
ENDBRANCH  18  19
ENDBRANCH   1  18
TORSDOF 28
ENDMDL
MODEL 5
REMARK VINA RESULT:    -4.337      2.013      4.988
REMARK INTER + INTRA:         -16.150
REMARK INTER:                 -13.452
REMARK INTRA:                  -2.698
REMARK UNBOUND:                -4.713
REMARK SMILES CCCCCCCCCCCCCCCCCCCCCCCCCCCCCC(=O)[O-]
REMARK SMILES IDX 16 1 17 2 18 3 19 4 20 5 21 6 22 7 23 8 24 9 25 10 26 11
REMARK SMILES IDX 27 12 28 13 29 14 30 15 31 16 32 17 15 18 14 19 13 20 12 21
REMARK SMILES IDX 11 22 10 23 9 24 8 25 7 26 6 27 5 28 4 29 3 30 2 31 1 32
REMARK H PARENT
REMARK Flexibility Score: inf
ROOT
ATOM      1  C   UNL     1      47.255  23.493  54.582  1.00  0.00     0.000 C 
ENDROOT
BRANCH   1   2
ATOM      2  C   UNL     1      46.449  24.787  54.347  1.00  0.00     0.000 C 
BRANCH   2   3
ATOM      3  C   UNL     1      45.281  25.020  55.319  1.00  0.00     0.000 C 
BRANCH   3   4
ATOM      4  C   UNL     1      44.119  24.036  55.104  1.00  0.00     0.000 C 
BRANCH   4   5
ATOM      5  C   UNL     1      42.749  24.655  55.429  1.00  0.00     0.000 C 
BRANCH   5   6
ATOM      6  C   UNL     1      41.549  23.691  55.313  1.00  0.00     0.000 C 
BRANCH   6   7
ATOM      7  C   UNL     1      41.905  22.228  54.986  1.00  0.00     0.000 C 
BRANCH   7   8
ATOM      8  C   UNL     1      40.907  21.573  54.015  1.00  0.00     0.000 C 
BRANCH   8   9
ATOM      9  C   UNL     1      41.324  20.149  53.602  1.00  0.00     0.000 C 
BRANCH   9  10
ATOM     10  C   UNL     1      41.419  19.129  54.754  1.00  0.00     0.000 C 
BRANCH  10  11
ATOM     11  C   UNL     1      42.846  18.826  55.243  1.00  0.00     0.000 C 
BRANCH  11  12
ATOM     12  C   UNL     1      43.644  17.961  54.257  1.00  0.00     0.000 C 
BRANCH  12  13
ATOM     13  C   UNL     1      44.735  18.787  53.559  1.00  0.00     0.006 C 
BRANCH  13  14
ATOM     14  C   UNL     1      45.335  18.055  52.352  1.00  0.00     0.053 C 
BRANCH  14  15
ATOM     15  C   UNL     1      44.281  17.611  51.386  1.00  0.00     0.041 C 
ATOM     16  O   UNL     1      44.317  16.450  50.896  1.00  0.00    -0.550 OA
ATOM     17  O   UNL     1      43.275  18.489  51.001  1.00  0.00    -0.550 OA
ENDBRANCH  14  15
ENDBRANCH  13  14
ENDBRANCH  12  13
ENDBRANCH  11  12
ENDBRANCH  10  11
ENDBRANCH   9  10
ENDBRANCH   8   9
ENDBRANCH   7   8
ENDBRANCH   6   7
ENDBRANCH   5   6
ENDBRANCH   4   5
ENDBRANCH   3   4
ENDBRANCH   2   3
ENDBRANCH   1   2
BRANCH   1  18
ATOM     18  C   UNL     1      47.545  23.191  56.067  1.00  0.00     0.000 C 
BRANCH  18  19
ATOM     19  C   UNL     1      49.049  23.226  56.389  1.00  0.00     0.000 C 
BRANCH  19  20
ATOM     20  C   UNL     1      49.700  24.585  56.070  1.00  0.00     0.000 C 
BRANCH  20  21
ATOM     21  C   UNL     1      51.025  24.506  55.288  1.00  0.00     0.000 C 
BRANCH  21  22
ATOM     22  C   UNL     1      51.243  23.200  54.497  1.00  0.00     0.000 C 
BRANCH  22  23
ATOM     23  C   UNL     1      51.126  23.337  52.965  1.00  0.00     0.000 C 
BRANCH  23  24
ATOM     24  C   UNL     1      52.386  22.931  52.181  1.00  0.00    -0.000 C 
BRANCH  24  25
ATOM     25  C   UNL     1      52.513  21.411  52.008  1.00  0.00    -0.000 C 
BRANCH  25  26
ATOM     26  C   UNL     1      53.386  21.068  50.793  1.00  0.00    -0.000 C 
BRANCH  26  27
ATOM     27  C   UNL     1      52.569  20.564  49.589  1.00  0.00    -0.000 C 
BRANCH  27  28
ATOM     28  C   UNL     1      51.033  20.636  49.750  1.00  0.00    -0.000 C 
BRANCH  28  29
ATOM     29  C   UNL     1      50.325  19.275  49.901  1.00  0.00    -0.000 C 
BRANCH  29  30
ATOM     30  C   UNL     1      48.897  19.381  50.485  1.00  0.00    -0.000 C 
BRANCH  30  31
ATOM     31  C   UNL     1      48.200  20.708  50.144  1.00  0.00    -0.003 C 
ATOM     32  C   UNL     1      47.949  21.575  51.376  1.00  0.00     0.004 C 
ENDBRANCH  30  31
ENDBRANCH  29  30
ENDBRANCH  28  29
ENDBRANCH  27  28
ENDBRANCH  26  27
ENDBRANCH  25  26
ENDBRANCH  24  25
ENDBRANCH  23  24
ENDBRANCH  22  23
ENDBRANCH  21  22
ENDBRANCH  20  21
ENDBRANCH  19  20
ENDBRANCH  18  19
ENDBRANCH   1  18
TORSDOF 28
ENDMDL
MODEL 6
REMARK VINA RESULT:    -4.326      1.737      5.600
REMARK INTER + INTRA:         -16.122
REMARK INTER:                 -11.226
REMARK INTRA:                  -4.896
REMARK UNBOUND:                -4.713
REMARK SMILES CCCCCCCCCCCCCCCCCCCCCCCCCCCCCC(=O)[O-]
REMARK SMILES IDX 16 1 17 2 18 3 19 4 20 5 21 6 22 7 23 8 24 9 25 10 26 11
REMARK SMILES IDX 27 12 28 13 29 14 30 15 31 16 32 17 15 18 14 19 13 20 12 21
REMARK SMILES IDX 11 22 10 23 9 24 8 25 7 26 6 27 5 28 4 29 3 30 2 31 1 32
REMARK H PARENT
REMARK Flexibility Score: inf
ROOT
ATOM      1  C   UNL     1      53.308  22.692  52.973  1.00  0.00     0.000 C 
ENDROOT
BRANCH   1   2
ATOM      2  C   UNL     1      52.959  21.398  52.211  1.00  0.00     0.000 C 
BRANCH   2   3
ATOM      3  C   UNL     1      53.495  21.317  50.772  1.00  0.00     0.000 C 
BRANCH   3   4
ATOM      4  C   UNL     1      52.523  20.610  49.812  1.00  0.00     0.000 C 
BRANCH   4   5
ATOM      5  C   UNL     1      51.186  20.248  50.481  1.00  0.00     0.000 C 
BRANCH   5   6
ATOM      6  C   UNL     1      49.957  21.014  49.950  1.00  0.00     0.000 C 
BRANCH   6   7
ATOM      7  C   UNL     1      48.690  20.165  49.734  1.00  0.00     0.000 C 
BRANCH   7   8
ATOM      8  C   UNL     1      47.427  20.816  50.324  1.00  0.00     0.000 C 
BRANCH   8   9
ATOM      9  C   UNL     1      46.829  20.009  51.492  1.00  0.00     0.000 C 
BRANCH   9  10
ATOM     10  C   UNL     1      45.834  18.902  51.088  1.00  0.00     0.000 C 
BRANCH  10  11
ATOM     11  C   UNL     1      45.508  17.880  52.191  1.00  0.00     0.000 C 
BRANCH  11  12
ATOM     12  C   UNL     1      44.006  17.585  52.307  1.00  0.00     0.000 C 
BRANCH  12  13
ATOM     13  C   UNL     1      43.278  18.720  53.043  1.00  0.00     0.006 C 
BRANCH  13  14
ATOM     14  C   UNL     1      43.687  18.811  54.520  1.00  0.00     0.053 C 
BRANCH  14  15
ATOM     15  C   UNL     1      42.544  18.498  55.437  1.00  0.00     0.041 C 
ATOM     16  O   UNL     1      42.760  17.980  56.565  1.00  0.00    -0.550 OA
ATOM     17  O   UNL     1      41.239  18.748  55.032  1.00  0.00    -0.550 OA
ENDBRANCH  14  15
ENDBRANCH  13  14
ENDBRANCH  12  13
ENDBRANCH  11  12
ENDBRANCH  10  11
ENDBRANCH   9  10
ENDBRANCH   8   9
ENDBRANCH   7   8
ENDBRANCH   6   7
ENDBRANCH   5   6
ENDBRANCH   4   5
ENDBRANCH   3   4
ENDBRANCH   2   3
ENDBRANCH   1   2
BRANCH   1  18
ATOM     18  C   UNL     1      53.173  23.977  52.131  1.00  0.00     0.000 C 
BRANCH  18  19
ATOM     19  C   UNL     1      51.897  24.767  52.467  1.00  0.00     0.000 C 
BRANCH  19  20
ATOM     20  C   UNL     1      50.655  24.250  51.716  1.00  0.00     0.000 C 
BRANCH  20  21
ATOM     21  C   UNL     1      49.311  24.494  52.430  1.00  0.00     0.000 C 
BRANCH  21  22
ATOM     22  C   UNL     1      48.558  23.220  52.862  1.00  0.00     0.000 C 
BRANCH  22  23
ATOM     23  C   UNL     1      49.450  22.091  53.419  1.00  0.00     0.000 C 
BRANCH  23  24
ATOM     24  C   UNL     1      48.902  21.393  54.676  1.00  0.00    -0.000 C 
BRANCH  24  25
ATOM     25  C   UNL     1      47.376  21.502  54.797  1.00  0.00    -0.000 C 
BRANCH  25  26
ATOM     26  C   UNL     1      46.971  22.007  56.189  1.00  0.00    -0.000 C 
BRANCH  26  27
ATOM     27  C   UNL     1      47.463  23.439  56.475  1.00  0.00    -0.000 C 
BRANCH  27  28
ATOM     28  C   UNL     1      48.164  23.642  57.838  1.00  0.00    -0.000 C 
BRANCH  28  29
ATOM     29  C   UNL     1      49.664  23.987  57.759  1.00  0.00    -0.000 C 
BRANCH  29  30
ATOM     30  C   UNL     1      50.122  24.442  56.354  1.00  0.00    -0.000 C 
BRANCH  30  31
ATOM     31  C   UNL     1      51.473  23.841  55.933  1.00  0.00    -0.003 C 
ATOM     32  C   UNL     1      52.322  23.407  57.126  1.00  0.00     0.004 C 
ENDBRANCH  30  31
ENDBRANCH  29  30
ENDBRANCH  28  29
ENDBRANCH  27  28
ENDBRANCH  26  27
ENDBRANCH  25  26
ENDBRANCH  24  25
ENDBRANCH  23  24
ENDBRANCH  22  23
ENDBRANCH  21  22
ENDBRANCH  20  21
ENDBRANCH  19  20
ENDBRANCH  18  19
ENDBRANCH   1  18
TORSDOF 28
ENDMDL
MODEL 7
REMARK VINA RESULT:    -4.279      2.179      5.301
REMARK INTER + INTRA:         -15.996
REMARK INTER:                 -11.773
REMARK INTRA:                  -4.223
REMARK UNBOUND:                -4.713
REMARK SMILES CCCCCCCCCCCCCCCCCCCCCCCCCCCCCC(=O)[O-]
REMARK SMILES IDX 16 1 17 2 18 3 19 4 20 5 21 6 22 7 23 8 24 9 25 10 26 11
REMARK SMILES IDX 27 12 28 13 29 14 30 15 31 16 32 17 15 18 14 19 13 20 12 21
REMARK SMILES IDX 11 22 10 23 9 24 8 25 7 26 6 27 5 28 4 29 3 30 2 31 1 32
REMARK H PARENT
REMARK Flexibility Score: inf
ROOT
ATOM      1  C   UNL     1      48.943  22.190  52.308  1.00  0.00     0.000 C 
ENDROOT
BRANCH   1   2
ATOM      2  C   UNL     1      48.856  21.369  51.006  1.00  0.00     0.000 C 
BRANCH   2   3
ATOM      3  C   UNL     1      47.449  20.872  50.634  1.00  0.00     0.000 C 
BRANCH   3   4
ATOM      4  C   UNL     1      47.167  19.447  51.137  1.00  0.00     0.000 C 
BRANCH   4   5
ATOM      5  C   UNL     1      45.664  19.153  51.279  1.00  0.00     0.000 C 
BRANCH   5   6
ATOM      6  C   UNL     1      45.310  17.965  52.198  1.00  0.00     0.000 C 
BRANCH   6   7
ATOM      7  C   UNL     1      43.825  17.554  52.205  1.00  0.00     0.000 C 
BRANCH   7   8
ATOM      8  C   UNL     1      42.898  18.654  51.663  1.00  0.00     0.000 C 
BRANCH   8   9
ATOM      9  C   UNL     1      42.188  19.442  52.780  1.00  0.00     0.000 C 
BRANCH   9  10
ATOM     10  C   UNL     1      42.560  19.027  54.218  1.00  0.00     0.000 C 
BRANCH  10  11
ATOM     11  C   UNL     1      43.209  20.131  55.070  1.00  0.00     0.000 C 
BRANCH  11  12
ATOM     12  C   UNL     1      44.651  19.800  55.480  1.00  0.00     0.000 C 
BRANCH  12  13
ATOM     13  C   UNL     1      45.655  20.673  54.713  1.00  0.00     0.006 C 
BRANCH  13  14
ATOM     14  C   UNL     1      46.901  20.997  55.548  1.00  0.00     0.053 C 
BRANCH  14  15
ATOM     15  C   UNL     1      46.966  22.447  55.917  1.00  0.00     0.041 C 
ATOM     16  O   UNL     1      47.855  22.861  56.708  1.00  0.00    -0.550 OA
ATOM     17  O   UNL     1      46.024  23.336  55.413  1.00  0.00    -0.550 OA
ENDBRANCH  14  15
ENDBRANCH  13  14
ENDBRANCH  12  13
ENDBRANCH  11  12
ENDBRANCH  10  11
ENDBRANCH   9  10
ENDBRANCH   8   9
ENDBRANCH   7   8
ENDBRANCH   6   7
ENDBRANCH   5   6
ENDBRANCH   4   5
ENDBRANCH   3   4
ENDBRANCH   2   3
ENDBRANCH   1   2
BRANCH   1  18
ATOM     18  C   UNL     1      47.897  23.319  52.414  1.00  0.00     0.000 C 
BRANCH  18  19
ATOM     19  C   UNL     1      48.544  24.708  52.553  1.00  0.00     0.000 C 
BRANCH  19  20
ATOM     20  C   UNL     1      50.055  24.698  52.252  1.00  0.00     0.000 C 
BRANCH  20  21
ATOM     21  C   UNL     1      50.966  24.955  53.468  1.00  0.00     0.000 C 
BRANCH  21  22
ATOM     22  C   UNL     1      50.396  24.487  54.823  1.00  0.00     0.000 C 
BRANCH  22  23
ATOM     23  C   UNL     1      51.444  23.966  55.828  1.00  0.00     0.000 C 
BRANCH  23  24
ATOM     24  C   UNL     1      52.731  23.412  55.191  1.00  0.00    -0.000 C 
BRANCH  24  25
ATOM     25  C   UNL     1      52.849  21.887  55.321  1.00  0.00    -0.000 C 
BRANCH  25  26
ATOM     26  C   UNL     1      52.429  21.191  54.019  1.00  0.00    -0.000 C 
BRANCH  26  27
ATOM     27  C   UNL     1      53.274  21.625  52.806  1.00  0.00    -0.000 C 
BRANCH  27  28
ATOM     28  C   UNL     1      52.485  21.867  51.499  1.00  0.00    -0.000 C 
BRANCH  28  29
ATOM     29  C   UNL     1      52.182  20.603  50.671  1.00  0.00    -0.000 C 
BRANCH  29  30
ATOM     30  C   UNL     1      52.862  20.592  49.283  1.00  0.00    -0.000 C 
BRANCH  30  31
ATOM     31  C   UNL     1      54.380  20.364  49.354  1.00  0.00    -0.003 C 
ATOM     32  C   UNL     1      55.151  21.210  48.342  1.00  0.00     0.004 C 
ENDBRANCH  30  31
ENDBRANCH  29  30
ENDBRANCH  28  29
ENDBRANCH  27  28
ENDBRANCH  26  27
ENDBRANCH  25  26
ENDBRANCH  24  25
ENDBRANCH  23  24
ENDBRANCH  22  23
ENDBRANCH  21  22
ENDBRANCH  20  21
ENDBRANCH  19  20
ENDBRANCH  18  19
ENDBRANCH   1  18
TORSDOF 28
ENDMDL
MODEL 8
REMARK VINA RESULT:    -4.272      4.207      9.219
REMARK INTER + INTRA:         -15.977
REMARK INTER:                 -13.792
REMARK INTRA:                  -2.185
REMARK UNBOUND:                -4.713
REMARK SMILES CCCCCCCCCCCCCCCCCCCCCCCCCCCCCC(=O)[O-]
REMARK SMILES IDX 16 1 17 2 18 3 19 4 20 5 21 6 22 7 23 8 24 9 25 10 26 11
REMARK SMILES IDX 27 12 28 13 29 14 30 15 31 16 32 17 15 18 14 19 13 20 12 21
REMARK SMILES IDX 11 22 10 23 9 24 8 25 7 26 6 27 5 28 4 29 3 30 2 31 1 32
REMARK H PARENT
REMARK Flexibility Score: inf
ROOT
ATOM      1  C   UNL     1      48.807  23.233  52.472  1.00  0.00     0.000 C 
ENDROOT
BRANCH   1   2
ATOM      2  C   UNL     1      48.450  21.746  52.272  1.00  0.00     0.000 C 
BRANCH   2   3
ATOM      3  C   UNL     1      47.719  21.416  50.959  1.00  0.00     0.000 C 
BRANCH   3   4
ATOM      4  C   UNL     1      48.469  20.382  50.103  1.00  0.00     0.000 C 
BRANCH   4   5
ATOM      5  C   UNL     1      49.924  20.175  50.559  1.00  0.00     0.000 C 
BRANCH   5   6
ATOM      6  C   UNL     1      50.964  21.076  49.862  1.00  0.00     0.000 C 
BRANCH   6   7
ATOM      7  C   UNL     1      52.394  20.505  49.793  1.00  0.00     0.000 C 
BRANCH   7   8
ATOM      8  C   UNL     1      53.376  21.242  50.719  1.00  0.00     0.000 C 
BRANCH   8   9
ATOM      9  C   UNL     1      52.798  21.494  52.124  1.00  0.00     0.000 C 
BRANCH   9  10
ATOM     10  C   UNL     1      52.779  22.969  52.574  1.00  0.00     0.000 C 
BRANCH  10  11
ATOM     11  C   UNL     1      53.971  23.816  52.093  1.00  0.00     0.000 C 
BRANCH  11  12
ATOM     12  C   UNL     1      54.868  24.292  53.244  1.00  0.00     0.000 C 
BRANCH  12  13
ATOM     13  C   UNL     1      54.685  23.406  54.486  1.00  0.00     0.006 C 
BRANCH  13  14
ATOM     14  C   UNL     1      55.990  23.231  55.273  1.00  0.00     0.053 C 
BRANCH  14  15
ATOM     15  C   UNL     1      55.765  23.300  56.752  1.00  0.00     0.041 C 
ATOM     16  O   UNL     1      56.283  22.439  57.513  1.00  0.00    -0.550 OA
ATOM     17  O   UNL     1      54.957  24.295  57.288  1.00  0.00    -0.550 OA
ENDBRANCH  14  15
ENDBRANCH  13  14
ENDBRANCH  12  13
ENDBRANCH  11  12
ENDBRANCH  10  11
ENDBRANCH   9  10
ENDBRANCH   8   9
ENDBRANCH   7   8
ENDBRANCH   6   7
ENDBRANCH   5   6
ENDBRANCH   4   5
ENDBRANCH   3   4
ENDBRANCH   2   3
ENDBRANCH   1   2
BRANCH   1  18
ATOM     18  C   UNL     1      47.585  24.174  52.529  1.00  0.00     0.000 C 
BRANCH  18  19
ATOM     19  C   UNL     1      47.471  24.905  53.878  1.00  0.00     0.000 C 
BRANCH  19  20
ATOM     20  C   UNL     1      46.464  24.241  54.836  1.00  0.00     0.000 C 
BRANCH  20  21
ATOM     21  C   UNL     1      45.051  24.857  54.828  1.00  0.00     0.000 C 
BRANCH  21  22
ATOM     22  C   UNL     1      43.910  23.884  55.193  1.00  0.00     0.000 C 
BRANCH  22  23
ATOM     23  C   UNL     1      42.509  24.523  55.278  1.00  0.00     0.000 C 
BRANCH  23  24
ATOM     24  C   UNL     1      41.338  23.529  55.181  1.00  0.00    -0.000 C 
BRANCH  24  25
ATOM     25  C   UNL     1      41.804  22.068  55.113  1.00  0.00    -0.000 C 
BRANCH  25  26
ATOM     26  C   UNL     1      41.126  21.330  53.950  1.00  0.00    -0.000 C 
BRANCH  26  27
ATOM     27  C   UNL     1      41.469  19.829  53.908  1.00  0.00    -0.000 C 
BRANCH  27  28
ATOM     28  C   UNL     1      42.796  19.431  54.595  1.00  0.00    -0.000 C 
BRANCH  28  29
ATOM     29  C   UNL     1      43.476  18.170  54.027  1.00  0.00    -0.000 C 
BRANCH  29  30
ATOM     30  C   UNL     1      44.580  18.475  52.989  1.00  0.00    -0.000 C 
BRANCH  30  31
ATOM     31  C   UNL     1      44.124  18.261  51.537  1.00  0.00    -0.003 C 
ATOM     32  C   UNL     1      43.971  16.784  51.180  1.00  0.00     0.004 C 
ENDBRANCH  30  31
ENDBRANCH  29  30
ENDBRANCH  28  29
ENDBRANCH  27  28
ENDBRANCH  26  27
ENDBRANCH  25  26
ENDBRANCH  24  25
ENDBRANCH  23  24
ENDBRANCH  22  23
ENDBRANCH  21  22
ENDBRANCH  20  21
ENDBRANCH  19  20
ENDBRANCH  18  19
ENDBRANCH   1  18
TORSDOF 28
ENDMDL
MODEL 9
REMARK VINA RESULT:    -4.251      2.594      7.577
REMARK INTER + INTRA:         -15.924
REMARK INTER:                 -11.990
REMARK INTRA:                  -3.934
REMARK UNBOUND:                -4.713
REMARK SMILES CCCCCCCCCCCCCCCCCCCCCCCCCCCCCC(=O)[O-]
REMARK SMILES IDX 16 1 17 2 18 3 19 4 20 5 21 6 22 7 23 8 24 9 25 10 26 11
REMARK SMILES IDX 27 12 28 13 29 14 30 15 31 16 32 17 15 18 14 19 13 20 12 21
REMARK SMILES IDX 11 22 10 23 9 24 8 25 7 26 6 27 5 28 4 29 3 30 2 31 1 32
REMARK H PARENT
REMARK Flexibility Score: inf
ROOT
ATOM      1  C   UNL     1      47.610  21.759  53.961  1.00  0.00     0.000 C 
ENDROOT
BRANCH   1   2
ATOM      2  C   UNL     1      48.183  22.417  52.690  1.00  0.00     0.000 C 
BRANCH   2   3
ATOM      3  C   UNL     1      47.723  23.862  52.433  1.00  0.00     0.000 C 
BRANCH   3   4
ATOM      4  C   UNL     1      48.856  24.888  52.599  1.00  0.00     0.000 C 
BRANCH   4   5
ATOM      5  C   UNL     1      50.213  24.230  52.904  1.00  0.00     0.000 C 
BRANCH   5   6
ATOM      6  C   UNL     1      50.943  24.776  54.149  1.00  0.00     0.000 C 
BRANCH   6   7
ATOM      7  C   UNL     1      50.934  23.850  55.381  1.00  0.00     0.000 C 
BRANCH   7   8
ATOM      8  C   UNL     1      51.053  22.362  55.010  1.00  0.00     0.000 C 
BRANCH   8   9
ATOM      9  C   UNL     1      52.514  21.885  54.913  1.00  0.00     0.000 C 
BRANCH   9  10
ATOM     10  C   UNL     1      52.884  21.154  53.607  1.00  0.00     0.000 C 
BRANCH  10  11
ATOM     11  C   UNL     1      53.154  22.070  52.399  1.00  0.00     0.000 C 
BRANCH  11  12
ATOM     12  C   UNL     1      52.243  21.763  51.202  1.00  0.00     0.000 C 
BRANCH  12  13
ATOM     13  C   UNL     1      51.229  20.663  51.551  1.00  0.00     0.006 C 
BRANCH  13  14
ATOM     14  C   UNL     1      50.829  19.831  50.325  1.00  0.00     0.053 C 
BRANCH  14  15
ATOM     15  C   UNL     1      49.354  19.883  50.070  1.00  0.00     0.041 C 
ATOM     16  O   UNL     1      48.627  18.893  50.349  1.00  0.00    -0.550 OA
ATOM     17  O   UNL     1      48.787  21.014  49.495  1.00  0.00    -0.550 OA
ENDBRANCH  14  15
ENDBRANCH  13  14
ENDBRANCH  12  13
ENDBRANCH  11  12
ENDBRANCH  10  11
ENDBRANCH   9  10
ENDBRANCH   8   9
ENDBRANCH   7   8
ENDBRANCH   6   7
ENDBRANCH   5   6
ENDBRANCH   4   5
ENDBRANCH   3   4
ENDBRANCH   2   3
ENDBRANCH   1   2
BRANCH   1  18
ATOM     18  C   UNL     1      47.296  22.751  55.100  1.00  0.00     0.000 C 
BRANCH  18  19
ATOM     19  C   UNL     1      45.800  23.101  55.177  1.00  0.00     0.000 C 
BRANCH  19  20
ATOM     20  C   UNL     1      45.541  24.617  55.254  1.00  0.00     0.000 C 
BRANCH  20  21
ATOM     21  C   UNL     1      44.157  25.070  54.747  1.00  0.00     0.000 C 
BRANCH  21  22
ATOM     22  C   UNL     1      43.010  24.937  55.769  1.00  0.00     0.000 C 
BRANCH  22  23
ATOM     23  C   UNL     1      41.605  24.770  55.155  1.00  0.00     0.000 C 
BRANCH  23  24
ATOM     24  C   UNL     1      40.917  23.430  55.468  1.00  0.00    -0.000 C 
BRANCH  24  25
ATOM     25  C   UNL     1      41.750  22.217  55.029  1.00  0.00    -0.000 C 
BRANCH  25  26
ATOM     26  C   UNL     1      41.054  21.457  53.892  1.00  0.00    -0.000 C 
BRANCH  26  27
ATOM     27  C   UNL     1      41.252  19.932  53.979  1.00  0.00    -0.000 C 
BRANCH  27  28
ATOM     28  C   UNL     1      42.032  19.432  55.217  1.00  0.00    -0.000 C 
BRANCH  28  29
ATOM     29  C   UNL     1      43.109  18.368  54.928  1.00  0.00    -0.000 C 
BRANCH  29  30
ATOM     30  C   UNL     1      44.157  18.814  53.883  1.00  0.00    -0.000 C 
BRANCH  30  31
ATOM     31  C   UNL     1      44.285  17.842  52.700  1.00  0.00    -0.003 C 
ATOM     32  C   UNL     1      43.572  18.342  51.446  1.00  0.00     0.004 C 
ENDBRANCH  30  31
ENDBRANCH  29  30
ENDBRANCH  28  29
ENDBRANCH  27  28
ENDBRANCH  26  27
ENDBRANCH  25  26
ENDBRANCH  24  25
ENDBRANCH  23  24
ENDBRANCH  22  23
ENDBRANCH  21  22
ENDBRANCH  20  21
ENDBRANCH  19  20
ENDBRANCH  18  19
ENDBRANCH   1  18
TORSDOF 28
ENDMDL
