MODEL 1
REMARK VINA RESULT:    -6.563      0.000      0.000
REMARK INTER + INTRA:          -7.162
REMARK INTER:                  -7.138
REMARK INTRA:                  -0.024
REMARK UNBOUND:                -0.024
REMARK SMILES COc1cc2ccc(=O)oc2cc1O
REMARK SMILES IDX 3 1 13 2 12 3 11 4 5 5 4 6 6 7 7 8 8 9 9 10 10 11 2 12 1 13
REMARK SMILES IDX 14 14
REMARK H PARENT 14 15
REMARK Flexibility Score: inf
ROOT
ATOM      1  C   UNL     1      56.266  16.992   0.616  1.00  0.00     0.161 A 
ATOM      2  C   UNL     1      55.739  17.109  -0.680  1.00  0.00     0.161 A 
ATOM      3  C   UNL     1      54.373  17.367  -0.869  1.00  0.00     0.098 A 
ATOM      4  C   UNL     1      53.525  17.509   0.231  1.00  0.00     0.142 A 
ATOM      5  C   UNL     1      54.046  17.392   1.537  1.00  0.00     0.022 A 
ATOM      6  C   UNL     1      55.410  17.134   1.727  1.00  0.00     0.062 A 
ATOM      7  C   UNL     1      53.170  17.539   2.619  1.00  0.00     0.019 A 
ATOM      8  C   UNL     1      51.820  17.795   2.378  1.00  0.00     0.094 A 
ATOM      9  C   UNL     1      51.376  17.898   1.055  1.00  0.00     0.336 A 
ATOM     10  O   UNL     1      50.162  18.128   0.817  1.00  0.00    -0.246 OA
ATOM     11  O   UNL     1      52.230  17.753   0.044  1.00  0.00    -0.423 OA
ENDROOT
BRANCH   1  12
ATOM     12  O   UNL     1      57.638  16.733   0.758  1.00  0.00    -0.493 OA
ATOM     13  C   UNL     1      58.217  15.432   0.764  1.00  0.00     0.278 C 
ENDBRANCH   1  12
BRANCH   2  14
ATOM     14  O   UNL     1      56.583  16.968  -1.780  1.00  0.00    -0.504 OA
ATOM     15  H   UNL     1      57.164  17.731  -2.106  1.00  0.00     0.293 HD
ENDBRANCH   2  14
TORSDOF 2
ENDMDL
MODEL 2
REMARK VINA RESULT:    -6.517      2.785      3.539
REMARK INTER + INTRA:          -7.112
REMARK INTER:                  -7.168
REMARK INTRA:                   0.056
REMARK UNBOUND:                -0.024
REMARK SMILES COc1cc2ccc(=O)oc2cc1O
REMARK SMILES IDX 3 1 13 2 12 3 11 4 5 5 4 6 6 7 7 8 8 9 9 10 10 11 2 12 1 13
REMARK SMILES IDX 14 14
REMARK H PARENT 14 15
REMARK Flexibility Score: inf
ROOT
ATOM      1  C   UNL     1      54.220  14.080  -0.136  1.00  0.00     0.161 A 
ATOM      2  C   UNL     1      53.940  14.508   1.171  1.00  0.00     0.161 A 
ATOM      3  C   UNL     1      53.173  15.662   1.389  1.00  0.00     0.098 A 
ATOM      4  C   UNL     1      52.680  16.395   0.308  1.00  0.00     0.142 A 
ATOM      5  C   UNL     1      52.958  15.972  -1.010  1.00  0.00     0.022 A 
ATOM      6  C   UNL     1      53.724  14.820  -1.229  1.00  0.00     0.062 A 
ATOM      7  C   UNL     1      52.450  16.728  -2.072  1.00  0.00     0.019 A 
ATOM      8  C   UNL     1      51.692  17.868  -1.802  1.00  0.00     0.094 A 
ATOM      9  C   UNL     1      51.459  18.226  -0.470  1.00  0.00     0.336 A 
ATOM     10  O   UNL     1      50.777  19.250  -0.205  1.00  0.00    -0.246 OA
ATOM     11  O   UNL     1      51.952  17.489   0.522  1.00  0.00    -0.423 OA
ENDROOT
BRANCH   1  12
ATOM     12  O   UNL     1      54.992  12.920  -0.308  1.00  0.00    -0.493 OA
ATOM     13  C   UNL     1      56.406  12.862  -0.147  1.00  0.00     0.278 C 
ENDBRANCH   1  12
BRANCH   2  14
ATOM     14  O   UNL     1      54.430  13.778   2.253  1.00  0.00    -0.504 OA
ATOM     15  H   UNL     1      54.021  12.892   2.524  1.00  0.00     0.293 HD
ENDBRANCH   2  14
TORSDOF 2
ENDMDL
MODEL 3
REMARK VINA RESULT:    -6.489      2.459      5.270
REMARK INTER + INTRA:          -7.081
REMARK INTER:                  -7.107
REMARK INTRA:                   0.026
REMARK UNBOUND:                -0.024
REMARK SMILES COc1cc2ccc(=O)oc2cc1O
REMARK SMILES IDX 3 1 13 2 12 3 11 4 5 5 4 6 6 7 7 8 8 9 9 10 10 11 2 12 1 13
REMARK SMILES IDX 14 14
REMARK H PARENT 14 15
REMARK Flexibility Score: inf
ROOT
ATOM      1  C   UNL     1      52.922  16.876  -1.404  1.00  0.00     0.161 A 
ATOM      2  C   UNL     1      54.018  17.668  -1.027  1.00  0.00     0.161 A 
ATOM      3  C   UNL     1      55.173  17.073  -0.499  1.00  0.00     0.098 A 
ATOM      4  C   UNL     1      55.244  15.687  -0.345  1.00  0.00     0.142 A 
ATOM      5  C   UNL     1      54.146  14.883  -0.720  1.00  0.00     0.022 A 
ATOM      6  C   UNL     1      52.991  15.477  -1.247  1.00  0.00     0.062 A 
ATOM      7  C   UNL     1      54.247  13.498  -0.553  1.00  0.00     0.019 A 
ATOM      8  C   UNL     1      55.418  12.955  -0.024  1.00  0.00     0.094 A 
ATOM      9  C   UNL     1      56.465  13.814   0.327  1.00  0.00     0.336 A 
ATOM     10  O   UNL     1      57.530  13.344   0.805  1.00  0.00    -0.246 OA
ATOM     11  O   UNL     1      56.343  15.129   0.157  1.00  0.00    -0.423 OA
ENDROOT
BRANCH   1  12
ATOM     12  O   UNL     1      51.786  17.514  -1.927  1.00  0.00    -0.493 OA
ATOM     13  C   UNL     1      50.785  18.152  -1.140  1.00  0.00     0.278 C 
ENDBRANCH   1  12
BRANCH   2  14
ATOM     14  O   UNL     1      53.951  19.052  -1.180  1.00  0.00    -0.504 OA
ATOM     15  H   UNL     1      54.287  19.510  -2.018  1.00  0.00     0.293 HD
ENDBRANCH   2  14
TORSDOF 2
ENDMDL
MODEL 4
REMARK VINA RESULT:    -6.483      1.894      5.270
REMARK INTER + INTRA:          -7.075
REMARK INTER:                  -7.096
REMARK INTRA:                   0.021
REMARK UNBOUND:                -0.024
REMARK SMILES COc1cc2ccc(=O)oc2cc1O
REMARK SMILES IDX 3 1 13 2 12 3 11 4 5 5 4 6 6 7 7 8 8 9 9 10 10 11 2 12 1 13
REMARK SMILES IDX 14 14
REMARK H PARENT 14 15
REMARK Flexibility Score: inf
ROOT
ATOM      1  C   UNL     1      53.112  17.097   2.075  1.00  0.00     0.161 A 
ATOM      2  C   UNL     1      52.821  15.782   1.680  1.00  0.00     0.161 A 
ATOM      3  C   UNL     1      53.820  14.976   1.112  1.00  0.00     0.098 A 
ATOM      4  C   UNL     1      55.112  15.475   0.937  1.00  0.00     0.142 A 
ATOM      5  C   UNL     1      55.413  16.796   1.331  1.00  0.00     0.022 A 
ATOM      6  C   UNL     1      54.416  17.603   1.898  1.00  0.00     0.062 A 
ATOM      7  C   UNL     1      56.717  17.267   1.142  1.00  0.00     0.019 A 
ATOM      8  C   UNL     1      57.673  16.426   0.574  1.00  0.00     0.094 A 
ATOM      9  C   UNL     1      57.302  15.128   0.207  1.00  0.00     0.336 A 
ATOM     10  O   UNL     1      58.151  14.354  -0.307  1.00  0.00    -0.246 OA
ATOM     11  O   UNL     1      56.055  14.705   0.398  1.00  0.00    -0.423 OA
ENDROOT
BRANCH   1  12
ATOM     12  O   UNL     1      52.082  17.868   2.638  1.00  0.00    -0.493 OA
ATOM     13  C   UNL     1      51.084  18.552   1.887  1.00  0.00     0.278 C 
ENDBRANCH   1  12
BRANCH   2  14
ATOM     14  O   UNL     1      51.532  15.281   1.854  1.00  0.00    -0.504 OA
ATOM     15  H   UNL     1      51.364  14.404   2.331  1.00  0.00     0.293 HD
ENDBRANCH   2  14
TORSDOF 2
ENDMDL
MODEL 5
REMARK VINA RESULT:    -6.235      1.252      5.502
REMARK INTER + INTRA:          -6.806
REMARK INTER:                  -6.747
REMARK INTRA:                  -0.060
REMARK UNBOUND:                -0.024
REMARK SMILES COc1cc2ccc(=O)oc2cc1O
REMARK SMILES IDX 3 1 13 2 12 3 11 4 5 5 4 6 6 7 7 8 8 9 9 10 10 11 2 12 1 13
REMARK SMILES IDX 14 14
REMARK H PARENT 14 15
REMARK Flexibility Score: inf
ROOT
ATOM      1  C   UNL     1      51.378  17.926   0.980  1.00  0.00     0.161 A 
ATOM      2  C   UNL     1      51.904  17.867   2.280  1.00  0.00     0.161 A 
ATOM      3  C   UNL     1      53.260  17.571   2.482  1.00  0.00     0.098 A 
ATOM      4  C   UNL     1      54.099  17.333   1.391  1.00  0.00     0.142 A 
ATOM      5  C   UNL     1      53.578  17.390   0.081  1.00  0.00     0.022 A 
ATOM      6  C   UNL     1      52.223  17.685  -0.122  1.00  0.00     0.062 A 
ATOM      7  C   UNL     1      54.444  17.146  -0.991  1.00  0.00     0.019 A 
ATOM      8  C   UNL     1      55.784  16.856  -0.737  1.00  0.00     0.094 A 
ATOM      9  C   UNL     1      56.229  16.816   0.589  1.00  0.00     0.336 A 
ATOM     10  O   UNL     1      57.435  16.557   0.839  1.00  0.00    -0.246 OA
ATOM     11  O   UNL     1      55.385  17.052   1.590  1.00  0.00    -0.423 OA
ENDROOT
BRANCH   1  12
ATOM     12  O   UNL     1      50.015  18.226   0.825  1.00  0.00    -0.493 OA
ATOM     13  C   UNL     1      49.512  19.344   0.100  1.00  0.00     0.278 C 
ENDBRANCH   1  12
BRANCH   2  14
ATOM     14  O   UNL     1      51.070  18.104   3.371  1.00  0.00    -0.504 OA
ATOM     15  H   UNL     1      50.118  17.759   3.396  1.00  0.00     0.293 HD
ENDBRANCH   2  14
TORSDOF 2
ENDMDL
MODEL 6
REMARK VINA RESULT:    -6.169      2.706      5.063
REMARK INTER + INTRA:          -6.734
REMARK INTER:                  -6.676
REMARK INTRA:                  -0.058
REMARK UNBOUND:                -0.024
REMARK SMILES COc1cc2ccc(=O)oc2cc1O
REMARK SMILES IDX 3 1 13 2 12 3 11 4 5 5 4 6 6 7 7 8 8 9 9 10 10 11 2 12 1 13
REMARK SMILES IDX 14 14
REMARK H PARENT 14 15
REMARK Flexibility Score: inf
ROOT
ATOM      1  C   UNL     1      51.421  18.227  -0.274  1.00  0.00     0.161 A 
ATOM      2  C   UNL     1      51.670  17.822  -1.594  1.00  0.00     0.161 A 
ATOM      3  C   UNL     1      52.467  16.696  -1.852  1.00  0.00     0.098 A 
ATOM      4  C   UNL     1      53.018  15.968  -0.796  1.00  0.00     0.142 A 
ATOM      5  C   UNL     1      52.774  16.368   0.535  1.00  0.00     0.022 A 
ATOM      6  C   UNL     1      51.979  17.493   0.793  1.00  0.00     0.062 A 
ATOM      7  C   UNL     1      53.342  15.618   1.571  1.00  0.00     0.019 A 
ATOM      8  C   UNL     1      54.126  14.506   1.262  1.00  0.00     0.094 A 
ATOM      9  C   UNL     1      54.325  14.170  -0.081  1.00  0.00     0.336 A 
ATOM     10  O   UNL     1      55.029  13.171  -0.381  1.00  0.00    -0.246 OA
ATOM     11  O   UNL     1      53.773  14.900  -1.048  1.00  0.00    -0.423 OA
ENDROOT
BRANCH   1  12
ATOM     12  O   UNL     1      50.619  19.360  -0.062  1.00  0.00    -0.493 OA
ATOM     13  C   UNL     1      49.443  19.377   0.741  1.00  0.00     0.278 C 
ENDBRANCH   1  12
BRANCH   2  14
ATOM     14  O   UNL     1      51.120  18.547  -2.650  1.00  0.00    -0.504 OA
ATOM     15  H   UNL     1      51.376  19.512  -2.822  1.00  0.00     0.293 HD
ENDBRANCH   2  14
TORSDOF 2
ENDMDL
MODEL 7
REMARK VINA RESULT:    -6.137      1.951      2.576
REMARK INTER + INTRA:          -6.699
REMARK INTER:                  -6.639
REMARK INTRA:                  -0.059
REMARK UNBOUND:                -0.024
REMARK SMILES COc1cc2ccc(=O)oc2cc1O
REMARK SMILES IDX 3 1 13 2 12 3 11 4 5 5 4 6 6 7 7 8 8 9 9 10 10 11 2 12 1 13
REMARK SMILES IDX 14 14
REMARK H PARENT 14 15
REMARK Flexibility Score: inf
ROOT
ATOM      1  C   UNL     1      57.129  15.005   0.244  1.00  0.00     0.161 A 
ATOM      2  C   UNL     1      57.485  16.301   0.649  1.00  0.00     0.161 A 
ATOM      3  C   UNL     1      56.516  17.170   1.174  1.00  0.00     0.098 A 
ATOM      4  C   UNL     1      55.190  16.751   1.301  1.00  0.00     0.142 A 
ATOM      5  C   UNL     1      54.824  15.450   0.897  1.00  0.00     0.022 A 
ATOM      6  C   UNL     1      55.790  14.582   0.371  1.00  0.00     0.062 A 
ATOM      7  C   UNL     1      53.487  15.060   1.036  1.00  0.00     0.019 A 
ATOM      8  C   UNL     1      52.563  15.961   1.566  1.00  0.00     0.094 A 
ATOM      9  C   UNL     1      52.999  17.235   1.944  1.00  0.00     0.336 A 
ATOM     10  O   UNL     1      52.180  18.062   2.424  1.00  0.00    -0.246 OA
ATOM     11  O   UNL     1      54.276  17.580   1.801  1.00  0.00    -0.423 OA
ENDROOT
BRANCH   1  12
ATOM     12  O   UNL     1      58.131  14.170  -0.277  1.00  0.00    -0.493 OA
ATOM     13  C   UNL     1      58.493  12.906   0.271  1.00  0.00     0.278 C 
ENDBRANCH   1  12
BRANCH   2  14
ATOM     14  O   UNL     1      58.808  16.722   0.523  1.00  0.00    -0.504 OA
ATOM     15  H   UNL     1      59.075  17.687   0.678  1.00  0.00     0.293 HD
ENDBRANCH   2  14
TORSDOF 2
ENDMDL
MODEL 8
REMARK VINA RESULT:    -6.104      2.837      6.060
REMARK INTER + INTRA:          -6.663
REMARK INTER:                  -6.599
REMARK INTRA:                  -0.064
REMARK UNBOUND:                -0.024
REMARK SMILES COc1cc2ccc(=O)oc2cc1O
REMARK SMILES IDX 3 1 13 2 12 3 11 4 5 5 4 6 6 7 7 8 8 9 9 10 10 11 2 12 1 13
REMARK SMILES IDX 14 14
REMARK H PARENT 14 15
REMARK Flexibility Score: inf
ROOT
ATOM      1  C   UNL     1      50.025  19.248   1.772  1.00  0.00     0.161 A 
ATOM      2  C   UNL     1      50.850  18.522   2.646  1.00  0.00     0.161 A 
ATOM      3  C   UNL     1      51.826  17.651   2.139  1.00  0.00     0.098 A 
ATOM      4  C   UNL     1      51.985  17.498   0.760  1.00  0.00     0.142 A 
ATOM      5  C   UNL     1      51.160  18.224  -0.126  1.00  0.00     0.022 A 
ATOM      6  C   UNL     1      50.184  19.094   0.380  1.00  0.00     0.062 A 
ATOM      7  C   UNL     1      51.344  18.049  -1.502  1.00  0.00     0.019 A 
ATOM      8  C   UNL     1      52.328  17.171  -1.955  1.00  0.00     0.094 A 
ATOM      9  C   UNL     1      53.108  16.485  -1.018  1.00  0.00     0.336 A 
ATOM     10  O   UNL     1      54.002  15.688  -1.407  1.00  0.00    -0.246 OA
ATOM     11  O   UNL     1      52.913  16.670   0.285  1.00  0.00    -0.423 OA
ENDROOT
BRANCH   1  12
ATOM     12  O   UNL     1      49.062  20.108   2.323  1.00  0.00    -0.493 OA
ATOM     13  C   UNL     1      47.659  19.868   2.300  1.00  0.00     0.278 C 
ENDBRANCH   1  12
BRANCH   2  14
ATOM     14  O   UNL     1      50.693  18.672   4.023  1.00  0.00    -0.504 OA
ATOM     15  H   UNL     1      51.196  19.384   4.540  1.00  0.00     0.293 HD
ENDBRANCH   2  14
TORSDOF 2
ENDMDL
MODEL 9
REMARK VINA RESULT:    -6.061      3.355      4.730
REMARK INTER + INTRA:          -6.616
REMARK INTER:                  -6.570
REMARK INTRA:                  -0.046
REMARK UNBOUND:                -0.024
REMARK SMILES COc1cc2ccc(=O)oc2cc1O
REMARK SMILES IDX 3 1 13 2 12 3 11 4 5 5 4 6 6 7 7 8 8 9 9 10 10 11 2 12 1 13
REMARK SMILES IDX 14 14
REMARK H PARENT 14 15
REMARK Flexibility Score: inf
ROOT
ATOM      1  C   UNL     1      57.715  12.399  -0.041  1.00  0.00     0.161 A 
ATOM      2  C   UNL     1      56.343  12.116  -0.124  1.00  0.00     0.161 A 
ATOM      3  C   UNL     1      55.397  13.139   0.046  1.00  0.00     0.098 A 
ATOM      4  C   UNL     1      55.813  14.448   0.297  1.00  0.00     0.142 A 
ATOM      5  C   UNL     1      57.191  14.741   0.382  1.00  0.00     0.022 A 
ATOM      6  C   UNL     1      58.137  13.720   0.214  1.00  0.00     0.062 A 
ATOM      7  C   UNL     1      57.576  16.062   0.635  1.00  0.00     0.019 A 
ATOM      8  C   UNL     1      56.597  17.043   0.795  1.00  0.00     0.094 A 
ATOM      9  C   UNL     1      55.250  16.677   0.698  1.00  0.00     0.336 A 
ATOM     10  O   UNL     1      54.352  17.548   0.840  1.00  0.00    -0.246 OA
ATOM     11  O   UNL     1      54.911  15.414   0.457  1.00  0.00    -0.423 OA
ENDROOT
BRANCH   1  12
ATOM     12  O   UNL     1      58.626  11.345  -0.217  1.00  0.00    -0.493 OA
ATOM     13  C   UNL     1      59.969  11.353   0.257  1.00  0.00     0.278 C 
ENDBRANCH   1  12
BRANCH   2  14
ATOM     14  O   UNL     1      55.924  10.811  -0.375  1.00  0.00    -0.504 OA
ATOM     15  H   UNL     1      55.521  10.233   0.354  1.00  0.00     0.293 HD
ENDBRANCH   2  14
TORSDOF 2
ENDMDL
