MODEL 1
REMARK VINA RESULT:     5.604      0.000      0.000
REMARK INTER + INTRA:          10.448
REMARK INTER:                   8.225
REMARK INTRA:                   2.222
REMARK UNBOUND:                 2.222
REMARK SMILES O=c1c(O[C@@H]2O[C@H](CO)[C@@H](O)[C@@H](O)[C@@H]2O)c(-c2ccc(O)c(O)c2)oc2cc(O)cc(O)c12
REMARK SMILES IDX 4 1 3 2 16 3 25 4 2 5 26 6 1 7 33 8 27 9 31 10 28 11 30 12
REMARK SMILES IDX 17 13 18 14 19 15 20 16 24 17 22 18 21 19 23 21 32 23 29 25
REMARK SMILES IDX 5 27 14 28 6 29 12 30 7 31 10 32 15 33 13 35 8 37 9 38 11 40
REMARK H PARENT 21 20 23 22 32 24 29 26 15 34 13 36 9 39 11 41
REMARK Flexibility Score: inf
ROOT
ATOM      1  O   UNL     1       9.069  69.999   0.484  1.00  0.00    -0.454 OA
ENDROOT
BRANCH   1   2
ATOM      2  C   UNL     1       9.427  68.747  -0.031  1.00  0.00     0.214 A 
ATOM      3  C   UNL     1      10.092  68.632  -1.266  1.00  0.00     0.180 A 
ATOM      4  O   UNL     1      10.298  67.427  -1.783  1.00  0.00    -0.452 OA
ATOM      5  C   UNL     1       9.076  67.583   0.667  1.00  0.00     0.239 A 
ATOM      6  C   UNL     1       9.908  66.298  -1.201  1.00  0.00     0.146 A 
ATOM      7  O   UNL     1       8.588  67.705   1.821  1.00  0.00    -0.285 OA
ATOM      8  C   UNL     1       9.261  66.314   0.063  1.00  0.00     0.111 A 
ATOM      9  C   UNL     1      10.139  65.094  -1.873  1.00  0.00     0.094 A 
ATOM     10  C   UNL     1       8.808  65.069   0.609  1.00  0.00     0.134 A 
ATOM     11  C   UNL     1       9.659  63.893  -1.355  1.00  0.00     0.123 A 
ATOM     12  C   UNL     1       9.005  63.884  -0.116  1.00  0.00     0.093 A 
BRANCH   3  13
ATOM     13  C   UNL     1      10.584  69.806  -2.024  1.00  0.00     0.025 A 
ATOM     14  C   UNL     1      10.638  69.750  -3.424  1.00  0.00     0.016 A 
ATOM     15  C   UNL     1      11.168  70.815  -4.158  1.00  0.00     0.051 A 
ATOM     16  C   UNL     1      11.660  71.951  -3.501  1.00  0.00     0.157 A 
ATOM     17  C   UNL     1      11.088  70.942  -1.370  1.00  0.00     0.062 A 
ATOM     18  C   UNL     1      11.608  72.016  -2.098  1.00  0.00     0.158 A 
BRANCH  16  19
ATOM     19  O   UNL     1      12.213  73.002  -4.228  1.00  0.00    -0.504 OA
ATOM     20  H   UNL     1      13.184  73.272  -4.122  1.00  0.00     0.293 HD
ENDBRANCH  16  19
BRANCH  18  21
ATOM     21  O   UNL     1      12.098  73.125  -1.410  1.00  0.00    -0.504 OA
ATOM     22  H   UNL     1      11.738  73.401  -0.505  1.00  0.00     0.293 HD
ENDBRANCH  18  21
ENDBRANCH   3  13
BRANCH  10  23
ATOM     23  O   UNL     1       8.130  64.936   1.827  1.00  0.00    -0.507 OA
ATOM     24  H   UNL     1       7.988  64.082   2.341  1.00  0.00     0.293 HD
ENDBRANCH  10  23
BRANCH  11  25
ATOM     25  O   UNL     1       9.782  62.732  -2.105  1.00  0.00    -0.508 OA
ATOM     26  H   UNL     1       9.953  61.838  -1.663  1.00  0.00     0.293 HD
ENDBRANCH  11  25
ENDBRANCH   1   2
BRANCH   1  27
ATOM     27  C   UNL     1      10.058  70.948   0.909  1.00  0.00     0.339 C 
ATOM     28  C   UNL     1       9.443  72.296   1.339  1.00  0.00     0.214 C 
ATOM     29  O   UNL     1      10.843  70.410   1.955  1.00  0.00    -0.332 OA
ATOM     30  C   UNL     1       8.607  72.163   2.635  1.00  0.00     0.180 C 
ATOM     31  C   UNL     1      10.136  70.164   3.172  1.00  0.00     0.179 C 
ATOM     32  C   UNL     1       8.693  70.751   3.257  1.00  0.00     0.177 C 
BRANCH  28  33
ATOM     33  O   UNL     1       8.653  72.837   0.311  1.00  0.00    -0.384 OA
ATOM     34  H   UNL     1       9.259  73.019  -0.454  1.00  0.00     0.211 HD
ENDBRANCH  28  33
BRANCH  30  35
ATOM     35  O   UNL     1       9.024  73.125   3.572  1.00  0.00    -0.387 OA
ATOM     36  H   UNL     1       8.281  73.230   4.219  1.00  0.00     0.211 HD
ENDBRANCH  30  35
BRANCH  31  37
ATOM     37  C   UNL     1      10.151  68.642   3.432  1.00  0.00     0.191 C 
BRANCH  37  38
ATOM     38  O   UNL     1      11.364  68.058   3.031  1.00  0.00    -0.394 OA
ATOM     39  H   UNL     1      11.343  67.116   3.340  1.00  0.00     0.210 HD
ENDBRANCH  37  38
ENDBRANCH  31  37
BRANCH  32  40
ATOM     40  O   UNL     1       8.273  70.815   4.597  1.00  0.00    -0.387 OA
ATOM     41  H   UNL     1       7.635  70.067   4.741  1.00  0.00     0.211 HD
ENDBRANCH  32  40
ENDBRANCH   1  27
TORSDOF 12
ENDMDL
MODEL 2
REMARK VINA RESULT:     6.959      1.503      5.106
REMARK INTER + INTRA:          12.436
REMARK INTER:                  10.282
REMARK INTRA:                   2.154
REMARK UNBOUND:                 2.222
REMARK SMILES O=c1c(O[C@@H]2O[C@H](CO)[C@@H](O)[C@@H](O)[C@@H]2O)c(-c2ccc(O)c(O)c2)oc2cc(O)cc(O)c12
REMARK SMILES IDX 4 1 3 2 16 3 25 4 2 5 26 6 1 7 33 8 27 9 31 10 28 11 30 12
REMARK SMILES IDX 17 13 18 14 19 15 20 16 24 17 22 18 21 19 23 21 32 23 29 25
REMARK SMILES IDX 5 27 14 28 6 29 12 30 7 31 10 32 15 33 13 35 8 37 9 38 11 40
REMARK H PARENT 21 20 23 22 32 24 29 26 15 34 13 36 9 39 11 41
REMARK Flexibility Score: inf
ROOT
ATOM      1  O   UNL     1      10.586  69.736  -0.402  1.00  0.00    -0.454 OA
ENDROOT
BRANCH   1   2
ATOM      2  C   UNL     1       9.961  68.555   0.016  1.00  0.00     0.214 A 
ATOM      3  C   UNL     1       9.304  68.481   1.259  1.00  0.00     0.180 A 
ATOM      4  O   UNL     1       8.837  67.311   1.679  1.00  0.00    -0.452 OA
ATOM      5  C   UNL     1      10.029  67.410  -0.790  1.00  0.00     0.239 A 
ATOM      6  C   UNL     1       8.954  66.181   0.990  1.00  0.00     0.146 A 
ATOM      7  O   UNL     1      10.517  67.523  -1.945  1.00  0.00    -0.285 OA
ATOM      8  C   UNL     1       9.570  66.165  -0.289  1.00  0.00     0.111 A 
ATOM      9  C   UNL     1       8.465  65.004   1.564  1.00  0.00     0.094 A 
ATOM     10  C   UNL     1       9.721  64.905  -0.954  1.00  0.00     0.134 A 
ATOM     11  C   UNL     1       8.653  63.778   0.931  1.00  0.00     0.123 A 
ATOM     12  C   UNL     1       9.270  63.734  -0.326  1.00  0.00     0.093 A 
BRANCH   3  13
ATOM     13  C   UNL     1       9.102  69.662   2.131  1.00  0.00     0.025 A 
ATOM     14  C   UNL     1       8.090  69.639   3.100  1.00  0.00     0.016 A 
ATOM     15  C   UNL     1       7.830  70.766   3.884  1.00  0.00     0.051 A 
ATOM     16  C   UNL     1       8.575  71.939   3.703  1.00  0.00     0.157 A 
ATOM     17  C   UNL     1       9.838  70.843   1.946  1.00  0.00     0.062 A 
ATOM     18  C   UNL     1       9.592  71.972   2.734  1.00  0.00     0.158 A 
BRANCH  16  19
ATOM     19  O   UNL     1       8.300  73.074   4.463  1.00  0.00    -0.504 OA
ATOM     20  H   UNL     1       8.534  74.005   4.138  1.00  0.00     0.293 HD
ENDBRANCH  16  19
BRANCH  18  21
ATOM     21  O   UNL     1      10.346  73.124   2.519  1.00  0.00    -0.504 OA
ATOM     22  H   UNL     1      10.214  73.712   1.704  1.00  0.00     0.293 HD
ENDBRANCH  18  21
ENDBRANCH   3  13
BRANCH  10  23
ATOM     23  O   UNL     1      10.334  64.734  -2.201  1.00  0.00    -0.507 OA
ATOM     24  H   UNL     1      10.016  64.137  -2.946  1.00  0.00     0.293 HD
ENDBRANCH  10  23
BRANCH  11  25
ATOM     25  O   UNL     1       8.280  62.611   1.583  1.00  0.00    -0.508 OA
ATOM     26  H   UNL     1       7.335  62.253   1.517  1.00  0.00     0.293 HD
ENDBRANCH  11  25
ENDBRANCH   1   2
BRANCH   1  27
ATOM     27  C   UNL     1       9.836  70.926  -0.681  1.00  0.00     0.339 C 
ATOM     28  C   UNL     1      10.737  72.145  -0.969  1.00  0.00     0.214 C 
ATOM     29  O   UNL     1       8.944  70.710  -1.757  1.00  0.00    -0.332 OA
ATOM     30  C   UNL     1      11.515  71.987  -2.298  1.00  0.00     0.180 C 
ATOM     31  C   UNL     1       9.572  70.462  -3.016  1.00  0.00     0.179 C 
ATOM     32  C   UNL     1      11.109  70.717  -3.078  1.00  0.00     0.177 C 
BRANCH  28  33
ATOM     33  O   UNL     1      11.634  72.366   0.090  1.00  0.00    -0.384 OA
ATOM     34  H   UNL     1      12.549  72.259  -0.280  1.00  0.00     0.211 HD
ENDBRANCH  28  33
BRANCH  30  35
ATOM     35  O   UNL     1      11.322  73.125  -3.101  1.00  0.00    -0.387 OA
ATOM     36  H   UNL     1      10.343  73.222  -3.221  1.00  0.00     0.211 HD
ENDBRANCH  30  35
BRANCH  31  37
ATOM     37  C   UNL     1       9.212  69.025  -3.453  1.00  0.00     0.191 C 
BRANCH  37  38
ATOM     38  O   UNL     1       7.933  68.651  -3.009  1.00  0.00    -0.394 OA
ATOM     39  H   UNL     1       7.474  69.483  -2.728  1.00  0.00     0.210 HD
ENDBRANCH  37  38
ENDBRANCH  31  37
BRANCH  32  40
ATOM     40  O   UNL     1      11.527  70.848  -4.414  1.00  0.00    -0.387 OA
ATOM     41  H   UNL     1      10.964  70.237  -4.959  1.00  0.00     0.211 HD
ENDBRANCH  32  40
ENDBRANCH   1  27
TORSDOF 12
ENDMDL
