MODEL 1
REMARK VINA RESULT:    -4.396      0.000      0.000
REMARK INTER + INTRA:         -13.500
REMARK INTER:                 -10.049
REMARK INTRA:                  -3.451
REMARK UNBOUND:                -3.451
REMARK SMILES CCCCCCCCCCCCCCCCCCCCCCCC(=O)[O-]
REMARK SMILES IDX 13 1 14 2 15 3 16 4 17 5 18 6 19 7 20 8 21 9 22 10 23 11
REMARK SMILES IDX 24 12 25 13 26 14 12 15 11 16 10 17 9 18 8 19 7 20 6 21 5 22
REMARK SMILES IDX 4 23 3 24 2 25 1 26
REMARK H PARENT
REMARK Flexibility Score: inf
ROOT
ATOM      1  C   UNL     1     -22.935  -6.478  -4.999  1.00  0.00     0.000 C 
ENDROOT
BRANCH   1   2
ATOM      2  C   UNL     1     -23.020  -6.946  -6.462  1.00  0.00     0.000 C 
BRANCH   2   3
ATOM      3  C   UNL     1     -24.327  -6.522  -7.148  1.00  0.00     0.000 C 
BRANCH   3   4
ATOM      4  C   UNL     1     -25.541  -6.851  -6.270  1.00  0.00     0.000 C 
BRANCH   4   5
ATOM      5  C   UNL     1     -26.659  -5.822  -6.473  1.00  0.00     0.000 C 
BRANCH   5   6
ATOM      6  C   UNL     1     -27.220  -5.342  -5.129  1.00  0.00     0.000 C 
BRANCH   6   7
ATOM      7  C   UNL     1     -26.404  -5.917  -3.962  1.00  0.00     0.000 C 
BRANCH   7   8
ATOM      8  C   UNL     1     -25.686  -4.830  -3.144  1.00  0.00     0.000 C 
BRANCH   8   9
ATOM      9  C   UNL     1     -25.407  -3.524  -3.913  1.00  0.00     0.000 C 
BRANCH   9  10
ATOM     10  C   UNL     1     -25.481  -2.258  -3.034  1.00  0.00     0.006 C 
BRANCH  10  11
ATOM     11  C   UNL     1     -25.834  -2.583  -1.577  1.00  0.00     0.053 C 
BRANCH  11  12
ATOM     12  C   UNL     1     -24.774  -2.081  -0.646  1.00  0.00     0.041 C 
ATOM     13  O   UNL     1     -23.581  -1.986  -1.038  1.00  0.00    -0.550 OA
ATOM     14  O   UNL     1     -25.100  -1.743   0.663  1.00  0.00    -0.550 OA
ENDBRANCH  11  12
ENDBRANCH  10  11
ENDBRANCH   9  10
ENDBRANCH   8   9
ENDBRANCH   7   8
ENDBRANCH   6   7
ENDBRANCH   5   6
ENDBRANCH   4   5
ENDBRANCH   3   4
ENDBRANCH   2   3
ENDBRANCH   1   2
BRANCH   1  15
ATOM     15  C   UNL     1     -22.666  -7.597  -3.971  1.00  0.00     0.000 C 
BRANCH  15  16
ATOM     16  C   UNL     1     -23.844  -8.564  -3.739  1.00  0.00     0.000 C 
BRANCH  16  17
ATOM     17  C   UNL     1     -23.664  -9.970  -4.347  1.00  0.00     0.000 C 
BRANCH  17  18
ATOM     18  C   UNL     1     -22.238 -10.540  -4.250  1.00  0.00    -0.000 C 
BRANCH  18  19
ATOM     19  C   UNL     1     -21.747 -11.145  -5.573  1.00  0.00    -0.000 C 
BRANCH  19  20
ATOM     20  C   UNL     1     -22.615 -10.679  -6.748  1.00  0.00    -0.000 C 
BRANCH  20  21
ATOM     21  C   UNL     1     -21.751 -10.096  -7.873  1.00  0.00    -0.000 C 
BRANCH  21  22
ATOM     22  C   UNL     1     -20.577  -9.284  -7.306  1.00  0.00    -0.000 C 
BRANCH  22  23
ATOM     23  C   UNL     1     -19.313  -9.365  -8.181  1.00  0.00    -0.000 C 
BRANCH  23  24
ATOM     24  C   UNL     1     -18.056  -9.892  -7.461  1.00  0.00    -0.000 C 
BRANCH  24  25
ATOM     25  C   UNL     1     -18.111  -9.694  -5.940  1.00  0.00    -0.003 C 
ATOM     26  C   UNL     1     -17.819 -11.000  -5.206  1.00  0.00     0.004 C 
ENDBRANCH  24  25
ENDBRANCH  23  24
ENDBRANCH  22  23
ENDBRANCH  21  22
ENDBRANCH  20  21
ENDBRANCH  19  20
ENDBRANCH  18  19
ENDBRANCH  17  18
ENDBRANCH  16  17
ENDBRANCH  15  16
ENDBRANCH   1  15
TORSDOF 22
ENDMDL
MODEL 2
REMARK VINA RESULT:    -4.371      3.513      8.398
REMARK INTER + INTRA:         -13.444
REMARK INTER:                  -9.760
REMARK INTRA:                  -3.684
REMARK UNBOUND:                -3.451
REMARK SMILES CCCCCCCCCCCCCCCCCCCCCCCC(=O)[O-]
REMARK SMILES IDX 13 1 14 2 15 3 16 4 17 5 18 6 19 7 20 8 21 9 22 10 23 11
REMARK SMILES IDX 24 12 25 13 26 14 12 15 11 16 10 17 9 18 8 19 7 20 6 21 5 22
REMARK SMILES IDX 4 23 3 24 2 25 1 26
REMARK H PARENT
REMARK Flexibility Score: inf
ROOT
ATOM      1  C   UNL     1     -22.994  -7.531  -4.048  1.00  0.00     0.000 C 
ENDROOT
BRANCH   1   2
ATOM      2  C   UNL     1     -24.020  -8.675  -3.962  1.00  0.00     0.000 C 
BRANCH   2   3
ATOM      3  C   UNL     1     -24.512  -9.138  -5.341  1.00  0.00     0.000 C 
BRANCH   3   4
ATOM      4  C   UNL     1     -23.891  -8.292  -6.459  1.00  0.00     0.000 C 
BRANCH   4   5
ATOM      5  C   UNL     1     -22.924  -9.128  -7.306  1.00  0.00     0.000 C 
BRANCH   5   6
ATOM      6  C   UNL     1     -22.990 -10.610  -6.920  1.00  0.00     0.000 C 
BRANCH   6   7
ATOM      7  C   UNL     1     -21.589 -11.150  -6.591  1.00  0.00     0.000 C 
BRANCH   7   8
ATOM      8  C   UNL     1     -21.064 -10.654  -5.232  1.00  0.00     0.000 C 
BRANCH   8   9
ATOM      9  C   UNL     1     -19.539 -10.448  -5.167  1.00  0.00     0.000 C 
BRANCH   9  10
ATOM     10  C   UNL     1     -19.052  -9.177  -5.893  1.00  0.00     0.006 C 
BRANCH  10  11
ATOM     11  C   UNL     1     -17.958  -9.481  -6.925  1.00  0.00     0.053 C 
BRANCH  11  12
ATOM     12  C   UNL     1     -18.452  -9.229  -8.316  1.00  0.00     0.041 C 
ATOM     13  O   UNL     1     -17.687  -9.406  -9.301  1.00  0.00    -0.550 OA
ATOM     14  O   UNL     1     -19.750  -8.774  -8.523  1.00  0.00    -0.550 OA
ENDBRANCH  11  12
ENDBRANCH  10  11
ENDBRANCH   9  10
ENDBRANCH   8   9
ENDBRANCH   7   8
ENDBRANCH   6   7
ENDBRANCH   5   6
ENDBRANCH   4   5
ENDBRANCH   3   4
ENDBRANCH   2   3
ENDBRANCH   1   2
BRANCH   1  15
ATOM     15  C   UNL     1     -23.462  -6.190  -3.445  1.00  0.00     0.000 C 
BRANCH  15  16
ATOM     16  C   UNL     1     -24.782  -6.257  -2.652  1.00  0.00     0.000 C 
BRANCH  16  17
ATOM     17  C   UNL     1     -25.946  -5.441  -3.250  1.00  0.00     0.000 C 
BRANCH  17  18
ATOM     18  C   UNL     1     -26.630  -6.085  -4.468  1.00  0.00    -0.000 C 
BRANCH  18  19
ATOM     19  C   UNL     1     -26.836  -5.099  -5.627  1.00  0.00    -0.000 C 
BRANCH  19  20
ATOM     20  C   UNL     1     -25.503  -4.757  -6.302  1.00  0.00    -0.000 C 
BRANCH  20  21
ATOM     21  C   UNL     1     -25.168  -3.269  -6.137  1.00  0.00    -0.000 C 
BRANCH  21  22
ATOM     22  C   UNL     1     -26.356  -2.497  -5.542  1.00  0.00    -0.000 C 
BRANCH  22  23
ATOM     23  C   UNL     1     -25.934  -1.498  -4.449  1.00  0.00    -0.000 C 
BRANCH  23  24
ATOM     24  C   UNL     1     -24.467  -1.615  -3.992  1.00  0.00    -0.000 C 
BRANCH  24  25
ATOM     25  C   UNL     1     -24.327  -2.142  -2.558  1.00  0.00    -0.003 C 
ATOM     26  C   UNL     1     -25.683  -2.203  -1.860  1.00  0.00     0.004 C 
ENDBRANCH  24  25
ENDBRANCH  23  24
ENDBRANCH  22  23
ENDBRANCH  21  22
ENDBRANCH  20  21
ENDBRANCH  19  20
ENDBRANCH  18  19
ENDBRANCH  17  18
ENDBRANCH  16  17
ENDBRANCH  15  16
ENDBRANCH   1  15
TORSDOF 22
ENDMDL
MODEL 3
REMARK VINA RESULT:    -4.367      1.354      2.150
REMARK INTER + INTRA:         -13.435
REMARK INTER:                  -8.844
REMARK INTRA:                  -4.591
REMARK UNBOUND:                -3.451
REMARK SMILES CCCCCCCCCCCCCCCCCCCCCCCC(=O)[O-]
REMARK SMILES IDX 13 1 14 2 15 3 16 4 17 5 18 6 19 7 20 8 21 9 22 10 23 11
REMARK SMILES IDX 24 12 25 13 26 14 12 15 11 16 10 17 9 18 8 19 7 20 6 21 5 22
REMARK SMILES IDX 4 23 3 24 2 25 1 26
REMARK H PARENT
REMARK Flexibility Score: inf
ROOT
ATOM      1  C   UNL     1     -20.888  -6.711  -5.514  1.00  0.00     0.000 C 
ENDROOT
BRANCH   1   2
ATOM      2  C   UNL     1     -21.705  -6.623  -6.815  1.00  0.00     0.000 C 
BRANCH   2   3
ATOM      3  C   UNL     1     -23.077  -5.964  -6.614  1.00  0.00     0.000 C 
BRANCH   3   4
ATOM      4  C   UNL     1     -23.955  -6.129  -7.859  1.00  0.00     0.000 C 
BRANCH   4   5
ATOM      5  C   UNL     1     -25.291  -5.397  -7.689  1.00  0.00     0.000 C 
BRANCH   5   6
ATOM      6  C   UNL     1     -26.273  -6.225  -6.851  1.00  0.00     0.000 C 
BRANCH   6   7
ATOM      7  C   UNL     1     -26.875  -5.376  -5.721  1.00  0.00     0.000 C 
BRANCH   7   8
ATOM      8  C   UNL     1     -26.691  -6.014  -4.334  1.00  0.00     0.000 C 
BRANCH   8   9
ATOM      9  C   UNL     1     -25.407  -5.590  -3.594  1.00  0.00     0.000 C 
BRANCH   9  10
ATOM     10  C   UNL     1     -24.855  -4.220  -4.044  1.00  0.00     0.006 C 
BRANCH  10  11
ATOM     11  C   UNL     1     -24.103  -3.500  -2.916  1.00  0.00     0.053 C 
BRANCH  11  12
ATOM     12  C   UNL     1     -24.716  -2.164  -2.635  1.00  0.00     0.041 C 
ATOM     13  O   UNL     1     -25.801  -2.086  -1.999  1.00  0.00    -0.550 OA
ATOM     14  O   UNL     1     -24.103  -1.005  -3.098  1.00  0.00    -0.550 OA
ENDBRANCH  11  12
ENDBRANCH  10  11
ENDBRANCH   9  10
ENDBRANCH   8   9
ENDBRANCH   7   8
ENDBRANCH   6   7
ENDBRANCH   5   6
ENDBRANCH   4   5
ENDBRANCH   3   4
ENDBRANCH   2   3
ENDBRANCH   1   2
BRANCH   1  15
ATOM     15  C   UNL     1     -21.721  -6.668  -4.217  1.00  0.00     0.000 C 
BRANCH  15  16
ATOM     16  C   UNL     1     -21.842  -8.014  -3.475  1.00  0.00     0.000 C 
BRANCH  16  17
ATOM     17  C   UNL     1     -23.285  -8.486  -3.209  1.00  0.00     0.000 C 
BRANCH  17  18
ATOM     18  C   UNL     1     -23.794  -9.584  -4.159  1.00  0.00    -0.000 C 
BRANCH  18  19
ATOM     19  C   UNL     1     -24.498  -9.019  -5.401  1.00  0.00    -0.000 C 
BRANCH  19  20
ATOM     20  C   UNL     1     -23.913  -9.617  -6.686  1.00  0.00    -0.000 C 
BRANCH  20  21
ATOM     21  C   UNL     1     -22.694 -10.496  -6.378  1.00  0.00    -0.000 C 
BRANCH  21  22
ATOM     22  C   UNL     1     -21.562 -10.244  -7.386  1.00  0.00    -0.000 C 
BRANCH  22  23
ATOM     23  C   UNL     1     -20.169 -10.219  -6.729  1.00  0.00    -0.000 C 
BRANCH  23  24
ATOM     24  C   UNL     1     -20.143 -10.634  -5.245  1.00  0.00    -0.000 C 
BRANCH  24  25
ATOM     25  C   UNL     1     -18.804 -10.324  -4.561  1.00  0.00    -0.003 C 
ATOM     26  C   UNL     1     -17.628 -10.717  -5.453  1.00  0.00     0.004 C 
ENDBRANCH  24  25
ENDBRANCH  23  24
ENDBRANCH  22  23
ENDBRANCH  21  22
ENDBRANCH  20  21
ENDBRANCH  19  20
ENDBRANCH  18  19
ENDBRANCH  17  18
ENDBRANCH  16  17
ENDBRANCH  15  16
ENDBRANCH   1  15
TORSDOF 22
ENDMDL
MODEL 4
REMARK VINA RESULT:    -4.359      3.851      8.346
REMARK INTER + INTRA:         -13.417
REMARK INTER:                  -9.435
REMARK INTRA:                  -3.982
REMARK UNBOUND:                -3.451
REMARK SMILES CCCCCCCCCCCCCCCCCCCCCCCC(=O)[O-]
REMARK SMILES IDX 13 1 14 2 15 3 16 4 17 5 18 6 19 7 20 8 21 9 22 10 23 11
REMARK SMILES IDX 24 12 25 13 26 14 12 15 11 16 10 17 9 18 8 19 7 20 6 21 5 22
REMARK SMILES IDX 4 23 3 24 2 25 1 26
REMARK H PARENT
REMARK Flexibility Score: inf
ROOT
ATOM      1  C   UNL     1     -21.422 -10.163  -7.619  1.00  0.00     0.000 C 
ENDROOT
BRANCH   1   2
ATOM      2  C   UNL     1     -21.923 -11.314  -6.729  1.00  0.00     0.000 C 
BRANCH   2   3
ATOM      3  C   UNL     1     -21.117 -11.456  -5.429  1.00  0.00     0.000 C 
BRANCH   3   4
ATOM      4  C   UNL     1     -21.868 -10.836  -4.245  1.00  0.00     0.000 C 
BRANCH   4   5
ATOM      5  C   UNL     1     -20.963  -9.878  -3.462  1.00  0.00     0.000 C 
BRANCH   5   6
ATOM      6  C   UNL     1     -20.005  -9.132  -4.399  1.00  0.00     0.000 C 
BRANCH   6   7
ATOM      7  C   UNL     1     -18.589  -9.087  -3.806  1.00  0.00     0.000 C 
BRANCH   7   8
ATOM      8  C   UNL     1     -17.494  -9.328  -4.859  1.00  0.00     0.000 C 
BRANCH   8   9
ATOM      9  C   UNL     1     -17.741 -10.538  -5.781  1.00  0.00     0.000 C 
BRANCH   9  10
ATOM     10  C   UNL     1     -17.645 -10.203  -7.285  1.00  0.00     0.006 C 
BRANCH  10  11
ATOM     11  C   UNL     1     -18.133  -8.781  -7.594  1.00  0.00     0.053 C 
BRANCH  11  12
ATOM     12  C   UNL     1     -18.353  -8.601  -9.064  1.00  0.00     0.041 C 
ATOM     13  O   UNL     1     -19.369  -7.984  -9.481  1.00  0.00    -0.550 OA
ATOM     14  O   UNL     1     -17.449  -9.137  -9.975  1.00  0.00    -0.550 OA
ENDBRANCH  11  12
ENDBRANCH  10  11
ENDBRANCH   9  10
ENDBRANCH   8   9
ENDBRANCH   7   8
ENDBRANCH   6   7
ENDBRANCH   5   6
ENDBRANCH   4   5
ENDBRANCH   3   4
ENDBRANCH   2   3
ENDBRANCH   1   2
BRANCH   1  15
ATOM     15  C   UNL     1     -22.477  -9.087  -7.949  1.00  0.00     0.000 C 
BRANCH  15  16
ATOM     16  C   UNL     1     -23.106  -8.395  -6.723  1.00  0.00     0.000 C 
BRANCH  16  17
ATOM     17  C   UNL     1     -24.546  -8.835  -6.392  1.00  0.00     0.000 C 
BRANCH  17  18
ATOM     18  C   UNL     1     -24.854  -8.972  -4.891  1.00  0.00    -0.000 C 
BRANCH  18  19
ATOM     19  C   UNL     1     -24.186  -7.880  -4.043  1.00  0.00    -0.000 C 
BRANCH  19  20
ATOM     20  C   UNL     1     -25.160  -7.319  -3.001  1.00  0.00    -0.000 C 
BRANCH  20  21
ATOM     21  C   UNL     1     -25.621  -5.906  -3.383  1.00  0.00    -0.000 C 
BRANCH  21  22
ATOM     22  C   UNL     1     -26.763  -5.956  -4.409  1.00  0.00    -0.000 C 
BRANCH  22  23
ATOM     23  C   UNL     1     -26.560  -4.975  -5.579  1.00  0.00    -0.000 C 
BRANCH  23  24
ATOM     24  C   UNL     1     -25.241  -5.153  -6.355  1.00  0.00    -0.000 C 
BRANCH  24  25
ATOM     25  C   UNL     1     -25.460  -5.507  -7.833  1.00  0.00    -0.003 C 
ATOM     26  C   UNL     1     -24.153  -5.418  -8.618  1.00  0.00     0.004 C 
ENDBRANCH  24  25
ENDBRANCH  23  24
ENDBRANCH  22  23
ENDBRANCH  21  22
ENDBRANCH  20  21
ENDBRANCH  19  20
ENDBRANCH  18  19
ENDBRANCH  17  18
ENDBRANCH  16  17
ENDBRANCH  15  16
ENDBRANCH   1  15
TORSDOF 22
ENDMDL
MODEL 5
REMARK VINA RESULT:    -4.318      2.576      4.207
REMARK INTER + INTRA:         -13.323
REMARK INTER:                  -8.850
REMARK INTRA:                  -4.473
REMARK UNBOUND:                -3.451
REMARK SMILES CCCCCCCCCCCCCCCCCCCCCCCC(=O)[O-]
REMARK SMILES IDX 13 1 14 2 15 3 16 4 17 5 18 6 19 7 20 8 21 9 22 10 23 11
REMARK SMILES IDX 24 12 25 13 26 14 12 15 11 16 10 17 9 18 8 19 7 20 6 21 5 22
REMARK SMILES IDX 4 23 3 24 2 25 1 26
REMARK H PARENT
REMARK Flexibility Score: inf
ROOT
ATOM      1  C   UNL     1     -22.857  -8.168  -3.486  1.00  0.00     0.000 C 
ENDROOT
BRANCH   1   2
ATOM      2  C   UNL     1     -23.876  -7.990  -2.346  1.00  0.00     0.000 C 
BRANCH   2   3
ATOM      3  C   UNL     1     -25.129  -7.217  -2.783  1.00  0.00     0.000 C 
BRANCH   3   4
ATOM      4  C   UNL     1     -24.896  -5.703  -2.708  1.00  0.00     0.000 C 
BRANCH   4   5
ATOM      5  C   UNL     1     -25.780  -4.962  -3.718  1.00  0.00     0.000 C 
BRANCH   5   6
ATOM      6  C   UNL     1     -26.711  -5.932  -4.455  1.00  0.00     0.000 C 
BRANCH   6   7
ATOM      7  C   UNL     1     -26.967  -5.454  -5.893  1.00  0.00     0.000 C 
BRANCH   7   8
ATOM      8  C   UNL     1     -26.501  -6.469  -6.950  1.00  0.00     0.000 C 
BRANCH   8   9
ATOM      9  C   UNL     1     -25.287  -7.322  -6.533  1.00  0.00     0.000 C 
BRANCH   9  10
ATOM     10  C   UNL     1     -23.964  -6.886  -7.199  1.00  0.00     0.006 C 
BRANCH  10  11
ATOM     11  C   UNL     1     -23.222  -5.826  -6.374  1.00  0.00     0.053 C 
BRANCH  11  12
ATOM     12  C   UNL     1     -22.179  -5.140  -7.201  1.00  0.00     0.041 C 
ATOM     13  O   UNL     1     -21.290  -4.441  -6.646  1.00  0.00    -0.550 OA
ATOM     14  O   UNL     1     -22.206  -5.251  -8.586  1.00  0.00    -0.550 OA
ENDBRANCH  11  12
ENDBRANCH  10  11
ENDBRANCH   9  10
ENDBRANCH   8   9
ENDBRANCH   7   8
ENDBRANCH   6   7
ENDBRANCH   5   6
ENDBRANCH   4   5
ENDBRANCH   3   4
ENDBRANCH   2   3
ENDBRANCH   1   2
BRANCH   1  15
ATOM     15  C   UNL     1     -23.145  -9.346  -4.439  1.00  0.00     0.000 C 
BRANCH  15  16
ATOM     16  C   UNL     1     -22.417 -10.659  -4.090  1.00  0.00     0.000 C 
BRANCH  16  17
ATOM     17  C   UNL     1     -21.820 -11.414  -5.295  1.00  0.00     0.000 C 
BRANCH  17  18
ATOM     18  C   UNL     1     -22.189 -10.834  -6.672  1.00  0.00    -0.000 C 
BRANCH  18  19
ATOM     19  C   UNL     1     -20.959 -10.451  -7.506  1.00  0.00    -0.000 C 
BRANCH  19  20
ATOM     20  C   UNL     1     -21.091  -9.027  -8.059  1.00  0.00    -0.000 C 
BRANCH  20  21
ATOM     21  C   UNL     1     -19.982  -8.119  -7.512  1.00  0.00    -0.000 C 
BRANCH  21  22
ATOM     22  C   UNL     1     -20.104  -7.951  -5.990  1.00  0.00    -0.000 C 
BRANCH  22  23
ATOM     23  C   UNL     1     -18.870  -8.471  -5.229  1.00  0.00    -0.000 C 
BRANCH  23  24
ATOM     24  C   UNL     1     -17.677  -8.868  -6.120  1.00  0.00    -0.000 C 
BRANCH  24  25
ATOM     25  C   UNL     1     -17.421 -10.381  -6.138  1.00  0.00    -0.003 C 
ATOM     26  C   UNL     1     -18.180 -11.079  -5.012  1.00  0.00     0.004 C 
ENDBRANCH  24  25
ENDBRANCH  23  24
ENDBRANCH  22  23
ENDBRANCH  21  22
ENDBRANCH  20  21
ENDBRANCH  19  20
ENDBRANCH  18  19
ENDBRANCH  17  18
ENDBRANCH  16  17
ENDBRANCH  15  16
ENDBRANCH   1  15
TORSDOF 22
ENDMDL
MODEL 6
REMARK VINA RESULT:    -4.286      3.471      8.186
REMARK INTER + INTRA:         -13.250
REMARK INTER:                  -9.287
REMARK INTRA:                  -3.963
REMARK UNBOUND:                -3.451
REMARK SMILES CCCCCCCCCCCCCCCCCCCCCCCC(=O)[O-]
REMARK SMILES IDX 13 1 14 2 15 3 16 4 17 5 18 6 19 7 20 8 21 9 22 10 23 11
REMARK SMILES IDX 24 12 25 13 26 14 12 15 11 16 10 17 9 18 8 19 7 20 6 21 5 22
REMARK SMILES IDX 4 23 3 24 2 25 1 26
REMARK H PARENT
REMARK Flexibility Score: inf
ROOT
ATOM      1  C   UNL     1     -24.471  -8.809  -6.347  1.00  0.00     0.000 C 
ENDROOT
BRANCH   1   2
ATOM      2  C   UNL     1     -24.414  -9.498  -4.972  1.00  0.00     0.000 C 
BRANCH   2   3
ATOM      3  C   UNL     1     -23.495  -8.771  -3.979  1.00  0.00     0.000 C 
BRANCH   3   4
ATOM      4  C   UNL     1     -22.228  -9.589  -3.702  1.00  0.00     0.000 C 
BRANCH   4   5
ATOM      5  C   UNL     1     -22.358 -11.009  -4.263  1.00  0.00     0.000 C 
BRANCH   5   6
ATOM      6  C   UNL     1     -21.223 -11.323  -5.246  1.00  0.00     0.000 C 
BRANCH   6   7
ATOM      7  C   UNL     1     -21.735 -11.298  -6.694  1.00  0.00     0.000 C 
BRANCH   7   8
ATOM      8  C   UNL     1     -21.082 -10.191  -7.538  1.00  0.00     0.000 C 
BRANCH   8   9
ATOM      9  C   UNL     1     -19.878  -9.498  -6.872  1.00  0.00     0.000 C 
BRANCH   9  10
ATOM     10  C   UNL     1     -20.162  -8.045  -6.435  1.00  0.00     0.006 C 
BRANCH  10  11
ATOM     11  C   UNL     1     -19.675  -7.022  -7.470  1.00  0.00     0.053 C 
BRANCH  11  12
ATOM     12  C   UNL     1     -18.468  -7.531  -8.196  1.00  0.00     0.041 C 
ATOM     13  O   UNL     1     -17.343  -7.531  -7.631  1.00  0.00    -0.550 OA
ATOM     14  O   UNL     1     -18.583  -7.981  -9.507  1.00  0.00    -0.550 OA
ENDBRANCH  11  12
ENDBRANCH  10  11
ENDBRANCH   9  10
ENDBRANCH   8   9
ENDBRANCH   7   8
ENDBRANCH   6   7
ENDBRANCH   5   6
ENDBRANCH   4   5
ENDBRANCH   3   4
ENDBRANCH   2   3
ENDBRANCH   1   2
BRANCH   1  15
ATOM     15  C   UNL     1     -23.733  -7.457  -6.429  1.00  0.00     0.000 C 
BRANCH  15  16
ATOM     16  C   UNL     1     -24.241  -6.503  -7.529  1.00  0.00     0.000 C 
BRANCH  16  17
ATOM     17  C   UNL     1     -25.239  -5.429  -7.052  1.00  0.00     0.000 C 
BRANCH  17  18
ATOM     18  C   UNL     1     -26.624  -5.963  -6.648  1.00  0.00    -0.000 C 
BRANCH  18  19
ATOM     19  C   UNL     1     -27.041  -5.529  -5.235  1.00  0.00    -0.000 C 
BRANCH  19  20
ATOM     20  C   UNL     1     -26.392  -6.422  -4.171  1.00  0.00    -0.000 C 
BRANCH  20  21
ATOM     21  C   UNL     1     -25.659  -5.580  -3.118  1.00  0.00    -0.000 C 
BRANCH  21  22
ATOM     22  C   UNL     1     -24.262  -5.173  -3.611  1.00  0.00    -0.000 C 
BRANCH  22  23
ATOM     23  C   UNL     1     -23.995  -3.662  -3.475  1.00  0.00    -0.000 C 
BRANCH  23  24
ATOM     24  C   UNL     1     -24.947  -2.759  -4.283  1.00  0.00    -0.000 C 
BRANCH  24  25
ATOM     25  C   UNL     1     -25.649  -1.704  -3.417  1.00  0.00    -0.003 C 
ATOM     26  C   UNL     1     -25.652  -2.114  -1.947  1.00  0.00     0.004 C 
ENDBRANCH  24  25
ENDBRANCH  23  24
ENDBRANCH  22  23
ENDBRANCH  21  22
ENDBRANCH  20  21
ENDBRANCH  19  20
ENDBRANCH  18  19
ENDBRANCH  17  18
ENDBRANCH  16  17
ENDBRANCH  15  16
ENDBRANCH   1  15
TORSDOF 22
ENDMDL
MODEL 7
REMARK VINA RESULT:    -4.253      3.315      8.061
REMARK INTER + INTRA:         -13.175
REMARK INTER:                  -9.306
REMARK INTRA:                  -3.868
REMARK UNBOUND:                -3.451
REMARK SMILES CCCCCCCCCCCCCCCCCCCCCCCC(=O)[O-]
REMARK SMILES IDX 13 1 14 2 15 3 16 4 17 5 18 6 19 7 20 8 21 9 22 10 23 11
REMARK SMILES IDX 24 12 25 13 26 14 12 15 11 16 10 17 9 18 8 19 7 20 6 21 5 22
REMARK SMILES IDX 4 23 3 24 2 25 1 26
REMARK H PARENT
REMARK Flexibility Score: inf
ROOT
ATOM      1  C   UNL     1     -23.145  -6.852  -4.593  1.00  0.00     0.000 C 
ENDROOT
BRANCH   1   2
ATOM      2  C   UNL     1     -22.291  -7.337  -5.778  1.00  0.00     0.000 C 
BRANCH   2   3
ATOM      3  C   UNL     1     -23.106  -7.507  -7.068  1.00  0.00     0.000 C 
BRANCH   3   4
ATOM      4  C   UNL     1     -22.717  -8.798  -7.798  1.00  0.00     0.000 C 
BRANCH   4   5
ATOM      5  C   UNL     1     -22.921 -10.020  -6.896  1.00  0.00     0.000 C 
BRANCH   5   6
ATOM      6  C   UNL     1     -21.760 -11.012  -7.036  1.00  0.00     0.000 C 
BRANCH   6   7
ATOM      7  C   UNL     1     -21.417 -11.644  -5.678  1.00  0.00     0.000 C 
BRANCH   7   8
ATOM      8  C   UNL     1     -22.138 -10.960  -4.504  1.00  0.00     0.000 C 
BRANCH   8   9
ATOM      9  C   UNL     1     -21.231 -10.104  -3.600  1.00  0.00     0.000 C 
BRANCH   9  10
ATOM     10  C   UNL     1     -19.747 -10.112  -4.023  1.00  0.00     0.006 C 
BRANCH  10  11
ATOM     11  C   UNL     1     -19.299  -8.759  -4.593  1.00  0.00     0.053 C 
BRANCH  11  12
ATOM     12  C   UNL     1     -18.601  -8.938  -5.905  1.00  0.00     0.041 C 
ATOM     13  O   UNL     1     -19.167  -8.590  -6.976  1.00  0.00    -0.550 OA
ATOM     14  O   UNL     1     -17.335  -9.512  -5.948  1.00  0.00    -0.550 OA
ENDBRANCH  11  12
ENDBRANCH  10  11
ENDBRANCH   9  10
ENDBRANCH   8   9
ENDBRANCH   7   8
ENDBRANCH   6   7
ENDBRANCH   5   6
ENDBRANCH   4   5
ENDBRANCH   3   4
ENDBRANCH   2   3
ENDBRANCH   1   2
BRANCH   1  15
ATOM     15  C   UNL     1     -24.226  -7.846  -4.119  1.00  0.00     0.000 C 
BRANCH  15  16
ATOM     16  C   UNL     1     -25.645  -7.568  -4.652  1.00  0.00     0.000 C 
BRANCH  16  17
ATOM     17  C   UNL     1     -26.340  -6.332  -4.046  1.00  0.00     0.000 C 
BRANCH  17  18
ATOM     18  C   UNL     1     -26.855  -5.309  -5.073  1.00  0.00    -0.000 C 
BRANCH  18  19
ATOM     19  C   UNL     1     -25.828  -4.997  -6.170  1.00  0.00    -0.000 C 
BRANCH  19  20
ATOM     20  C   UNL     1     -25.353  -3.542  -6.083  1.00  0.00    -0.000 C 
BRANCH  20  21
ATOM     21  C   UNL     1     -26.413  -2.657  -5.412  1.00  0.00    -0.000 C 
BRANCH  21  22
ATOM     22  C   UNL     1     -25.809  -1.321  -4.955  1.00  0.00    -0.000 C 
BRANCH  22  23
ATOM     23  C   UNL     1     -25.007  -1.442  -3.645  1.00  0.00    -0.000 C 
BRANCH  23  24
ATOM     24  C   UNL     1     -25.789  -2.035  -2.458  1.00  0.00    -0.000 C 
BRANCH  24  25
ATOM     25  C   UNL     1     -24.961  -3.028  -1.632  1.00  0.00    -0.003 C 
ATOM     26  C   UNL     1     -24.166  -3.966  -2.537  1.00  0.00     0.004 C 
ENDBRANCH  24  25
ENDBRANCH  23  24
ENDBRANCH  22  23
ENDBRANCH  21  22
ENDBRANCH  20  21
ENDBRANCH  19  20
ENDBRANCH  18  19
ENDBRANCH  17  18
ENDBRANCH  16  17
ENDBRANCH  15  16
ENDBRANCH   1  15
TORSDOF 22
ENDMDL
MODEL 8
REMARK VINA RESULT:    -4.248      1.858      3.213
REMARK INTER + INTRA:         -13.162
REMARK INTER:                  -9.287
REMARK INTRA:                  -3.875
REMARK UNBOUND:                -3.451
REMARK SMILES CCCCCCCCCCCCCCCCCCCCCCCC(=O)[O-]
REMARK SMILES IDX 13 1 14 2 15 3 16 4 17 5 18 6 19 7 20 8 21 9 22 10 23 11
REMARK SMILES IDX 24 12 25 13 26 14 12 15 11 16 10 17 9 18 8 19 7 20 6 21 5 22
REMARK SMILES IDX 4 23 3 24 2 25 1 26
REMARK H PARENT
REMARK Flexibility Score: inf
ROOT
ATOM      1  C   UNL     1     -25.257  -7.096  -2.969  1.00  0.00     0.000 C 
ENDROOT
BRANCH   1   2
ATOM      2  C   UNL     1     -25.882  -5.750  -3.377  1.00  0.00     0.000 C 
BRANCH   2   3
ATOM      3  C   UNL     1     -26.782  -5.863  -4.616  1.00  0.00     0.000 C 
BRANCH   3   4
ATOM      4  C   UNL     1     -26.890  -4.517  -5.343  1.00  0.00     0.000 C 
BRANCH   4   5
ATOM      5  C   UNL     1     -25.642  -4.251  -6.191  1.00  0.00     0.000 C 
BRANCH   5   6
ATOM      6  C   UNL     1     -25.174  -2.798  -6.046  1.00  0.00     0.000 C 
BRANCH   6   7
ATOM      7  C   UNL     1     -26.195  -1.974  -5.248  1.00  0.00     0.000 C 
BRANCH   7   8
ATOM      8  C   UNL     1     -25.582  -1.308  -4.004  1.00  0.00     0.000 C 
BRANCH   8   9
ATOM      9  C   UNL     1     -25.899  -2.013  -2.672  1.00  0.00     0.000 C 
BRANCH   9  10
ATOM     10  C   UNL     1     -24.646  -2.515  -1.922  1.00  0.00     0.006 C 
BRANCH  10  11
ATOM     11  C   UNL     1     -23.377  -2.410  -2.778  1.00  0.00     0.053 C 
BRANCH  11  12
ATOM     12  C   UNL     1     -22.739  -3.754  -2.954  1.00  0.00     0.041 C 
ATOM     13  O   UNL     1     -22.728  -4.306  -4.086  1.00  0.00    -0.550 OA
ATOM     14  O   UNL     1     -22.181  -4.407  -1.861  1.00  0.00    -0.550 OA
ENDBRANCH  11  12
ENDBRANCH  10  11
ENDBRANCH   9  10
ENDBRANCH   8   9
ENDBRANCH   7   8
ENDBRANCH   6   7
ENDBRANCH   5   6
ENDBRANCH   4   5
ENDBRANCH   3   4
ENDBRANCH   2   3
ENDBRANCH   1   2
BRANCH   1  15
ATOM     15  C   UNL     1     -24.165  -7.623  -3.922  1.00  0.00     0.000 C 
BRANCH  15  16
ATOM     16  C   UNL     1     -24.567  -8.858  -4.753  1.00  0.00     0.000 C 
BRANCH  16  17
ATOM     17  C   UNL     1     -24.655  -8.621  -6.274  1.00  0.00     0.000 C 
BRANCH  17  18
ATOM     18  C   UNL     1     -23.866  -7.403  -6.787  1.00  0.00    -0.000 C 
BRANCH  18  19
ATOM     19  C   UNL     1     -22.402  -7.734  -7.109  1.00  0.00    -0.000 C 
BRANCH  19  20
ATOM     20  C   UNL     1     -22.306  -8.765  -8.240  1.00  0.00    -0.000 C 
BRANCH  20  21
ATOM     21  C   UNL     1     -21.403  -9.939  -7.840  1.00  0.00    -0.000 C 
BRANCH  21  22
ATOM     22  C   UNL     1     -22.176 -10.971  -7.004  1.00  0.00    -0.000 C 
BRANCH  22  23
ATOM     23  C   UNL     1     -21.338 -11.557  -5.852  1.00  0.00    -0.000 C 
BRANCH  23  24
ATOM     24  C   UNL     1     -21.643 -10.967  -4.461  1.00  0.00    -0.000 C 
BRANCH  24  25
ATOM     25  C   UNL     1     -20.954  -9.616  -4.220  1.00  0.00    -0.003 C 
ATOM     26  C   UNL     1     -19.480  -9.807  -3.870  1.00  0.00     0.004 C 
ENDBRANCH  24  25
ENDBRANCH  23  24
ENDBRANCH  22  23
ENDBRANCH  21  22
ENDBRANCH  20  21
ENDBRANCH  19  20
ENDBRANCH  18  19
ENDBRANCH  17  18
ENDBRANCH  16  17
ENDBRANCH  15  16
ENDBRANCH   1  15
TORSDOF 22
ENDMDL
MODEL 9
REMARK VINA RESULT:    -4.238      3.523      8.022
REMARK INTER + INTRA:         -13.139
REMARK INTER:                  -8.949
REMARK INTRA:                  -4.190
REMARK UNBOUND:                -3.451
REMARK SMILES CCCCCCCCCCCCCCCCCCCCCCCC(=O)[O-]
REMARK SMILES IDX 13 1 14 2 15 3 16 4 17 5 18 6 19 7 20 8 21 9 22 10 23 11
REMARK SMILES IDX 24 12 25 13 26 14 12 15 11 16 10 17 9 18 8 19 7 20 6 21 5 22
REMARK SMILES IDX 4 23 3 24 2 25 1 26
REMARK H PARENT
REMARK Flexibility Score: inf
ROOT
ATOM      1  C   UNL     1     -22.655  -5.568  -6.938  1.00  0.00     0.000 C 
ENDROOT
BRANCH   1   2
ATOM      2  C   UNL     1     -22.156  -7.019  -7.055  1.00  0.00     0.000 C 
BRANCH   2   3
ATOM      3  C   UNL     1     -23.220  -7.972  -7.618  1.00  0.00     0.000 C 
BRANCH   3   4
ATOM      4  C   UNL     1     -24.410  -8.097  -6.658  1.00  0.00     0.000 C 
BRANCH   4   5
ATOM      5  C   UNL     1     -24.468  -9.497  -6.037  1.00  0.00     0.000 C 
BRANCH   5   6
ATOM      6  C   UNL     1     -24.101  -9.458  -4.549  1.00  0.00     0.000 C 
BRANCH   6   7
ATOM      7  C   UNL     1     -22.595  -9.690  -4.353  1.00  0.00     0.000 C 
BRANCH   7   8
ATOM      8  C   UNL     1     -22.212 -11.179  -4.394  1.00  0.00     0.000 C 
BRANCH   8   9
ATOM      9  C   UNL     1     -21.450 -11.615  -5.660  1.00  0.00     0.000 C 
BRANCH   9  10
ATOM     10  C   UNL     1     -20.283 -10.677  -6.035  1.00  0.00     0.006 C 
BRANCH  10  11
ATOM     11  C   UNL     1     -20.354 -10.219  -7.498  1.00  0.00     0.053 C 
BRANCH  11  12
ATOM     12  C   UNL     1     -19.106  -9.492  -7.891  1.00  0.00     0.041 C 
ATOM     13  O   UNL     1     -19.170  -8.310  -8.321  1.00  0.00    -0.550 OA
ATOM     14  O   UNL     1     -17.873 -10.130  -7.808  1.00  0.00    -0.550 OA
ENDBRANCH  11  12
ENDBRANCH  10  11
ENDBRANCH   9  10
ENDBRANCH   8   9
ENDBRANCH   7   8
ENDBRANCH   6   7
ENDBRANCH   5   6
ENDBRANCH   4   5
ENDBRANCH   3   4
ENDBRANCH   2   3
ENDBRANCH   1   2
BRANCH   1  15
ATOM     15  C   UNL     1     -22.720  -5.014  -5.500  1.00  0.00     0.000 C 
BRANCH  15  16
ATOM     16  C   UNL     1     -22.263  -5.995  -4.403  1.00  0.00     0.000 C 
BRANCH  16  17
ATOM     17  C   UNL     1     -23.229  -6.138  -3.210  1.00  0.00     0.000 C 
BRANCH  17  18
ATOM     18  C   UNL     1     -24.235  -4.985  -3.048  1.00  0.00    -0.000 C 
BRANCH  18  19
ATOM     19  C   UNL     1     -25.688  -5.469  -2.955  1.00  0.00    -0.000 C 
BRANCH  19  20
ATOM     20  C   UNL     1     -26.086  -6.260  -4.207  1.00  0.00    -0.000 C 
BRANCH  20  21
ATOM     21  C   UNL     1     -27.009  -5.431  -5.111  1.00  0.00    -0.000 C 
BRANCH  21  22
ATOM     22  C   UNL     1     -26.200  -4.465  -5.990  1.00  0.00    -0.000 C 
BRANCH  22  23
ATOM     23  C   UNL     1     -26.445  -2.986  -5.636  1.00  0.00    -0.000 C 
BRANCH  23  24
ATOM     24  C   UNL     1     -25.173  -2.122  -5.542  1.00  0.00    -0.000 C 
BRANCH  24  25
ATOM     25  C   UNL     1     -25.246  -1.069  -4.427  1.00  0.00    -0.003 C 
ATOM     26  C   UNL     1     -25.761  -1.682  -3.126  1.00  0.00     0.004 C 
ENDBRANCH  24  25
ENDBRANCH  23  24
ENDBRANCH  22  23
ENDBRANCH  21  22
ENDBRANCH  20  21
ENDBRANCH  19  20
ENDBRANCH  18  19
ENDBRANCH  17  18
ENDBRANCH  16  17
ENDBRANCH  15  16
ENDBRANCH   1  15
TORSDOF 22
ENDMDL
