MODEL 1
REMARK VINA RESULT:    -7.464      0.000      0.000
REMARK INTER + INTRA:          -9.237
REMARK INTER:                  -8.991
REMARK INTRA:                  -0.246
REMARK UNBOUND:                -0.246
REMARK SMILES O=c1c(O)c(-c2ccc(O)c(O)c2)oc2cc(O)cc(O)c12
REMARK SMILES IDX 5 1 3 2 2 3 1 4 22 5 20 6 19 7 17 8 16 9 15 10 14 11 6 12
REMARK SMILES IDX 7 13 8 14 9 15 13 16 11 17 10 18 12 20 4 22 21 24 18 26
REMARK H PARENT 10 19 12 21 4 23 21 25 18 27
REMARK Flexibility Score: inf
ROOT
ATOM      1  C   UNL     1      49.312  32.106  64.731  1.00  0.00     0.180 A 
ATOM      2  C   UNL     1      50.361  31.371  65.316  1.00  0.00     0.208 A 
ATOM      3  C   UNL     1      51.426  30.948  64.507  1.00  0.00     0.238 A 
ATOM      4  O   UNL     1      52.366  30.280  65.017  1.00  0.00    -0.285 OA
ATOM      5  C   UNL     1      51.437  31.284  63.137  1.00  0.00     0.111 A 
ATOM      6  C   UNL     1      52.475  30.900  62.254  1.00  0.00     0.134 A 
ATOM      7  C   UNL     1      52.417  31.281  60.905  1.00  0.00     0.093 A 
ATOM      8  C   UNL     1      51.343  32.037  60.424  1.00  0.00     0.123 A 
ATOM      9  C   UNL     1      50.317  32.417  61.290  1.00  0.00     0.094 A 
ATOM     10  C   UNL     1      50.355  32.047  62.638  1.00  0.00     0.146 A 
ATOM     11  O   UNL     1      49.363  32.417  63.439  1.00  0.00    -0.452 OA
ENDROOT
BRANCH   1  12
ATOM     12  C   UNL     1      48.144  32.571  65.514  1.00  0.00     0.025 A 
ATOM     13  C   UNL     1      48.289  33.656  66.393  1.00  0.00     0.016 A 
ATOM     14  C   UNL     1      47.196  34.124  67.127  1.00  0.00     0.051 A 
ATOM     15  C   UNL     1      45.939  33.523  66.981  1.00  0.00     0.157 A 
ATOM     16  C   UNL     1      46.875  31.984  65.356  1.00  0.00     0.062 A 
ATOM     17  C   UNL     1      45.778  32.455  66.090  1.00  0.00     0.158 A 
BRANCH  15  18
ATOM     18  O   UNL     1      44.847  33.987  67.711  1.00  0.00    -0.504 OA
ATOM     19  H   UNL     1      43.904  33.674  67.512  1.00  0.00     0.293 HD
ENDBRANCH  15  18
BRANCH  17  20
ATOM     20  O   UNL     1      44.522  31.868  65.937  1.00  0.00    -0.504 OA
ATOM     21  H   UNL     1      44.360  31.131  65.261  1.00  0.00     0.293 HD
ENDBRANCH  17  20
ENDBRANCH   1  12
BRANCH   2  22
ATOM     22  O   UNL     1      50.351  31.094  66.685  1.00  0.00    -0.502 OA
ATOM     23  H   UNL     1      49.614  31.419  67.299  1.00  0.00     0.293 HD
ENDBRANCH   2  22
BRANCH   6  24
ATOM     24  O   UNL     1      53.560  30.147  62.704  1.00  0.00    -0.507 OA
ATOM     25  H   UNL     1      53.980  29.421  62.134  1.00  0.00     0.293 HD
ENDBRANCH   6  24
BRANCH   8  26
ATOM     26  O   UNL     1      51.285  32.416  59.084  1.00  0.00    -0.508 OA
ATOM     27  H   UNL     1      52.124  32.625  58.555  1.00  0.00     0.293 HD
ENDBRANCH   8  26
TORSDOF 6
ENDMDL
MODEL 2
REMARK VINA RESULT:    -7.220      1.622      6.453
REMARK INTER + INTRA:          -8.943
REMARK INTER:                  -9.009
REMARK INTRA:                   0.066
REMARK UNBOUND:                -0.246
REMARK SMILES O=c1c(O)c(-c2ccc(O)c(O)c2)oc2cc(O)cc(O)c12
REMARK SMILES IDX 5 1 3 2 2 3 1 4 22 5 20 6 19 7 17 8 16 9 15 10 14 11 6 12
REMARK SMILES IDX 7 13 8 14 9 15 13 16 11 17 10 18 12 20 4 22 21 24 18 26
REMARK H PARENT 10 19 12 21 4 23 21 25 18 27
REMARK Flexibility Score: inf
ROOT
ATOM      1  C   UNL     1      49.873  32.024  63.711  1.00  0.00     0.180 A 
ATOM      2  C   UNL     1      50.824  32.022  64.749  1.00  0.00     0.208 A 
ATOM      3  C   UNL     1      50.385  31.855  66.071  1.00  0.00     0.238 A 
ATOM      4  O   UNL     1      51.227  31.863  67.011  1.00  0.00    -0.285 OA
ATOM      5  C   UNL     1      49.011  31.674  66.332  1.00  0.00     0.111 A 
ATOM      6  C   UNL     1      48.487  31.495  67.635  1.00  0.00     0.134 A 
ATOM      7  C   UNL     1      47.107  31.312  67.810  1.00  0.00     0.093 A 
ATOM      8  C   UNL     1      46.244  31.302  66.709  1.00  0.00     0.123 A 
ATOM      9  C   UNL     1      46.756  31.478  65.422  1.00  0.00     0.094 A 
ATOM     10  C   UNL     1      48.128  31.664  65.226  1.00  0.00     0.146 A 
ATOM     11  O   UNL     1      48.587  31.835  63.992  1.00  0.00    -0.452 OA
ENDROOT
BRANCH   1  12
ATOM     12  C   UNL     1      50.256  32.213  62.293  1.00  0.00     0.025 A 
ATOM     13  C   UNL     1      51.307  31.454  61.754  1.00  0.00     0.016 A 
ATOM     14  C   UNL     1      51.673  31.601  60.414  1.00  0.00     0.051 A 
ATOM     15  C   UNL     1      50.982  32.498  59.589  1.00  0.00     0.157 A 
ATOM     16  C   UNL     1      49.552  33.097  61.455  1.00  0.00     0.062 A 
ATOM     17  C   UNL     1      49.917  33.243  60.110  1.00  0.00     0.158 A 
BRANCH  15  18
ATOM     18  O   UNL     1      51.344  32.648  58.251  1.00  0.00    -0.504 OA
ATOM     19  H   UNL     1      51.216  33.526  57.763  1.00  0.00     0.293 HD
ENDBRANCH  15  18
BRANCH  17  20
ATOM     20  O   UNL     1      49.223  34.125  59.282  1.00  0.00    -0.504 OA
ATOM     21  H   UNL     1      48.819  34.982  59.641  1.00  0.00     0.293 HD
ENDBRANCH  17  20
ENDBRANCH   1  12
BRANCH   2  22
ATOM     22  O   UNL     1      52.185  32.154  64.461  1.00  0.00    -0.502 OA
ATOM     23  H   UNL     1      52.893  31.584  64.908  1.00  0.00     0.293 HD
ENDBRANCH   2  22
BRANCH   6  24
ATOM     24  O   UNL     1      49.322  31.499  68.752  1.00  0.00    -0.507 OA
ATOM     25  H   UNL     1      49.282  32.237  69.446  1.00  0.00     0.293 HD
ENDBRANCH   6  24
BRANCH   8  26
ATOM     26  O   UNL     1      44.873  31.119  66.882  1.00  0.00    -0.508 OA
ATOM     27  H   UNL     1      44.302  31.807  67.359  1.00  0.00     0.293 HD
ENDBRANCH   8  26
TORSDOF 6
ENDMDL
MODEL 3
REMARK VINA RESULT:    -7.167      2.680      2.858
REMARK INTER + INTRA:          -8.879
REMARK INTER:                  -8.561
REMARK INTRA:                  -0.318
REMARK UNBOUND:                -0.246
REMARK SMILES O=c1c(O)c(-c2ccc(O)c(O)c2)oc2cc(O)cc(O)c12
REMARK SMILES IDX 5 1 3 2 2 3 1 4 22 5 20 6 19 7 17 8 16 9 15 10 14 11 6 12
REMARK SMILES IDX 7 13 8 14 9 15 13 16 11 17 10 18 12 20 4 22 21 24 18 26
REMARK H PARENT 10 19 12 21 4 23 21 25 18 27
REMARK Flexibility Score: inf
ROOT
ATOM      1  C   UNL     1      48.858  30.124  64.195  1.00  0.00     0.180 A 
ATOM      2  C   UNL     1      48.742  28.859  63.588  1.00  0.00     0.208 A 
ATOM      3  C   UNL     1      49.342  28.648  62.337  1.00  0.00     0.238 A 
ATOM      4  O   UNL     1      49.235  27.522  61.779  1.00  0.00    -0.285 OA
ATOM      5  C   UNL     1      50.063  29.695  61.724  1.00  0.00     0.111 A 
ATOM      6  C   UNL     1      50.700  29.563  60.467  1.00  0.00     0.134 A 
ATOM      7  C   UNL     1      51.406  30.650  59.929  1.00  0.00     0.093 A 
ATOM      8  C   UNL     1      51.487  31.862  60.624  1.00  0.00     0.123 A 
ATOM      9  C   UNL     1      50.859  31.996  61.863  1.00  0.00     0.094 A 
ATOM     10  C   UNL     1      50.150  30.926  62.417  1.00  0.00     0.146 A 
ATOM     11  O   UNL     1      49.558  31.083  63.595  1.00  0.00    -0.452 OA
ENDROOT
BRANCH   1  12
ATOM     12  C   UNL     1      48.237  30.430  65.504  1.00  0.00     0.025 A 
ATOM     13  C   UNL     1      49.032  30.430  66.662  1.00  0.00     0.016 A 
ATOM     14  C   UNL     1      48.472  30.735  67.905  1.00  0.00     0.051 A 
ATOM     15  C   UNL     1      47.112  31.059  68.006  1.00  0.00     0.157 A 
ATOM     16  C   UNL     1      46.878  30.775  65.608  1.00  0.00     0.062 A 
ATOM     17  C   UNL     1      46.316  31.083  66.854  1.00  0.00     0.158 A 
BRANCH  15  18
ATOM     18  O   UNL     1      46.549  31.363  69.244  1.00  0.00    -0.504 OA
ATOM     19  H   UNL     1      45.673  31.865  69.319  1.00  0.00     0.293 HD
ENDBRANCH  15  18
BRANCH  17  20
ATOM     20  O   UNL     1      44.966  31.419  66.957  1.00  0.00    -0.504 OA
ATOM     21  H   UNL     1      44.357  30.968  67.629  1.00  0.00     0.293 HD
ENDBRANCH  17  20
ENDBRANCH   1  12
BRANCH   2  22
ATOM     22  O   UNL     1      48.065  27.824  64.238  1.00  0.00    -0.502 OA
ATOM     23  H   UNL     1      47.593  27.082  63.733  1.00  0.00     0.293 HD
ENDBRANCH   2  22
BRANCH   6  24
ATOM     24  O   UNL     1      50.638  28.368  59.752  1.00  0.00    -0.507 OA
ATOM     25  H   UNL     1      49.778  27.838  59.671  1.00  0.00     0.293 HD
ENDBRANCH   6  24
BRANCH   8  26
ATOM     26  O   UNL     1      52.188  32.941  60.089  1.00  0.00    -0.508 OA
ATOM     27  H   UNL     1      51.718  33.679  59.578  1.00  0.00     0.293 HD
ENDBRANCH   8  26
TORSDOF 6
ENDMDL
MODEL 4
REMARK VINA RESULT:    -6.922      3.181      6.512
REMARK INTER + INTRA:          -8.584
REMARK INTER:                  -8.373
REMARK INTRA:                  -0.211
REMARK UNBOUND:                -0.246
REMARK SMILES O=c1c(O)c(-c2ccc(O)c(O)c2)oc2cc(O)cc(O)c12
REMARK SMILES IDX 5 1 3 2 2 3 1 4 22 5 20 6 19 7 17 8 16 9 15 10 14 11 6 12
REMARK SMILES IDX 7 13 8 14 9 15 13 16 11 17 10 18 12 20 4 22 21 24 18 26
REMARK H PARENT 10 19 12 21 4 23 21 25 18 27
REMARK Flexibility Score: inf
ROOT
ATOM      1  C   UNL     1      51.032  31.382  64.580  1.00  0.00     0.180 A 
ATOM      2  C   UNL     1      51.822  32.092  65.505  1.00  0.00     0.208 A 
ATOM      3  C   UNL     1      51.648  31.846  66.875  1.00  0.00     0.238 A 
ATOM      4  O   UNL     1      52.342  32.483  67.713  1.00  0.00    -0.285 OA
ATOM      5  C   UNL     1      50.706  30.884  67.297  1.00  0.00     0.111 A 
ATOM      6  C   UNL     1      50.473  30.574  68.658  1.00  0.00     0.134 A 
ATOM      7  C   UNL     1      49.524  29.598  68.996  1.00  0.00     0.093 A 
ATOM      8  C   UNL     1      48.807  28.926  68.000  1.00  0.00     0.123 A 
ATOM      9  C   UNL     1      49.033  29.229  66.656  1.00  0.00     0.094 A 
ATOM     10  C   UNL     1      49.973  30.200  66.298  1.00  0.00     0.146 A 
ATOM     11  O   UNL     1      50.164  30.473  65.013  1.00  0.00    -0.452 OA
ENDROOT
BRANCH   1  12
ATOM     12  C   UNL     1      51.143  31.600  63.119  1.00  0.00     0.025 A 
ATOM     13  C   UNL     1      52.287  31.152  62.440  1.00  0.00     0.016 A 
ATOM     14  C   UNL     1      52.405  31.329  61.059  1.00  0.00     0.051 A 
ATOM     15  C   UNL     1      51.374  31.941  60.335  1.00  0.00     0.157 A 
ATOM     16  C   UNL     1      50.101  32.196  62.385  1.00  0.00     0.062 A 
ATOM     17  C   UNL     1      50.218  32.371  60.999  1.00  0.00     0.158 A 
BRANCH  15  18
ATOM     18  O   UNL     1      51.488  32.120  58.958  1.00  0.00    -0.504 OA
ATOM     19  H   UNL     1      51.084  31.461  58.302  1.00  0.00     0.293 HD
ENDBRANCH  15  18
BRANCH  17  20
ATOM     20  O   UNL     1      49.188  32.968  60.274  1.00  0.00    -0.504 OA
ATOM     21  H   UNL     1      48.233  32.969  60.613  1.00  0.00     0.293 HD
ENDBRANCH  17  20
ENDBRANCH   1  12
BRANCH   2  22
ATOM     22  O   UNL     1      52.783  33.004  65.059  1.00  0.00    -0.502 OA
ATOM     23  H   UNL     1      52.772  33.979  65.331  1.00  0.00     0.293 HD
ENDBRANCH   2  22
BRANCH   6  24
ATOM     24  O   UNL     1      51.173  31.226  69.673  1.00  0.00    -0.507 OA
ATOM     25  H   UNL     1      50.744  31.949  70.239  1.00  0.00     0.293 HD
ENDBRANCH   6  24
BRANCH   8  26
ATOM     26  O   UNL     1      47.865  27.956  68.335  1.00  0.00    -0.508 OA
ATOM     27  H   UNL     1      47.825  27.554  69.264  1.00  0.00     0.293 HD
ENDBRANCH   8  26
TORSDOF 6
ENDMDL
MODEL 5
REMARK VINA RESULT:    -6.903      2.903      3.544
REMARK INTER + INTRA:          -8.561
REMARK INTER:                  -8.232
REMARK INTRA:                  -0.329
REMARK UNBOUND:                -0.246
REMARK SMILES O=c1c(O)c(-c2ccc(O)c(O)c2)oc2cc(O)cc(O)c12
REMARK SMILES IDX 5 1 3 2 2 3 1 4 22 5 20 6 19 7 17 8 16 9 15 10 14 11 6 12
REMARK SMILES IDX 7 13 8 14 9 15 13 16 11 17 10 18 12 20 4 22 21 24 18 26
REMARK H PARENT 10 19 12 21 4 23 21 25 18 27
REMARK Flexibility Score: inf
ROOT
ATOM      1  C   UNL     1      49.202  30.924  64.116  1.00  0.00     0.180 A 
ATOM      2  C   UNL     1      50.105  31.707  63.370  1.00  0.00     0.208 A 
ATOM      3  C   UNL     1      50.575  31.216  62.143  1.00  0.00     0.238 A 
ATOM      4  O   UNL     1      51.392  31.904  61.471  1.00  0.00    -0.285 OA
ATOM      5  C   UNL     1      50.123  29.965  61.673  1.00  0.00     0.111 A 
ATOM      6  C   UNL     1      50.545  29.401  60.445  1.00  0.00     0.134 A 
ATOM      7  C   UNL     1      50.042  28.155  60.043  1.00  0.00     0.093 A 
ATOM      8  C   UNL     1      49.125  27.464  60.844  1.00  0.00     0.123 A 
ATOM      9  C   UNL     1      48.706  28.017  62.056  1.00  0.00     0.094 A 
ATOM     10  C   UNL     1      49.197  29.257  62.475  1.00  0.00     0.146 A 
ATOM     11  O   UNL     1      48.787  29.756  63.635  1.00  0.00    -0.452 OA
ENDROOT
BRANCH   1  12
ATOM     12  C   UNL     1      48.676  31.365  65.428  1.00  0.00     0.025 A 
ATOM     13  C   UNL     1      47.485  32.107  65.481  1.00  0.00     0.016 A 
ATOM     14  C   UNL     1      46.960  32.516  66.709  1.00  0.00     0.051 A 
ATOM     15  C   UNL     1      47.609  32.175  67.903  1.00  0.00     0.157 A 
ATOM     16  C   UNL     1      49.313  31.008  66.631  1.00  0.00     0.062 A 
ATOM     17  C   UNL     1      48.785  31.416  67.863  1.00  0.00     0.158 A 
BRANCH  15  18
ATOM     18  O   UNL     1      47.088  32.582  69.130  1.00  0.00    -0.504 OA
ATOM     19  H   UNL     1      47.173  32.006  69.959  1.00  0.00     0.293 HD
ENDBRANCH  15  18
BRANCH  17  20
ATOM     20  O   UNL     1      49.421  31.067  69.054  1.00  0.00    -0.504 OA
ATOM     21  H   UNL     1      50.431  31.053  69.131  1.00  0.00     0.293 HD
ENDBRANCH  17  20
ENDBRANCH   1  12
BRANCH   2  22
ATOM     22  O   UNL     1      50.499  32.965  63.834  1.00  0.00    -0.502 OA
ATOM     23  H   UNL     1      49.971  33.476  64.531  1.00  0.00     0.293 HD
ENDBRANCH   2  22
BRANCH   6  24
ATOM     24  O   UNL     1      51.457  30.066  59.625  1.00  0.00    -0.507 OA
ATOM     25  H   UNL     1      51.956  30.890  59.939  1.00  0.00     0.293 HD
ENDBRANCH   6  24
BRANCH   8  26
ATOM     26  O   UNL     1      48.624  26.227  60.445  1.00  0.00    -0.508 OA
ATOM     27  H   UNL     1      47.732  25.883  60.780  1.00  0.00     0.293 HD
ENDBRANCH   8  26
TORSDOF 6
ENDMDL
MODEL 6
REMARK VINA RESULT:    -6.813      2.535      6.498
REMARK INTER + INTRA:          -8.453
REMARK INTER:                  -8.350
REMARK INTRA:                  -0.103
REMARK UNBOUND:                -0.246
REMARK SMILES O=c1c(O)c(-c2ccc(O)c(O)c2)oc2cc(O)cc(O)c12
REMARK SMILES IDX 5 1 3 2 2 3 1 4 22 5 20 6 19 7 17 8 16 9 15 10 14 11 6 12
REMARK SMILES IDX 7 13 8 14 9 15 13 16 11 17 10 18 12 20 4 22 21 24 18 26
REMARK H PARENT 10 19 12 21 4 23 21 25 18 27
REMARK Flexibility Score: inf
ROOT
ATOM      1  C   UNL     1      49.776  30.800  63.744  1.00  0.00     0.180 A 
ATOM      2  C   UNL     1      50.887  31.188  64.518  1.00  0.00     0.208 A 
ATOM      3  C   UNL     1      50.675  31.969  65.664  1.00  0.00     0.238 A 
ATOM      4  O   UNL     1      51.662  32.332  66.359  1.00  0.00    -0.285 OA
ATOM      5  C   UNL     1      49.361  32.333  66.026  1.00  0.00     0.111 A 
ATOM      6  C   UNL     1      49.061  33.115  67.167  1.00  0.00     0.134 A 
ATOM      7  C   UNL     1      47.725  33.427  67.465  1.00  0.00     0.093 A 
ATOM      8  C   UNL     1      46.687  32.971  66.646  1.00  0.00     0.123 A 
ATOM      9  C   UNL     1      46.978  32.199  65.520  1.00  0.00     0.094 A 
ATOM     10  C   UNL     1      48.302  31.878  65.204  1.00  0.00     0.146 A 
ATOM     11  O   UNL     1      48.551  31.148  64.124  1.00  0.00    -0.452 OA
ENDROOT
BRANCH   1  12
ATOM     12  C   UNL     1      49.921  29.991  62.511  1.00  0.00     0.025 A 
ATOM     13  C   UNL     1      50.702  30.479  61.452  1.00  0.00     0.016 A 
ATOM     14  C   UNL     1      50.869  29.725  60.288  1.00  0.00     0.051 A 
ATOM     15  C   UNL     1      50.269  28.464  60.173  1.00  0.00     0.157 A 
ATOM     16  C   UNL     1      49.338  28.715  62.399  1.00  0.00     0.062 A 
ATOM     17  C   UNL     1      49.507  27.957  61.232  1.00  0.00     0.158 A 
BRANCH  15  18
ATOM     18  O   UNL     1      50.432  27.708  59.014  1.00  0.00    -0.504 OA
ATOM     19  H   UNL     1      51.251  27.809  58.425  1.00  0.00     0.293 HD
ENDBRANCH  15  18
BRANCH  17  20
ATOM     20  O   UNL     1      48.923  26.696  61.120  1.00  0.00    -0.504 OA
ATOM     21  H   UNL     1      49.485  25.858  61.021  1.00  0.00     0.293 HD
ENDBRANCH  17  20
ENDBRANCH   1  12
BRANCH   2  22
ATOM     22  O   UNL     1      52.174  30.773  64.165  1.00  0.00    -0.502 OA
ATOM     23  H   UNL     1      52.500  29.826  64.319  1.00  0.00     0.293 HD
ENDBRANCH   2  22
BRANCH   6  24
ATOM     24  O   UNL     1      50.074  33.584  68.003  1.00  0.00    -0.507 OA
ATOM     25  H   UNL     1      50.404  33.046  68.797  1.00  0.00     0.293 HD
ENDBRANCH   6  24
BRANCH   8  26
ATOM     26  O   UNL     1      45.361  33.279  66.942  1.00  0.00    -0.508 OA
ATOM     27  H   UNL     1      44.890  34.064  66.508  1.00  0.00     0.293 HD
ENDBRANCH   8  26
TORSDOF 6
ENDMDL
MODEL 7
REMARK VINA RESULT:    -6.713      3.633      5.960
REMARK INTER + INTRA:          -8.333
REMARK INTER:                  -8.001
REMARK INTRA:                  -0.332
REMARK UNBOUND:                -0.246
REMARK SMILES O=c1c(O)c(-c2ccc(O)c(O)c2)oc2cc(O)cc(O)c12
REMARK SMILES IDX 5 1 3 2 2 3 1 4 22 5 20 6 19 7 17 8 16 9 15 10 14 11 6 12
REMARK SMILES IDX 7 13 8 14 9 15 13 16 11 17 10 18 12 20 4 22 21 24 18 26
REMARK H PARENT 10 19 12 21 4 23 21 25 18 27
REMARK Flexibility Score: inf
ROOT
ATOM      1  C   UNL     1      49.478  31.407  67.614  1.00  0.00     0.180 A 
ATOM      2  C   UNL     1      50.592  31.938  66.936  1.00  0.00     0.208 A 
ATOM      3  C   UNL     1      51.869  31.773  67.495  1.00  0.00     0.238 A 
ATOM      4  O   UNL     1      52.873  32.254  66.902  1.00  0.00    -0.285 OA
ATOM      5  C   UNL     1      52.013  31.065  68.706  1.00  0.00     0.111 A 
ATOM      6  C   UNL     1      53.264  30.851  69.333  1.00  0.00     0.134 A 
ATOM      7  C   UNL     1      53.324  30.128  70.535  1.00  0.00     0.093 A 
ATOM      8  C   UNL     1      52.160  29.615  71.117  1.00  0.00     0.123 A 
ATOM      9  C   UNL     1      50.925  29.824  70.502  1.00  0.00     0.094 A 
ATOM     10  C   UNL     1      50.842  30.544  69.306  1.00  0.00     0.146 A 
ATOM     11  O   UNL     1      49.653  30.733  68.746  1.00  0.00    -0.452 OA
ENDROOT
BRANCH   1  12
ATOM     12  C   UNL     1      48.098  31.557  67.098  1.00  0.00     0.025 A 
ATOM     13  C   UNL     1      47.544  30.541  66.302  1.00  0.00     0.016 A 
ATOM     14  C   UNL     1      46.237  30.651  65.821  1.00  0.00     0.051 A 
ATOM     15  C   UNL     1      45.460  31.772  66.141  1.00  0.00     0.157 A 
ATOM     16  C   UNL     1      47.307  32.670  67.433  1.00  0.00     0.062 A 
ATOM     17  C   UNL     1      45.994  32.781  66.952  1.00  0.00     0.158 A 
BRANCH  15  18
ATOM     18  O   UNL     1      44.156  31.886  65.663  1.00  0.00    -0.504 OA
ATOM     19  H   UNL     1      43.751  32.787  65.437  1.00  0.00     0.293 HD
ENDBRANCH  15  18
BRANCH  17  20
ATOM     20  O   UNL     1      45.213  33.888  67.280  1.00  0.00    -0.504 OA
ATOM     21  H   UNL     1      45.173  34.704  66.681  1.00  0.00     0.293 HD
ENDBRANCH  17  20
ENDBRANCH   1  12
BRANCH   2  22
ATOM     22  O   UNL     1      50.428  32.593  65.712  1.00  0.00    -0.502 OA
ATOM     23  H   UNL     1      49.581  32.512  65.163  1.00  0.00     0.293 HD
ENDBRANCH   2  22
BRANCH   6  24
ATOM     24  O   UNL     1      54.441  31.349  68.776  1.00  0.00    -0.507 OA
ATOM     25  H   UNL     1      55.338  31.241  69.238  1.00  0.00     0.293 HD
ENDBRANCH   6  24
BRANCH   8  26
ATOM     26  O   UNL     1      52.220  28.896  72.309  1.00  0.00    -0.508 OA
ATOM     27  H   UNL     1      53.099  28.548  72.675  1.00  0.00     0.293 HD
ENDBRANCH   8  26
TORSDOF 6
ENDMDL
MODEL 8
REMARK VINA RESULT:    -6.660      1.881      2.341
REMARK INTER + INTRA:          -8.268
REMARK INTER:                  -8.136
REMARK INTRA:                  -0.132
REMARK UNBOUND:                -0.246
REMARK SMILES O=c1c(O)c(-c2ccc(O)c(O)c2)oc2cc(O)cc(O)c12
REMARK SMILES IDX 5 1 3 2 2 3 1 4 22 5 20 6 19 7 17 8 16 9 15 10 14 11 6 12
REMARK SMILES IDX 7 13 8 14 9 15 13 16 11 17 10 18 12 20 4 22 21 24 18 26
REMARK H PARENT 10 19 12 21 4 23 21 25 18 27
REMARK Flexibility Score: inf
ROOT
ATOM      1  C   UNL     1      49.567  31.794  64.341  1.00  0.00     0.180 A 
ATOM      2  C   UNL     1      50.868  31.282  64.176  1.00  0.00     0.208 A 
ATOM      3  C   UNL     1      51.500  31.421  62.931  1.00  0.00     0.238 A 
ATOM      4  O   UNL     1      52.661  30.957  62.768  1.00  0.00    -0.285 OA
ATOM      5  C   UNL     1      50.831  32.085  61.881  1.00  0.00     0.111 A 
ATOM      6  C   UNL     1      51.399  32.272  60.598  1.00  0.00     0.134 A 
ATOM      7  C   UNL     1      50.672  32.951  59.608  1.00  0.00     0.093 A 
ATOM      8  C   UNL     1      49.392  33.448  59.879  1.00  0.00     0.123 A 
ATOM      9  C   UNL     1      48.829  33.266  61.143  1.00  0.00     0.094 A 
ATOM     10  C   UNL     1      49.535  32.590  62.142  1.00  0.00     0.146 A 
ATOM     11  O   UNL     1      48.973  32.426  63.334  1.00  0.00    -0.452 OA
ENDROOT
BRANCH   1  12
ATOM     12  C   UNL     1      48.828  31.668  65.618  1.00  0.00     0.025 A 
ATOM     13  C   UNL     1      48.347  32.824  66.254  1.00  0.00     0.016 A 
ATOM     14  C   UNL     1      47.630  32.728  67.450  1.00  0.00     0.051 A 
ATOM     15  C   UNL     1      47.370  31.475  68.018  1.00  0.00     0.157 A 
ATOM     16  C   UNL     1      48.546  30.410  66.182  1.00  0.00     0.062 A 
ATOM     17  C   UNL     1      47.825  30.314  67.380  1.00  0.00     0.158 A 
BRANCH  15  18
ATOM     18  O   UNL     1      46.655  31.375  69.210  1.00  0.00    -0.504 OA
ATOM     19  H   UNL     1      45.664  31.166  69.219  1.00  0.00     0.293 HD
ENDBRANCH  15  18
BRANCH  17  20
ATOM     20  O   UNL     1      47.552  29.067  67.941  1.00  0.00    -0.504 OA
ATOM     21  H   UNL     1      48.054  28.235  67.653  1.00  0.00     0.293 HD
ENDBRANCH  17  20
ENDBRANCH   1  12
BRANCH   2  22
ATOM     22  O   UNL     1      51.528  30.672  65.247  1.00  0.00    -0.502 OA
ATOM     23  H   UNL     1      51.852  29.713  65.209  1.00  0.00     0.293 HD
ENDBRANCH   2  22
BRANCH   6  24
ATOM     24  O   UNL     1      52.672  31.789  60.298  1.00  0.00    -0.507 OA
ATOM     25  H   UNL     1      53.288  32.270  59.652  1.00  0.00     0.293 HD
ENDBRANCH   6  24
BRANCH   8  26
ATOM     26  O   UNL     1      48.671  34.124  58.897  1.00  0.00    -0.508 OA
ATOM     27  H   UNL     1      48.524  35.126  58.941  1.00  0.00     0.293 HD
ENDBRANCH   8  26
TORSDOF 6
ENDMDL
MODEL 9
REMARK VINA RESULT:    -6.612      1.744      6.749
REMARK INTER + INTRA:          -8.211
REMARK INTER:                  -7.894
REMARK INTRA:                  -0.317
REMARK UNBOUND:                -0.246
REMARK SMILES O=c1c(O)c(-c2ccc(O)c(O)c2)oc2cc(O)cc(O)c12
REMARK SMILES IDX 5 1 3 2 2 3 1 4 22 5 20 6 19 7 17 8 16 9 15 10 14 11 6 12
REMARK SMILES IDX 7 13 8 14 9 15 13 16 11 17 10 18 12 20 4 22 21 24 18 26
REMARK H PARENT 10 19 12 21 4 23 21 25 18 27
REMARK Flexibility Score: inf
ROOT
ATOM      1  C   UNL     1      49.536  30.998  64.393  1.00  0.00     0.180 A 
ATOM      2  C   UNL     1      50.130  30.400  65.521  1.00  0.00     0.208 A 
ATOM      3  C   UNL     1      49.549  30.604  66.781  1.00  0.00     0.238 A 
ATOM      4  O   UNL     1      50.077  30.082  67.801  1.00  0.00    -0.285 OA
ATOM      5  C   UNL     1      48.377  31.382  66.892  1.00  0.00     0.111 A 
ATOM      6  C   UNL     1      47.727  31.632  68.124  1.00  0.00     0.134 A 
ATOM      7  C   UNL     1      46.560  32.410  68.148  1.00  0.00     0.093 A 
ATOM      8  C   UNL     1      46.031  32.940  66.966  1.00  0.00     0.123 A 
ATOM      9  C   UNL     1      46.669  32.696  65.749  1.00  0.00     0.094 A 
ATOM     10  C   UNL     1      47.834  31.925  65.703  1.00  0.00     0.146 A 
ATOM     11  O   UNL     1      48.424  31.713  64.532  1.00  0.00    -0.452 OA
ENDROOT
BRANCH   1  12
ATOM     12  C   UNL     1      50.101  30.845  63.032  1.00  0.00     0.025 A 
ATOM     13  C   UNL     1      49.515  29.933  62.140  1.00  0.00     0.016 A 
ATOM     14  C   UNL     1      50.019  29.787  60.845  1.00  0.00     0.051 A 
ATOM     15  C   UNL     1      51.105  30.562  60.419  1.00  0.00     0.157 A 
ATOM     16  C   UNL     1      51.179  31.636  62.593  1.00  0.00     0.062 A 
ATOM     17  C   UNL     1      51.683  31.491  61.293  1.00  0.00     0.158 A 
BRANCH  15  18
ATOM     18  O   UNL     1      51.611  30.419  59.128  1.00  0.00    -0.504 OA
ATOM     19  H   UNL     1      52.283  31.073  58.746  1.00  0.00     0.293 HD
ENDBRANCH  15  18
BRANCH  17  20
ATOM     20  O   UNL     1      52.755  32.270  60.861  1.00  0.00    -0.504 OA
ATOM     21  H   UNL     1      53.673  32.188  61.281  1.00  0.00     0.293 HD
ENDBRANCH  17  20
ENDBRANCH   1  12
BRANCH   2  22
ATOM     22  O   UNL     1      51.261  29.592  65.379  1.00  0.00    -0.502 OA
ATOM     23  H   UNL     1      52.172  29.868  65.728  1.00  0.00     0.293 HD
ENDBRANCH   2  22
BRANCH   6  24
ATOM     24  O   UNL     1      48.229  31.117  69.319  1.00  0.00    -0.507 OA
ATOM     25  H   UNL     1      48.037  30.167  69.613  1.00  0.00     0.293 HD
ENDBRANCH   6  24
BRANCH   8  26
ATOM     26  O   UNL     1      44.871  33.712  66.990  1.00  0.00    -0.508 OA
ATOM     27  H   UNL     1      44.080  33.462  67.571  1.00  0.00     0.293 HD
ENDBRANCH   8  26
TORSDOF 6
ENDMDL
