MODEL 1
REMARK VINA RESULT:    -3.818      0.000      0.000
REMARK INTER + INTRA:         -11.012
REMARK INTER:                  -8.282
REMARK INTRA:                  -2.730
REMARK UNBOUND:                -2.730
REMARK SMILES CCCCCCCCCCCCCCCCCCCCCC(=O)[O-]
REMARK SMILES IDX 12 1 11 2 10 3 9 4 8 5 7 6 6 7 5 8 4 9 3 10 2 11 1 12 13 13
REMARK SMILES IDX 14 14 15 15 16 16 17 17 18 18 19 19 20 20 21 21 22 22 23 23
REMARK SMILES IDX 24 24
REMARK H PARENT
REMARK Flexibility Score: inf
ROOT
ATOM      1  C   UNL     1      -4.027  -5.191   6.890  1.00  0.00     0.000 C 
ENDROOT
BRANCH   1   2
ATOM      2  C   UNL     1      -4.896  -5.091   5.624  1.00  0.00     0.000 C 
BRANCH   2   3
ATOM      3  C   UNL     1      -5.631  -6.389   5.229  1.00  0.00     0.000 C 
BRANCH   3   4
ATOM      4  C   UNL     1      -5.576  -7.516   6.276  1.00  0.00    -0.000 C 
BRANCH   4   5
ATOM      5  C   UNL     1      -5.907  -8.897   5.684  1.00  0.00    -0.000 C 
BRANCH   5   6
ATOM      6  C   UNL     1      -6.229  -9.936   6.779  1.00  0.00    -0.000 C 
BRANCH   6   7
ATOM      7  C   UNL     1      -7.620  -9.756   7.408  1.00  0.00    -0.000 C 
BRANCH   7   8
ATOM      8  C   UNL     1      -8.713  -9.469   6.366  1.00  0.00    -0.000 C 
BRANCH   8   9
ATOM      9  C   UNL     1      -9.507  -8.191   6.679  1.00  0.00    -0.000 C 
BRANCH   9  10
ATOM     10  C   UNL     1      -9.301  -7.094   5.625  1.00  0.00    -0.000 C 
BRANCH  10  11
ATOM     11  C   UNL     1      -8.909  -5.767   6.284  1.00  0.00    -0.003 C 
ATOM     12  C   UNL     1      -8.561  -5.963   7.756  1.00  0.00     0.004 C 
ENDBRANCH  10  11
ENDBRANCH   9  10
ENDBRANCH   8   9
ENDBRANCH   7   8
ENDBRANCH   6   7
ENDBRANCH   5   6
ENDBRANCH   4   5
ENDBRANCH   3   4
ENDBRANCH   2   3
ENDBRANCH   1   2
BRANCH   1  13
ATOM     13  C   UNL     1      -4.663  -4.504   8.107  1.00  0.00     0.000 C 
BRANCH  13  14
ATOM     14  C   UNL     1      -5.640  -3.407   7.667  1.00  0.00     0.000 C 
BRANCH  14  15
ATOM     15  C   UNL     1      -5.969  -2.460   8.830  1.00  0.00     0.000 C 
BRANCH  15  16
ATOM     16  C   UNL     1      -7.476  -2.134   8.903  1.00  0.00     0.000 C 
BRANCH  16  17
ATOM     17  C   UNL     1      -8.198  -2.265   7.551  1.00  0.00     0.000 C 
BRANCH  17  18
ATOM     18  C   UNL     1      -9.496  -1.443   7.484  1.00  0.00     0.000 C 
BRANCH  18  19
ATOM     19  C   UNL     1      -9.459  -0.350   6.401  1.00  0.00     0.000 C 
BRANCH  19  20
ATOM     20  C   UNL     1      -9.838   1.066   6.880  1.00  0.00     0.006 C 
BRANCH  20  21
ATOM     21  C   UNL     1      -9.165   1.498   8.192  1.00  0.00     0.053 C 
BRANCH  21  22
ATOM     22  C   UNL     1      -8.682   2.914   8.138  1.00  0.00     0.041 C 
ATOM     23  O   UNL     1      -9.348   3.788   7.523  1.00  0.00    -0.550 OA
ATOM     24  O   UNL     1      -7.498   3.271   8.773  1.00  0.00    -0.550 OA
ENDBRANCH  21  22
ENDBRANCH  20  21
ENDBRANCH  19  20
ENDBRANCH  18  19
ENDBRANCH  17  18
ENDBRANCH  16  17
ENDBRANCH  15  16
ENDBRANCH  14  15
ENDBRANCH  13  14
ENDBRANCH   1  13
TORSDOF 20
ENDMDL
MODEL 2
REMARK VINA RESULT:    -3.810      1.578      3.219
REMARK INTER + INTRA:         -10.996
REMARK INTER:                  -8.150
REMARK INTRA:                  -2.846
REMARK UNBOUND:                -2.730
REMARK SMILES CCCCCCCCCCCCCCCCCCCCCC(=O)[O-]
REMARK SMILES IDX 12 1 11 2 10 3 9 4 8 5 7 6 6 7 5 8 4 9 3 10 2 11 1 12 13 13
REMARK SMILES IDX 14 14 15 15 16 16 17 17 18 18 19 19 20 20 21 21 22 22 23 23
REMARK SMILES IDX 24 24
REMARK H PARENT
REMARK Flexibility Score: inf
ROOT
ATOM      1  C   UNL     1      -4.093  -4.723   9.537  1.00  0.00     0.000 C 
ENDROOT
BRANCH   1   2
ATOM      2  C   UNL     1      -4.300  -6.216   9.231  1.00  0.00     0.000 C 
BRANCH   2   3
ATOM      3  C   UNL     1      -5.569  -6.842   9.847  1.00  0.00     0.000 C 
BRANCH   3   4
ATOM      4  C   UNL     1      -6.560  -7.445   8.835  1.00  0.00    -0.000 C 
BRANCH   4   5
ATOM      5  C   UNL     1      -7.692  -6.475   8.456  1.00  0.00    -0.000 C 
BRANCH   5   6
ATOM      6  C   UNL     1      -8.210  -6.719   7.024  1.00  0.00    -0.000 C 
BRANCH   6   7
ATOM      7  C   UNL     1      -7.375  -6.018   5.940  1.00  0.00    -0.000 C 
BRANCH   7   8
ATOM      8  C   UNL     1      -6.165  -6.852   5.489  1.00  0.00    -0.000 C 
BRANCH   8   9
ATOM      9  C   UNL     1      -4.856  -6.046   5.500  1.00  0.00    -0.000 C 
BRANCH   9  10
ATOM     10  C   UNL     1      -5.068  -4.580   5.905  1.00  0.00    -0.000 C 
BRANCH  10  11
ATOM     11  C   UNL     1      -4.040  -3.669   5.226  1.00  0.00    -0.003 C 
ATOM     12  C   UNL     1      -4.510  -2.218   5.213  1.00  0.00     0.004 C 
ENDBRANCH  10  11
ENDBRANCH   9  10
ENDBRANCH   8   9
ENDBRANCH   7   8
ENDBRANCH   6   7
ENDBRANCH   5   6
ENDBRANCH   4   5
ENDBRANCH   3   4
ENDBRANCH   2   3
ENDBRANCH   1   2
BRANCH   1  13
ATOM     13  C   UNL     1      -5.371  -4.032  10.035  1.00  0.00     0.000 C 
BRANCH  13  14
ATOM     14  C   UNL     1      -5.279  -2.513   9.850  1.00  0.00     0.000 C 
BRANCH  14  15
ATOM     15  C   UNL     1      -6.454  -1.985   9.014  1.00  0.00     0.000 C 
BRANCH  15  16
ATOM     16  C   UNL     1      -7.293  -3.129   8.407  1.00  0.00     0.000 C 
BRANCH  16  17
ATOM     17  C   UNL     1      -8.435  -2.640   7.501  1.00  0.00     0.000 C 
BRANCH  17  18
ATOM     18  C   UNL     1      -9.192  -1.437   8.088  1.00  0.00     0.000 C 
BRANCH  18  19
ATOM     19  C   UNL     1      -9.460  -0.333   7.050  1.00  0.00     0.000 C 
BRANCH  19  20
ATOM     20  C   UNL     1     -10.097   0.957   7.609  1.00  0.00     0.006 C 
BRANCH  20  21
ATOM     21  C   UNL     1      -9.608   2.252   6.942  1.00  0.00     0.053 C 
BRANCH  21  22
ATOM     22  C   UNL     1      -9.207   3.287   7.946  1.00  0.00     0.041 C 
ATOM     23  O   UNL     1     -10.081   4.004   8.499  1.00  0.00    -0.550 OA
ATOM     24  O   UNL     1      -7.868   3.457   8.273  1.00  0.00    -0.550 OA
ENDBRANCH  21  22
ENDBRANCH  20  21
ENDBRANCH  19  20
ENDBRANCH  18  19
ENDBRANCH  17  18
ENDBRANCH  16  17
ENDBRANCH  15  16
ENDBRANCH  14  15
ENDBRANCH  13  14
ENDBRANCH   1  13
TORSDOF 20
ENDMDL
MODEL 3
REMARK VINA RESULT:    -3.751      4.090      7.791
REMARK INTER + INTRA:         -10.868
REMARK INTER:                  -7.888
REMARK INTRA:                  -2.980
REMARK UNBOUND:                -2.730
REMARK SMILES CCCCCCCCCCCCCCCCCCCCCC(=O)[O-]
REMARK SMILES IDX 12 1 11 2 10 3 9 4 8 5 7 6 6 7 5 8 4 9 3 10 2 11 1 12 13 13
REMARK SMILES IDX 14 14 15 15 16 16 17 17 18 18 19 19 20 20 21 21 22 22 23 23
REMARK SMILES IDX 24 24
REMARK H PARENT
REMARK Flexibility Score: inf
ROOT
ATOM      1  C   UNL     1      -4.924  -5.210   5.323  1.00  0.00     0.000 C 
ENDROOT
BRANCH   1   2
ATOM      2  C   UNL     1      -4.141  -3.886   5.280  1.00  0.00     0.000 C 
BRANCH   2   3
ATOM      3  C   UNL     1      -4.891  -2.663   5.847  1.00  0.00     0.000 C 
BRANCH   3   4
ATOM      4  C   UNL     1      -6.089  -2.993   6.757  1.00  0.00    -0.000 C 
BRANCH   4   5
ATOM      5  C   UNL     1      -5.846  -2.611   8.227  1.00  0.00    -0.000 C 
BRANCH   5   6
ATOM      6  C   UNL     1      -7.164  -2.338   8.981  1.00  0.00    -0.000 C 
BRANCH   6   7
ATOM      7  C   UNL     1      -8.331  -1.947   8.059  1.00  0.00    -0.000 C 
BRANCH   7   8
ATOM      8  C   UNL     1      -9.157  -0.773   8.609  1.00  0.00    -0.000 C 
BRANCH   8   9
ATOM      9  C   UNL     1      -8.320   0.184   9.472  1.00  0.00    -0.000 C 
BRANCH   9  10
ATOM     10  C   UNL     1      -8.680   1.659   9.236  1.00  0.00    -0.000 C 
BRANCH  10  11
ATOM     11  C   UNL     1      -9.489   1.826   7.946  1.00  0.00    -0.003 C 
ATOM     12  C   UNL     1      -9.371   3.245   7.399  1.00  0.00     0.004 C 
ENDBRANCH  10  11
ENDBRANCH   9  10
ENDBRANCH   8   9
ENDBRANCH   7   8
ENDBRANCH   6   7
ENDBRANCH   5   6
ENDBRANCH   4   5
ENDBRANCH   3   4
ENDBRANCH   2   3
ENDBRANCH   1   2
BRANCH   1  13
ATOM     13  C   UNL     1      -4.399  -6.180   6.392  1.00  0.00     0.000 C 
BRANCH  13  14
ATOM     14  C   UNL     1      -3.704  -5.417   7.527  1.00  0.00     0.000 C 
BRANCH  14  15
ATOM     15  C   UNL     1      -4.294  -5.798   8.892  1.00  0.00     0.000 C 
BRANCH  15  16
ATOM     16  C   UNL     1      -5.178  -7.060   8.809  1.00  0.00     0.000 C 
BRANCH  16  17
ATOM     17  C   UNL     1      -6.424  -6.998   9.710  1.00  0.00     0.000 C 
BRANCH  17  18
ATOM     18  C   UNL     1      -7.472  -5.988   9.213  1.00  0.00     0.000 C 
BRANCH  18  19
ATOM     19  C   UNL     1      -7.769  -6.123   7.709  1.00  0.00     0.000 C 
BRANCH  19  20
ATOM     20  C   UNL     1      -8.449  -7.443   7.288  1.00  0.00     0.006 C 
BRANCH  20  21
ATOM     21  C   UNL     1      -7.767  -8.166   6.115  1.00  0.00     0.053 C 
BRANCH  21  22
ATOM     22  C   UNL     1      -6.825  -9.232   6.581  1.00  0.00     0.041 C 
ATOM     23  O   UNL     1      -5.776  -9.479   5.930  1.00  0.00    -0.550 OA
ATOM     24  O   UNL     1      -7.103  -9.950   7.738  1.00  0.00    -0.550 OA
ENDBRANCH  21  22
ENDBRANCH  20  21
ENDBRANCH  19  20
ENDBRANCH  18  19
ENDBRANCH  17  18
ENDBRANCH  16  17
ENDBRANCH  15  16
ENDBRANCH  14  15
ENDBRANCH  13  14
ENDBRANCH   1  13
TORSDOF 20
ENDMDL
MODEL 4
REMARK VINA RESULT:    -3.687      1.380      2.134
REMARK INTER + INTRA:         -10.729
REMARK INTER:                  -7.529
REMARK INTRA:                  -3.200
REMARK UNBOUND:                -2.730
REMARK SMILES CCCCCCCCCCCCCCCCCCCCCC(=O)[O-]
REMARK SMILES IDX 12 1 11 2 10 3 9 4 8 5 7 6 6 7 5 8 4 9 3 10 2 11 1 12 13 13
REMARK SMILES IDX 14 14 15 15 16 16 17 17 18 18 19 19 20 20 21 21 22 22 23 23
REMARK SMILES IDX 24 24
REMARK H PARENT
REMARK Flexibility Score: inf
ROOT
ATOM      1  C   UNL     1      -4.196  -5.750   6.363  1.00  0.00     0.000 C 
ENDROOT
BRANCH   1   2
ATOM      2  C   UNL     1      -3.686  -5.243   7.724  1.00  0.00     0.000 C 
BRANCH   2   3
ATOM      3  C   UNL     1      -4.329  -5.914   8.956  1.00  0.00     0.000 C 
BRANCH   3   4
ATOM      4  C   UNL     1      -5.760  -6.440   8.743  1.00  0.00    -0.000 C 
BRANCH   4   5
ATOM      5  C   UNL     1      -6.113  -7.608   9.679  1.00  0.00    -0.000 C 
BRANCH   5   6
ATOM      6  C   UNL     1      -6.597  -8.850   8.901  1.00  0.00    -0.000 C 
BRANCH   6   7
ATOM      7  C   UNL     1      -6.004  -8.959   7.486  1.00  0.00    -0.000 C 
BRANCH   7   8
ATOM      8  C   UNL     1      -7.070  -9.235   6.414  1.00  0.00    -0.000 C 
BRANCH   8   9
ATOM      9  C   UNL     1      -8.178  -8.170   6.396  1.00  0.00    -0.000 C 
BRANCH   9  10
ATOM     10  C   UNL     1      -7.753  -6.887   5.666  1.00  0.00    -0.000 C 
BRANCH  10  11
ATOM     11  C   UNL     1      -8.493  -5.668   6.226  1.00  0.00    -0.003 C 
ATOM     12  C   UNL     1      -9.149  -5.987   7.566  1.00  0.00     0.004 C 
ENDBRANCH  10  11
ENDBRANCH   9  10
ENDBRANCH   8   9
ENDBRANCH   7   8
ENDBRANCH   6   7
ENDBRANCH   5   6
ENDBRANCH   4   5
ENDBRANCH   3   4
ENDBRANCH   2   3
ENDBRANCH   1   2
BRANCH   1  13
ATOM     13  C   UNL     1      -4.896  -4.656   5.543  1.00  0.00     0.000 C 
BRANCH  13  14
ATOM     14  C   UNL     1      -4.860  -3.313   6.281  1.00  0.00     0.000 C 
BRANCH  14  15
ATOM     15  C   UNL     1      -6.213  -3.007   6.939  1.00  0.00     0.000 C 
BRANCH  15  16
ATOM     16  C   UNL     1      -6.066  -2.686   8.442  1.00  0.00     0.000 C 
BRANCH  16  17
ATOM     17  C   UNL     1      -7.323  -3.015   9.266  1.00  0.00     0.000 C 
BRANCH  17  18
ATOM     18  C   UNL     1      -7.915  -1.783   9.971  1.00  0.00     0.000 C 
BRANCH  18  19
ATOM     19  C   UNL     1      -8.542  -0.775   8.991  1.00  0.00     0.000 C 
BRANCH  19  20
ATOM     20  C   UNL     1      -8.542   0.693   9.465  1.00  0.00     0.006 C 
BRANCH  20  21
ATOM     21  C   UNL     1      -9.294   1.663   8.540  1.00  0.00     0.053 C 
BRANCH  21  22
ATOM     22  C   UNL     1      -8.555   2.951   8.353  1.00  0.00     0.041 C 
ATOM     23  O   UNL     1      -9.100   3.911   7.747  1.00  0.00    -0.550 OA
ATOM     24  O   UNL     1      -7.267   3.094   8.853  1.00  0.00    -0.550 OA
ENDBRANCH  21  22
ENDBRANCH  20  21
ENDBRANCH  19  20
ENDBRANCH  18  19
ENDBRANCH  17  18
ENDBRANCH  16  17
ENDBRANCH  15  16
ENDBRANCH  14  15
ENDBRANCH  13  14
ENDBRANCH   1  13
TORSDOF 20
ENDMDL
MODEL 5
REMARK VINA RESULT:    -3.682      1.479      2.776
REMARK INTER + INTRA:         -10.717
REMARK INTER:                  -7.256
REMARK INTRA:                  -3.461
REMARK UNBOUND:                -2.730
REMARK SMILES CCCCCCCCCCCCCCCCCCCCCC(=O)[O-]
REMARK SMILES IDX 12 1 11 2 10 3 9 4 8 5 7 6 6 7 5 8 4 9 3 10 2 11 1 12 13 13
REMARK SMILES IDX 14 14 15 15 16 16 17 17 18 18 19 19 20 20 21 21 22 22 23 23
REMARK SMILES IDX 24 24
REMARK H PARENT
REMARK Flexibility Score: inf
ROOT
ATOM      1  C   UNL     1      -4.509  -3.498   6.031  1.00  0.00     0.000 C 
ENDROOT
BRANCH   1   2
ATOM      2  C   UNL     1      -4.341  -5.027   6.043  1.00  0.00     0.000 C 
BRANCH   2   3
ATOM      3  C   UNL     1      -5.350  -5.804   5.172  1.00  0.00     0.000 C 
BRANCH   3   4
ATOM      4  C   UNL     1      -5.725  -7.203   5.694  1.00  0.00    -0.000 C 
BRANCH   4   5
ATOM      5  C   UNL     1      -7.222  -7.335   6.027  1.00  0.00    -0.000 C 
BRANCH   5   6
ATOM      6  C   UNL     1      -7.930  -5.966   6.073  1.00  0.00    -0.000 C 
BRANCH   6   7
ATOM      7  C   UNL     1      -8.356  -5.541   7.488  1.00  0.00    -0.000 C 
BRANCH   7   8
ATOM      8  C   UNL     1      -8.060  -6.615   8.547  1.00  0.00    -0.000 C 
BRANCH   8   9
ATOM      9  C   UNL     1      -7.025  -6.152   9.584  1.00  0.00    -0.000 C 
BRANCH   9  10
ATOM     10  C   UNL     1      -5.598  -6.599   9.234  1.00  0.00    -0.000 C 
BRANCH  10  11
ATOM     11  C   UNL     1      -5.255  -7.925   9.921  1.00  0.00    -0.003 C 
ATOM     12  C   UNL     1      -5.588  -9.113   9.024  1.00  0.00     0.004 C 
ENDBRANCH  10  11
ENDBRANCH   9  10
ENDBRANCH   8   9
ENDBRANCH   7   8
ENDBRANCH   6   7
ENDBRANCH   5   6
ENDBRANCH   4   5
ENDBRANCH   3   4
ENDBRANCH   2   3
ENDBRANCH   1   2
BRANCH   1  13
ATOM     13  C   UNL     1      -5.791  -3.032   6.737  1.00  0.00     0.000 C 
BRANCH  13  14
ATOM     14  C   UNL     1      -5.619  -3.067   8.260  1.00  0.00     0.000 C 
BRANCH  14  15
ATOM     15  C   UNL     1      -6.461  -1.976   8.938  1.00  0.00     0.000 C 
BRANCH  15  16
ATOM     16  C   UNL     1      -7.663  -2.566   9.705  1.00  0.00     0.000 C 
BRANCH  16  17
ATOM     17  C   UNL     1      -9.024  -2.222   9.073  1.00  0.00     0.000 C 
BRANCH  17  18
ATOM     18  C   UNL     1      -8.891  -1.472   7.738  1.00  0.00     0.000 C 
BRANCH  18  19
ATOM     19  C   UNL     1      -9.841  -0.266   7.630  1.00  0.00     0.000 C 
BRANCH  19  20
ATOM     20  C   UNL     1      -9.805   0.710   8.825  1.00  0.00     0.006 C 
BRANCH  20  21
ATOM     21  C   UNL     1      -8.541   1.580   8.901  1.00  0.00     0.053 C 
BRANCH  21  22
ATOM     22  C   UNL     1      -8.737   2.917   8.255  1.00  0.00     0.041 C 
ATOM     23  O   UNL     1      -7.817   3.776   8.286  1.00  0.00    -0.550 OA
ATOM     24  O   UNL     1      -9.934   3.211   7.614  1.00  0.00    -0.550 OA
ENDBRANCH  21  22
ENDBRANCH  20  21
ENDBRANCH  19  20
ENDBRANCH  18  19
ENDBRANCH  17  18
ENDBRANCH  16  17
ENDBRANCH  15  16
ENDBRANCH  14  15
ENDBRANCH  13  14
ENDBRANCH   1  13
TORSDOF 20
ENDMDL
MODEL 6
REMARK VINA RESULT:    -3.663      1.556      2.813
REMARK INTER + INTRA:         -10.677
REMARK INTER:                  -7.377
REMARK INTRA:                  -3.300
REMARK UNBOUND:                -2.730
REMARK SMILES CCCCCCCCCCCCCCCCCCCCCC(=O)[O-]
REMARK SMILES IDX 12 1 11 2 10 3 9 4 8 5 7 6 6 7 5 8 4 9 3 10 2 11 1 12 13 13
REMARK SMILES IDX 14 14 15 15 16 16 17 17 18 18 19 19 20 20 21 21 22 22 23 23
REMARK SMILES IDX 24 24
REMARK H PARENT
REMARK Flexibility Score: inf
ROOT
ATOM      1  C   UNL     1      -5.345  -6.054   5.534  1.00  0.00     0.000 C 
ENDROOT
BRANCH   1   2
ATOM      2  C   UNL     1      -5.599  -7.152   6.581  1.00  0.00     0.000 C 
BRANCH   2   3
ATOM      3  C   UNL     1      -5.909  -8.549   6.004  1.00  0.00     0.000 C 
BRANCH   3   4
ATOM      4  C   UNL     1      -6.192  -9.642   7.051  1.00  0.00    -0.000 C 
BRANCH   4   5
ATOM      5  C   UNL     1      -6.037  -9.139   8.496  1.00  0.00    -0.000 C 
BRANCH   5   6
ATOM      6  C   UNL     1      -7.397  -8.988   9.209  1.00  0.00    -0.000 C 
BRANCH   6   7
ATOM      7  C   UNL     1      -7.542  -7.668   9.984  1.00  0.00    -0.000 C 
BRANCH   7   8
ATOM      8  C   UNL     1      -8.752  -6.838   9.526  1.00  0.00    -0.000 C 
BRANCH   8   9
ATOM      9  C   UNL     1      -9.259  -7.252   8.135  1.00  0.00    -0.000 C 
BRANCH   9  10
ATOM     10  C   UNL     1      -8.996  -6.180   7.068  1.00  0.00    -0.000 C 
BRANCH  10  11
ATOM     11  C   UNL     1      -9.237  -6.737   5.661  1.00  0.00    -0.003 C 
ATOM     12  C   UNL     1      -9.561  -8.227   5.705  1.00  0.00     0.004 C 
ENDBRANCH  10  11
ENDBRANCH   9  10
ENDBRANCH   8   9
ENDBRANCH   7   8
ENDBRANCH   6   7
ENDBRANCH   5   6
ENDBRANCH   4   5
ENDBRANCH   3   4
ENDBRANCH   2   3
ENDBRANCH   1   2
BRANCH   1  13
ATOM     13  C   UNL     1      -4.077  -5.235   5.822  1.00  0.00     0.000 C 
BRANCH  13  14
ATOM     14  C   UNL     1      -4.340  -3.737   5.630  1.00  0.00     0.000 C 
BRANCH  14  15
ATOM     15  C   UNL     1      -5.613  -3.299   6.369  1.00  0.00     0.000 C 
BRANCH  15  16
ATOM     16  C   UNL     1      -5.397  -3.213   7.895  1.00  0.00     0.000 C 
BRANCH  16  17
ATOM     17  C   UNL     1      -6.334  -4.129   8.701  1.00  0.00     0.000 C 
BRANCH  17  18
ATOM     18  C   UNL     1      -7.478  -3.362   9.383  1.00  0.00     0.000 C 
BRANCH  18  19
ATOM     19  C   UNL     1      -7.682  -1.950   8.806  1.00  0.00     0.000 C 
BRANCH  19  20
ATOM     20  C   UNL     1      -8.928  -1.777   7.913  1.00  0.00     0.006 C 
BRANCH  20  21
ATOM     21  C   UNL     1      -9.714  -0.479   8.159  1.00  0.00     0.053 C 
BRANCH  21  22
ATOM     22  C   UNL     1      -9.662   0.443   6.981  1.00  0.00     0.041 C 
ATOM     23  O   UNL     1      -9.376  -0.004   5.839  1.00  0.00    -0.550 OA
ATOM     24  O   UNL     1      -9.935   1.796   7.143  1.00  0.00    -0.550 OA
ENDBRANCH  21  22
ENDBRANCH  20  21
ENDBRANCH  19  20
ENDBRANCH  18  19
ENDBRANCH  17  18
ENDBRANCH  16  17
ENDBRANCH  15  16
ENDBRANCH  14  15
ENDBRANCH  13  14
ENDBRANCH   1  13
TORSDOF 20
ENDMDL
MODEL 7
REMARK VINA RESULT:    -3.646      3.708      7.516
REMARK INTER + INTRA:         -10.640
REMARK INTER:                  -7.844
REMARK INTRA:                  -2.796
REMARK UNBOUND:                -2.730
REMARK SMILES CCCCCCCCCCCCCCCCCCCCCC(=O)[O-]
REMARK SMILES IDX 12 1 11 2 10 3 9 4 8 5 7 6 6 7 5 8 4 9 3 10 2 11 1 12 13 13
REMARK SMILES IDX 14 14 15 15 16 16 17 17 18 18 19 19 20 20 21 21 22 22 23 23
REMARK SMILES IDX 24 24
REMARK H PARENT
REMARK Flexibility Score: inf
ROOT
ATOM      1  C   UNL     1      -4.950  -5.237   5.182  1.00  0.00     0.000 C 
ENDROOT
BRANCH   1   2
ATOM      2  C   UNL     1      -4.085  -3.969   5.288  1.00  0.00     0.000 C 
BRANCH   2   3
ATOM      3  C   UNL     1      -4.841  -2.692   5.710  1.00  0.00     0.000 C 
BRANCH   3   4
ATOM      4  C   UNL     1      -6.046  -2.922   6.640  1.00  0.00    -0.000 C 
BRANCH   4   5
ATOM      5  C   UNL     1      -5.718  -2.658   8.120  1.00  0.00    -0.000 C 
BRANCH   5   6
ATOM      6  C   UNL     1      -6.942  -2.876   9.034  1.00  0.00    -0.000 C 
BRANCH   6   7
ATOM      7  C   UNL     1      -8.095  -3.629   8.349  1.00  0.00    -0.000 C 
BRANCH   7   8
ATOM      8  C   UNL     1      -9.414  -2.840   8.364  1.00  0.00    -0.000 C 
BRANCH   8   9
ATOM      9  C   UNL     1      -9.196  -1.323   8.243  1.00  0.00    -0.000 C 
BRANCH   9  10
ATOM     10  C   UNL     1      -9.326  -0.821   6.797  1.00  0.00    -0.000 C 
BRANCH  10  11
ATOM     11  C   UNL     1      -9.671   0.671   6.765  1.00  0.00    -0.003 C 
ATOM     12  C   UNL     1      -9.267   1.360   8.065  1.00  0.00     0.004 C 
ENDBRANCH  10  11
ENDBRANCH   9  10
ENDBRANCH   8   9
ENDBRANCH   7   8
ENDBRANCH   6   7
ENDBRANCH   5   6
ENDBRANCH   4   5
ENDBRANCH   3   4
ENDBRANCH   2   3
ENDBRANCH   1   2
BRANCH   1  13
ATOM     13  C   UNL     1      -4.700  -6.228   6.328  1.00  0.00     0.000 C 
BRANCH  13  14
ATOM     14  C   UNL     1      -3.739  -5.634   7.364  1.00  0.00     0.000 C 
BRANCH  14  15
ATOM     15  C   UNL     1      -4.275  -5.827   8.790  1.00  0.00     0.000 C 
BRANCH  15  16
ATOM     16  C   UNL     1      -5.601  -6.616   8.808  1.00  0.00     0.000 C 
BRANCH  16  17
ATOM     17  C   UNL     1      -5.689  -7.646   9.947  1.00  0.00     0.000 C 
BRANCH  17  18
ATOM     18  C   UNL     1      -5.509  -9.093   9.460  1.00  0.00     0.000 C 
BRANCH  18  19
ATOM     19  C   UNL     1      -5.926  -9.287   7.992  1.00  0.00     0.000 C 
BRANCH  19  20
ATOM     20  C   UNL     1      -7.352  -9.837   7.779  1.00  0.00     0.006 C 
BRANCH  20  21
ATOM     21  C   UNL     1      -7.844  -9.788   6.323  1.00  0.00     0.053 C 
BRANCH  21  22
ATOM     22  C   UNL     1      -8.673  -8.572   6.049  1.00  0.00     0.041 C 
ATOM     23  O   UNL     1      -9.868  -8.693   5.671  1.00  0.00    -0.550 OA
ATOM     24  O   UNL     1      -8.128  -7.305   6.216  1.00  0.00    -0.550 OA
ENDBRANCH  21  22
ENDBRANCH  20  21
ENDBRANCH  19  20
ENDBRANCH  18  19
ENDBRANCH  17  18
ENDBRANCH  16  17
ENDBRANCH  15  16
ENDBRANCH  14  15
ENDBRANCH  13  14
ENDBRANCH   1  13
TORSDOF 20
ENDMDL
MODEL 8
REMARK VINA RESULT:    -3.637      1.489      2.900
REMARK INTER + INTRA:         -10.619
REMARK INTER:                  -7.528
REMARK INTRA:                  -3.091
REMARK UNBOUND:                -2.730
REMARK SMILES CCCCCCCCCCCCCCCCCCCCCC(=O)[O-]
REMARK SMILES IDX 12 1 11 2 10 3 9 4 8 5 7 6 6 7 5 8 4 9 3 10 2 11 1 12 13 13
REMARK SMILES IDX 14 14 15 15 16 16 17 17 18 18 19 19 20 20 21 21 22 22 23 23
REMARK SMILES IDX 24 24
REMARK H PARENT
REMARK Flexibility Score: inf
ROOT
ATOM      1  C   UNL     1      -4.430  -5.856   6.517  1.00  0.00     0.000 C 
ENDROOT
BRANCH   1   2
ATOM      2  C   UNL     1      -3.734  -5.285   7.765  1.00  0.00     0.000 C 
BRANCH   2   3
ATOM      3  C   UNL     1      -4.121  -5.959   9.098  1.00  0.00     0.000 C 
BRANCH   3   4
ATOM      4  C   UNL     1      -5.432  -6.766   9.067  1.00  0.00    -0.000 C 
BRANCH   4   5
ATOM      5  C   UNL     1      -6.593  -6.046   9.775  1.00  0.00    -0.000 C 
BRANCH   5   6
ATOM      6  C   UNL     1      -7.966  -6.464   9.210  1.00  0.00    -0.000 C 
BRANCH   6   7
ATOM      7  C   UNL     1      -8.238  -5.924   7.796  1.00  0.00    -0.000 C 
BRANCH   7   8
ATOM      8  C   UNL     1      -9.459  -6.582   7.132  1.00  0.00    -0.000 C 
BRANCH   8   9
ATOM      9  C   UNL     1      -9.068  -7.536   5.992  1.00  0.00    -0.000 C 
BRANCH   9  10
ATOM     10  C   UNL     1      -7.556  -7.802   5.937  1.00  0.00    -0.000 C 
BRANCH  10  11
ATOM     11  C   UNL     1      -7.242  -9.255   6.308  1.00  0.00    -0.003 C 
ATOM     12  C   UNL     1      -5.738  -9.481   6.429  1.00  0.00     0.004 C 
ENDBRANCH  10  11
ENDBRANCH   9  10
ENDBRANCH   8   9
ENDBRANCH   7   8
ENDBRANCH   6   7
ENDBRANCH   5   6
ENDBRANCH   4   5
ENDBRANCH   3   4
ENDBRANCH   2   3
ENDBRANCH   1   2
BRANCH   1  13
ATOM     13  C   UNL     1      -5.266  -4.808   5.768  1.00  0.00     0.000 C 
BRANCH  13  14
ATOM     14  C   UNL     1      -5.082  -3.417   6.387  1.00  0.00     0.000 C 
BRANCH  14  15
ATOM     15  C   UNL     1      -6.338  -2.985   7.157  1.00  0.00     0.000 C 
BRANCH  15  16
ATOM     16  C   UNL     1      -6.021  -2.620   8.623  1.00  0.00     0.000 C 
BRANCH  16  17
ATOM     17  C   UNL     1      -7.272  -2.323   9.467  1.00  0.00     0.000 C 
BRANCH  17  18
ATOM     18  C   UNL     1      -7.434  -0.829   9.792  1.00  0.00     0.000 C 
BRANCH  18  19
ATOM     19  C   UNL     1      -8.601  -0.173   9.033  1.00  0.00     0.000 C 
BRANCH  19  20
ATOM     20  C   UNL     1      -8.754   1.348   9.245  1.00  0.00     0.006 C 
BRANCH  20  21
ATOM     21  C   UNL     1      -7.490   2.049   9.767  1.00  0.00     0.053 C 
BRANCH  21  22
ATOM     22  C   UNL     1      -7.179   3.296   9.000  1.00  0.00     0.041 C 
ATOM     23  O   UNL     1      -8.066   3.843   8.293  1.00  0.00    -0.550 OA
ATOM     24  O   UNL     1      -5.910   3.858   9.068  1.00  0.00    -0.550 OA
ENDBRANCH  21  22
ENDBRANCH  20  21
ENDBRANCH  19  20
ENDBRANCH  18  19
ENDBRANCH  17  18
ENDBRANCH  16  17
ENDBRANCH  15  16
ENDBRANCH  14  15
ENDBRANCH  13  14
ENDBRANCH   1  13
TORSDOF 20
ENDMDL
MODEL 9
REMARK VINA RESULT:    -3.624      1.453      2.049
REMARK INTER + INTRA:         -10.593
REMARK INTER:                  -6.980
REMARK INTRA:                  -3.612
REMARK UNBOUND:                -2.730
REMARK SMILES CCCCCCCCCCCCCCCCCCCCCC(=O)[O-]
REMARK SMILES IDX 12 1 11 2 10 3 9 4 8 5 7 6 6 7 5 8 4 9 3 10 2 11 1 12 13 13
REMARK SMILES IDX 14 14 15 15 16 16 17 17 18 18 19 19 20 20 21 21 22 22 23 23
REMARK SMILES IDX 24 24
REMARK H PARENT
REMARK Flexibility Score: inf
ROOT
ATOM      1  C   UNL     1      -4.676  -3.628   5.986  1.00  0.00     0.000 C 
ENDROOT
BRANCH   1   2
ATOM      2  C   UNL     1      -4.373  -5.077   5.565  1.00  0.00     0.000 C 
BRANCH   2   3
ATOM      3  C   UNL     1      -5.602  -5.908   5.143  1.00  0.00     0.000 C 
BRANCH   3   4
ATOM      4  C   UNL     1      -5.782  -7.239   5.896  1.00  0.00    -0.000 C 
BRANCH   4   5
ATOM      5  C   UNL     1      -5.641  -7.088   7.420  1.00  0.00    -0.000 C 
BRANCH   5   6
ATOM      6  C   UNL     1      -6.392  -8.197   8.186  1.00  0.00    -0.000 C 
BRANCH   6   7
ATOM      7  C   UNL     1      -7.437  -7.659   9.178  1.00  0.00    -0.000 C 
BRANCH   7   8
ATOM      8  C   UNL     1      -7.741  -6.166   8.973  1.00  0.00    -0.000 C 
BRANCH   8   9
ATOM      9  C   UNL     1      -9.130  -5.925   8.362  1.00  0.00    -0.000 C 
BRANCH   9  10
ATOM     10  C   UNL     1      -9.081  -5.026   7.117  1.00  0.00    -0.000 C 
BRANCH  10  11
ATOM     11  C   UNL     1      -9.223  -5.855   5.837  1.00  0.00    -0.003 C 
ATOM     12  C   UNL     1      -9.819  -7.229   6.131  1.00  0.00     0.004 C 
ENDBRANCH  10  11
ENDBRANCH   9  10
ENDBRANCH   8   9
ENDBRANCH   7   8
ENDBRANCH   6   7
ENDBRANCH   5   6
ENDBRANCH   4   5
ENDBRANCH   3   4
ENDBRANCH   2   3
ENDBRANCH   1   2
BRANCH   1  13
ATOM     13  C   UNL     1      -5.872  -3.522   6.944  1.00  0.00     0.000 C 
BRANCH  13  14
ATOM     14  C   UNL     1      -5.398  -3.398   8.397  1.00  0.00     0.000 C 
BRANCH  14  15
ATOM     15  C   UNL     1      -6.070  -2.209   9.099  1.00  0.00     0.000 C 
BRANCH  15  16
ATOM     16  C   UNL     1      -7.151  -2.665  10.102  1.00  0.00     0.000 C 
BRANCH  16  17
ATOM     17  C   UNL     1      -8.588  -2.430   9.605  1.00  0.00     0.000 C 
BRANCH  17  18
ATOM     18  C   UNL     1      -8.652  -1.512   8.372  1.00  0.00     0.000 C 
BRANCH  18  19
ATOM     19  C   UNL     1      -9.463  -0.229   8.622  1.00  0.00     0.000 C 
BRANCH  19  20
ATOM     20  C   UNL     1      -9.039   0.589   9.860  1.00  0.00     0.006 C 
BRANCH  20  21
ATOM     21  C   UNL     1      -7.631   1.197   9.771  1.00  0.00     0.053 C 
BRANCH  21  22
ATOM     22  C   UNL     1      -7.652   2.590   9.221  1.00  0.00     0.041 C 
ATOM     23  O   UNL     1      -8.727   3.083   8.789  1.00  0.00    -0.550 OA
ATOM     24  O   UNL     1      -6.486   3.344   9.190  1.00  0.00    -0.550 OA
ENDBRANCH  21  22
ENDBRANCH  20  21
ENDBRANCH  19  20
ENDBRANCH  18  19
ENDBRANCH  17  18
ENDBRANCH  16  17
ENDBRANCH  15  16
ENDBRANCH  14  15
ENDBRANCH  13  14
ENDBRANCH   1  13
TORSDOF 20
ENDMDL
