MODEL 1
REMARK VINA RESULT:    -4.288      0.000      0.000
REMARK INTER + INTRA:          -6.168
REMARK INTER:                  -5.291
REMARK INTRA:                  -0.878
REMARK UNBOUND:                -0.878
REMARK SMILES C=CC(=C)CCC=C(C)C
REMARK SMILES IDX 5 1 6 2 7 3 9 4 8 5 10 6 3 7 4 8 2 9 1 10
REMARK H PARENT
REMARK Flexibility Score: inf
ROOT
ATOM      1  C   UNL     1     111.372 110.612 110.418  1.00  0.00     0.039 C 
ENDROOT
BRANCH   1   2
ATOM      2  C   UNL     1     110.017 111.090 109.873  1.00  0.00     0.032 C 
BRANCH   2   3
ATOM      3  C   UNL     1     109.562 110.299 108.669  1.00  0.00    -0.028 C 
ATOM      4  C   UNL     1     110.019 112.210 107.128  1.00  0.00     0.039 C 
ATOM      5  C   UNL     1     109.559 110.801 107.416  1.00  0.00    -0.080 C 
ATOM      6  C   UNL     1     109.081 109.925 106.286  1.00  0.00     0.039 C 
ENDBRANCH   2   3
ENDBRANCH   1   2
BRANCH   1   7
ATOM      7  C   UNL     1     112.540 111.335 109.771  1.00  0.00    -0.055 C 
ATOM      8  C   UNL     1     112.952 112.490 110.307  1.00  0.00     0.012 C 
BRANCH   7   9
ATOM      9  C   UNL     1     113.247 110.832 108.561  1.00  0.00    -0.005 C 
ATOM     10  C   UNL     1     113.135 109.597 108.068  1.00  0.00     0.009 C 
ENDBRANCH   7   9
ENDBRANCH   1   7
TORSDOF 4
ENDMDL
MODEL 2
REMARK VINA RESULT:    -4.275      2.697      4.559
REMARK INTER + INTRA:          -6.152
REMARK INTER:                  -5.236
REMARK INTRA:                  -0.916
REMARK UNBOUND:                -0.878
REMARK SMILES C=CC(=C)CCC=C(C)C
REMARK SMILES IDX 5 1 6 2 7 3 9 4 8 5 10 6 3 7 4 8 2 9 1 10
REMARK H PARENT
REMARK Flexibility Score: inf
ROOT
ATOM      1  C   UNL     1     110.377 109.815 110.644  1.00  0.00     0.039 C 
ENDROOT
BRANCH   1   2
ATOM      2  C   UNL     1     109.111 110.210 111.419  1.00  0.00     0.032 C 
BRANCH   2   3
ATOM      3  C   UNL     1     109.367 110.398 112.897  1.00  0.00    -0.028 C 
ATOM      4  C   UNL     1     109.144 112.878 112.710  1.00  0.00     0.039 C 
ATOM      5  C   UNL     1     109.384 111.609 113.492  1.00  0.00    -0.080 C 
ATOM      6  C   UNL     1     109.653 111.684 114.974  1.00  0.00     0.039 C 
ENDBRANCH   2   3
ENDBRANCH   1   2
BRANCH   1   7
ATOM      7  C   UNL     1     111.282 111.005 110.375  1.00  0.00    -0.055 C 
ATOM      8  C   UNL     1     110.868 111.938 109.509  1.00  0.00     0.012 C 
BRANCH   7   9
ATOM      9  C   UNL     1     112.616 111.181 111.013  1.00  0.00    -0.005 C 
ATOM     10  C   UNL     1     112.881 112.032 112.006  1.00  0.00     0.009 C 
ENDBRANCH   7   9
ENDBRANCH   1   7
TORSDOF 4
ENDMDL
MODEL 3
REMARK VINA RESULT:    -4.262      3.552      4.606
REMARK INTER + INTRA:          -6.136
REMARK INTER:                  -5.255
REMARK INTRA:                  -0.882
REMARK UNBOUND:                -0.878
REMARK SMILES C=CC(=C)CCC=C(C)C
REMARK SMILES IDX 5 1 6 2 7 3 9 4 8 5 10 6 3 7 4 8 2 9 1 10
REMARK H PARENT
REMARK Flexibility Score: inf
ROOT
ATOM      1  C   UNL     1     111.123 110.556 115.023  1.00  0.00     0.039 C 
ENDROOT
BRANCH   1   2
ATOM      2  C   UNL     1     109.870 111.137 114.350  1.00  0.00     0.032 C 
BRANCH   2   3
ATOM      3  C   UNL     1     109.418 110.324 113.159  1.00  0.00    -0.028 C 
ATOM      4  C   UNL     1     110.188 112.079 111.557  1.00  0.00     0.039 C 
ATOM      5  C   UNL     1     109.559 110.746 111.884  1.00  0.00    -0.080 C 
ATOM      6  C   UNL     1     109.070 109.857 110.769  1.00  0.00     0.039 C 
ENDBRANCH   2   3
ENDBRANCH   1   2
BRANCH   1   7
ATOM      7  C   UNL     1     112.403 111.181 114.495  1.00  0.00    -0.055 C 
ATOM      8  C   UNL     1     112.717 112.421 114.890  1.00  0.00     0.012 C 
BRANCH   7   9
ATOM      9  C   UNL     1     113.323 110.491 113.549  1.00  0.00    -0.005 C 
ATOM     10  C   UNL     1     113.003 109.428 112.809  1.00  0.00     0.009 C 
ENDBRANCH   7   9
ENDBRANCH   1   7
TORSDOF 4
ENDMDL
MODEL 4
REMARK VINA RESULT:    -4.256      3.404      6.345
REMARK INTER + INTRA:          -6.129
REMARK INTER:                  -5.219
REMARK INTRA:                  -0.909
REMARK UNBOUND:                -0.878
REMARK SMILES C=CC(=C)CCC=C(C)C
REMARK SMILES IDX 5 1 6 2 7 3 9 4 8 5 10 6 3 7 4 8 2 9 1 10
REMARK H PARENT
REMARK Flexibility Score: inf
ROOT
ATOM      1  C   UNL     1     111.089 111.761 111.223  1.00  0.00     0.039 C 
ENDROOT
BRANCH   1   2
ATOM      2  C   UNL     1     112.431 111.264 111.782  1.00  0.00     0.032 C 
BRANCH   2   3
ATOM      3  C   UNL     1     112.833 111.977 113.052  1.00  0.00    -0.028 C 
ATOM      4  C   UNL     1     112.506 109.913 114.420  1.00  0.00     0.039 C 
ATOM      5  C   UNL     1     112.869 111.370 114.257  1.00  0.00    -0.080 C 
ATOM      6  C   UNL     1     113.282 112.176 115.462  1.00  0.00     0.039 C 
ENDBRANCH   2   3
ENDBRANCH   1   2
BRANCH   1   7
ATOM      7  C   UNL     1     109.901 111.169 111.962  1.00  0.00    -0.055 C 
ATOM      8  C   UNL     1     109.496 109.937 111.633  1.00  0.00     0.012 C 
BRANCH   7   9
ATOM      9  C   UNL     1     109.153 111.894 113.026  1.00  0.00    -0.005 C 
ATOM     10  C   UNL     1     109.132 111.551 114.315  1.00  0.00     0.009 C 
ENDBRANCH   7   9
ENDBRANCH   1   7
TORSDOF 4
ENDMDL
MODEL 5
REMARK VINA RESULT:    -4.255      3.787      5.936
REMARK INTER + INTRA:          -6.128
REMARK INTER:                  -5.243
REMARK INTRA:                  -0.885
REMARK UNBOUND:                -0.878
REMARK SMILES C=CC(=C)CCC=C(C)C
REMARK SMILES IDX 5 1 6 2 7 3 9 4 8 5 10 6 3 7 4 8 2 9 1 10
REMARK H PARENT
REMARK Flexibility Score: inf
ROOT
ATOM      1  C   UNL     1     111.043 111.943 115.041  1.00  0.00     0.039 C 
ENDROOT
BRANCH   1   2
ATOM      2  C   UNL     1     112.357 111.374 114.482  1.00  0.00     0.032 C 
BRANCH   2   3
ATOM      3  C   UNL     1     112.820 112.094 113.237  1.00  0.00    -0.028 C 
ATOM      4  C   UNL     1     112.157 110.180 111.776  1.00  0.00     0.039 C 
ATOM      5  C   UNL     1     112.733 111.558 112.001  1.00  0.00    -0.080 C 
ATOM      6  C   UNL     1     113.228 112.362 110.826  1.00  0.00     0.039 C 
ENDBRANCH   2   3
ENDBRANCH   1   2
BRANCH   1   7
ATOM      7  C   UNL     1     109.826 111.199 114.521  1.00  0.00    -0.055 C 
ATOM      8  C   UNL     1     109.559 109.985 115.018  1.00  0.00     0.012 C 
BRANCH   7   9
ATOM      9  C   UNL     1     108.918 111.744 113.474  1.00  0.00    -0.005 C 
ATOM     10  C   UNL     1     109.153 112.841 112.753  1.00  0.00     0.009 C 
ENDBRANCH   7   9
ENDBRANCH   1   7
TORSDOF 4
ENDMDL
MODEL 6
REMARK VINA RESULT:    -4.245      1.774      3.512
REMARK INTER + INTRA:          -6.115
REMARK INTER:                  -5.195
REMARK INTRA:                  -0.920
REMARK UNBOUND:                -0.878
REMARK SMILES C=CC(=C)CCC=C(C)C
REMARK SMILES IDX 5 1 6 2 7 3 9 4 8 5 10 6 3 7 4 8 2 9 1 10
REMARK H PARENT
REMARK Flexibility Score: inf
ROOT
ATOM      1  C   UNL     1     110.655 109.887 105.807  1.00  0.00     0.039 C 
ENDROOT
BRANCH   1   2
ATOM      2  C   UNL     1     109.310 110.169 106.494  1.00  0.00     0.032 C 
BRANCH   2   3
ATOM      3  C   UNL     1     109.438 110.302 107.993  1.00  0.00    -0.028 C 
ATOM      4  C   UNL     1     109.121 112.777 107.891  1.00  0.00     0.039 C 
ATOM      5  C   UNL     1     109.354 111.485 108.637  1.00  0.00    -0.080 C 
ATOM      6  C   UNL     1     109.499 111.504 110.138  1.00  0.00     0.039 C 
ENDBRANCH   2   3
ENDBRANCH   1   2
BRANCH   1   7
ATOM      7  C   UNL     1     111.460 111.153 105.573  1.00  0.00    -0.055 C 
ATOM      8  C   UNL     1     110.991 112.056 104.704  1.00  0.00     0.012 C 
BRANCH   7   9
ATOM      9  C   UNL     1     112.755 111.438 106.252  1.00  0.00    -0.005 C 
ATOM     10  C   UNL     1     112.881 112.028 107.442  1.00  0.00     0.009 C 
ENDBRANCH   7   9
ENDBRANCH   1   7
TORSDOF 4
ENDMDL
MODEL 7
REMARK VINA RESULT:    -4.244      1.639      3.673
REMARK INTER + INTRA:          -6.115
REMARK INTER:                  -5.240
REMARK INTRA:                  -0.874
REMARK UNBOUND:                -0.878
REMARK SMILES C=CC(=C)CCC=C(C)C
REMARK SMILES IDX 5 1 6 2 7 3 9 4 8 5 10 6 3 7 4 8 2 9 1 10
REMARK H PARENT
REMARK Flexibility Score: inf
ROOT
ATOM      1  C   UNL     1     111.101 111.773 109.990  1.00  0.00     0.039 C 
ENDROOT
BRANCH   1   2
ATOM      2  C   UNL     1     112.374 111.196 109.351  1.00  0.00     0.032 C 
BRANCH   2   3
ATOM      3  C   UNL     1     112.825 111.979 108.140  1.00  0.00    -0.028 C 
ATOM      4  C   UNL     1     112.068 110.179 106.584  1.00  0.00     0.039 C 
ATOM      5  C   UNL     1     112.689 111.523 106.877  1.00  0.00    -0.080 C 
ATOM      6  C   UNL     1     113.176 112.386 105.740  1.00  0.00     0.039 C 
ENDBRANCH   2   3
ENDBRANCH   1   2
BRANCH   1   7
ATOM      7  C   UNL     1     109.845 111.070 109.507  1.00  0.00    -0.055 C 
ATOM      8  C   UNL     1     109.553 109.866 110.012  1.00  0.00     0.012 C 
BRANCH   7   9
ATOM      9  C   UNL     1     108.924 111.646 108.487  1.00  0.00    -0.005 C 
ATOM     10  C   UNL     1     109.142 112.775 107.811  1.00  0.00     0.009 C 
ENDBRANCH   7   9
ENDBRANCH   1   7
TORSDOF 4
ENDMDL
MODEL 8
REMARK VINA RESULT:    -4.225      1.158      4.546
REMARK INTER + INTRA:          -6.091
REMARK INTER:                  -5.193
REMARK INTRA:                  -0.898
REMARK UNBOUND:                -0.878
REMARK SMILES C=CC(=C)CCC=C(C)C
REMARK SMILES IDX 5 1 6 2 7 3 9 4 8 5 10 6 3 7 4 8 2 9 1 10
REMARK H PARENT
REMARK Flexibility Score: inf
ROOT
ATOM      1  C   UNL     1     111.141 111.882 106.438  1.00  0.00     0.039 C 
ENDROOT
BRANCH   1   2
ATOM      2  C   UNL     1     112.451 111.340 107.031  1.00  0.00     0.032 C 
BRANCH   2   3
ATOM      3  C   UNL     1     112.846 112.041 108.310  1.00  0.00    -0.028 C 
ATOM      4  C   UNL     1     112.493 109.968 109.658  1.00  0.00     0.039 C 
ATOM      5  C   UNL     1     112.867 111.423 109.511  1.00  0.00    -0.080 C 
ATOM      6  C   UNL     1     113.274 112.217 110.726  1.00  0.00     0.039 C 
ENDBRANCH   2   3
ENDBRANCH   1   2
BRANCH   1   7
ATOM      7  C   UNL     1     109.916 111.273 107.096  1.00  0.00    -0.055 C 
ATOM      8  C   UNL     1     109.539 110.042 106.728  1.00  0.00     0.012 C 
BRANCH   7   9
ATOM      9  C   UNL     1     109.099 111.979 108.122  1.00  0.00    -0.005 C 
ATOM     10  C   UNL     1     109.232 111.828 109.441  1.00  0.00     0.009 C 
ENDBRANCH   7   9
ENDBRANCH   1   7
TORSDOF 4
ENDMDL
MODEL 9
REMARK VINA RESULT:    -4.165      4.111      6.272
REMARK INTER + INTRA:          -6.017
REMARK INTER:                  -5.091
REMARK INTRA:                  -0.926
REMARK UNBOUND:                -0.878
REMARK SMILES C=CC(=C)CCC=C(C)C
REMARK SMILES IDX 5 1 6 2 7 3 9 4 8 5 10 6 3 7 4 8 2 9 1 10
REMARK H PARENT
REMARK Flexibility Score: inf
ROOT
ATOM      1  C   UNL     1     109.982 112.159 112.240  1.00  0.00     0.039 C 
ENDROOT
BRANCH   1   2
ATOM      2  C   UNL     1     109.044 112.218 113.455  1.00  0.00     0.032 C 
BRANCH   2   3
ATOM      3  C   UNL     1     109.791 112.233 114.768  1.00  0.00    -0.028 C 
ATOM      4  C   UNL     1     109.040 109.917 115.324  1.00  0.00     0.039 C 
ATOM      5  C   UNL     1     109.794 111.189 115.625  1.00  0.00    -0.080 C 
ATOM      6  C   UNL     1     110.571 111.311 116.911  1.00  0.00     0.039 C 
ENDBRANCH   2   3
ENDBRANCH   1   2
BRANCH   1   7
ATOM      7  C   UNL     1     110.415 110.740 111.914  1.00  0.00    -0.055 C 
ATOM      8  C   UNL     1     109.490 109.876 111.476  1.00  0.00     0.012 C 
BRANCH   7   9
ATOM      9  C   UNL     1     111.813 110.252 112.070  1.00  0.00    -0.005 C 
ATOM     10  C   UNL     1     112.380 109.913 113.229  1.00  0.00     0.009 C 
ENDBRANCH   7   9
ENDBRANCH   1   7
TORSDOF 4
ENDMDL
