MODEL 1
REMARK VINA RESULT:    -1.509      0.000      0.000
REMARK INTER + INTRA:          -3.696
REMARK INTER:                  -2.920
REMARK INTRA:                  -0.775
REMARK UNBOUND:                -0.775
REMARK SMILES CCCCCCCCCCCCCCCCCC(=O)[O-]
REMARK SMILES IDX 10 1 11 2 12 3 13 4 14 5 15 6 16 7 17 8 18 9 19 10 20 11
REMARK SMILES IDX 9 12 8 13 7 14 6 15 5 16 4 17 3 18 2 19 1 20
REMARK H PARENT
REMARK Flexibility Score: inf
ROOT
ATOM      1  C   UNL     1      31.845  24.626  33.807  1.00  0.00     0.000 C 
ENDROOT
BRANCH   1   2
ATOM      2  C   UNL     1      33.357  24.677  34.076  1.00  0.00     0.000 C 
BRANCH   2   3
ATOM      3  C   UNL     1      34.163  25.104  32.839  1.00  0.00     0.000 C 
BRANCH   3   4
ATOM      4  C   UNL     1      35.666  25.113  33.140  1.00  0.00     0.000 C 
BRANCH   4   5
ATOM      5  C   UNL     1      36.432  24.238  32.136  1.00  0.00     0.000 C 
BRANCH   5   6
ATOM      6  C   UNL     1      37.093  25.060  31.017  1.00  0.00     0.000 C 
BRANCH   6   7
ATOM      7  C   UNL     1      36.338  24.956  29.680  1.00  0.00     0.006 C 
BRANCH   7   8
ATOM      8  C   UNL     1      37.113  24.135  28.641  1.00  0.00     0.053 C 
BRANCH   8   9
ATOM      9  C   UNL     1      36.501  22.784  28.430  1.00  0.00     0.041 C 
ATOM     10  O   UNL     1      37.124  21.745  28.773  1.00  0.00    -0.550 OA
ATOM     11  O   UNL     1      35.230  22.673  27.881  1.00  0.00    -0.550 OA
ENDBRANCH   8   9
ENDBRANCH   7   8
ENDBRANCH   6   7
ENDBRANCH   5   6
ENDBRANCH   4   5
ENDBRANCH   3   4
ENDBRANCH   2   3
ENDBRANCH   1   2
BRANCH   1  12
ATOM     12  C   UNL     1      31.500  23.857  32.519  1.00  0.00     0.000 C 
BRANCH  12  13
ATOM     13  C   UNL     1      30.074  24.146  32.017  1.00  0.00    -0.000 C 
BRANCH  13  14
ATOM     14  C   UNL     1      29.993  25.125  30.829  1.00  0.00    -0.000 C 
BRANCH  14  15
ATOM     15  C   UNL     1      29.128  24.648  29.643  1.00  0.00    -0.000 C 
BRANCH  15  16
ATOM     16  C   UNL     1      29.916  24.163  28.412  1.00  0.00    -0.000 C 
BRANCH  16  17
ATOM     17  C   UNL     1      30.593  22.801  28.635  1.00  0.00    -0.000 C 
BRANCH  17  18
ATOM     18  C   UNL     1      32.130  22.888  28.636  1.00  0.00    -0.000 C 
BRANCH  18  19
ATOM     19  C   UNL     1      32.705  24.250  29.066  1.00  0.00    -0.003 C 
ATOM     20  C   UNL     1      33.538  24.920  27.974  1.00  0.00     0.004 C 
ENDBRANCH  18  19
ENDBRANCH  17  18
ENDBRANCH  16  17
ENDBRANCH  15  16
ENDBRANCH  14  15
ENDBRANCH  13  14
ENDBRANCH  12  13
ENDBRANCH   1  12
TORSDOF 16
ENDMDL
