MODEL 1
REMARK VINA RESULT:     2.911      0.000      0.000
REMARK INTER + INTRA:           7.049
REMARK INTER:                   6.656
REMARK INTRA:                   0.393
REMARK UNBOUND:                 0.393
REMARK SMILES CCCCCCCCCCCCCCCCCCCCCCCC(=O)[O-]
REMARK SMILES IDX 13 1 14 2 15 3 16 4 17 5 18 6 19 7 20 8 21 9 22 10 23 11
REMARK SMILES IDX 24 12 25 13 26 14 12 15 11 16 10 17 9 18 8 19 7 20 6 21 5 22
REMARK SMILES IDX 4 23 3 24 2 25 1 26
REMARK H PARENT
REMARK Flexibility Score: inf
ROOT
ATOM      1  C   UNL     1       5.639  75.804   0.940  1.00  0.00     0.000 C 
ENDROOT
BRANCH   1   2
ATOM      2  C   UNL     1       6.040  77.271   1.183  1.00  0.00     0.000 C 
BRANCH   2   3
ATOM      3  C   UNL     1       5.363  77.909   2.414  1.00  0.00     0.000 C 
BRANCH   3   4
ATOM      4  C   UNL     1       5.113  76.881   3.532  1.00  0.00     0.000 C 
BRANCH   4   5
ATOM      5  C   UNL     1       3.804  77.139   4.294  1.00  0.00     0.000 C 
BRANCH   5   6
ATOM      6  C   UNL     1       3.971  76.996   5.817  1.00  0.00     0.000 C 
BRANCH   6   7
ATOM      7  C   UNL     1       2.620  76.948   6.553  1.00  0.00     0.000 C 
BRANCH   7   8
ATOM      8  C   UNL     1       2.048  78.350   6.825  1.00  0.00     0.000 C 
BRANCH   8   9
ATOM      9  C   UNL     1       2.702  79.031   8.038  1.00  0.00     0.000 C 
BRANCH   9  10
ATOM     10  C   UNL     1       3.422  78.037   8.961  1.00  0.00     0.006 C 
BRANCH  10  11
ATOM     11  C   UNL     1       3.937  78.735  10.225  1.00  0.00     0.053 C 
BRANCH  11  12
ATOM     12  C   UNL     1       4.242  77.733  11.294  1.00  0.00     0.041 C 
ATOM     13  O   UNL     1       5.424  77.585  11.703  1.00  0.00    -0.550 OA
ATOM     14  O   UNL     1       3.218  76.986  11.862  1.00  0.00    -0.550 OA
ENDBRANCH  11  12
ENDBRANCH  10  11
ENDBRANCH   9  10
ENDBRANCH   8   9
ENDBRANCH   7   8
ENDBRANCH   6   7
ENDBRANCH   5   6
ENDBRANCH   4   5
ENDBRANCH   3   4
ENDBRANCH   2   3
ENDBRANCH   1   2
BRANCH   1  15
ATOM     15  C   UNL     1       6.808  74.882   0.531  1.00  0.00     0.000 C 
BRANCH  15  16
ATOM     16  C   UNL     1       8.142  75.124   1.268  1.00  0.00     0.000 C 
BRANCH  16  17
ATOM     17  C   UNL     1       9.133  73.942   1.265  1.00  0.00     0.000 C 
BRANCH  17  18
ATOM     18  C   UNL     1      10.074  73.873   2.483  1.00  0.00    -0.000 C 
BRANCH  18  19
ATOM     19  C   UNL     1      11.575  73.864   2.143  1.00  0.00    -0.000 C 
BRANCH  19  20
ATOM     20  C   UNL     1      12.386  74.855   2.989  1.00  0.00    -0.000 C 
BRANCH  20  21
ATOM     21  C   UNL     1      13.452  75.562   2.138  1.00  0.00    -0.000 C 
BRANCH  21  22
ATOM     22  C   UNL     1      14.855  75.490   2.778  1.00  0.00    -0.000 C 
BRANCH  22  23
ATOM     23  C   UNL     1      14.859  74.908   4.206  1.00  0.00    -0.000 C 
BRANCH  23  24
ATOM     24  C   UNL     1      13.640  75.288   5.063  1.00  0.00    -0.000 C 
BRANCH  24  25
ATOM     25  C   UNL     1      13.604  74.548   6.409  1.00  0.00    -0.003 C 
ATOM     26  C   UNL     1      15.015  74.317   6.942  1.00  0.00     0.004 C 
ENDBRANCH  24  25
ENDBRANCH  23  24
ENDBRANCH  22  23
ENDBRANCH  21  22
ENDBRANCH  20  21
ENDBRANCH  19  20
ENDBRANCH  18  19
ENDBRANCH  17  18
ENDBRANCH  16  17
ENDBRANCH  15  16
ENDBRANCH   1  15
TORSDOF 22
ENDMDL
MODEL 2
REMARK VINA RESULT:     3.209      3.191      9.910
REMARK INTER + INTRA:           7.731
REMARK INTER:                   8.825
REMARK INTRA:                  -1.095
REMARK UNBOUND:                 0.393
REMARK SMILES CCCCCCCCCCCCCCCCCCCCCCCC(=O)[O-]
REMARK SMILES IDX 13 1 14 2 15 3 16 4 17 5 18 6 19 7 20 8 21 9 22 10 23 11
REMARK SMILES IDX 24 12 25 13 26 14 12 15 11 16 10 17 9 18 8 19 7 20 6 21 5 22
REMARK SMILES IDX 4 23 3 24 2 25 1 26
REMARK H PARENT
REMARK Flexibility Score: inf
ROOT
ATOM      1  C   UNL     1       5.560  75.287   0.970  1.00  0.00     0.000 C 
ENDROOT
BRANCH   1   2
ATOM      2  C   UNL     1       6.528  74.187   0.494  1.00  0.00     0.000 C 
BRANCH   2   3
ATOM      3  C   UNL     1       8.008  74.619   0.484  1.00  0.00     0.000 C 
BRANCH   3   4
ATOM      4  C   UNL     1       8.648  74.520   1.880  1.00  0.00     0.000 C 
BRANCH   4   5
ATOM      5  C   UNL     1      10.021  73.830   1.856  1.00  0.00     0.000 C 
BRANCH   5   6
ATOM      6  C   UNL     1      11.059  74.554   2.731  1.00  0.00     0.000 C 
BRANCH   6   7
ATOM      7  C   UNL     1      12.505  74.246   2.302  1.00  0.00     0.000 C 
BRANCH   7   8
ATOM      8  C   UNL     1      13.339  75.522   2.095  1.00  0.00     0.000 C 
BRANCH   8   9
ATOM      9  C   UNL     1      14.418  75.706   3.174  1.00  0.00     0.000 C 
BRANCH   9  10
ATOM     10  C   UNL     1      14.382  74.604   4.244  1.00  0.00     0.006 C 
BRANCH  10  11
ATOM     11  C   UNL     1      14.173  75.200   5.640  1.00  0.00     0.053 C 
BRANCH  11  12
ATOM     12  C   UNL     1      14.555  74.213   6.698  1.00  0.00     0.041 C 
ATOM     13  O   UNL     1      14.396  74.497   7.915  1.00  0.00    -0.550 OA
ATOM     14  O   UNL     1      15.057  72.968   6.341  1.00  0.00    -0.550 OA
ENDBRANCH  11  12
ENDBRANCH  10  11
ENDBRANCH   9  10
ENDBRANCH   8   9
ENDBRANCH   7   8
ENDBRANCH   6   7
ENDBRANCH   5   6
ENDBRANCH   4   5
ENDBRANCH   3   4
ENDBRANCH   2   3
ENDBRANCH   1   2
BRANCH   1  15
ATOM     15  C   UNL     1       6.127  76.721   0.876  1.00  0.00     0.000 C 
BRANCH  15  16
ATOM     16  C   UNL     1       5.741  77.670   2.030  1.00  0.00     0.000 C 
BRANCH  16  17
ATOM     17  C   UNL     1       5.326  76.988   3.349  1.00  0.00     0.000 C 
BRANCH  17  18
ATOM     18  C   UNL     1       4.052  77.554   4.007  1.00  0.00    -0.000 C 
BRANCH  18  19
ATOM     19  C   UNL     1       3.743  76.997   5.407  1.00  0.00    -0.000 C 
BRANCH  19  20
ATOM     20  C   UNL     1       2.292  77.248   5.843  1.00  0.00    -0.000 C 
BRANCH  20  21
ATOM     21  C   UNL     1       2.237  78.175   7.066  1.00  0.00    -0.000 C 
BRANCH  21  22
ATOM     22  C   UNL     1       2.938  77.563   8.298  1.00  0.00    -0.000 C 
BRANCH  22  23
ATOM     23  C   UNL     1       3.845  78.554   9.054  1.00  0.00    -0.000 C 
BRANCH  23  24
ATOM     24  C   UNL     1       3.323  78.987  10.434  1.00  0.00    -0.000 C 
BRANCH  24  25
ATOM     25  C   UNL     1       4.438  79.099  11.485  1.00  0.00    -0.003 C 
ATOM     26  C   UNL     1       4.958  77.720  11.876  1.00  0.00     0.004 C 
ENDBRANCH  24  25
ENDBRANCH  23  24
ENDBRANCH  22  23
ENDBRANCH  21  22
ENDBRANCH  20  21
ENDBRANCH  19  20
ENDBRANCH  18  19
ENDBRANCH  17  18
ENDBRANCH  16  17
ENDBRANCH  15  16
ENDBRANCH   1  15
TORSDOF 22
ENDMDL
MODEL 3
REMARK VINA RESULT:     3.466      1.035      2.189
REMARK INTER + INTRA:           8.318
REMARK INTER:                   9.425
REMARK INTRA:                  -1.107
REMARK UNBOUND:                 0.393
REMARK SMILES CCCCCCCCCCCCCCCCCCCCCCCC(=O)[O-]
REMARK SMILES IDX 13 1 14 2 15 3 16 4 17 5 18 6 19 7 20 8 21 9 22 10 23 11
REMARK SMILES IDX 24 12 25 13 26 14 12 15 11 16 10 17 9 18 8 19 7 20 6 21 5 22
REMARK SMILES IDX 4 23 3 24 2 25 1 26
REMARK H PARENT
REMARK Flexibility Score: inf
ROOT
ATOM      1  C   UNL     1       6.061  75.940   0.868  1.00  0.00     0.000 C 
ENDROOT
BRANCH   1   2
ATOM      2  C   UNL     1       6.107  77.468   1.058  1.00  0.00     0.000 C 
BRANCH   2   3
ATOM      3  C   UNL     1       5.514  77.950   2.398  1.00  0.00     0.000 C 
BRANCH   3   4
ATOM      4  C   UNL     1       4.973  76.782   3.242  1.00  0.00     0.000 C 
BRANCH   4   5
ATOM      5  C   UNL     1       4.599  77.206   4.671  1.00  0.00     0.000 C 
BRANCH   5   6
ATOM      6  C   UNL     1       3.194  76.728   5.079  1.00  0.00     0.000 C 
BRANCH   6   7
ATOM      7  C   UNL     1       2.260  77.897   5.443  1.00  0.00     0.000 C 
BRANCH   7   8
ATOM      8  C   UNL     1       1.721  77.790   6.880  1.00  0.00     0.000 C 
BRANCH   8   9
ATOM      9  C   UNL     1       2.680  77.042   7.819  1.00  0.00     0.000 C 
BRANCH   9  10
ATOM     10  C   UNL     1       3.852  77.915   8.292  1.00  0.00     0.006 C 
BRANCH  10  11
ATOM     11  C   UNL     1       3.431  78.814   9.460  1.00  0.00     0.053 C 
BRANCH  11  12
ATOM     12  C   UNL     1       3.824  78.199  10.767  1.00  0.00     0.041 C 
ATOM     13  O   UNL     1       3.267  77.140  11.161  1.00  0.00    -0.550 OA
ATOM     14  O   UNL     1       4.827  78.777  11.536  1.00  0.00    -0.550 OA
ENDBRANCH  11  12
ENDBRANCH  10  11
ENDBRANCH   9  10
ENDBRANCH   8   9
ENDBRANCH   7   8
ENDBRANCH   6   7
ENDBRANCH   5   6
ENDBRANCH   4   5
ENDBRANCH   3   4
ENDBRANCH   2   3
ENDBRANCH   1   2
BRANCH   1  15
ATOM     15  C   UNL     1       7.360  75.327   0.301  1.00  0.00     0.000 C 
BRANCH  15  16
ATOM     16  C   UNL     1       8.078  74.315   1.218  1.00  0.00     0.000 C 
BRANCH  16  17
ATOM     17  C   UNL     1       9.337  74.839   1.939  1.00  0.00     0.000 C 
BRANCH  17  18
ATOM     18  C   UNL     1      10.372  73.762   2.316  1.00  0.00    -0.000 C 
BRANCH  18  19
ATOM     19  C   UNL     1      11.727  74.307   2.802  1.00  0.00    -0.000 C 
BRANCH  19  20
ATOM     20  C   UNL     1      12.006  73.984   4.277  1.00  0.00    -0.000 C 
BRANCH  20  21
ATOM     21  C   UNL     1      13.033  74.960   4.869  1.00  0.00    -0.000 C 
BRANCH  21  22
ATOM     22  C   UNL     1      14.480  74.612   4.457  1.00  0.00    -0.000 C 
BRANCH  22  23
ATOM     23  C   UNL     1      14.832  75.026   3.014  1.00  0.00    -0.000 C 
BRANCH  23  24
ATOM     24  C   UNL     1      14.746  76.536   2.735  1.00  0.00    -0.000 C 
BRANCH  24  25
ATOM     25  C   UNL     1      13.704  76.884   1.660  1.00  0.00    -0.003 C 
ATOM     26  C   UNL     1      13.924  76.055   0.399  1.00  0.00     0.004 C 
ENDBRANCH  24  25
ENDBRANCH  23  24
ENDBRANCH  22  23
ENDBRANCH  21  22
ENDBRANCH  20  21
ENDBRANCH  19  20
ENDBRANCH  18  19
ENDBRANCH  17  18
ENDBRANCH  16  17
ENDBRANCH  15  16
ENDBRANCH   1  15
TORSDOF 22
ENDMDL
MODEL 4
REMARK VINA RESULT:     3.698      1.220      2.067
REMARK INTER + INTRA:           8.847
REMARK INTER:                   9.330
REMARK INTRA:                  -0.483
REMARK UNBOUND:                 0.393
REMARK SMILES CCCCCCCCCCCCCCCCCCCCCCCC(=O)[O-]
REMARK SMILES IDX 13 1 14 2 15 3 16 4 17 5 18 6 19 7 20 8 21 9 22 10 23 11
REMARK SMILES IDX 24 12 25 13 26 14 12 15 11 16 10 17 9 18 8 19 7 20 6 21 5 22
REMARK SMILES IDX 4 23 3 24 2 25 1 26
REMARK H PARENT
REMARK Flexibility Score: inf
ROOT
ATOM      1  C   UNL     1       5.689  74.363   0.225  1.00  0.00     0.000 C 
ENDROOT
BRANCH   1   2
ATOM      2  C   UNL     1       5.268  75.740   0.774  1.00  0.00     0.000 C 
BRANCH   2   3
ATOM      3  C   UNL     1       6.433  76.742   0.910  1.00  0.00     0.000 C 
BRANCH   3   4
ATOM      4  C   UNL     1       5.938  78.198   0.973  1.00  0.00     0.000 C 
BRANCH   4   5
ATOM      5  C   UNL     1       5.127  78.494   2.244  1.00  0.00     0.000 C 
BRANCH   5   6
ATOM      6  C   UNL     1       5.435  77.507   3.383  1.00  0.00     0.000 C 
BRANCH   6   7
ATOM      7  C   UNL     1       4.186  76.735   3.844  1.00  0.00     0.000 C 
BRANCH   7   8
ATOM      8  C   UNL     1       3.833  77.015   5.315  1.00  0.00     0.000 C 
BRANCH   8   9
ATOM      9  C   UNL     1       2.366  77.434   5.502  1.00  0.00     0.000 C 
BRANCH   9  10
ATOM     10  C   UNL     1       2.080  77.987   6.906  1.00  0.00     0.006 C 
BRANCH  10  11
ATOM     11  C   UNL     1       3.339  77.949   7.779  1.00  0.00     0.053 C 
BRANCH  11  12
ATOM     12  C   UNL     1       3.258  76.835   8.775  1.00  0.00     0.041 C 
ATOM     13  O   UNL     1       3.520  77.050   9.988  1.00  0.00    -0.550 OA
ATOM     14  O   UNL     1       2.861  75.566   8.371  1.00  0.00    -0.550 OA
ENDBRANCH  11  12
ENDBRANCH  10  11
ENDBRANCH   9  10
ENDBRANCH   8   9
ENDBRANCH   7   8
ENDBRANCH   6   7
ENDBRANCH   5   6
ENDBRANCH   4   5
ENDBRANCH   3   4
ENDBRANCH   2   3
ENDBRANCH   1   2
BRANCH   1  15
ATOM     15  C   UNL     1       7.215  74.163   0.105  1.00  0.00     0.000 C 
BRANCH  15  16
ATOM     16  C   UNL     1       7.950  73.810   1.416  1.00  0.00     0.000 C 
BRANCH  16  17
ATOM     17  C   UNL     1       9.310  74.504   1.630  1.00  0.00     0.000 C 
BRANCH  17  18
ATOM     18  C   UNL     1      10.432  73.595   2.167  1.00  0.00    -0.000 C 
BRANCH  18  19
ATOM     19  C   UNL     1      11.547  74.326   2.935  1.00  0.00    -0.000 C 
BRANCH  19  20
ATOM     20  C   UNL     1      12.862  74.408   2.146  1.00  0.00    -0.000 C 
BRANCH  20  21
ATOM     21  C   UNL     1      13.557  75.759   2.373  1.00  0.00    -0.000 C 
BRANCH  21  22
ATOM     22  C   UNL     1      14.887  75.612   3.143  1.00  0.00    -0.000 C 
BRANCH  22  23
ATOM     23  C   UNL     1      14.784  74.718   4.395  1.00  0.00    -0.000 C 
BRANCH  23  24
ATOM     24  C   UNL     1      13.736  75.167   5.427  1.00  0.00    -0.000 C 
BRANCH  24  25
ATOM     25  C   UNL     1      14.122  74.796   6.867  1.00  0.00    -0.003 C 
ATOM     26  C   UNL     1      14.938  73.508   6.899  1.00  0.00     0.004 C 
ENDBRANCH  24  25
ENDBRANCH  23  24
ENDBRANCH  22  23
ENDBRANCH  21  22
ENDBRANCH  20  21
ENDBRANCH  19  20
ENDBRANCH  18  19
ENDBRANCH  17  18
ENDBRANCH  16  17
ENDBRANCH  15  16
ENDBRANCH   1  15
TORSDOF 22
ENDMDL
MODEL 5
REMARK VINA RESULT:     4.006      3.317      9.929
REMARK INTER + INTRA:           9.552
REMARK INTER:                   9.916
REMARK INTRA:                  -0.364
REMARK UNBOUND:                 0.393
REMARK SMILES CCCCCCCCCCCCCCCCCCCCCCCC(=O)[O-]
REMARK SMILES IDX 13 1 14 2 15 3 16 4 17 5 18 6 19 7 20 8 21 9 22 10 23 11
REMARK SMILES IDX 24 12 25 13 26 14 12 15 11 16 10 17 9 18 8 19 7 20 6 21 5 22
REMARK SMILES IDX 4 23 3 24 2 25 1 26
REMARK H PARENT
REMARK Flexibility Score: inf
ROOT
ATOM      1  C   UNL     1       6.009  74.633   0.470  1.00  0.00     0.000 C 
ENDROOT
BRANCH   1   2
ATOM      2  C   UNL     1       7.505  75.000   0.445  1.00  0.00     0.000 C 
BRANCH   2   3
ATOM      3  C   UNL     1       8.413  73.974   1.154  1.00  0.00     0.000 C 
BRANCH   3   4
ATOM      4  C   UNL     1       9.543  74.654   1.946  1.00  0.00     0.000 C 
BRANCH   4   5
ATOM      5  C   UNL     1      10.644  73.671   2.373  1.00  0.00     0.000 C 
BRANCH   5   6
ATOM      6  C   UNL     1      11.846  74.378   3.025  1.00  0.00     0.000 C 
BRANCH   6   7
ATOM      7  C   UNL     1      12.992  74.625   2.028  1.00  0.00     0.000 C 
BRANCH   7   8
ATOM      8  C   UNL     1      13.657  75.998   2.227  1.00  0.00     0.000 C 
BRANCH   8   9
ATOM      9  C   UNL     1      14.554  76.046   3.474  1.00  0.00     0.000 C 
BRANCH   9  10
ATOM     10  C   UNL     1      14.676  74.683   4.172  1.00  0.00     0.006 C 
BRANCH  10  11
ATOM     11  C   UNL     1      13.819  74.638   5.442  1.00  0.00     0.053 C 
BRANCH  11  12
ATOM     12  C   UNL     1      14.651  74.257   6.627  1.00  0.00     0.041 C 
ATOM     13  O   UNL     1      15.074  73.077   6.751  1.00  0.00    -0.550 OA
ATOM     14  O   UNL     1      14.987  75.213   7.578  1.00  0.00    -0.550 OA
ENDBRANCH  11  12
ENDBRANCH  10  11
ENDBRANCH   9  10
ENDBRANCH   8   9
ENDBRANCH   7   8
ENDBRANCH   6   7
ENDBRANCH   5   6
ENDBRANCH   4   5
ENDBRANCH   3   4
ENDBRANCH   2   3
ENDBRANCH   1   2
BRANCH   1  15
ATOM     15  C   UNL     1       5.071  75.800   0.847  1.00  0.00     0.000 C 
BRANCH  15  16
ATOM     16  C   UNL     1       5.745  77.182   0.987  1.00  0.00     0.000 C 
BRANCH  16  17
ATOM     17  C   UNL     1       5.578  77.873   2.356  1.00  0.00     0.000 C 
BRANCH  17  18
ATOM     18  C   UNL     1       5.409  76.919   3.554  1.00  0.00    -0.000 C 
BRANCH  18  19
ATOM     19  C   UNL     1       3.956  76.701   4.010  1.00  0.00    -0.000 C 
BRANCH  19  20
ATOM     20  C   UNL     1       3.599  77.497   5.273  1.00  0.00    -0.000 C 
BRANCH  20  21
ATOM     21  C   UNL     1       2.230  77.073   5.823  1.00  0.00    -0.000 C 
BRANCH  21  22
ATOM     22  C   UNL     1       1.630  78.127   6.779  1.00  0.00    -0.000 C 
BRANCH  22  23
ATOM     23  C   UNL     1       2.686  78.904   7.589  1.00  0.00    -0.000 C 
BRANCH  23  24
ATOM     24  C   UNL     1       2.711  78.587   9.094  1.00  0.00    -0.000 C 
BRANCH  24  25
ATOM     25  C   UNL     1       3.960  77.797   9.515  1.00  0.00    -0.003 C 
ATOM     26  C   UNL     1       4.084  77.742  11.034  1.00  0.00     0.004 C 
ENDBRANCH  24  25
ENDBRANCH  23  24
ENDBRANCH  22  23
ENDBRANCH  21  22
ENDBRANCH  20  21
ENDBRANCH  19  20
ENDBRANCH  18  19
ENDBRANCH  17  18
ENDBRANCH  16  17
ENDBRANCH  15  16
ENDBRANCH   1  15
TORSDOF 22
ENDMDL
MODEL 6
REMARK VINA RESULT:     4.908      3.965     10.246
REMARK INTER + INTRA:          11.613
REMARK INTER:                  12.476
REMARK INTRA:                  -0.862
REMARK UNBOUND:                 0.393
REMARK SMILES CCCCCCCCCCCCCCCCCCCCCCCC(=O)[O-]
REMARK SMILES IDX 13 1 14 2 15 3 16 4 17 5 18 6 19 7 20 8 21 9 22 10 23 11
REMARK SMILES IDX 24 12 25 13 26 14 12 15 11 16 10 17 9 18 8 19 7 20 6 21 5 22
REMARK SMILES IDX 4 23 3 24 2 25 1 26
REMARK H PARENT
REMARK Flexibility Score: inf
ROOT
ATOM      1  C   UNL     1       5.787  75.534   0.840  1.00  0.00     0.000 C 
ENDROOT
BRANCH   1   2
ATOM      2  C   UNL     1       7.317  75.718   0.831  1.00  0.00     0.000 C 
BRANCH   2   3
ATOM      3  C   UNL     1       8.101  74.445   1.212  1.00  0.00     0.000 C 
BRANCH   3   4
ATOM      4  C   UNL     1       9.560  74.759   1.590  1.00  0.00     0.000 C 
BRANCH   4   5
ATOM      5  C   UNL     1      10.327  73.518   2.074  1.00  0.00     0.000 C 
BRANCH   5   6
ATOM      6  C   UNL     1      11.684  73.874   2.707  1.00  0.00     0.000 C 
BRANCH   6   7
ATOM      7  C   UNL     1      11.571  74.158   4.215  1.00  0.00     0.000 C 
BRANCH   7   8
ATOM      8  C   UNL     1      12.937  74.129   4.922  1.00  0.00     0.000 C 
BRANCH   8   9
ATOM      9  C   UNL     1      13.692  75.463   4.806  1.00  0.00     0.000 C 
BRANCH   9  10
ATOM     10  C   UNL     1      15.098  75.301   4.210  1.00  0.00     0.006 C 
BRANCH  10  11
ATOM     11  C   UNL     1      15.033  75.120   2.689  1.00  0.00     0.053 C 
BRANCH  11  12
ATOM     12  C   UNL     1      14.273  76.242   2.056  1.00  0.00     0.041 C 
ATOM     13  O   UNL     1      14.482  77.431   2.416  1.00  0.00    -0.550 OA
ATOM     14  O   UNL     1      13.356  75.980   1.045  1.00  0.00    -0.550 OA
ENDBRANCH  11  12
ENDBRANCH  10  11
ENDBRANCH   9  10
ENDBRANCH   8   9
ENDBRANCH   7   8
ENDBRANCH   6   7
ENDBRANCH   5   6
ENDBRANCH   4   5
ENDBRANCH   3   4
ENDBRANCH   2   3
ENDBRANCH   1   2
BRANCH   1  15
ATOM     15  C   UNL     1       5.006  76.712   1.462  1.00  0.00     0.000 C 
BRANCH  15  16
ATOM     16  C   UNL     1       5.546  77.237   2.810  1.00  0.00     0.000 C 
BRANCH  16  17
ATOM     17  C   UNL     1       4.842  76.695   4.070  1.00  0.00     0.000 C 
BRANCH  17  18
ATOM     18  C   UNL     1       3.670  77.553   4.585  1.00  0.00    -0.000 C 
BRANCH  18  19
ATOM     19  C   UNL     1       2.869  76.930   5.742  1.00  0.00    -0.000 C 
BRANCH  19  20
ATOM     20  C   UNL     1       1.813  77.883   6.319  1.00  0.00    -0.000 C 
BRANCH  20  21
ATOM     21  C   UNL     1       2.328  78.570   7.593  1.00  0.00    -0.000 C 
BRANCH  21  22
ATOM     22  C   UNL     1       3.268  77.659   8.411  1.00  0.00    -0.000 C 
BRANCH  22  23
ATOM     23  C   UNL     1       3.757  78.293   9.728  1.00  0.00    -0.000 C 
BRANCH  23  24
ATOM     24  C   UNL     1       3.612  77.397  10.970  1.00  0.00    -0.000 C 
BRANCH  24  25
ATOM     25  C   UNL     1       4.544  77.816  12.118  1.00  0.00    -0.003 C 
ATOM     26  C   UNL     1       5.989  77.436  11.814  1.00  0.00     0.004 C 
ENDBRANCH  24  25
ENDBRANCH  23  24
ENDBRANCH  22  23
ENDBRANCH  21  22
ENDBRANCH  20  21
ENDBRANCH  19  20
ENDBRANCH  18  19
ENDBRANCH  17  18
ENDBRANCH  16  17
ENDBRANCH  15  16
ENDBRANCH   1  15
TORSDOF 22
ENDMDL
MODEL 7
REMARK VINA RESULT:     5.683     15.964     20.276
REMARK INTER + INTRA:          13.386
REMARK INTER:                  14.174
REMARK INTRA:                  -0.788
REMARK UNBOUND:                 0.393
REMARK SMILES CCCCCCCCCCCCCCCCCCCCCCCC(=O)[O-]
REMARK SMILES IDX 13 1 14 2 15 3 16 4 17 5 18 6 19 7 20 8 21 9 22 10 23 11
REMARK SMILES IDX 24 12 25 13 26 14 12 15 11 16 10 17 9 18 8 19 7 20 6 21 5 22
REMARK SMILES IDX 4 23 3 24 2 25 1 26
REMARK H PARENT
REMARK Flexibility Score: inf
ROOT
ATOM      1  C   UNL     1       2.777  64.777  -5.298  1.00  0.00     0.000 C 
ENDROOT
BRANCH   1   2
ATOM      2  C   UNL     1       3.281  63.729  -6.309  1.00  0.00     0.000 C 
BRANCH   2   3
ATOM      3  C   UNL     1       2.364  62.496  -6.442  1.00  0.00     0.000 C 
BRANCH   3   4
ATOM      4  C   UNL     1       3.162  61.180  -6.433  1.00  0.00     0.000 C 
BRANCH   4   5
ATOM      5  C   UNL     1       2.336  59.982  -6.928  1.00  0.00     0.000 C 
BRANCH   5   6
ATOM      6  C   UNL     1       1.763  59.144  -5.772  1.00  0.00     0.000 C 
BRANCH   6   7
ATOM      7  C   UNL     1       1.099  60.013  -4.690  1.00  0.00     0.000 C 
BRANCH   7   8
ATOM      8  C   UNL     1      -0.164  59.358  -4.104  1.00  0.00     0.000 C 
BRANCH   8   9
ATOM      9  C   UNL     1      -1.452  59.828  -4.798  1.00  0.00     0.000 C 
BRANCH   9  10
ATOM     10  C   UNL     1      -2.636  59.960  -3.829  1.00  0.00     0.006 C 
BRANCH  10  11
ATOM     11  C   UNL     1      -3.924  59.417  -4.458  1.00  0.00     0.053 C 
BRANCH  11  12
ATOM     12  C   UNL     1      -4.216  60.115  -5.749  1.00  0.00     0.041 C 
ATOM     13  O   UNL     1      -4.415  59.448  -6.798  1.00  0.00    -0.550 OA
ATOM     14  O   UNL     1      -4.301  61.502  -5.788  1.00  0.00    -0.550 OA
ENDBRANCH  11  12
ENDBRANCH  10  11
ENDBRANCH   9  10
ENDBRANCH   8   9
ENDBRANCH   7   8
ENDBRANCH   6   7
ENDBRANCH   5   6
ENDBRANCH   4   5
ENDBRANCH   3   4
ENDBRANCH   2   3
ENDBRANCH   1   2
BRANCH   1  15
ATOM     15  C   UNL     1       3.745  65.957  -5.066  1.00  0.00     0.000 C 
BRANCH  15  16
ATOM     16  C   UNL     1       3.107  67.363  -5.095  1.00  0.00     0.000 C 
BRANCH  16  17
ATOM     17  C   UNL     1       1.574  67.406  -4.932  1.00  0.00     0.000 C 
BRANCH  17  18
ATOM     18  C   UNL     1       0.783  67.605  -6.239  1.00  0.00    -0.000 C 
BRANCH  18  19
ATOM     19  C   UNL     1      -0.128  68.845  -6.263  1.00  0.00    -0.000 C 
BRANCH  19  20
ATOM     20  C   UNL     1      -1.437  68.641  -5.486  1.00  0.00    -0.000 C 
BRANCH  20  21
ATOM     21  C   UNL     1      -2.643  69.128  -6.302  1.00  0.00    -0.000 C 
BRANCH  21  22
ATOM     22  C   UNL     1      -3.674  69.881  -5.433  1.00  0.00    -0.000 C 
BRANCH  22  23
ATOM     23  C   UNL     1      -5.020  70.131  -6.140  1.00  0.00    -0.000 C 
BRANCH  23  24
ATOM     24  C   UNL     1      -5.119  71.470  -6.890  1.00  0.00    -0.000 C 
BRANCH  24  25
ATOM     25  C   UNL     1      -4.442  72.625  -6.136  1.00  0.00    -0.003 C 
ATOM     26  C   UNL     1      -5.124  73.954  -6.449  1.00  0.00     0.004 C 
ENDBRANCH  24  25
ENDBRANCH  23  24
ENDBRANCH  22  23
ENDBRANCH  21  22
ENDBRANCH  20  21
ENDBRANCH  19  20
ENDBRANCH  18  19
ENDBRANCH  17  18
ENDBRANCH  16  17
ENDBRANCH  15  16
ENDBRANCH   1  15
TORSDOF 22
ENDMDL
