MODEL 1
REMARK VINA RESULT:    -8.769      0.000      0.000
REMARK INTER + INTRA:          -9.849
REMARK INTER:                  -9.538
REMARK INTRA:                  -0.311
REMARK UNBOUND:                -0.311
REMARK SMILES C[C@@H]1[C@@H](C)CC[C@@]2(C(=O)[O-])CC[C@]3(C)C(=CC[C@H]4[C@]5(C)CC[C@@H](O)C(C)(C)[C@@H]5CC[C@@]43C)[C@@H]12
REMARK SMILES IDX 7 1 6 2 11 3 33 4 5 5 12 6 15 7 2 8 3 9 13 10 16 11 1 12
REMARK SMILES IDX 4 13 14 14 31 15 17 16 18 17 30 18 32 19 19 20 29 21 28 22
REMARK SMILES IDX 21 23 20 24 25 25 22 26 23 27 26 28 27 29 8 30 9 31 10 32
REMARK SMILES IDX 24 33
REMARK H PARENT 24 34
REMARK Flexibility Score: inf
ROOT
ATOM      1  C   UNL     1      39.789  58.804   6.449  1.00  0.00     0.017 C 
ATOM      2  C   UNL     1      38.822  59.940   5.978  1.00  0.00     0.014 C 
ATOM      3  C   UNL     1      39.690  57.721   5.340  1.00  0.00     0.014 C 
ATOM      4  C   UNL     1      41.323  59.237   6.684  1.00  0.00     0.030 C 
ATOM      5  C   UNL     1      39.103  61.299   6.581  1.00  0.00     0.004 C 
ATOM      6  C   UNL     1      40.695  56.597   5.538  1.00  0.00     0.013 C 
ATOM      7  C   UNL     1      42.344  58.555   5.720  1.00  0.00    -0.063 C 
ATOM      8  C   UNL     1      41.553  60.794   6.938  1.00  0.00    -0.003 C 
ATOM      9  C   UNL     1      40.531  61.735   6.269  1.00  0.00    -0.011 C 
ATOM     10  C   UNL     1      42.169  57.063   5.313  1.00  0.00    -0.006 C 
ATOM     11  C   UNL     1      43.603  59.051   5.531  1.00  0.00    -0.027 C 
ATOM     12  C   UNL     1      41.696  61.113   8.442  1.00  0.00     0.008 C 
ATOM     13  C   UNL     1      40.800  61.870   4.756  1.00  0.00     0.008 C 
ATOM     14  C   UNL     1      42.982  56.283   6.411  1.00  0.00     0.017 C 
ATOM     15  C   UNL     1      42.733  56.773   3.785  1.00  0.00    -0.020 C 
ATOM     16  C   UNL     1      44.502  58.500   4.455  1.00  0.00     0.032 C 
ATOM     17  C   UNL     1      43.606  57.999   3.304  1.00  0.00     0.006 C 
ATOM     18  C   UNL     1      41.624  56.643   2.695  1.00  0.00     0.008 C 
ATOM     19  C   UNL     1      43.514  55.420   3.786  1.00  0.00     0.012 C 
ATOM     20  C   UNL     1      44.274  57.937   1.869  1.00  0.00    -0.025 C 
ATOM     21  C   UNL     1      42.142  56.520   1.243  1.00  0.00     0.005 C 
ATOM     22  C   UNL     1      43.179  57.592   0.764  1.00  0.00     0.003 C 
ATOM     23  C   UNL     1      44.927  59.327   1.557  1.00  0.00     0.010 C 
ATOM     24  C   UNL     1      45.429  56.884   1.822  1.00  0.00     0.012 C 
ATOM     25  C   UNL     1      42.565  58.827  -0.040  1.00  0.00    -0.006 C 
ATOM     26  C   UNL     1      45.079  59.583   0.063  1.00  0.00     0.033 C 
ATOM     27  C   UNL     1      43.723  59.721  -0.653  1.00  0.00     0.120 C 
ATOM     28  C   UNL     1      41.658  58.321  -1.208  1.00  0.00     0.014 C 
ATOM     29  C   UNL     1      41.650  59.722   0.842  1.00  0.00     0.014 C 
ENDROOT
BRANCH   1  30
ATOM     30  C   UNL     1      39.205  58.246   7.752  1.00  0.00     0.048 C 
ATOM     31  O   UNL     1      37.965  58.067   7.875  1.00  0.00    -0.550 OA
ATOM     32  O   UNL     1      40.037  57.831   8.788  1.00  0.00    -0.550 OA
ENDBRANCH   1  30
BRANCH  27  33
ATOM     33  O   UNL     1      43.930  59.429  -2.017  1.00  0.00    -0.393 OA
ATOM     34  H   UNL     1      43.521  58.540  -2.191  1.00  0.00     0.210 HD
ENDBRANCH  27  33
TORSDOF 2
ENDMDL
MODEL 2
REMARK VINA RESULT:    -8.767      2.853      6.425
REMARK INTER + INTRA:          -9.847
REMARK INTER:                  -9.532
REMARK INTRA:                  -0.314
REMARK UNBOUND:                -0.311
REMARK SMILES C[C@@H]1[C@@H](C)CC[C@@]2(C(=O)[O-])CC[C@]3(C)C(=CC[C@H]4[C@]5(C)CC[C@@H](O)C(C)(C)[C@@H]5CC[C@@]43C)[C@@H]12
REMARK SMILES IDX 7 1 6 2 11 3 33 4 5 5 12 6 15 7 2 8 3 9 13 10 16 11 1 12
REMARK SMILES IDX 4 13 14 14 31 15 17 16 18 17 30 18 32 19 19 20 29 21 28 22
REMARK SMILES IDX 21 23 20 24 25 25 22 26 23 27 26 28 27 29 8 30 9 31 10 32
REMARK SMILES IDX 24 33
REMARK H PARENT 24 34
REMARK Flexibility Score: inf
ROOT
ATOM      1  C   UNL     1      40.541  57.100   2.408  1.00  0.00     0.017 C 
ATOM      2  C   UNL     1      40.256  57.848   1.065  1.00  0.00     0.014 C 
ATOM      3  C   UNL     1      41.858  57.733   2.937  1.00  0.00     0.014 C 
ATOM      4  C   UNL     1      39.382  57.187   3.524  1.00  0.00     0.030 C 
ATOM      5  C   UNL     1      38.814  57.802   0.610  1.00  0.00     0.004 C 
ATOM      6  C   UNL     1      42.214  57.245   4.333  1.00  0.00     0.013 C 
ATOM      7  C   UNL     1      39.793  57.940   4.828  1.00  0.00    -0.063 C 
ATOM      8  C   UNL     1      37.931  57.532   2.962  1.00  0.00    -0.003 C 
ATOM      9  C   UNL     1      37.899  58.388   1.680  1.00  0.00    -0.011 C 
ATOM     10  C   UNL     1      41.221  57.767   5.422  1.00  0.00    -0.006 C 
ATOM     11  C   UNL     1      38.866  58.416   5.711  1.00  0.00    -0.027 C 
ATOM     12  C   UNL     1      37.064  56.263   2.799  1.00  0.00     0.008 C 
ATOM     13  C   UNL     1      38.208  59.868   1.988  1.00  0.00     0.008 C 
ATOM     14  C   UNL     1      41.068  56.548   6.405  1.00  0.00     0.017 C 
ATOM     15  C   UNL     1      41.737  59.137   6.191  1.00  0.00    -0.020 C 
ATOM     16  C   UNL     1      39.270  59.307   6.857  1.00  0.00     0.032 C 
ATOM     17  C   UNL     1      40.512  60.109   6.416  1.00  0.00     0.006 C 
ATOM     18  C   UNL     1      42.760  59.994   5.381  1.00  0.00     0.008 C 
ATOM     19  C   UNL     1      42.454  58.729   7.518  1.00  0.00     0.012 C 
ATOM     20  C   UNL     1      40.762  61.485   7.159  1.00  0.00    -0.025 C 
ATOM     21  C   UNL     1      43.136  61.349   6.024  1.00  0.00     0.005 C 
ATOM     22  C   UNL     1      41.955  62.280   6.465  1.00  0.00     0.003 C 
ATOM     23  C   UNL     1      39.447  62.336   7.097  1.00  0.00     0.010 C 
ATOM     24  C   UNL     1      41.077  61.266   8.675  1.00  0.00     0.012 C 
ATOM     25  C   UNL     1      41.543  63.407   5.412  1.00  0.00    -0.006 C 
ATOM     26  C   UNL     1      39.707  63.830   7.243  1.00  0.00     0.033 C 
ATOM     27  C   UNL     1      40.496  64.410   6.056  1.00  0.00     0.120 C 
ATOM     28  C   UNL     1      42.800  64.221   4.965  1.00  0.00     0.014 C 
ATOM     29  C   UNL     1      40.940  62.818   4.107  1.00  0.00     0.014 C 
ENDROOT
BRANCH   1  30
ATOM     30  C   UNL     1      40.798  55.633   2.045  1.00  0.00     0.048 C 
ATOM     31  O   UNL     1      41.515  55.332   1.055  1.00  0.00    -0.550 OA
ATOM     32  O   UNL     1      40.330  54.603   2.857  1.00  0.00    -0.550 OA
ENDBRANCH   1  30
BRANCH  27  33
ATOM     33  O   UNL     1      41.124  65.594   6.499  1.00  0.00    -0.393 OA
ATOM     34  H   UNL     1      41.371  65.454   7.452  1.00  0.00     0.210 HD
ENDBRANCH  27  33
TORSDOF 2
ENDMDL
MODEL 3
REMARK VINA RESULT:    -8.553      3.057      6.729
REMARK INTER + INTRA:          -9.614
REMARK INTER:                  -9.297
REMARK INTRA:                  -0.316
REMARK UNBOUND:                -0.311
REMARK SMILES C[C@@H]1[C@@H](C)CC[C@@]2(C(=O)[O-])CC[C@]3(C)C(=CC[C@H]4[C@]5(C)CC[C@@H](O)C(C)(C)[C@@H]5CC[C@@]43C)[C@@H]12
REMARK SMILES IDX 7 1 6 2 11 3 33 4 5 5 12 6 15 7 2 8 3 9 13 10 16 11 1 12
REMARK SMILES IDX 4 13 14 14 31 15 17 16 18 17 30 18 32 19 19 20 29 21 28 22
REMARK SMILES IDX 21 23 20 24 25 25 22 26 23 27 26 28 27 29 8 30 9 31 10 32
REMARK SMILES IDX 24 33
REMARK H PARENT 24 34
REMARK Flexibility Score: inf
ROOT
ATOM      1  C   UNL     1      39.428  56.579   1.092  1.00  0.00     0.017 C 
ATOM      2  C   UNL     1      39.256  57.767   0.091  1.00  0.00     0.014 C 
ATOM      3  C   UNL     1      40.822  56.810   1.739  1.00  0.00     0.014 C 
ATOM      4  C   UNL     1      38.292  56.443   2.227  1.00  0.00     0.030 C 
ATOM      5  C   UNL     1      37.823  58.075  -0.285  1.00  0.00     0.004 C 
ATOM      6  C   UNL     1      41.102  55.837   2.874  1.00  0.00     0.013 C 
ATOM      7  C   UNL     1      38.806  56.648   3.686  1.00  0.00    -0.063 C 
ATOM      8  C   UNL     1      36.907  57.152   1.881  1.00  0.00    -0.003 C 
ATOM      9  C   UNL     1      37.001  58.386   0.962  1.00  0.00    -0.011 C 
ATOM     10  C   UNL     1      40.194  56.092   4.120  1.00  0.00    -0.006 C 
ATOM     11  C   UNL     1      37.956  56.922   4.720  1.00  0.00    -0.027 C 
ATOM     12  C   UNL     1      35.866  56.143   1.346  1.00  0.00     0.008 C 
ATOM     13  C   UNL     1      37.520  59.618   1.731  1.00  0.00     0.008 C 
ATOM     14  C   UNL     1      39.864  54.646   4.646  1.00  0.00     0.017 C 
ATOM     15  C   UNL     1      40.901  57.039   5.277  1.00  0.00    -0.020 C 
ATOM     16  C   UNL     1      38.484  57.310   6.077  1.00  0.00     0.032 C 
ATOM     17  C   UNL     1      39.829  58.036   5.870  1.00  0.00     0.006 C 
ATOM     18  C   UNL     1      42.038  57.970   4.751  1.00  0.00     0.008 C 
ATOM     19  C   UNL     1      41.550  56.113   6.356  1.00  0.00     0.012 C 
ATOM     20  C   UNL     1      40.274  59.033   7.018  1.00  0.00    -0.025 C 
ATOM     21  C   UNL     1      42.606  58.964   5.790  1.00  0.00     0.005 C 
ATOM     22  C   UNL     1      41.572  59.844   6.572  1.00  0.00     0.003 C 
ATOM     23  C   UNL     1      39.097  60.026   7.305  1.00  0.00     0.010 C 
ATOM     24  C   UNL     1      40.553  58.275   8.356  1.00  0.00     0.012 C 
ATOM     25  C   UNL     1      41.328  61.305   5.977  1.00  0.00    -0.006 C 
ATOM     26  C   UNL     1      39.570  61.334   7.929  1.00  0.00     0.033 C 
ATOM     27  C   UNL     1      40.437  62.166   6.967  1.00  0.00     0.120 C 
ATOM     28  C   UNL     1      42.690  62.043   5.767  1.00  0.00     0.014 C 
ATOM     29  C   UNL     1      40.648  61.279   4.580  1.00  0.00     0.014 C 
ENDROOT
BRANCH   1  30
ATOM     30  C   UNL     1      39.471  55.299   0.249  1.00  0.00     0.048 C 
ATOM     31  O   UNL     1      40.178  55.238  -0.791  1.00  0.00    -0.550 OA
ATOM     32  O   UNL     1      38.809  54.147   0.664  1.00  0.00    -0.550 OA
ENDBRANCH   1  30
BRANCH  27  33
ATOM     33  O   UNL     1      41.228  63.033   7.749  1.00  0.00    -0.393 OA
ATOM     34  H   UNL     1      41.090  63.952   7.397  1.00  0.00     0.210 HD
ENDBRANCH  27  33
TORSDOF 2
ENDMDL
MODEL 4
REMARK VINA RESULT:    -8.367      1.446      2.379
REMARK INTER + INTRA:          -9.411
REMARK INTER:                  -9.147
REMARK INTRA:                  -0.264
REMARK UNBOUND:                -0.311
REMARK SMILES C[C@@H]1[C@@H](C)CC[C@@]2(C(=O)[O-])CC[C@]3(C)C(=CC[C@H]4[C@]5(C)CC[C@@H](O)C(C)(C)[C@@H]5CC[C@@]43C)[C@@H]12
REMARK SMILES IDX 7 1 6 2 11 3 33 4 5 5 12 6 15 7 2 8 3 9 13 10 16 11 1 12
REMARK SMILES IDX 4 13 14 14 31 15 17 16 18 17 30 18 32 19 19 20 29 21 28 22
REMARK SMILES IDX 21 23 20 24 25 25 22 26 23 27 26 28 27 29 8 30 9 31 10 32
REMARK SMILES IDX 24 33
REMARK H PARENT 24 34
REMARK Flexibility Score: inf
ROOT
ATOM      1  C   UNL     1      39.568  59.115   6.226  1.00  0.00     0.017 C 
ATOM      2  C   UNL     1      40.035  60.588   6.467  1.00  0.00     0.014 C 
ATOM      3  C   UNL     1      39.248  59.049   4.707  1.00  0.00     0.014 C 
ATOM      4  C   UNL     1      40.622  57.966   6.634  1.00  0.00     0.030 C 
ATOM      5  C   UNL     1      40.875  60.791   7.708  1.00  0.00     0.004 C 
ATOM      6  C   UNL     1      38.931  57.635   4.244  1.00  0.00     0.013 C 
ATOM      7  C   UNL     1      41.142  57.110   5.438  1.00  0.00    -0.063 C 
ATOM      8  C   UNL     1      41.728  58.412   7.692  1.00  0.00    -0.003 C 
ATOM      9  C   UNL     1      42.116  59.904   7.661  1.00  0.00    -0.011 C 
ATOM     10  C   UNL     1      40.180  56.697   4.286  1.00  0.00    -0.006 C 
ATOM     11  C   UNL     1      42.275  56.352   5.530  1.00  0.00    -0.027 C 
ATOM     12  C   UNL     1      41.362  57.966   9.125  1.00  0.00     0.008 C 
ATOM     13  C   UNL     1      43.034  60.219   6.462  1.00  0.00     0.008 C 
ATOM     14  C   UNL     1      39.597  55.317   4.768  1.00  0.00     0.017 C 
ATOM     15  C   UNL     1      40.971  56.577   2.838  1.00  0.00    -0.020 C 
ATOM     16  C   UNL     1      42.869  55.692   4.313  1.00  0.00     0.032 C 
ATOM     17  C   UNL     1      42.531  56.567   3.089  1.00  0.00     0.006 C 
ATOM     18  C   UNL     1      40.747  57.782   1.871  1.00  0.00     0.008 C 
ATOM     19  C   UNL     1      40.457  55.306   2.088  1.00  0.00     0.012 C 
ATOM     20  C   UNL     1      43.498  56.437   1.842  1.00  0.00    -0.025 C 
ATOM     21  C   UNL     1      41.596  57.752   0.579  1.00  0.00     0.005 C 
ATOM     22  C   UNL     1      43.139  57.535   0.745  1.00  0.00     0.003 C 
ATOM     23  C   UNL     1      44.975  56.632   2.328  1.00  0.00     0.010 C 
ATOM     24  C   UNL     1      43.426  55.009   1.210  1.00  0.00     0.012 C 
ATOM     25  C   UNL     1      44.020  58.867   0.755  1.00  0.00    -0.006 C 
ATOM     26  C   UNL     1      45.905  57.095   1.213  1.00  0.00     0.033 C 
ATOM     27  C   UNL     1      45.565  58.510   0.710  1.00  0.00     0.120 C 
ATOM     28  C   UNL     1      43.680  59.755  -0.485  1.00  0.00     0.014 C 
ATOM     29  C   UNL     1      43.745  59.759   1.997  1.00  0.00     0.014 C 
ENDROOT
BRANCH   1  30
ATOM     30  C   UNL     1      38.271  58.933   7.023  1.00  0.00     0.048 C 
ATOM     31  O   UNL     1      37.254  59.629   6.764  1.00  0.00    -0.550 OA
ATOM     32  O   UNL     1      38.155  57.929   7.980  1.00  0.00    -0.550 OA
ENDBRANCH   1  30
BRANCH  27  33
ATOM     33  O   UNL     1      46.083  58.633  -0.596  1.00  0.00    -0.393 OA
ATOM     34  H   UNL     1      45.623  57.955  -1.159  1.00  0.00     0.210 HD
ENDBRANCH  27  33
TORSDOF 2
ENDMDL
MODEL 5
REMARK VINA RESULT:    -8.099      2.150      4.372
REMARK INTER + INTRA:          -9.120
REMARK INTER:                  -8.809
REMARK INTRA:                  -0.311
REMARK UNBOUND:                -0.311
REMARK SMILES C[C@@H]1[C@@H](C)CC[C@@]2(C(=O)[O-])CC[C@]3(C)C(=CC[C@H]4[C@]5(C)CC[C@@H](O)C(C)(C)[C@@H]5CC[C@@]43C)[C@@H]12
REMARK SMILES IDX 7 1 6 2 11 3 33 4 5 5 12 6 15 7 2 8 3 9 13 10 16 11 1 12
REMARK SMILES IDX 4 13 14 14 31 15 17 16 18 17 30 18 32 19 19 20 29 21 28 22
REMARK SMILES IDX 21 23 20 24 25 25 22 26 23 27 26 28 27 29 8 30 9 31 10 32
REMARK SMILES IDX 24 33
REMARK H PARENT 24 34
REMARK Flexibility Score: inf
ROOT
ATOM      1  C   UNL     1      40.922  60.228   6.485  1.00  0.00     0.017 C 
ATOM      2  C   UNL     1      41.873  59.754   7.633  1.00  0.00     0.014 C 
ATOM      3  C   UNL     1      41.874  60.584   5.310  1.00  0.00     0.014 C 
ATOM      4  C   UNL     1      39.806  59.167   6.010  1.00  0.00     0.030 C 
ATOM      5  C   UNL     1      41.213  58.884   8.681  1.00  0.00     0.004 C 
ATOM      6  C   UNL     1      41.117  60.913   4.032  1.00  0.00     0.013 C 
ATOM      7  C   UNL     1      39.965  58.676   4.537  1.00  0.00    -0.063 C 
ATOM      8  C   UNL     1      39.455  58.036   7.076  1.00  0.00    -0.003 C 
ATOM      9  C   UNL     1      40.598  57.646   8.035  1.00  0.00    -0.011 C 
ATOM     10  C   UNL     1      40.405  59.665   3.419  1.00  0.00    -0.006 C 
ATOM     11  C   UNL     1      39.353  57.542   4.083  1.00  0.00    -0.027 C 
ATOM     12  C   UNL     1      38.166  58.369   7.860  1.00  0.00     0.008 C 
ATOM     13  C   UNL     1      41.643  56.756   7.330  1.00  0.00     0.008 C 
ATOM     14  C   UNL     1      39.044  60.239   2.876  1.00  0.00     0.017 C 
ATOM     15  C   UNL     1      41.286  58.908   2.241  1.00  0.00    -0.020 C 
ATOM     16  C   UNL     1      39.673  56.978   2.723  1.00  0.00     0.032 C 
ATOM     17  C   UNL     1      41.135  57.343   2.393  1.00  0.00     0.006 C 
ATOM     18  C   UNL     1      42.825  59.153   2.319  1.00  0.00     0.008 C 
ATOM     19  C   UNL     1      40.823  59.441   0.846  1.00  0.00     0.012 C 
ATOM     20  C   UNL     1      41.877  56.405   1.355  1.00  0.00    -0.025 C 
ATOM     21  C   UNL     1      43.672  58.335   1.317  1.00  0.00     0.005 C 
ATOM     22  C   UNL     1      43.422  56.789   1.269  1.00  0.00     0.003 C 
ATOM     23  C   UNL     1      41.723  54.917   1.822  1.00  0.00     0.010 C 
ATOM     24  C   UNL     1      41.226  56.495  -0.063  1.00  0.00     0.012 C 
ATOM     25  C   UNL     1      44.425  55.906   2.142  1.00  0.00    -0.006 C 
ATOM     26  C   UNL     1      42.822  54.013   1.276  1.00  0.00     0.033 C 
ATOM     27  C   UNL     1      44.210  54.363   1.843  1.00  0.00     0.120 C 
ATOM     28  C   UNL     1      45.907  56.274   1.809  1.00  0.00     0.014 C 
ATOM     29  C   UNL     1      44.267  56.151   3.669  1.00  0.00     0.014 C 
ENDROOT
BRANCH   1  30
ATOM     30  C   UNL     1      40.239  61.507   6.984  1.00  0.00     0.048 C 
ATOM     31  O   UNL     1      38.997  61.666   6.852  1.00  0.00    -0.550 OA
ATOM     32  O   UNL     1      40.956  62.474   7.683  1.00  0.00    -0.550 OA
ENDBRANCH   1  30
BRANCH  27  33
ATOM     33  O   UNL     1      45.175  53.875   0.938  1.00  0.00    -0.393 OA
ATOM     34  H   UNL     1      45.856  53.387   1.472  1.00  0.00     0.210 HD
ENDBRANCH  27  33
TORSDOF 2
ENDMDL
MODEL 6
REMARK VINA RESULT:    -8.060      3.794      7.205
REMARK INTER + INTRA:          -9.077
REMARK INTER:                  -8.771
REMARK INTRA:                  -0.307
REMARK UNBOUND:                -0.311
REMARK SMILES C[C@@H]1[C@@H](C)CC[C@@]2(C(=O)[O-])CC[C@]3(C)C(=CC[C@H]4[C@]5(C)CC[C@@H](O)C(C)(C)[C@@H]5CC[C@@]43C)[C@@H]12
REMARK SMILES IDX 7 1 6 2 11 3 33 4 5 5 12 6 15 7 2 8 3 9 13 10 16 11 1 12
REMARK SMILES IDX 4 13 14 14 31 15 17 16 18 17 30 18 32 19 19 20 29 21 28 22
REMARK SMILES IDX 21 23 20 24 25 25 22 26 23 27 26 28 27 29 8 30 9 31 10 32
REMARK SMILES IDX 24 33
REMARK H PARENT 24 34
REMARK Flexibility Score: inf
ROOT
ATOM      1  C   UNL     1      37.235  55.591   0.688  1.00  0.00     0.017 C 
ATOM      2  C   UNL     1      37.790  54.137   0.535  1.00  0.00     0.014 C 
ATOM      3  C   UNL     1      37.042  55.779   2.218  1.00  0.00     0.014 C 
ATOM      4  C   UNL     1      38.160  56.765   0.085  1.00  0.00     0.030 C 
ATOM      5  C   UNL     1      38.533  53.876  -0.756  1.00  0.00     0.004 C 
ATOM      6  C   UNL     1      36.661  57.204   2.583  1.00  0.00     0.013 C 
ATOM      7  C   UNL     1      38.715  57.764   1.149  1.00  0.00    -0.063 C 
ATOM      8  C   UNL     1      39.202  56.298  -1.027  1.00  0.00    -0.003 C 
ATOM      9  C   UNL     1      39.703  54.845  -0.902  1.00  0.00    -0.011 C 
ATOM     10  C   UNL     1      37.827  58.217   2.344  1.00  0.00    -0.006 C 
ATOM     11  C   UNL     1      39.776  58.584   0.887  1.00  0.00    -0.027 C 
ATOM     12  C   UNL     1      38.682  56.582  -2.453  1.00  0.00     0.008 C 
ATOM     13  C   UNL     1      40.742  54.706   0.230  1.00  0.00     0.008 C 
ATOM     14  C   UNL     1      37.102  59.503   1.800  1.00  0.00     0.017 C 
ATOM     15  C   UNL     1      38.729  58.525   3.697  1.00  0.00    -0.020 C 
ATOM     16  C   UNL     1      40.420  59.394   1.981  1.00  0.00     0.032 C 
ATOM     17  C   UNL     1      40.256  58.616   3.303  1.00  0.00     0.006 C 
ATOM     18  C   UNL     1      38.680  57.404   4.782  1.00  0.00     0.008 C 
ATOM     19  C   UNL     1      38.187  59.824   4.377  1.00  0.00     0.012 C 
ATOM     20  C   UNL     1      41.314  58.928   4.439  1.00  0.00    -0.025 C 
ATOM     21  C   UNL     1      39.632  57.612   5.983  1.00  0.00     0.005 C 
ATOM     22  C   UNL     1      41.134  57.916   5.657  1.00  0.00     0.003 C 
ATOM     23  C   UNL     1      42.755  58.788   3.838  1.00  0.00     0.010 C 
ATOM     24  C   UNL     1      41.188  60.401   4.948  1.00  0.00     0.012 C 
ATOM     25  C   UNL     1      42.109  56.652   5.682  1.00  0.00    -0.006 C 
ATOM     26  C   UNL     1      43.809  58.495   4.898  1.00  0.00     0.033 C 
ATOM     27  C   UNL     1      43.620  57.115   5.552  1.00  0.00     0.120 C 
ATOM     28  C   UNL     1      41.945  55.863   7.021  1.00  0.00     0.014 C 
ATOM     29  C   UNL     1      41.796  55.630   4.553  1.00  0.00     0.014 C 
ENDROOT
BRANCH   1  30
ATOM     30  C   UNL     1      35.865  55.610   0.002  1.00  0.00     0.048 C 
ATOM     31  O   UNL     1      34.990  54.751   0.289  1.00  0.00    -0.550 OA
ATOM     32  O   UNL     1      35.519  56.633  -0.877  1.00  0.00    -0.550 OA
ENDBRANCH   1  30
BRANCH  27  33
ATOM     33  O   UNL     1      44.257  57.149   6.811  1.00  0.00    -0.393 OA
ATOM     34  H   UNL     1      44.972  57.838   6.758  1.00  0.00     0.210 HD
ENDBRANCH  27  33
TORSDOF 2
ENDMDL
MODEL 7
REMARK VINA RESULT:    -8.033      3.056      4.422
REMARK INTER + INTRA:          -9.048
REMARK INTER:                  -8.742
REMARK INTRA:                  -0.306
REMARK UNBOUND:                -0.311
REMARK SMILES C[C@@H]1[C@@H](C)CC[C@@]2(C(=O)[O-])CC[C@]3(C)C(=CC[C@H]4[C@]5(C)CC[C@@H](O)C(C)(C)[C@@H]5CC[C@@]43C)[C@@H]12
REMARK SMILES IDX 7 1 6 2 11 3 33 4 5 5 12 6 15 7 2 8 3 9 13 10 16 11 1 12
REMARK SMILES IDX 4 13 14 14 31 15 17 16 18 17 30 18 32 19 19 20 29 21 28 22
REMARK SMILES IDX 21 23 20 24 25 25 22 26 23 27 26 28 27 29 8 30 9 31 10 32
REMARK SMILES IDX 24 33
REMARK H PARENT 24 34
REMARK Flexibility Score: inf
ROOT
ATOM      1  C   UNL     1      40.677  60.318   6.404  1.00  0.00     0.017 C 
ATOM      2  C   UNL     1      40.223  61.771   6.049  1.00  0.00     0.014 C 
ATOM      3  C   UNL     1      39.363  59.489   6.423  1.00  0.00     0.014 C 
ATOM      4  C   UNL     1      41.753  59.652   5.405  1.00  0.00     0.030 C 
ATOM      5  C   UNL     1      41.310  62.651   5.473  1.00  0.00     0.004 C 
ATOM      6  C   UNL     1      39.620  58.000   6.589  1.00  0.00     0.013 C 
ATOM      7  C   UNL     1      41.231  58.401   4.631  1.00  0.00    -0.063 C 
ATOM      8  C   UNL     1      42.601  60.689   4.542  1.00  0.00    -0.003 C 
ATOM      9  C   UNL     1      41.894  62.019   4.213  1.00  0.00    -0.011 C 
ATOM     10  C   UNL     1      40.306  57.367   5.336  1.00  0.00    -0.006 C 
ATOM     11  C   UNL     1      41.853  57.934   3.508  1.00  0.00    -0.027 C 
ATOM     12  C   UNL     1      43.994  60.943   5.160  1.00  0.00     0.008 C 
ATOM     13  C   UNL     1      40.848  61.835   3.094  1.00  0.00     0.008 C 
ATOM     14  C   UNL     1      41.316  56.326   5.947  1.00  0.00     0.017 C 
ATOM     15  C   UNL     1      39.245  56.669   4.276  1.00  0.00    -0.020 C 
ATOM     16  C   UNL     1      41.228  56.853   2.666  1.00  0.00     0.032 C 
ATOM     17  C   UNL     1      39.696  56.982   2.795  1.00  0.00     0.006 C 
ATOM     18  C   UNL     1      37.787  57.221   4.356  1.00  0.00     0.008 C 
ATOM     19  C   UNL     1      39.157  55.140   4.586  1.00  0.00     0.012 C 
ATOM     20  C   UNL     1      38.837  56.394   1.601  1.00  0.00    -0.025 C 
ATOM     21  C   UNL     1      36.822  56.685   3.274  1.00  0.00     0.005 C 
ATOM     22  C   UNL     1      37.301  56.775   1.785  1.00  0.00     0.003 C 
ATOM     23  C   UNL     1      39.376  56.988   0.254  1.00  0.00     0.010 C 
ATOM     24  C   UNL     1      38.993  54.842   1.495  1.00  0.00     0.012 C 
ATOM     25  C   UNL     1      36.781  58.048   0.975  1.00  0.00    -0.006 C 
ATOM     26  C   UNL     1      38.331  56.974  -0.854  1.00  0.00     0.033 C 
ATOM     27  C   UNL     1      37.149  57.916  -0.563  1.00  0.00     0.120 C 
ATOM     28  C   UNL     1      35.229  58.180   1.103  1.00  0.00     0.014 C 
ATOM     29  C   UNL     1      37.360  59.384   1.518  1.00  0.00     0.014 C 
ENDROOT
BRANCH   1  30
ATOM     30  C   UNL     1      41.256  60.375   7.822  1.00  0.00     0.048 C 
ATOM     31  O   UNL     1      40.600  60.892   8.764  1.00  0.00    -0.550 OA
ATOM     32  O   UNL     1      42.474  59.770   8.122  1.00  0.00    -0.550 OA
ENDBRANCH   1  30
BRANCH  27  33
ATOM     33  O   UNL     1      36.047  57.463  -1.318  1.00  0.00    -0.393 OA
ATOM     34  H   UNL     1      36.185  56.492  -1.483  1.00  0.00     0.210 HD
ENDBRANCH  27  33
TORSDOF 2
ENDMDL
MODEL 8
REMARK VINA RESULT:    -7.889      4.002      6.031
REMARK INTER + INTRA:          -8.892
REMARK INTER:                  -8.580
REMARK INTRA:                  -0.312
REMARK UNBOUND:                -0.311
REMARK SMILES C[C@@H]1[C@@H](C)CC[C@@]2(C(=O)[O-])CC[C@]3(C)C(=CC[C@H]4[C@]5(C)CC[C@@H](O)C(C)(C)[C@@H]5CC[C@@]43C)[C@@H]12
REMARK SMILES IDX 7 1 6 2 11 3 33 4 5 5 12 6 15 7 2 8 3 9 13 10 16 11 1 12
REMARK SMILES IDX 4 13 14 14 31 15 17 16 18 17 30 18 32 19 19 20 29 21 28 22
REMARK SMILES IDX 21 23 20 24 25 25 22 26 23 27 26 28 27 29 8 30 9 31 10 32
REMARK SMILES IDX 24 33
REMARK H PARENT 24 34
REMARK Flexibility Score: inf
ROOT
ATOM      1  C   UNL     1      41.572  57.760   4.973  1.00  0.00     0.017 C 
ATOM      2  C   UNL     1      41.036  56.885   6.154  1.00  0.00     0.014 C 
ATOM      3  C   UNL     1      41.586  56.802   3.750  1.00  0.00     0.014 C 
ATOM      4  C   UNL     1      40.727  59.091   4.641  1.00  0.00     0.030 C 
ATOM      5  C   UNL     1      40.448  57.670   7.306  1.00  0.00     0.004 C 
ATOM      6  C   UNL     1      41.925  57.522   2.455  1.00  0.00     0.013 C 
ATOM      7  C   UNL     1      40.054  59.097   3.233  1.00  0.00    -0.063 C 
ATOM      8  C   UNL     1      39.820  59.628   5.838  1.00  0.00    -0.003 C 
ATOM      9  C   UNL     1      39.306  58.555   6.817  1.00  0.00    -0.011 C 
ATOM     10  C   UNL     1      40.797  58.504   2.001  1.00  0.00    -0.006 C 
ATOM     11  C   UNL     1      39.033  59.950   2.923  1.00  0.00    -0.027 C 
ATOM     12  C   UNL     1      40.504  60.787   6.597  1.00  0.00     0.008 C 
ATOM     13  C   UNL     1      38.141  57.749   6.204  1.00  0.00     0.008 C 
ATOM     14  C   UNL     1      41.583  59.734   1.416  1.00  0.00     0.017 C 
ATOM     15  C   UNL     1      39.745  57.848   0.906  1.00  0.00    -0.020 C 
ATOM     16  C   UNL     1      38.267  59.808   1.634  1.00  0.00     0.032 C 
ATOM     17  C   UNL     1      38.274  58.317   1.242  1.00  0.00     0.006 C 
ATOM     18  C   UNL     1      39.665  56.289   0.932  1.00  0.00     0.008 C 
ATOM     19  C   UNL     1      40.207  58.243  -0.534  1.00  0.00     0.012 C 
ATOM     20  C   UNL     1      37.092  57.828   0.308  1.00  0.00    -0.025 C 
ATOM     21  C   UNL     1      38.580  55.673   0.019  1.00  0.00     0.005 C 
ATOM     22  C   UNL     1      37.127  56.243   0.155  1.00  0.00     0.003 C 
ATOM     23  C   UNL     1      35.731  58.272   0.947  1.00  0.00     0.010 C 
ATOM     24  C   UNL     1      37.161  58.502  -1.101  1.00  0.00     0.012 C 
ATOM     25  C   UNL     1      36.153  55.413   1.110  1.00  0.00    -0.006 C 
ATOM     26  C   UNL     1      34.560  57.409   0.494  1.00  0.00     0.033 C 
ATOM     27  C   UNL     1      34.668  55.958   0.995  1.00  0.00     0.120 C 
ATOM     28  C   UNL     1      36.158  53.901   0.713  1.00  0.00     0.014 C 
ATOM     29  C   UNL     1      36.592  55.456   2.599  1.00  0.00     0.014 C 
ENDROOT
BRANCH   1  30
ATOM     30  C   UNL     1      43.014  58.140   5.331  1.00  0.00     0.048 C 
ATOM     31  O   UNL     1      43.830  57.267   5.727  1.00  0.00    -0.550 OA
ATOM     32  O   UNL     1      43.481  59.437   5.133  1.00  0.00    -0.550 OA
ENDBRANCH   1  30
BRANCH  27  33
ATOM     33  O   UNL     1      33.889  55.152   0.138  1.00  0.00    -0.393 OA
ATOM     34  H   UNL     1      34.202  55.324  -0.790  1.00  0.00     0.210 HD
ENDBRANCH  27  33
TORSDOF 2
ENDMDL
MODEL 9
REMARK VINA RESULT:    -7.873      2.902      6.890
REMARK INTER + INTRA:          -8.874
REMARK INTER:                  -8.568
REMARK INTRA:                  -0.306
REMARK UNBOUND:                -0.311
REMARK SMILES C[C@@H]1[C@@H](C)CC[C@@]2(C(=O)[O-])CC[C@]3(C)C(=CC[C@H]4[C@]5(C)CC[C@@H](O)C(C)(C)[C@@H]5CC[C@@]43C)[C@@H]12
REMARK SMILES IDX 7 1 6 2 11 3 33 4 5 5 12 6 15 7 2 8 3 9 13 10 16 11 1 12
REMARK SMILES IDX 4 13 14 14 31 15 17 16 18 17 30 18 32 19 19 20 29 21 28 22
REMARK SMILES IDX 21 23 20 24 25 25 22 26 23 27 26 28 27 29 8 30 9 31 10 32
REMARK SMILES IDX 24 33
REMARK H PARENT 24 34
REMARK Flexibility Score: inf
ROOT
ATOM      1  C   UNL     1      39.146  56.828   0.424  1.00  0.00     0.017 C 
ATOM      2  C   UNL     1      37.836  57.673   0.299  1.00  0.00     0.014 C 
ATOM      3  C   UNL     1      40.259  57.871   0.719  1.00  0.00     0.014 C 
ATOM      4  C   UNL     1      39.136  55.674   1.549  1.00  0.00     0.030 C 
ATOM      5  C   UNL     1      36.558  56.895   0.521  1.00  0.00     0.004 C 
ATOM      6  C   UNL     1      41.594  57.217   1.040  1.00  0.00     0.013 C 
ATOM      7  C   UNL     1      40.162  55.889   2.705  1.00  0.00    -0.063 C 
ATOM      8  C   UNL     1      37.688  55.184   1.999  1.00  0.00    -0.003 C 
ATOM      9  C   UNL     1      36.567  56.238   1.898  1.00  0.00    -0.011 C 
ATOM     10  C   UNL     1      41.578  56.461   2.408  1.00  0.00    -0.006 C 
ATOM     11  C   UNL     1      40.055  55.231   3.898  1.00  0.00    -0.027 C 
ATOM     12  C   UNL     1      37.280  53.875   1.286  1.00  0.00     0.008 C 
ATOM     13  C   UNL     1      36.655  57.261   3.050  1.00  0.00     0.008 C 
ATOM     14  C   UNL     1      42.447  55.178   2.137  1.00  0.00     0.017 C 
ATOM     15  C   UNL     1      42.156  57.359   3.671  1.00  0.00    -0.020 C 
ATOM     16  C   UNL     1      40.933  55.595   5.067  1.00  0.00     0.032 C 
ATOM     17  C   UNL     1      41.272  57.095   4.954  1.00  0.00     0.006 C 
ATOM     18  C   UNL     1      42.076  58.904   3.463  1.00  0.00     0.008 C 
ATOM     19  C   UNL     1      43.667  57.019   3.880  1.00  0.00     0.012 C 
ATOM     20  C   UNL     1      41.653  57.835   6.302  1.00  0.00    -0.025 C 
ATOM     21  C   UNL     1      42.474  59.753   4.692  1.00  0.00     0.005 C 
ATOM     22  C   UNL     1      41.782  59.404   6.054  1.00  0.00     0.003 C 
ATOM     23  C   UNL     1      40.534  57.553   7.363  1.00  0.00     0.010 C 
ATOM     24  C   UNL     1      42.984  57.278   6.903  1.00  0.00     0.012 C 
ATOM     25  C   UNL     1      40.507  60.290   6.421  1.00  0.00    -0.006 C 
ATOM     26  C   UNL     1      40.472  58.620   8.449  1.00  0.00     0.033 C 
ATOM     27  C   UNL     1      40.031  59.991   7.905  1.00  0.00     0.120 C 
ATOM     28  C   UNL     1      40.849  61.811   6.308  1.00  0.00     0.014 C 
ATOM     29  C   UNL     1      39.314  60.057   5.453  1.00  0.00     0.014 C 
ENDROOT
BRANCH   1  30
ATOM     30  C   UNL     1      39.395  56.203  -0.954  1.00  0.00     0.048 C 
ATOM     31  O   UNL     1      39.815  55.021  -1.057  1.00  0.00    -0.550 OA
ATOM     32  O   UNL     1      39.069  56.890  -2.120  1.00  0.00    -0.550 OA
ENDBRANCH   1  30
BRANCH  27  33
ATOM     33  O   UNL     1      40.497  60.974   8.802  1.00  0.00    -0.393 OA
ATOM     34  H   UNL     1      40.985  60.501   9.527  1.00  0.00     0.210 HD
ENDBRANCH  27  33
TORSDOF 2
ENDMDL
