MODEL 1
REMARK VINA RESULT:    -3.576      0.000      0.000
REMARK INTER + INTRA:         -11.574
REMARK INTER:                  -7.757
REMARK INTRA:                  -3.817
REMARK UNBOUND:                -3.817
REMARK SMILES CCCCCCCCCCCCCCCCCCCCCC(=O)[O-]
REMARK SMILES IDX 12 1 11 2 10 3 9 4 8 5 7 6 6 7 5 8 4 9 3 10 2 11 1 12 13 13
REMARK SMILES IDX 14 14 15 15 16 16 17 17 18 18 19 19 20 20 21 21 22 22 23 23
REMARK SMILES IDX 24 24
REMARK H PARENT
REMARK Flexibility Score: inf
ROOT
ATOM      1  C   UNL     1      -4.546 -67.689  -5.687  1.00  0.00     0.000 C 
ENDROOT
BRANCH   1   2
ATOM      2  C   UNL     1      -4.754 -66.924  -7.006  1.00  0.00     0.000 C 
BRANCH   2   3
ATOM      3  C   UNL     1      -4.030 -65.562  -7.017  1.00  0.00     0.000 C 
BRANCH   3   4
ATOM      4  C   UNL     1      -4.972 -64.354  -7.194  1.00  0.00    -0.000 C 
BRANCH   4   5
ATOM      5  C   UNL     1      -6.087 -64.242  -6.139  1.00  0.00    -0.000 C 
BRANCH   5   6
ATOM      6  C   UNL     1      -6.725 -62.845  -6.093  1.00  0.00    -0.000 C 
BRANCH   6   7
ATOM      7  C   UNL     1      -6.224 -61.976  -7.253  1.00  0.00    -0.000 C 
BRANCH   7   8
ATOM      8  C   UNL     1      -7.346 -61.699  -8.261  1.00  0.00    -0.000 C 
BRANCH   8   9
ATOM      9  C   UNL     1      -8.637 -62.424  -7.862  1.00  0.00    -0.000 C 
BRANCH   9  10
ATOM     10  C   UNL     1      -9.025 -63.477  -8.912  1.00  0.00    -0.000 C 
BRANCH  10  11
ATOM     11  C   UNL     1      -8.809 -64.913  -8.414  1.00  0.00    -0.003 C 
ATOM     12  C   UNL     1      -7.783 -65.681  -9.247  1.00  0.00     0.004 C 
ENDBRANCH  10  11
ENDBRANCH   9  10
ENDBRANCH   8   9
ENDBRANCH   7   8
ENDBRANCH   6   7
ENDBRANCH   5   6
ENDBRANCH   4   5
ENDBRANCH   3   4
ENDBRANCH   2   3
ENDBRANCH   1   2
BRANCH   1  13
ATOM     13  C   UNL     1      -3.856 -66.833  -4.611  1.00  0.00     0.000 C 
BRANCH  13  14
ATOM     14  C   UNL     1      -4.648 -66.795  -3.294  1.00  0.00     0.000 C 
BRANCH  14  15
ATOM     15  C   UNL     1      -4.889 -65.346  -2.841  1.00  0.00     0.000 C 
BRANCH  15  16
ATOM     16  C   UNL     1      -3.722 -64.413  -3.204  1.00  0.00     0.000 C 
BRANCH  16  17
ATOM     17  C   UNL     1      -4.168 -62.958  -3.428  1.00  0.00     0.000 C 
BRANCH  17  18
ATOM     18  C   UNL     1      -3.271 -62.229  -4.455  1.00  0.00     0.000 C 
BRANCH  18  19
ATOM     19  C   UNL     1      -2.205 -63.141  -5.091  1.00  0.00     0.000 C 
BRANCH  19  20
ATOM     20  C   UNL     1      -1.631 -62.622  -6.426  1.00  0.00     0.006 C 
BRANCH  20  21
ATOM     21  C   UNL     1      -0.102 -62.763  -6.546  1.00  0.00     0.053 C 
BRANCH  21  22
ATOM     22  C   UNL     1       0.338 -64.187  -6.695  1.00  0.00     0.041 C 
ATOM     23  O   UNL     1      -0.046 -64.867  -7.682  1.00  0.00    -0.550 OA
ATOM     24  O   UNL     1       1.145 -64.774  -5.729  1.00  0.00    -0.550 OA
ENDBRANCH  21  22
ENDBRANCH  20  21
ENDBRANCH  19  20
ENDBRANCH  18  19
ENDBRANCH  17  18
ENDBRANCH  16  17
ENDBRANCH  15  16
ENDBRANCH  14  15
ENDBRANCH  13  14
ENDBRANCH   1  13
TORSDOF 20
ENDMDL
MODEL 2
REMARK VINA RESULT:    -3.276     13.751     16.439
REMARK INTER + INTRA:         -10.924
REMARK INTER:                  -6.850
REMARK INTRA:                  -4.074
REMARK UNBOUND:                -3.817
REMARK SMILES CCCCCCCCCCCCCCCCCCCCCC(=O)[O-]
REMARK SMILES IDX 12 1 11 2 10 3 9 4 8 5 7 6 6 7 5 8 4 9 3 10 2 11 1 12 13 13
REMARK SMILES IDX 14 14 15 15 16 16 17 17 18 18 19 19 20 20 21 21 22 22 23 23
REMARK SMILES IDX 24 24
REMARK H PARENT
REMARK Flexibility Score: inf
ROOT
ATOM      1  C   UNL     1     -13.753 -76.958  -7.957  1.00  0.00     0.000 C 
ENDROOT
BRANCH   1   2
ATOM      2  C   UNL     1     -14.672 -77.139  -6.736  1.00  0.00     0.000 C 
BRANCH   2   3
ATOM      3  C   UNL     1     -16.128 -76.718  -7.027  1.00  0.00     0.000 C 
BRANCH   3   4
ATOM      4  C   UNL     1     -16.649 -75.596  -6.107  1.00  0.00    -0.000 C 
BRANCH   4   5
ATOM      5  C   UNL     1     -17.713 -74.682  -6.739  1.00  0.00    -0.000 C 
BRANCH   5   6
ATOM      6  C   UNL     1     -17.805 -74.840  -8.265  1.00  0.00    -0.000 C 
BRANCH   6   7
ATOM      7  C   UNL     1     -17.618 -73.490  -8.967  1.00  0.00    -0.000 C 
BRANCH   7   8
ATOM      8  C   UNL     1     -16.225 -72.912  -8.692  1.00  0.00    -0.000 C 
BRANCH   8   9
ATOM      9  C   UNL     1     -15.133 -73.778  -9.332  1.00  0.00    -0.000 C 
BRANCH   9  10
ATOM     10  C   UNL     1     -13.800 -73.018  -9.407  1.00  0.00    -0.000 C 
BRANCH  10  11
ATOM     11  C   UNL     1     -13.259 -72.918 -10.841  1.00  0.00    -0.003 C 
ATOM     12  C   UNL     1     -12.788 -74.265 -11.392  1.00  0.00     0.004 C 
ENDBRANCH  10  11
ENDBRANCH   9  10
ENDBRANCH   8   9
ENDBRANCH   7   8
ENDBRANCH   6   7
ENDBRANCH   5   6
ENDBRANCH   4   5
ENDBRANCH   3   4
ENDBRANCH   2   3
ENDBRANCH   1   2
BRANCH   1  13
ATOM     13  C   UNL     1     -13.996 -78.022  -9.041  1.00  0.00     0.000 C 
BRANCH  13  14
ATOM     14  C   UNL     1     -14.261 -77.404 -10.423  1.00  0.00     0.000 C 
BRANCH  14  15
ATOM     15  C   UNL     1     -15.750 -77.067 -10.597  1.00  0.00     0.000 C 
BRANCH  15  16
ATOM     16  C   UNL     1     -16.096 -76.652 -12.036  1.00  0.00     0.000 C 
BRANCH  16  17
ATOM     17  C   UNL     1     -16.965 -75.384 -12.100  1.00  0.00     0.000 C 
BRANCH  17  18
ATOM     18  C   UNL     1     -16.219 -74.203 -12.765  1.00  0.00     0.000 C 
BRANCH  18  19
ATOM     19  C   UNL     1     -17.081 -72.933 -12.896  1.00  0.00     0.000 C 
BRANCH  19  20
ATOM     20  C   UNL     1     -16.525 -71.702 -12.149  1.00  0.00     0.006 C 
BRANCH  20  21
ATOM     21  C   UNL     1     -17.613 -70.794 -11.544  1.00  0.00     0.053 C 
BRANCH  21  22
ATOM     22  C   UNL     1     -17.049 -69.728 -10.657  1.00  0.00     0.041 C 
ATOM     23  O   UNL     1     -16.025 -69.086 -11.011  1.00  0.00    -0.550 OA
ATOM     24  O   UNL     1     -17.633 -69.462  -9.425  1.00  0.00    -0.550 OA
ENDBRANCH  21  22
ENDBRANCH  20  21
ENDBRANCH  19  20
ENDBRANCH  18  19
ENDBRANCH  17  18
ENDBRANCH  16  17
ENDBRANCH  15  16
ENDBRANCH  14  15
ENDBRANCH  13  14
ENDBRANCH   1  13
TORSDOF 20
ENDMDL
MODEL 3
REMARK VINA RESULT:    -3.254      1.232      2.822
REMARK INTER + INTRA:         -10.876
REMARK INTER:                  -7.657
REMARK INTRA:                  -3.219
REMARK UNBOUND:                -3.817
REMARK SMILES CCCCCCCCCCCCCCCCCCCCCC(=O)[O-]
REMARK SMILES IDX 12 1 11 2 10 3 9 4 8 5 7 6 6 7 5 8 4 9 3 10 2 11 1 12 13 13
REMARK SMILES IDX 14 14 15 15 16 16 17 17 18 18 19 19 20 20 21 21 22 22 23 23
REMARK SMILES IDX 24 24
REMARK H PARENT
REMARK Flexibility Score: inf
ROOT
ATOM      1  C   UNL     1      -4.195 -65.283  -3.925  1.00  0.00     0.000 C 
ENDROOT
BRANCH   1   2
ATOM      2  C   UNL     1      -4.150 -66.799  -4.186  1.00  0.00     0.000 C 
BRANCH   2   3
ATOM      3  C   UNL     1      -4.053 -67.135  -5.689  1.00  0.00     0.000 C 
BRANCH   3   4
ATOM      4  C   UNL     1      -4.441 -65.965  -6.616  1.00  0.00    -0.000 C 
BRANCH   4   5
ATOM      5  C   UNL     1      -5.364 -66.345  -7.787  1.00  0.00    -0.000 C 
BRANCH   5   6
ATOM      6  C   UNL     1      -6.215 -65.165  -8.282  1.00  0.00    -0.000 C 
BRANCH   6   7
ATOM      7  C   UNL     1      -7.400 -65.659  -9.122  1.00  0.00    -0.000 C 
BRANCH   7   8
ATOM      8  C   UNL     1      -8.733 -65.200  -8.518  1.00  0.00    -0.000 C 
BRANCH   8   9
ATOM      9  C   UNL     1      -8.505 -64.259  -7.329  1.00  0.00    -0.000 C 
BRANCH   9  10
ATOM     10  C   UNL     1      -9.237 -62.924  -7.535  1.00  0.00    -0.000 C 
BRANCH  10  11
ATOM     11  C   UNL     1      -9.141 -62.417  -8.981  1.00  0.00    -0.003 C 
ATOM     12  C   UNL     1      -8.153 -61.260  -9.139  1.00  0.00     0.004 C 
ENDBRANCH  10  11
ENDBRANCH   9  10
ENDBRANCH   8   9
ENDBRANCH   7   8
ENDBRANCH   6   7
ENDBRANCH   5   6
ENDBRANCH   4   5
ENDBRANCH   3   4
ENDBRANCH   2   3
ENDBRANCH   1   2
BRANCH   1  13
ATOM     13  C   UNL     1      -5.111 -64.914  -2.746  1.00  0.00     0.000 C 
BRANCH  13  14
ATOM     14  C   UNL     1      -6.101 -63.792  -3.099  1.00  0.00     0.000 C 
BRANCH  14  15
ATOM     15  C   UNL     1      -6.217 -63.622  -4.622  1.00  0.00     0.000 C 
BRANCH  15  16
ATOM     16  C   UNL     1      -5.868 -62.198  -5.084  1.00  0.00     0.000 C 
BRANCH  16  17
ATOM     17  C   UNL     1      -5.605 -62.108  -6.597  1.00  0.00     0.000 C 
BRANCH  17  18
ATOM     18  C   UNL     1      -4.173 -61.614  -6.908  1.00  0.00     0.000 C 
BRANCH  18  19
ATOM     19  C   UNL     1      -3.290 -62.684  -7.576  1.00  0.00     0.000 C 
BRANCH  19  20
ATOM     20  C   UNL     1      -1.804 -62.640  -7.160  1.00  0.00     0.006 C 
BRANCH  20  21
ATOM     21  C   UNL     1      -1.371 -63.811  -6.260  1.00  0.00     0.053 C 
BRANCH  21  22
ATOM     22  C   UNL     1      -0.222 -64.585  -6.829  1.00  0.00     0.041 C 
ATOM     23  O   UNL     1       0.773 -64.860  -6.109  1.00  0.00    -0.550 OA
ATOM     24  O   UNL     1      -0.235 -64.976  -8.162  1.00  0.00    -0.550 OA
ENDBRANCH  21  22
ENDBRANCH  20  21
ENDBRANCH  19  20
ENDBRANCH  18  19
ENDBRANCH  17  18
ENDBRANCH  16  17
ENDBRANCH  15  16
ENDBRANCH  14  15
ENDBRANCH  13  14
ENDBRANCH   1  13
TORSDOF 20
ENDMDL
MODEL 4
REMARK VINA RESULT:    -3.243     11.528     15.035
REMARK INTER + INTRA:         -10.852
REMARK INTER:                  -7.203
REMARK INTRA:                  -3.649
REMARK UNBOUND:                -3.817
REMARK SMILES CCCCCCCCCCCCCCCCCCCCCC(=O)[O-]
REMARK SMILES IDX 12 1 11 2 10 3 9 4 8 5 7 6 6 7 5 8 4 9 3 10 2 11 1 12 13 13
REMARK SMILES IDX 14 14 15 15 16 16 17 17 18 18 19 19 20 20 21 21 22 22 23 23
REMARK SMILES IDX 24 24
REMARK H PARENT
REMARK Flexibility Score: inf
ROOT
ATOM      1  C   UNL     1     -15.677 -73.435  -9.532  1.00  0.00     0.000 C 
ENDROOT
BRANCH   1   2
ATOM      2  C   UNL     1     -16.319 -74.786  -9.894  1.00  0.00     0.000 C 
BRANCH   2   3
ATOM      3  C   UNL     1     -15.428 -75.629 -10.831  1.00  0.00     0.000 C 
BRANCH   3   4
ATOM      4  C   UNL     1     -15.003 -76.986 -10.234  1.00  0.00    -0.000 C 
BRANCH   4   5
ATOM      5  C   UNL     1     -13.612 -76.997  -9.575  1.00  0.00    -0.000 C 
BRANCH   5   6
ATOM      6  C   UNL     1     -13.645 -76.552  -8.105  1.00  0.00    -0.000 C 
BRANCH   6   7
ATOM      7  C   UNL     1     -14.406 -77.567  -7.243  1.00  0.00    -0.000 C 
BRANCH   7   8
ATOM      8  C   UNL     1     -15.488 -76.877  -6.403  1.00  0.00    -0.000 C 
BRANCH   8   9
ATOM      9  C   UNL     1     -16.881 -77.107  -7.001  1.00  0.00    -0.000 C 
BRANCH   9  10
ATOM     10  C   UNL     1     -17.805 -75.912  -6.722  1.00  0.00    -0.000 C 
BRANCH  10  11
ATOM     11  C   UNL     1     -17.047 -74.699  -6.164  1.00  0.00    -0.003 C 
ATOM     12  C   UNL     1     -17.845 -73.399  -6.277  1.00  0.00     0.004 C 
ENDBRANCH  10  11
ENDBRANCH   9  10
ENDBRANCH   8   9
ENDBRANCH   7   8
ENDBRANCH   6   7
ENDBRANCH   5   6
ENDBRANCH   4   5
ENDBRANCH   3   4
ENDBRANCH   2   3
ENDBRANCH   1   2
BRANCH   1  13
ATOM     13  C   UNL     1     -16.652 -72.256  -9.691  1.00  0.00     0.000 C 
BRANCH  13  14
ATOM     14  C   UNL     1     -16.282 -71.343 -10.870  1.00  0.00     0.000 C 
BRANCH  14  15
ATOM     15  C   UNL     1     -15.146 -71.956 -11.704  1.00  0.00     0.000 C 
BRANCH  15  16
ATOM     16  C   UNL     1     -13.946 -71.007 -11.854  1.00  0.00     0.000 C 
BRANCH  16  17
ATOM     17  C   UNL     1     -12.644 -71.742 -12.212  1.00  0.00     0.000 C 
BRANCH  17  18
ATOM     18  C   UNL     1     -12.796 -73.278 -12.105  1.00  0.00     0.000 C 
BRANCH  18  19
ATOM     19  C   UNL     1     -11.706 -73.940 -11.242  1.00  0.00     0.000 C 
BRANCH  19  20
ATOM     20  C   UNL     1     -11.863 -73.711  -9.724  1.00  0.00     0.006 C 
BRANCH  20  21
ATOM     21  C   UNL     1     -10.958 -72.599  -9.162  1.00  0.00     0.053 C 
BRANCH  21  22
ATOM     22  C   UNL     1      -9.509 -72.822  -9.467  1.00  0.00     0.041 C 
ATOM     23  O   UNL     1      -8.944 -73.887  -9.107  1.00  0.00    -0.550 OA
ATOM     24  O   UNL     1      -8.774 -71.841 -10.120  1.00  0.00    -0.550 OA
ENDBRANCH  21  22
ENDBRANCH  20  21
ENDBRANCH  19  20
ENDBRANCH  18  19
ENDBRANCH  17  18
ENDBRANCH  16  17
ENDBRANCH  15  16
ENDBRANCH  14  15
ENDBRANCH  13  14
ENDBRANCH   1  13
TORSDOF 20
ENDMDL
MODEL 5
REMARK VINA RESULT:    -3.241      6.022      8.329
REMARK INTER + INTRA:         -10.847
REMARK INTER:                  -7.219
REMARK INTRA:                  -3.628
REMARK UNBOUND:                -3.817
REMARK SMILES CCCCCCCCCCCCCCCCCCCCCC(=O)[O-]
REMARK SMILES IDX 12 1 11 2 10 3 9 4 8 5 7 6 6 7 5 8 4 9 3 10 2 11 1 12 13 13
REMARK SMILES IDX 14 14 15 15 16 16 17 17 18 18 19 19 20 20 21 21 22 22 23 23
REMARK SMILES IDX 24 24
REMARK H PARENT
REMARK Flexibility Score: inf
ROOT
ATOM      1  C   UNL     1      -9.362 -63.926   0.079  1.00  0.00     0.000 C 
ENDROOT
BRANCH   1   2
ATOM      2  C   UNL     1      -8.827 -65.085  -0.781  1.00  0.00     0.000 C 
BRANCH   2   3
ATOM      3  C   UNL     1      -7.721 -64.631  -1.757  1.00  0.00     0.000 C 
BRANCH   3   4
ATOM      4  C   UNL     1      -7.453 -63.112  -1.735  1.00  0.00    -0.000 C 
BRANCH   4   5
ATOM      5  C   UNL     1      -7.141 -62.488  -3.106  1.00  0.00    -0.000 C 
BRANCH   5   6
ATOM      6  C   UNL     1      -5.823 -61.699  -3.116  1.00  0.00    -0.000 C 
BRANCH   6   7
ATOM      7  C   UNL     1      -4.876 -62.202  -2.019  1.00  0.00    -0.000 C 
BRANCH   7   8
ATOM      8  C   UNL     1      -3.666 -62.924  -2.623  1.00  0.00    -0.000 C 
BRANCH   8   9
ATOM      9  C   UNL     1      -3.601 -64.381  -2.149  1.00  0.00    -0.000 C 
BRANCH   9  10
ATOM     10  C   UNL     1      -4.645 -65.244  -2.873  1.00  0.00    -0.000 C 
BRANCH  10  11
ATOM     11  C   UNL     1      -4.238 -65.572  -4.317  1.00  0.00    -0.003 C 
ATOM     12  C   UNL     1      -3.928 -67.055  -4.523  1.00  0.00     0.004 C 
ENDBRANCH  10  11
ENDBRANCH   9  10
ENDBRANCH   8   9
ENDBRANCH   7   8
ENDBRANCH   6   7
ENDBRANCH   5   6
ENDBRANCH   4   5
ENDBRANCH   3   4
ENDBRANCH   2   3
ENDBRANCH   1   2
BRANCH   1  13
ATOM     13  C   UNL     1      -9.055 -64.110   1.575  1.00  0.00     0.000 C 
BRANCH  13  14
ATOM     14  C   UNL     1      -8.169 -65.337   1.847  1.00  0.00     0.000 C 
BRANCH  14  15
ATOM     15  C   UNL     1      -6.906 -64.940   2.626  1.00  0.00     0.000 C 
BRANCH  15  16
ATOM     16  C   UNL     1      -5.646 -64.941   1.746  1.00  0.00     0.000 C 
BRANCH  16  17
ATOM     17  C   UNL     1      -5.304 -63.549   1.190  1.00  0.00     0.000 C 
BRANCH  17  18
ATOM     18  C   UNL     1      -5.827 -62.415   2.103  1.00  0.00     0.000 C 
BRANCH  18  19
ATOM     19  C   UNL     1      -5.948 -61.059   1.383  1.00  0.00     0.000 C 
BRANCH  19  20
ATOM     20  C   UNL     1      -7.333 -60.786   0.758  1.00  0.00     0.006 C 
BRANCH  20  21
ATOM     21  C   UNL     1      -8.147 -59.703   1.490  1.00  0.00     0.053 C 
BRANCH  21  22
ATOM     22  C   UNL     1      -9.345 -60.258   2.196  1.00  0.00     0.041 C 
ATOM     23  O   UNL     1      -9.201 -60.975   3.220  1.00  0.00    -0.550 OA
ATOM     24  O   UNL     1     -10.621 -60.010   1.706  1.00  0.00    -0.550 OA
ENDBRANCH  21  22
ENDBRANCH  20  21
ENDBRANCH  19  20
ENDBRANCH  18  19
ENDBRANCH  17  18
ENDBRANCH  16  17
ENDBRANCH  15  16
ENDBRANCH  14  15
ENDBRANCH  13  14
ENDBRANCH   1  13
TORSDOF 20
ENDMDL
MODEL 6
REMARK VINA RESULT:    -3.194      1.290      3.062
REMARK INTER + INTRA:         -10.745
REMARK INTER:                  -6.909
REMARK INTRA:                  -3.836
REMARK UNBOUND:                -3.817
REMARK SMILES CCCCCCCCCCCCCCCCCCCCCC(=O)[O-]
REMARK SMILES IDX 12 1 11 2 10 3 9 4 8 5 7 6 6 7 5 8 4 9 3 10 2 11 1 12 13 13
REMARK SMILES IDX 14 14 15 15 16 16 17 17 18 18 19 19 20 20 21 21 22 22 23 23
REMARK SMILES IDX 24 24
REMARK H PARENT
REMARK Flexibility Score: inf
ROOT
ATOM      1  C   UNL     1      -4.800 -66.195  -3.962  1.00  0.00     0.000 C 
ENDROOT
BRANCH   1   2
ATOM      2  C   UNL     1      -3.861 -65.041  -3.566  1.00  0.00     0.000 C 
BRANCH   2   3
ATOM      3  C   UNL     1      -4.354 -63.676  -4.091  1.00  0.00     0.000 C 
BRANCH   3   4
ATOM      4  C   UNL     1      -5.764 -63.719  -4.715  1.00  0.00    -0.000 C 
BRANCH   4   5
ATOM      5  C   UNL     1      -6.248 -62.386  -5.314  1.00  0.00    -0.000 C 
BRANCH   5   6
ATOM      6  C   UNL     1      -7.707 -62.443  -5.790  1.00  0.00    -0.000 C 
BRANCH   6   7
ATOM      7  C   UNL     1      -8.082 -63.861  -6.239  1.00  0.00    -0.000 C 
BRANCH   7   8
ATOM      8  C   UNL     1      -8.748 -63.845  -7.620  1.00  0.00    -0.000 C 
BRANCH   8   9
ATOM      9  C   UNL     1      -8.517 -62.504  -8.328  1.00  0.00    -0.000 C 
BRANCH   9  10
ATOM     10  C   UNL     1      -7.587 -62.673  -9.539  1.00  0.00    -0.000 C 
BRANCH  10  11
ATOM     11  C   UNL     1      -6.276 -61.889  -9.389  1.00  0.00    -0.003 C 
ATOM     12  C   UNL     1      -6.468 -60.539  -8.697  1.00  0.00     0.004 C 
ENDBRANCH  10  11
ENDBRANCH   9  10
ENDBRANCH   8   9
ENDBRANCH   7   8
ENDBRANCH   6   7
ENDBRANCH   5   6
ENDBRANCH   4   5
ENDBRANCH   3   4
ENDBRANCH   2   3
ENDBRANCH   1   2
BRANCH   1  13
ATOM     13  C   UNL     1      -4.040 -67.410  -4.519  1.00  0.00     0.000 C 
BRANCH  13  14
ATOM     14  C   UNL     1      -4.678 -67.966  -5.803  1.00  0.00     0.000 C 
BRANCH  14  15
ATOM     15  C   UNL     1      -4.274 -67.126  -7.024  1.00  0.00     0.000 C 
BRANCH  15  16
ATOM     16  C   UNL     1      -5.404 -66.199  -7.502  1.00  0.00     0.000 C 
BRANCH  16  17
ATOM     17  C   UNL     1      -4.889 -64.840  -8.006  1.00  0.00     0.000 C 
BRANCH  17  18
ATOM     18  C   UNL     1      -3.453 -64.545  -7.513  1.00  0.00     0.000 C 
BRANCH  18  19
ATOM     19  C   UNL     1      -2.813 -63.322  -8.197  1.00  0.00     0.000 C 
BRANCH  19  20
ATOM     20  C   UNL     1      -1.994 -62.416  -7.253  1.00  0.00     0.006 C 
BRANCH  20  21
ATOM     21  C   UNL     1      -1.050 -63.186  -6.311  1.00  0.00     0.053 C 
BRANCH  21  22
ATOM     22  C   UNL     1       0.169 -63.704  -7.009  1.00  0.00     0.041 C 
ATOM     23  O   UNL     1       1.181 -62.967  -7.146  1.00  0.00    -0.550 OA
ATOM     24  O   UNL     1       0.179 -64.988  -7.538  1.00  0.00    -0.550 OA
ENDBRANCH  21  22
ENDBRANCH  20  21
ENDBRANCH  19  20
ENDBRANCH  18  19
ENDBRANCH  17  18
ENDBRANCH  16  17
ENDBRANCH  15  16
ENDBRANCH  14  15
ENDBRANCH  13  14
ENDBRANCH   1  13
TORSDOF 20
ENDMDL
MODEL 7
REMARK VINA RESULT:    -3.188     12.120     15.434
REMARK INTER + INTRA:         -10.732
REMARK INTER:                  -6.714
REMARK INTRA:                  -4.018
REMARK UNBOUND:                -3.817
REMARK SMILES CCCCCCCCCCCCCCCCCCCCCC(=O)[O-]
REMARK SMILES IDX 12 1 11 2 10 3 9 4 8 5 7 6 6 7 5 8 4 9 3 10 2 11 1 12 13 13
REMARK SMILES IDX 14 14 15 15 16 16 17 17 18 18 19 19 20 20 21 21 22 22 23 23
REMARK SMILES IDX 24 24
REMARK H PARENT
REMARK Flexibility Score: inf
ROOT
ATOM      1  C   UNL     1     -13.960 -76.602  -8.424  1.00  0.00     0.000 C 
ENDROOT
BRANCH   1   2
ATOM      2  C   UNL     1     -14.369 -77.355  -7.146  1.00  0.00     0.000 C 
BRANCH   2   3
ATOM      3  C   UNL     1     -15.882 -77.656  -7.099  1.00  0.00     0.000 C 
BRANCH   3   4
ATOM      4  C   UNL     1     -16.754 -76.425  -6.780  1.00  0.00    -0.000 C 
BRANCH   4   5
ATOM      5  C   UNL     1     -17.893 -76.160  -7.780  1.00  0.00    -0.000 C 
BRANCH   5   6
ATOM      6  C   UNL     1     -17.982 -74.687  -8.206  1.00  0.00    -0.000 C 
BRANCH   6   7
ATOM      7  C   UNL     1     -16.749 -73.906  -7.737  1.00  0.00    -0.000 C 
BRANCH   7   8
ATOM      8  C   UNL     1     -16.368 -72.817  -8.747  1.00  0.00    -0.000 C 
BRANCH   8   9
ATOM      9  C   UNL     1     -17.546 -72.484  -9.670  1.00  0.00    -0.000 C 
BRANCH   9  10
ATOM     10  C   UNL     1     -17.833 -70.975  -9.676  1.00  0.00    -0.000 C 
BRANCH  10  11
ATOM     11  C   UNL     1     -17.257 -70.271 -10.914  1.00  0.00    -0.003 C 
ATOM     12  C   UNL     1     -17.624 -70.976 -12.220  1.00  0.00     0.004 C 
ENDBRANCH  10  11
ENDBRANCH   9  10
ENDBRANCH   8   9
ENDBRANCH   7   8
ENDBRANCH   6   7
ENDBRANCH   5   6
ENDBRANCH   4   5
ENDBRANCH   3   4
ENDBRANCH   2   3
ENDBRANCH   1   2
BRANCH   1  13
ATOM     13  C   UNL     1     -13.727 -77.545  -9.616  1.00  0.00     0.000 C 
BRANCH  13  14
ATOM     14  C   UNL     1     -14.713 -77.292 -10.768  1.00  0.00     0.000 C 
BRANCH  14  15
ATOM     15  C   UNL     1     -15.498 -75.991 -10.542  1.00  0.00     0.000 C 
BRANCH  15  16
ATOM     16  C   UNL     1     -16.244 -75.527 -11.804  1.00  0.00     0.000 C 
BRANCH  16  17
ATOM     17  C   UNL     1     -15.658 -74.237 -12.404  1.00  0.00     0.000 C 
BRANCH  17  18
ATOM     18  C   UNL     1     -14.340 -73.822 -11.710  1.00  0.00     0.000 C 
BRANCH  18  19
ATOM     19  C   UNL     1     -14.133 -72.296 -11.655  1.00  0.00     0.000 C 
BRANCH  19  20
ATOM     20  C   UNL     1     -13.374 -71.796 -10.408  1.00  0.00     0.006 C 
BRANCH  20  21
ATOM     21  C   UNL     1     -12.682 -72.915  -9.607  1.00  0.00     0.053 C 
BRANCH  21  22
ATOM     22  C   UNL     1     -11.194 -72.910  -9.772  1.00  0.00     0.041 C 
ATOM     23  O   UNL     1     -10.482 -72.146  -9.069  1.00  0.00    -0.550 OA
ATOM     24  O   UNL     1     -10.593 -73.724 -10.724  1.00  0.00    -0.550 OA
ENDBRANCH  21  22
ENDBRANCH  20  21
ENDBRANCH  19  20
ENDBRANCH  18  19
ENDBRANCH  17  18
ENDBRANCH  16  17
ENDBRANCH  15  16
ENDBRANCH  14  15
ENDBRANCH  13  14
ENDBRANCH   1  13
TORSDOF 20
ENDMDL
MODEL 8
REMARK VINA RESULT:    -3.184      1.381      4.781
REMARK INTER + INTRA:         -10.723
REMARK INTER:                  -7.083
REMARK INTRA:                  -3.640
REMARK UNBOUND:                -3.817
REMARK SMILES CCCCCCCCCCCCCCCCCCCCCC(=O)[O-]
REMARK SMILES IDX 12 1 11 2 10 3 9 4 8 5 7 6 6 7 5 8 4 9 3 10 2 11 1 12 13 13
REMARK SMILES IDX 14 14 15 15 16 16 17 17 18 18 19 19 20 20 21 21 22 22 23 23
REMARK SMILES IDX 24 24
REMARK H PARENT
REMARK Flexibility Score: inf
ROOT
ATOM      1  C   UNL     1      -8.506 -64.884  -7.993  1.00  0.00     0.000 C 
ENDROOT
BRANCH   1   2
ATOM      2  C   UNL     1      -7.743 -64.620  -9.304  1.00  0.00     0.000 C 
BRANCH   2   3
ATOM      3  C   UNL     1      -6.212 -64.678  -9.115  1.00  0.00     0.000 C 
BRANCH   3   4
ATOM      4  C   UNL     1      -5.578 -66.011  -9.562  1.00  0.00    -0.000 C 
BRANCH   4   5
ATOM      5  C   UNL     1      -4.597 -66.633  -8.552  1.00  0.00    -0.000 C 
BRANCH   5   6
ATOM      6  C   UNL     1      -5.103 -66.555  -7.104  1.00  0.00    -0.000 C 
BRANCH   6   7
ATOM      7  C   UNL     1      -4.591 -67.742  -6.280  1.00  0.00    -0.000 C 
BRANCH   7   8
ATOM      8  C   UNL     1      -3.668 -67.273  -5.149  1.00  0.00    -0.000 C 
BRANCH   8   9
ATOM      9  C   UNL     1      -4.138 -65.931  -4.575  1.00  0.00    -0.000 C 
BRANCH   9  10
ATOM     10  C   UNL     1      -4.675 -66.101  -3.145  1.00  0.00    -0.000 C 
BRANCH  10  11
ATOM     11  C   UNL     1      -5.392 -64.844  -2.632  1.00  0.00    -0.003 C 
ATOM     12  C   UNL     1      -4.516 -64.001  -1.703  1.00  0.00     0.004 C 
ENDBRANCH  10  11
ENDBRANCH   9  10
ENDBRANCH   8   9
ENDBRANCH   7   8
ENDBRANCH   6   7
ENDBRANCH   5   6
ENDBRANCH   4   5
ENDBRANCH   3   4
ENDBRANCH   2   3
ENDBRANCH   1   2
BRANCH   1  13
ATOM     13  C   UNL     1      -7.832 -64.230  -6.775  1.00  0.00     0.000 C 
BRANCH  13  14
ATOM     14  C   UNL     1      -8.044 -62.709  -6.732  1.00  0.00     0.000 C 
BRANCH  14  15
ATOM     15  C   UNL     1      -6.711 -61.974  -6.523  1.00  0.00     0.000 C 
BRANCH  15  16
ATOM     16  C   UNL     1      -5.612 -62.895  -5.970  1.00  0.00     0.000 C 
BRANCH  16  17
ATOM     17  C   UNL     1      -4.425 -62.119  -5.375  1.00  0.00     0.000 C 
BRANCH  17  18
ATOM     18  C   UNL     1      -3.144 -62.275  -6.229  1.00  0.00     0.000 C 
BRANCH  18  19
ATOM     19  C   UNL     1      -3.346 -63.156  -7.477  1.00  0.00     0.000 C 
BRANCH  19  20
ATOM     20  C   UNL     1      -2.117 -64.004  -7.868  1.00  0.00     0.006 C 
BRANCH  20  21
ATOM     21  C   UNL     1      -1.392 -64.643  -6.669  1.00  0.00     0.053 C 
BRANCH  21  22
ATOM     22  C   UNL     1       0.096 -64.481  -6.739  1.00  0.00     0.041 C 
ATOM     23  O   UNL     1       0.851 -65.358  -6.245  1.00  0.00    -0.550 OA
ATOM     24  O   UNL     1       0.648 -63.348  -7.322  1.00  0.00    -0.550 OA
ENDBRANCH  21  22
ENDBRANCH  20  21
ENDBRANCH  19  20
ENDBRANCH  18  19
ENDBRANCH  17  18
ENDBRANCH  16  17
ENDBRANCH  15  16
ENDBRANCH  14  15
ENDBRANCH  13  14
ENDBRANCH   1  13
TORSDOF 20
ENDMDL
MODEL 9
REMARK VINA RESULT:    -3.174      1.604      3.805
REMARK INTER + INTRA:         -10.701
REMARK INTER:                  -7.492
REMARK INTRA:                  -3.210
REMARK UNBOUND:                -3.817
REMARK SMILES CCCCCCCCCCCCCCCCCCCCCC(=O)[O-]
REMARK SMILES IDX 12 1 11 2 10 3 9 4 8 5 7 6 6 7 5 8 4 9 3 10 2 11 1 12 13 13
REMARK SMILES IDX 14 14 15 15 16 16 17 17 18 18 19 19 20 20 21 21 22 22 23 23
REMARK SMILES IDX 24 24
REMARK H PARENT
REMARK Flexibility Score: inf
ROOT
ATOM      1  C   UNL     1      -4.586 -66.939  -8.369  1.00  0.00     0.000 C 
ENDROOT
BRANCH   1   2
ATOM      2  C   UNL     1      -5.964 -66.407  -8.802  1.00  0.00     0.000 C 
BRANCH   2   3
ATOM      3  C   UNL     1      -6.342 -65.097  -8.079  1.00  0.00     0.000 C 
BRANCH   3   4
ATOM      4  C   UNL     1      -7.861 -64.842  -8.004  1.00  0.00    -0.000 C 
BRANCH   4   5
ATOM      5  C   UNL     1      -8.308 -63.925  -6.851  1.00  0.00    -0.000 C 
BRANCH   5   6
ATOM      6  C   UNL     1      -7.199 -62.969  -6.385  1.00  0.00    -0.000 C 
BRANCH   6   7
ATOM      7  C   UNL     1      -7.521 -62.390  -5.002  1.00  0.00    -0.000 C 
BRANCH   7   8
ATOM      8  C   UNL     1      -6.241 -62.155  -4.190  1.00  0.00    -0.000 C 
BRANCH   8   9
ATOM      9  C   UNL     1      -6.526 -62.211  -2.685  1.00  0.00    -0.000 C 
BRANCH   9  10
ATOM     10  C   UNL     1      -6.999 -63.611  -2.264  1.00  0.00    -0.000 C 
BRANCH  10  11
ATOM     11  C   UNL     1      -5.892 -64.427  -1.583  1.00  0.00    -0.003 C 
ATOM     12  C   UNL     1      -4.654 -63.590  -1.256  1.00  0.00     0.004 C 
ENDBRANCH  10  11
ENDBRANCH   9  10
ENDBRANCH   8   9
ENDBRANCH   7   8
ENDBRANCH   6   7
ENDBRANCH   5   6
ENDBRANCH   4   5
ENDBRANCH   3   4
ENDBRANCH   2   3
ENDBRANCH   1   2
BRANCH   1  13
ATOM     13  C   UNL     1      -4.653 -68.374  -7.818  1.00  0.00     0.000 C 
BRANCH  13  14
ATOM     14  C   UNL     1      -4.792 -68.410  -6.288  1.00  0.00     0.000 C 
BRANCH  14  15
ATOM     15  C   UNL     1      -3.685 -67.582  -5.617  1.00  0.00     0.000 C 
BRANCH  15  16
ATOM     16  C   UNL     1      -4.205 -66.758  -4.427  1.00  0.00     0.000 C 
BRANCH  16  17
ATOM     17  C   UNL     1      -4.658 -65.345  -4.831  1.00  0.00     0.000 C 
BRANCH  17  18
ATOM     18  C   UNL     1      -3.464 -64.375  -4.983  1.00  0.00     0.000 C 
BRANCH  18  19
ATOM     19  C   UNL     1      -3.297 -63.831  -6.414  1.00  0.00     0.000 C 
BRANCH  19  20
ATOM     20  C   UNL     1      -2.367 -62.605  -6.530  1.00  0.00     0.006 C 
BRANCH  20  21
ATOM     21  C   UNL     1      -1.105 -62.855  -7.376  1.00  0.00     0.053 C 
BRANCH  21  22
ATOM     22  C   UNL     1      -0.212 -63.904  -6.788  1.00  0.00     0.041 C 
ATOM     23  O   UNL     1       0.184 -63.802  -5.598  1.00  0.00    -0.550 OA
ATOM     24  O   UNL     1       0.210 -64.977  -7.563  1.00  0.00    -0.550 OA
ENDBRANCH  21  22
ENDBRANCH  20  21
ENDBRANCH  19  20
ENDBRANCH  18  19
ENDBRANCH  17  18
ENDBRANCH  16  17
ENDBRANCH  15  16
ENDBRANCH  14  15
ENDBRANCH  13  14
ENDBRANCH   1  13
TORSDOF 20
ENDMDL
