MODEL 1
REMARK VINA RESULT:    -7.320      0.000      0.000
REMARK INTER + INTRA:         -11.832
REMARK INTER:                 -10.743
REMARK INTRA:                  -1.089
REMARK UNBOUND:                -1.089
REMARK SMILES O=c1c(O[C@@H]2O[C@H](CO)[C@H](O)[C@@H](O)[C@H]2O)c(-c2ccc(O)c(O)c2)oc2cc(O)cc(O)c12
REMARK SMILES IDX 4 1 3 2 16 3 25 4 2 5 26 6 1 7 33 8 27 9 31 10 28 11 30 12
REMARK SMILES IDX 17 13 18 14 19 15 20 16 24 17 22 18 21 19 23 21 32 23 29 25
REMARK SMILES IDX 5 27 14 28 6 29 12 30 7 31 10 32 15 33 13 35 8 37 9 38 11 40
REMARK H PARENT 21 20 23 22 32 24 29 26 15 34 13 36 9 39 11 41
REMARK Flexibility Score: inf
ROOT
ATOM      1  O   UNL     1     -38.437   6.077  81.440  1.00  0.00    -0.454 OA
ENDROOT
BRANCH   1   2
ATOM      2  C   UNL     1     -39.043   5.261  80.482  1.00  0.00     0.214 A 
ATOM      3  C   UNL     1     -38.399   4.942  79.276  1.00  0.00     0.180 A 
ATOM      4  O   UNL     1     -39.014   4.184  78.381  1.00  0.00    -0.452 OA
ATOM      5  C   UNL     1     -40.337   4.789  80.709  1.00  0.00     0.239 A 
ATOM      6  C   UNL     1     -40.246   3.709  78.549  1.00  0.00     0.146 A 
ATOM      7  O   UNL     1     -40.909   5.122  81.778  1.00  0.00    -0.285 OA
ATOM      8  C   UNL     1     -40.979   3.984  79.735  1.00  0.00     0.111 A 
ATOM      9  C   UNL     1     -40.815   2.942  77.525  1.00  0.00     0.094 A 
ATOM     10  C   UNL     1     -42.304   3.463  79.853  1.00  0.00     0.134 A 
ATOM     11  C   UNL     1     -42.120   2.471  77.634  1.00  0.00     0.123 A 
ATOM     12  C   UNL     1     -42.862   2.746  78.785  1.00  0.00     0.093 A 
BRANCH   3  13
ATOM     13  C   UNL     1     -37.081   5.508  78.947  1.00  0.00     0.025 A 
ATOM     14  C   UNL     1     -37.007   6.812  78.449  1.00  0.00     0.016 A 
ATOM     15  C   UNL     1     -35.766   7.374  78.134  1.00  0.00     0.051 A 
ATOM     16  C   UNL     1     -34.592   6.642  78.331  1.00  0.00     0.157 A 
ATOM     17  C   UNL     1     -35.910   4.769  79.147  1.00  0.00     0.062 A 
ATOM     18  C   UNL     1     -34.660   5.331  78.845  1.00  0.00     0.158 A 
BRANCH  16  19
ATOM     19  O   UNL     1     -33.355   7.220  78.055  1.00  0.00    -0.504 OA
ATOM     20  H   UNL     1     -32.747   6.853  77.336  1.00  0.00     0.293 HD
ENDBRANCH  16  19
BRANCH  18  21
ATOM     21  O   UNL     1     -33.506   4.587  79.097  1.00  0.00    -0.504 OA
ATOM     22  H   UNL     1     -33.534   3.742  79.650  1.00  0.00     0.293 HD
ENDBRANCH  18  21
ENDBRANCH   3  13
BRANCH  10  23
ATOM     23  O   UNL     1     -43.108   3.601  80.986  1.00  0.00    -0.507 OA
ATOM     24  H   UNL     1     -43.852   2.984  81.267  1.00  0.00     0.293 HD
ENDBRANCH  10  23
BRANCH  11  25
ATOM     25  O   UNL     1     -42.668   1.719  76.596  1.00  0.00    -0.508 OA
ATOM     26  H   UNL     1     -42.674   0.710  76.620  1.00  0.00     0.293 HD
ENDBRANCH  11  25
ENDBRANCH   1   2
BRANCH   1  27
ATOM     27  C   UNL     1     -37.556   5.591  82.455  1.00  0.00     0.339 C 
ATOM     28  C   UNL     1     -37.785   4.069  82.588  1.00  0.00     0.214 C 
ATOM     29  O   UNL     1     -36.205   5.839  82.115  1.00  0.00    -0.332 OA
ATOM     30  C   UNL     1     -36.579   3.368  83.270  1.00  0.00     0.180 C 
ATOM     31  C   UNL     1     -35.325   5.583  83.214  1.00  0.00     0.179 C 
ATOM     32  C   UNL     1     -35.779   4.374  84.108  1.00  0.00     0.177 C 
BRANCH  28  33
ATOM     33  O   UNL     1     -38.976   3.845  83.308  1.00  0.00    -0.384 OA
ATOM     34  H   UNL     1     -38.800   3.087  83.926  1.00  0.00     0.211 HD
ENDBRANCH  28  33
BRANCH  30  35
ATOM     35  O   UNL     1     -37.018   2.315  84.087  1.00  0.00    -0.387 OA
ATOM     36  H   UNL     1     -37.146   2.698  84.998  1.00  0.00     0.211 HD
ENDBRANCH  30  35
BRANCH  31  37
ATOM     37  C   UNL     1     -33.905   5.405  82.633  1.00  0.00     0.191 C 
BRANCH  37  38
ATOM     38  O   UNL     1     -33.779   4.155  82.001  1.00  0.00    -0.394 OA
ATOM     39  H   UNL     1     -34.356   3.525  82.513  1.00  0.00     0.210 HD
ENDBRANCH  37  38
ENDBRANCH  31  37
BRANCH  32  40
ATOM     40  O   UNL     1     -34.684   3.745  84.731  1.00  0.00    -0.387 OA
ATOM     41  H   UNL     1     -34.852   3.792  85.713  1.00  0.00     0.211 HD
ENDBRANCH  32  40
ENDBRANCH   1  27
TORSDOF 12
ENDMDL
MODEL 2
REMARK VINA RESULT:    -6.518      1.973      6.506
REMARK INTER + INTRA:         -10.656
REMARK INTER:                  -9.799
REMARK INTRA:                  -0.857
REMARK UNBOUND:                -1.089
REMARK SMILES O=c1c(O[C@@H]2O[C@H](CO)[C@H](O)[C@@H](O)[C@H]2O)c(-c2ccc(O)c(O)c2)oc2cc(O)cc(O)c12
REMARK SMILES IDX 4 1 3 2 16 3 25 4 2 5 26 6 1 7 33 8 27 9 31 10 28 11 30 12
REMARK SMILES IDX 17 13 18 14 19 15 20 16 24 17 22 18 21 19 23 21 32 23 29 25
REMARK SMILES IDX 5 27 14 28 6 29 12 30 7 31 10 32 15 33 13 35 8 37 9 38 11 40
REMARK H PARENT 21 20 23 22 32 24 29 26 15 34 13 36 9 39 11 41
REMARK Flexibility Score: inf
ROOT
ATOM      1  O   UNL     1     -36.581   4.060  81.398  1.00  0.00    -0.454 OA
ENDROOT
BRANCH   1   2
ATOM      2  C   UNL     1     -36.257   5.098  80.521  1.00  0.00     0.214 A 
ATOM      3  C   UNL     1     -37.017   5.350  79.368  1.00  0.00     0.180 A 
ATOM      4  O   UNL     1     -36.666   6.327  78.546  1.00  0.00    -0.452 OA
ATOM      5  C   UNL     1     -35.123   5.873  80.771  1.00  0.00     0.239 A 
ATOM      6  C   UNL     1     -35.596   7.096  78.741  1.00  0.00     0.146 A 
ATOM      7  O   UNL     1     -34.435   5.602  81.789  1.00  0.00    -0.285 OA
ATOM      8  C   UNL     1     -34.762   6.911  79.877  1.00  0.00     0.111 A 
ATOM      9  C   UNL     1     -35.297   8.082  77.794  1.00  0.00     0.094 A 
ATOM     10  C   UNL     1     -33.617   7.752  80.024  1.00  0.00     0.134 A 
ATOM     11  C   UNL     1     -34.158   8.871  77.928  1.00  0.00     0.123 A 
ATOM     12  C   UNL     1     -33.317   8.693  79.028  1.00  0.00     0.093 A 
BRANCH   3  13
ATOM     13  C   UNL     1     -38.154   4.488  79.004  1.00  0.00     0.025 A 
ATOM     14  C   UNL     1     -37.914   3.150  78.677  1.00  0.00     0.016 A 
ATOM     15  C   UNL     1     -38.978   2.310  78.334  1.00  0.00     0.051 A 
ATOM     16  C   UNL     1     -40.288   2.797  78.334  1.00  0.00     0.157 A 
ATOM     17  C   UNL     1     -39.462   4.983  79.007  1.00  0.00     0.062 A 
ATOM     18  C   UNL     1     -40.536   4.142  78.676  1.00  0.00     0.158 A 
BRANCH  16  19
ATOM     19  O   UNL     1     -41.349   1.947  78.032  1.00  0.00    -0.504 OA
ATOM     20  H   UNL     1     -41.751   1.334  78.728  1.00  0.00     0.293 HD
ENDBRANCH  16  19
BRANCH  18  21
ATOM     21  O   UNL     1     -41.835   4.652  78.731  1.00  0.00    -0.504 OA
ATOM     22  H   UNL     1     -42.626   4.116  78.403  1.00  0.00     0.293 HD
ENDBRANCH  18  21
ENDBRANCH   3  13
BRANCH  10  23
ATOM     23  O   UNL     1     -32.754   7.724  81.121  1.00  0.00    -0.507 OA
ATOM     24  H   UNL     1     -31.750   7.790  81.091  1.00  0.00     0.293 HD
ENDBRANCH  10  23
BRANCH  11  25
ATOM     25  O   UNL     1     -33.876   9.839  76.965  1.00  0.00    -0.508 OA
ATOM     26  H   UNL     1     -34.610  10.365  76.514  1.00  0.00     0.293 HD
ENDBRANCH  11  25
ENDBRANCH   1   2
BRANCH   1  27
ATOM     27  C   UNL     1     -37.577   4.165  82.417  1.00  0.00     0.339 C 
ATOM     28  C   UNL     1     -37.594   5.629  82.910  1.00  0.00     0.214 C 
ATOM     29  O   UNL     1     -38.855   3.818  81.917  1.00  0.00    -0.332 OA
ATOM     30  C   UNL     1     -38.927   5.974  83.628  1.00  0.00     0.180 C 
ATOM     31  C   UNL     1     -39.816   3.681  82.968  1.00  0.00     0.179 C 
ATOM     32  C   UNL     1     -39.601   4.696  84.146  1.00  0.00     0.177 C 
BRANCH  28  33
ATOM     33  O   UNL     1     -36.490   5.841  83.760  1.00  0.00    -0.384 OA
ATOM     34  H   UNL     1     -36.326   6.821  83.779  1.00  0.00     0.211 HD
ENDBRANCH  28  33
BRANCH  30  35
ATOM     35  O   UNL     1     -38.698   6.855  84.696  1.00  0.00    -0.387 OA
ATOM     36  H   UNL     1     -38.345   7.698  84.297  1.00  0.00     0.211 HD
ENDBRANCH  30  35
BRANCH  31  37
ATOM     37  C   UNL     1     -41.216   3.791  82.324  1.00  0.00     0.191 C 
BRANCH  37  38
ATOM     38  O   UNL     1     -41.569   2.583  81.692  1.00  0.00    -0.394 OA
ATOM     39  H   UNL     1     -41.255   2.661  80.751  1.00  0.00     0.210 HD
ENDBRANCH  37  38
ENDBRANCH  31  37
BRANCH  32  40
ATOM     40  O   UNL     1     -40.810   5.001  84.801  1.00  0.00    -0.387 OA
ATOM     41  H   UNL     1     -41.288   5.658  84.222  1.00  0.00     0.211 HD
ENDBRANCH  32  40
ENDBRANCH   1  27
TORSDOF 12
ENDMDL
MODEL 3
REMARK VINA RESULT:    -6.517      2.213      7.613
REMARK INTER + INTRA:         -10.653
REMARK INTER:                  -9.477
REMARK INTRA:                  -1.176
REMARK UNBOUND:                -1.089
REMARK SMILES O=c1c(O[C@@H]2O[C@H](CO)[C@H](O)[C@@H](O)[C@H]2O)c(-c2ccc(O)c(O)c2)oc2cc(O)cc(O)c12
REMARK SMILES IDX 4 1 3 2 16 3 25 4 2 5 26 6 1 7 33 8 27 9 31 10 28 11 30 12
REMARK SMILES IDX 17 13 18 14 19 15 20 16 24 17 22 18 21 19 23 21 32 23 29 25
REMARK SMILES IDX 5 27 14 28 6 29 12 30 7 31 10 32 15 33 13 35 8 37 9 38 11 40
REMARK H PARENT 21 20 23 22 32 24 29 26 15 34 13 36 9 39 11 41
REMARK Flexibility Score: inf
ROOT
ATOM      1  O   UNL     1     -36.592   4.000  80.039  1.00  0.00    -0.454 OA
ENDROOT
BRANCH   1   2
ATOM      2  C   UNL     1     -35.767   4.952  80.643  1.00  0.00     0.214 A 
ATOM      3  C   UNL     1     -35.908   5.291  81.998  1.00  0.00     0.180 A 
ATOM      4  O   UNL     1     -35.124   6.215  82.531  1.00  0.00    -0.452 OA
ATOM      5  C   UNL     1     -34.812   5.615  79.871  1.00  0.00     0.239 A 
ATOM      6  C   UNL     1     -34.197   6.875  81.840  1.00  0.00     0.146 A 
ATOM      7  O   UNL     1     -34.733   5.323  78.650  1.00  0.00    -0.285 OA
ATOM      8  C   UNL     1     -33.986   6.604  80.460  1.00  0.00     0.111 A 
ATOM      9  C   UNL     1     -33.442   7.855  82.494  1.00  0.00     0.094 A 
ATOM     10  C   UNL     1     -32.992   7.356  79.764  1.00  0.00     0.134 A 
ATOM     11  C   UNL     1     -32.502   8.608  81.797  1.00  0.00     0.123 A 
ATOM     12  C   UNL     1     -32.293   8.368  80.437  1.00  0.00     0.093 A 
BRANCH   3  13
ATOM     13  C   UNL     1     -36.974   4.699  82.822  1.00  0.00     0.025 A 
ATOM     14  C   UNL     1     -38.073   5.486  83.178  1.00  0.00     0.016 A 
ATOM     15  C   UNL     1     -39.101   4.944  83.956  1.00  0.00     0.051 A 
ATOM     16  C   UNL     1     -39.046   3.610  84.366  1.00  0.00     0.157 A 
ATOM     17  C   UNL     1     -36.912   3.362  83.228  1.00  0.00     0.062 A 
ATOM     18  C   UNL     1     -37.946   2.808  83.998  1.00  0.00     0.158 A 
BRANCH  16  19
ATOM     19  O   UNL     1     -40.092   3.063  85.105  1.00  0.00    -0.504 OA
ATOM     20  H   UNL     1     -40.989   3.524  85.176  1.00  0.00     0.293 HD
ENDBRANCH  16  19
BRANCH  18  21
ATOM     21  O   UNL     1     -37.879   1.459  84.351  1.00  0.00    -0.504 OA
ATOM     22  H   UNL     1     -38.427   0.760  83.871  1.00  0.00     0.293 HD
ENDBRANCH  18  21
ENDBRANCH   3  13
BRANCH  10  23
ATOM     23  O   UNL     1     -32.636   7.149  78.430  1.00  0.00    -0.507 OA
ATOM     24  H   UNL     1     -33.248   6.842  77.691  1.00  0.00     0.293 HD
ENDBRANCH  10  23
BRANCH  11  25
ATOM     25  O   UNL     1     -31.771   9.586  82.469  1.00  0.00    -0.508 OA
ATOM     26  H   UNL     1     -31.523  10.459  82.026  1.00  0.00     0.293 HD
ENDBRANCH  11  25
ENDBRANCH   1   2
BRANCH   1  27
ATOM     27  C   UNL     1     -37.860   4.304  79.456  1.00  0.00     0.339 C 
ATOM     28  C   UNL     1     -38.849   3.191  79.869  1.00  0.00     0.214 C 
ATOM     29  O   UNL     1     -38.341   5.556  79.910  1.00  0.00    -0.332 OA
ATOM     30  C   UNL     1     -40.324   3.655  79.727  1.00  0.00     0.180 C 
ATOM     31  C   UNL     1     -39.481   5.990  79.162  1.00  0.00     0.179 C 
ATOM     32  C   UNL     1     -40.425   4.814  78.726  1.00  0.00     0.177 C 
BRANCH  28  33
ATOM     33  O   UNL     1     -38.600   2.043  79.090  1.00  0.00    -0.384 OA
ATOM     34  H   UNL     1     -38.291   2.361  78.200  1.00  0.00     0.211 HD
ENDBRANCH  28  33
BRANCH  30  35
ATOM     35  O   UNL     1     -41.137   2.592  79.305  1.00  0.00    -0.387 OA
ATOM     36  H   UNL     1     -41.795   2.431  80.037  1.00  0.00     0.211 HD
ENDBRANCH  30  35
BRANCH  31  37
ATOM     37  C   UNL     1     -40.202   7.063  80.007  1.00  0.00     0.191 C 
BRANCH  37  38
ATOM     38  O   UNL     1     -41.118   7.784  79.219  1.00  0.00    -0.394 OA
ATOM     39  H   UNL     1     -41.124   8.712  79.580  1.00  0.00     0.210 HD
ENDBRANCH  37  38
ENDBRANCH  31  37
BRANCH  32  40
ATOM     40  O   UNL     1     -41.761   5.239  78.590  1.00  0.00    -0.387 OA
ATOM     41  H   UNL     1     -42.200   4.598  77.965  1.00  0.00     0.211 HD
ENDBRANCH  32  40
ENDBRANCH   1  27
TORSDOF 12
ENDMDL
MODEL 4
REMARK VINA RESULT:    -6.486      2.068      6.162
REMARK INTER + INTRA:         -10.608
REMARK INTER:                  -9.818
REMARK INTRA:                  -0.791
REMARK UNBOUND:                -1.089
REMARK SMILES O=c1c(O[C@@H]2O[C@H](CO)[C@H](O)[C@@H](O)[C@H]2O)c(-c2ccc(O)c(O)c2)oc2cc(O)cc(O)c12
REMARK SMILES IDX 4 1 3 2 16 3 25 4 2 5 26 6 1 7 33 8 27 9 31 10 28 11 30 12
REMARK SMILES IDX 17 13 18 14 19 15 20 16 24 17 22 18 21 19 23 21 32 23 29 25
REMARK SMILES IDX 5 27 14 28 6 29 12 30 7 31 10 32 15 33 13 35 8 37 9 38 11 40
REMARK H PARENT 21 20 23 22 32 24 29 26 15 34 13 36 9 39 11 41
REMARK Flexibility Score: inf
ROOT
ATOM      1  O   UNL     1     -38.222   6.198  81.653  1.00  0.00    -0.454 OA
ENDROOT
BRANCH   1   2
ATOM      2  C   UNL     1     -37.544   6.792  80.586  1.00  0.00     0.214 A 
ATOM      3  C   UNL     1     -37.753   6.378  79.261  1.00  0.00     0.180 A 
ATOM      4  O   UNL     1     -37.074   6.947  78.277  1.00  0.00    -0.452 OA
ATOM      5  C   UNL     1     -36.601   7.788  80.847  1.00  0.00     0.239 A 
ATOM      6  C   UNL     1     -36.167   7.901  78.472  1.00  0.00     0.146 A 
ATOM      7  O   UNL     1     -36.402   8.113  82.045  1.00  0.00    -0.285 OA
ATOM      8  C   UNL     1     -35.882   8.381  79.780  1.00  0.00     0.111 A 
ATOM      9  C   UNL     1     -35.483   8.414  77.363  1.00  0.00     0.094 A 
ATOM     10  C   UNL     1     -34.884   9.392  79.931  1.00  0.00     0.134 A 
ATOM     11  C   UNL     1     -34.487   9.372  77.527  1.00  0.00     0.123 A 
ATOM     12  C   UNL     1     -34.181   9.844  78.805  1.00  0.00     0.093 A 
BRANCH   3  13
ATOM     13  C   UNL     1     -38.653   5.256  78.949  1.00  0.00     0.025 A 
ATOM     14  C   UNL     1     -40.029   5.490  78.870  1.00  0.00     0.016 A 
ATOM     15  C   UNL     1     -40.904   4.442  78.570  1.00  0.00     0.051 A 
ATOM     16  C   UNL     1     -40.408   3.157  78.330  1.00  0.00     0.157 A 
ATOM     17  C   UNL     1     -38.149   3.973  78.709  1.00  0.00     0.062 A 
ATOM     18  C   UNL     1     -39.020   2.919  78.395  1.00  0.00     0.158 A 
BRANCH  16  19
ATOM     19  O   UNL     1     -41.278   2.125  77.991  1.00  0.00    -0.504 OA
ATOM     20  H   UNL     1     -41.204   1.637  77.109  1.00  0.00     0.293 HD
ENDBRANCH  16  19
BRANCH  18  21
ATOM     21  O   UNL     1     -38.484   1.660  78.117  1.00  0.00    -0.504 OA
ATOM     22  H   UNL     1     -39.045   0.926  77.709  1.00  0.00     0.293 HD
ENDBRANCH  18  21
ENDBRANCH   3  13
BRANCH  10  23
ATOM     23  O   UNL     1     -34.554   9.998  81.145  1.00  0.00    -0.507 OA
ATOM     24  H   UNL     1     -35.200  10.368  81.822  1.00  0.00     0.293 HD
ENDBRANCH  10  23
BRANCH  11  25
ATOM     25  O   UNL     1     -33.813   9.860  76.408  1.00  0.00    -0.508 OA
ATOM     26  H   UNL     1     -33.607   9.269  75.616  1.00  0.00     0.293 HD
ENDBRANCH  11  25
ENDBRANCH   1   2
BRANCH   1  27
ATOM     27  C   UNL     1     -38.213   4.794  81.917  1.00  0.00     0.339 C 
ATOM     28  C   UNL     1     -37.244   4.543  83.094  1.00  0.00     0.214 C 
ATOM     29  O   UNL     1     -39.506   4.333  82.261  1.00  0.00    -0.332 OA
ATOM     30  C   UNL     1     -37.522   3.178  83.781  1.00  0.00     0.180 C 
ATOM     31  C   UNL     1     -39.569   2.904  82.292  1.00  0.00     0.179 C 
ATOM     32  C   UNL     1     -38.250   2.232  82.816  1.00  0.00     0.177 C 
BRANCH  28  33
ATOM     33  O   UNL     1     -35.918   4.613  82.621  1.00  0.00    -0.384 OA
ATOM     34  H   UNL     1     -35.923   4.247  81.697  1.00  0.00     0.211 HD
ENDBRANCH  28  33
BRANCH  30  35
ATOM     35  O   UNL     1     -36.322   2.587  84.208  1.00  0.00    -0.387 OA
ATOM     36  H   UNL     1     -35.639   2.801  83.514  1.00  0.00     0.211 HD
ENDBRANCH  30  35
BRANCH  31  37
ATOM     37  C   UNL     1     -40.814   2.518  83.121  1.00  0.00     0.191 C 
BRANCH  37  38
ATOM     38  O   UNL     1     -41.987   2.994  82.507  1.00  0.00    -0.394 OA
ATOM     39  H   UNL     1     -42.133   3.913  82.862  1.00  0.00     0.210 HD
ENDBRANCH  37  38
ENDBRANCH  31  37
BRANCH  32  40
ATOM     40  O   UNL     1     -38.503   0.991  83.431  1.00  0.00    -0.387 OA
ATOM     41  H   UNL     1     -38.578   1.170  84.409  1.00  0.00     0.211 HD
ENDBRANCH  32  40
ENDBRANCH   1  27
TORSDOF 12
ENDMDL
MODEL 5
REMARK VINA RESULT:    -6.419      1.947      5.660
REMARK INTER + INTRA:         -10.510
REMARK INTER:                  -9.433
REMARK INTRA:                  -1.077
REMARK UNBOUND:                -1.089
REMARK SMILES O=c1c(O[C@@H]2O[C@H](CO)[C@H](O)[C@@H](O)[C@H]2O)c(-c2ccc(O)c(O)c2)oc2cc(O)cc(O)c12
REMARK SMILES IDX 4 1 3 2 16 3 25 4 2 5 26 6 1 7 33 8 27 9 31 10 28 11 30 12
REMARK SMILES IDX 17 13 18 14 19 15 20 16 24 17 22 18 21 19 23 21 32 23 29 25
REMARK SMILES IDX 5 27 14 28 6 29 12 30 7 31 10 32 15 33 13 35 8 37 9 38 11 40
REMARK H PARENT 21 20 23 22 32 24 29 26 15 34 13 36 9 39 11 41
REMARK Flexibility Score: inf
ROOT
ATOM      1  O   UNL     1     -39.384   6.219  81.607  1.00  0.00    -0.454 OA
ENDROOT
BRANCH   1   2
ATOM      2  C   UNL     1     -38.490   6.726  80.661  1.00  0.00     0.214 A 
ATOM      3  C   UNL     1     -38.404   6.184  79.369  1.00  0.00     0.180 A 
ATOM      4  O   UNL     1     -37.527   6.674  78.505  1.00  0.00    -0.452 OA
ATOM      5  C   UNL     1     -37.630   7.764  81.023  1.00  0.00     0.239 A 
ATOM      6  C   UNL     1     -36.687   7.664  78.800  1.00  0.00     0.146 A 
ATOM      7  O   UNL     1     -37.698   8.205  82.199  1.00  0.00    -0.285 OA
ATOM      8  C   UNL     1     -36.696   8.271  80.085  1.00  0.00     0.111 A 
ATOM      9  C   UNL     1     -35.779   8.087  77.822  1.00  0.00     0.094 A 
ATOM     10  C   UNL     1     -35.759   9.315  80.351  1.00  0.00     0.134 A 
ATOM     11  C   UNL     1     -34.846   9.079  78.104  1.00  0.00     0.123 A 
ATOM     12  C   UNL     1     -34.828   9.676  79.366  1.00  0.00     0.093 A 
BRANCH   3  13
ATOM     13  C   UNL     1     -39.211   5.017  78.979  1.00  0.00     0.025 A 
ATOM     14  C   UNL     1     -40.598   5.155  78.875  1.00  0.00     0.016 A 
ATOM     15  C   UNL     1     -41.386   4.062  78.501  1.00  0.00     0.051 A 
ATOM     16  C   UNL     1     -40.791   2.830  78.212  1.00  0.00     0.157 A 
ATOM     17  C   UNL     1     -38.608   3.788  78.691  1.00  0.00     0.062 A 
ATOM     18  C   UNL     1     -39.391   2.690  78.303  1.00  0.00     0.158 A 
BRANCH  16  19
ATOM     19  O   UNL     1     -41.575   1.756  77.800  1.00  0.00    -0.504 OA
ATOM     20  H   UNL     1     -42.217   1.295  78.431  1.00  0.00     0.293 HD
ENDBRANCH  16  19
BRANCH  18  21
ATOM     21  O   UNL     1     -38.758   1.489  77.979  1.00  0.00    -0.504 OA
ATOM     22  H   UNL     1     -38.877   1.057  77.074  1.00  0.00     0.293 HD
ENDBRANCH  18  21
ENDBRANCH   3  13
BRANCH  10  23
ATOM     23  O   UNL     1     -35.703  10.040  81.543  1.00  0.00    -0.507 OA
ATOM     24  H   UNL     1     -35.805   9.667  82.472  1.00  0.00     0.293 HD
ENDBRANCH  10  23
BRANCH  11  25
ATOM     25  O   UNL     1     -33.945   9.475  77.116  1.00  0.00    -0.508 OA
ATOM     26  H   UNL     1     -33.091   8.966  76.944  1.00  0.00     0.293 HD
ENDBRANCH  11  25
ENDBRANCH   1   2
BRANCH   1  27
ATOM     27  C   UNL     1     -39.062   5.168  82.520  1.00  0.00     0.339 C 
ATOM     28  C   UNL     1     -39.824   3.902  82.070  1.00  0.00     0.214 C 
ATOM     29  O   UNL     1     -37.671   4.907  82.524  1.00  0.00    -0.332 OA
ATOM     30  C   UNL     1     -39.187   2.613  82.656  1.00  0.00     0.180 C 
ATOM     31  C   UNL     1     -37.297   4.036  83.596  1.00  0.00     0.179 C 
ATOM     32  C   UNL     1     -38.377   2.943  83.917  1.00  0.00     0.177 C 
BRANCH  28  33
ATOM     33  O   UNL     1     -41.176   4.019  82.451  1.00  0.00    -0.384 OA
ATOM     34  H   UNL     1     -41.341   4.983  82.632  1.00  0.00     0.211 HD
ENDBRANCH  28  33
BRANCH  30  35
ATOM     35  O   UNL     1     -40.179   1.669  82.963  1.00  0.00    -0.387 OA
ATOM     36  H   UNL     1     -39.811   0.778  82.707  1.00  0.00     0.211 HD
ENDBRANCH  30  35
BRANCH  31  37
ATOM     37  C   UNL     1     -35.918   3.438  83.241  1.00  0.00     0.191 C 
BRANCH  37  38
ATOM     38  O   UNL     1     -35.070   3.440  84.364  1.00  0.00    -0.394 OA
ATOM     39  H   UNL     1     -34.148   3.299  84.015  1.00  0.00     0.210 HD
ENDBRANCH  37  38
ENDBRANCH  31  37
BRANCH  32  40
ATOM     40  O   UNL     1     -37.798   1.778  84.456  1.00  0.00    -0.387 OA
ATOM     41  H   UNL     1     -38.552   1.162  84.674  1.00  0.00     0.211 HD
ENDBRANCH  32  40
ENDBRANCH   1  27
TORSDOF 12
ENDMDL
MODEL 6
REMARK VINA RESULT:    -6.408      2.836      6.888
REMARK INTER + INTRA:         -10.494
REMARK INTER:                  -9.498
REMARK INTRA:                  -0.996
REMARK UNBOUND:                -1.089
REMARK SMILES O=c1c(O[C@@H]2O[C@H](CO)[C@H](O)[C@@H](O)[C@H]2O)c(-c2ccc(O)c(O)c2)oc2cc(O)cc(O)c12
REMARK SMILES IDX 4 1 3 2 16 3 25 4 2 5 26 6 1 7 33 8 27 9 31 10 28 11 30 12
REMARK SMILES IDX 17 13 18 14 19 15 20 16 24 17 22 18 21 19 23 21 32 23 29 25
REMARK SMILES IDX 5 27 14 28 6 29 12 30 7 31 10 32 15 33 13 35 8 37 9 38 11 40
REMARK H PARENT 21 20 23 22 32 24 29 26 15 34 13 36 9 39 11 41
REMARK Flexibility Score: inf
ROOT
ATOM      1  O   UNL     1     -38.896   5.137  78.760  1.00  0.00    -0.454 OA
ENDROOT
BRANCH   1   2
ATOM      2  C   UNL     1     -37.824   6.016  78.926  1.00  0.00     0.214 A 
ATOM      3  C   UNL     1     -37.994   7.407  78.837  1.00  0.00     0.180 A 
ATOM      4  O   UNL     1     -36.950   8.210  78.976  1.00  0.00    -0.452 OA
ATOM      5  C   UNL     1     -36.545   5.499  79.139  1.00  0.00     0.239 A 
ATOM      6  C   UNL     1     -35.711   7.767  79.182  1.00  0.00     0.146 A 
ATOM      7  O   UNL     1     -36.411   4.249  79.174  1.00  0.00    -0.285 OA
ATOM      8  C   UNL     1     -35.440   6.376  79.281  1.00  0.00     0.111 A 
ATOM      9  C   UNL     1     -34.674   8.701  79.285  1.00  0.00     0.094 A 
ATOM     10  C   UNL     1     -34.089   5.958  79.483  1.00  0.00     0.134 A 
ATOM     11  C   UNL     1     -33.356   8.282  79.445  1.00  0.00     0.123 A 
ATOM     12  C   UNL     1     -33.068   6.918  79.526  1.00  0.00     0.093 A 
BRANCH   3  13
ATOM     13  C   UNL     1     -39.303   7.992  78.502  1.00  0.00     0.025 A 
ATOM     14  C   UNL     1     -40.269   8.111  79.505  1.00  0.00     0.016 A 
ATOM     15  C   UNL     1     -41.518   8.668  79.212  1.00  0.00     0.051 A 
ATOM     16  C   UNL     1     -41.801   9.126  77.922  1.00  0.00     0.157 A 
ATOM     17  C   UNL     1     -39.578   8.448  77.209  1.00  0.00     0.062 A 
ATOM     18  C   UNL     1     -40.824   9.020  76.911  1.00  0.00     0.158 A 
BRANCH  16  19
ATOM     19  O   UNL     1     -43.030   9.718  77.646  1.00  0.00    -0.504 OA
ATOM     20  H   UNL     1     -43.507  10.293  78.327  1.00  0.00     0.293 HD
ENDBRANCH  16  19
BRANCH  18  21
ATOM     21  O   UNL     1     -41.054   9.507  75.623  1.00  0.00    -0.504 OA
ATOM     22  H   UNL     1     -41.497   8.938  74.915  1.00  0.00     0.293 HD
ENDBRANCH  18  21
ENDBRANCH   3  13
BRANCH  10  23
ATOM     23  O   UNL     1     -33.692   4.632  79.663  1.00  0.00    -0.507 OA
ATOM     24  H   UNL     1     -33.974   4.022  80.412  1.00  0.00     0.293 HD
ENDBRANCH  10  23
BRANCH  11  25
ATOM     25  O   UNL     1     -32.339   9.232  79.533  1.00  0.00    -0.508 OA
ATOM     26  H   UNL     1     -31.384   8.967  79.724  1.00  0.00     0.293 HD
ENDBRANCH  11  25
ENDBRANCH   1   2
BRANCH   1  27
ATOM     27  C   UNL     1     -39.825   4.813  79.796  1.00  0.00     0.339 C 
ATOM     28  C   UNL     1     -40.943   3.946  79.173  1.00  0.00     0.214 C 
ATOM     29  O   UNL     1     -39.193   4.093  80.838  1.00  0.00    -0.332 OA
ATOM     30  C   UNL     1     -41.709   3.139  80.255  1.00  0.00     0.180 C 
ATOM     31  C   UNL     1     -40.038   3.971  81.986  1.00  0.00     0.179 C 
ATOM     32  C   UNL     1     -41.558   3.807  81.628  1.00  0.00     0.177 C 
BRANCH  28  33
ATOM     33  O   UNL     1     -41.818   4.778  78.445  1.00  0.00    -0.384 OA
ATOM     34  H   UNL     1     -41.846   4.423  77.517  1.00  0.00     0.211 HD
ENDBRANCH  28  33
BRANCH  30  35
ATOM     35  O   UNL     1     -43.069   3.038  79.925  1.00  0.00    -0.387 OA
ATOM     36  H   UNL     1     -43.521   3.820  80.347  1.00  0.00     0.211 HD
ENDBRANCH  30  35
BRANCH  31  37
ATOM     37  C   UNL     1     -39.488   2.804  82.837  1.00  0.00     0.191 C 
BRANCH  37  38
ATOM     38  O   UNL     1     -38.964   1.792  82.012  1.00  0.00    -0.394 OA
ATOM     39  H   UNL     1     -38.223   1.371  82.527  1.00  0.00     0.210 HD
ENDBRANCH  37  38
ENDBRANCH  31  37
BRANCH  32  40
ATOM     40  O   UNL     1     -42.252   3.081  82.615  1.00  0.00    -0.387 OA
ATOM     41  H   UNL     1     -43.133   2.834  82.217  1.00  0.00     0.211 HD
ENDBRANCH  32  40
ENDBRANCH   1  27
TORSDOF 12
ENDMDL
MODEL 7
REMARK VINA RESULT:    -6.392      2.750      5.173
REMARK INTER + INTRA:         -10.471
REMARK INTER:                  -9.189
REMARK INTRA:                  -1.282
REMARK UNBOUND:                -1.089
REMARK SMILES O=c1c(O[C@@H]2O[C@H](CO)[C@H](O)[C@@H](O)[C@H]2O)c(-c2ccc(O)c(O)c2)oc2cc(O)cc(O)c12
REMARK SMILES IDX 4 1 3 2 16 3 25 4 2 5 26 6 1 7 33 8 27 9 31 10 28 11 30 12
REMARK SMILES IDX 17 13 18 14 19 15 20 16 24 17 22 18 21 19 23 21 32 23 29 25
REMARK SMILES IDX 5 27 14 28 6 29 12 30 7 31 10 32 15 33 13 35 8 37 9 38 11 40
REMARK H PARENT 21 20 23 22 32 24 29 26 15 34 13 36 9 39 11 41
REMARK Flexibility Score: inf
ROOT
ATOM      1  O   UNL     1     -37.652   7.862  80.649  1.00  0.00    -0.454 OA
ENDROOT
BRANCH   1   2
ATOM      2  C   UNL     1     -38.507   6.806  80.977  1.00  0.00     0.214 A 
ATOM      3  C   UNL     1     -39.606   6.474  80.169  1.00  0.00     0.180 A 
ATOM      4  O   UNL     1     -40.409   5.482  80.524  1.00  0.00    -0.452 OA
ATOM      5  C   UNL     1     -38.290   6.096  82.159  1.00  0.00     0.239 A 
ATOM      6  C   UNL     1     -40.245   4.773  81.639  1.00  0.00     0.146 A 
ATOM      7  O   UNL     1     -37.323   6.439  82.886  1.00  0.00    -0.285 OA
ATOM      8  C   UNL     1     -39.164   5.042  82.522  1.00  0.00     0.111 A 
ATOM      9  C   UNL     1     -41.170   3.766  81.935  1.00  0.00     0.094 A 
ATOM     10  C   UNL     1     -39.049   4.262  83.714  1.00  0.00     0.134 A 
ATOM     11  C   UNL     1     -41.070   3.037  83.117  1.00  0.00     0.123 A 
ATOM     12  C   UNL     1     -40.025   3.298  84.005  1.00  0.00     0.093 A 
BRANCH   3  13
ATOM     13  C   UNL     1     -39.938   7.267  78.974  1.00  0.00     0.025 A 
ATOM     14  C   UNL     1     -40.866   8.306  79.085  1.00  0.00     0.016 A 
ATOM     15  C   UNL     1     -41.193   9.076  77.964  1.00  0.00     0.051 A 
ATOM     16  C   UNL     1     -40.582   8.825  76.733  1.00  0.00     0.157 A 
ATOM     17  C   UNL     1     -39.321   7.008  77.746  1.00  0.00     0.062 A 
ATOM     18  C   UNL     1     -39.635   7.786  76.620  1.00  0.00     0.158 A 
BRANCH  16  19
ATOM     19  O   UNL     1     -40.879   9.621  75.631  1.00  0.00    -0.504 OA
ATOM     20  H   UNL     1     -40.192   9.814  74.915  1.00  0.00     0.293 HD
ENDBRANCH  16  19
BRANCH  18  21
ATOM     21  O   UNL     1     -38.970   7.535  75.419  1.00  0.00    -0.504 OA
ATOM     22  H   UNL     1     -38.599   6.620  75.202  1.00  0.00     0.293 HD
ENDBRANCH  18  21
ENDBRANCH   3  13
BRANCH  10  23
ATOM     23  O   UNL     1     -38.004   4.374  84.631  1.00  0.00    -0.507 OA
ATOM     24  H   UNL     1     -37.351   5.137  84.701  1.00  0.00     0.293 HD
ENDBRANCH  10  23
BRANCH  11  25
ATOM     25  O   UNL     1     -42.011   2.046  83.394  1.00  0.00    -0.508 OA
ATOM     26  H   UNL     1     -42.643   2.121  84.177  1.00  0.00     0.293 HD
ENDBRANCH  11  25
ENDBRANCH   1   2
BRANCH   1  27
ATOM     27  C   UNL     1     -36.426   7.698  79.933  1.00  0.00     0.339 C 
ATOM     28  C   UNL     1     -35.317   8.423  80.727  1.00  0.00     0.214 C 
ATOM     29  O   UNL     1     -36.095   6.328  79.801  1.00  0.00    -0.332 OA
ATOM     30  C   UNL     1     -33.905   7.908  80.336  1.00  0.00     0.180 C 
ATOM     31  C   UNL     1     -35.011   6.130  78.888  1.00  0.00     0.179 C 
ATOM     32  C   UNL     1     -33.936   7.272  78.940  1.00  0.00     0.177 C 
BRANCH  28  33
ATOM     33  O   UNL     1     -35.429   9.811  80.510  1.00  0.00    -0.384 OA
ATOM     34  H   UNL     1     -35.427   9.949  79.526  1.00  0.00     0.211 HD
ENDBRANCH  28  33
BRANCH  30  35
ATOM     35  O   UNL     1     -32.973   8.957  80.359  1.00  0.00    -0.387 OA
ATOM     36  H   UNL     1     -33.488   9.796  80.194  1.00  0.00     0.211 HD
ENDBRANCH  30  35
BRANCH  31  37
ATOM     37  C   UNL     1     -34.421   4.731  79.175  1.00  0.00     0.191 C 
BRANCH  37  38
ATOM     38  O   UNL     1     -33.879   4.676  80.473  1.00  0.00    -0.394 OA
ATOM     39  H   UNL     1     -33.530   5.588  80.666  1.00  0.00     0.210 HD
ENDBRANCH  37  38
ENDBRANCH  31  37
BRANCH  32  40
ATOM     40  O   UNL     1     -32.658   6.805  78.577  1.00  0.00    -0.387 OA
ATOM     41  H   UNL     1     -32.000   7.426  78.997  1.00  0.00     0.211 HD
ENDBRANCH  32  40
ENDBRANCH   1  27
TORSDOF 12
ENDMDL
MODEL 8
REMARK VINA RESULT:    -6.352      1.509      2.259
REMARK INTER + INTRA:         -10.412
REMARK INTER:                  -9.205
REMARK INTRA:                  -1.207
REMARK UNBOUND:                -1.089
REMARK SMILES O=c1c(O[C@@H]2O[C@H](CO)[C@H](O)[C@@H](O)[C@H]2O)c(-c2ccc(O)c(O)c2)oc2cc(O)cc(O)c12
REMARK SMILES IDX 4 1 3 2 16 3 25 4 2 5 26 6 1 7 33 8 27 9 31 10 28 11 30 12
REMARK SMILES IDX 17 13 18 14 19 15 20 16 24 17 22 18 21 19 23 21 32 23 29 25
REMARK SMILES IDX 5 27 14 28 6 29 12 30 7 31 10 32 15 33 13 35 8 37 9 38 11 40
REMARK H PARENT 21 20 23 22 32 24 29 26 15 34 13 36 9 39 11 41
REMARK Flexibility Score: inf
ROOT
ATOM      1  O   UNL     1     -37.962   6.973  81.319  1.00  0.00    -0.454 OA
ENDROOT
BRANCH   1   2
ATOM      2  C   UNL     1     -38.600   6.131  80.405  1.00  0.00     0.214 A 
ATOM      3  C   UNL     1     -38.196   6.065  79.062  1.00  0.00     0.180 A 
ATOM      4  O   UNL     1     -38.839   5.273  78.217  1.00  0.00    -0.452 OA
ATOM      5  C   UNL     1     -39.693   5.372  80.825  1.00  0.00     0.239 A 
ATOM      6  C   UNL     1     -39.886   4.529  78.568  1.00  0.00     0.146 A 
ATOM      7  O   UNL     1     -40.062   5.479  82.022  1.00  0.00    -0.285 OA
ATOM      8  C   UNL     1     -40.371   4.534  79.904  1.00  0.00     0.111 A 
ATOM      9  C   UNL     1     -40.513   3.749  77.589  1.00  0.00     0.094 A 
ATOM     10  C   UNL     1     -41.509   3.730  80.218  1.00  0.00     0.134 A 
ATOM     11  C   UNL     1     -41.643   2.999  77.897  1.00  0.00     0.123 A 
ATOM     12  C   UNL     1     -42.145   3.005  79.200  1.00  0.00     0.093 A 
BRANCH   3  13
ATOM     13  C   UNL     1     -37.121   6.930  78.549  1.00  0.00     0.025 A 
ATOM     14  C   UNL     1     -37.436   8.222  78.117  1.00  0.00     0.016 A 
ATOM     15  C   UNL     1     -36.431   9.064  77.631  1.00  0.00     0.051 A 
ATOM     16  C   UNL     1     -35.105   8.627  77.591  1.00  0.00     0.157 A 
ATOM     17  C   UNL     1     -35.795   6.486  78.512  1.00  0.00     0.062 A 
ATOM     18  C   UNL     1     -34.780   7.330  78.038  1.00  0.00     0.158 A 
BRANCH  16  19
ATOM     19  O   UNL     1     -34.101   9.484  77.145  1.00  0.00    -0.504 OA
ATOM     20  H   UNL     1     -34.130   9.901  76.225  1.00  0.00     0.293 HD
ENDBRANCH  16  19
BRANCH  18  21
ATOM     21  O   UNL     1     -33.460   6.876  78.055  1.00  0.00    -0.504 OA
ATOM     22  H   UNL     1     -32.968   6.715  78.923  1.00  0.00     0.293 HD
ENDBRANCH  18  21
ENDBRANCH   3  13
BRANCH  10  23
ATOM     23  O   UNL     1     -42.047   3.591  81.499  1.00  0.00    -0.507 OA
ATOM     24  H   UNL     1     -41.676   3.987  82.347  1.00  0.00     0.293 HD
ENDBRANCH  10  23
BRANCH  11  25
ATOM     25  O   UNL     1     -42.256   2.239  76.902  1.00  0.00    -0.508 OA
ATOM     26  H   UNL     1     -42.142   2.459  75.923  1.00  0.00     0.293 HD
ENDBRANCH  11  25
ENDBRANCH   1   2
BRANCH   1  27
ATOM     27  C   UNL     1     -36.651   6.736  81.835  1.00  0.00     0.339 C 
ATOM     28  C   UNL     1     -36.519   7.517  83.162  1.00  0.00     0.214 C 
ATOM     29  O   UNL     1     -36.441   5.357  82.075  1.00  0.00    -0.332 OA
ATOM     30  C   UNL     1     -35.369   6.958  84.042  1.00  0.00     0.180 C 
ATOM     31  C   UNL     1     -35.068   5.071  82.359  1.00  0.00     0.179 C 
ATOM     32  C   UNL     1     -34.351   6.204  83.176  1.00  0.00     0.177 C 
BRANCH  28  33
ATOM     33  O   UNL     1     -36.320   8.883  82.873  1.00  0.00    -0.384 OA
ATOM     34  H   UNL     1     -36.448   9.378  83.725  1.00  0.00     0.211 HD
ENDBRANCH  28  33
BRANCH  30  35
ATOM     35  O   UNL     1     -34.726   7.997  84.733  1.00  0.00    -0.387 OA
ATOM     36  H   UNL     1     -33.820   7.657  84.974  1.00  0.00     0.211 HD
ENDBRANCH  30  35
BRANCH  31  37
ATOM     37  C   UNL     1     -35.022   3.697  83.063  1.00  0.00     0.191 C 
BRANCH  37  38
ATOM     38  O   UNL     1     -33.712   3.185  83.070  1.00  0.00    -0.394 OA
ATOM     39  H   UNL     1     -33.801   2.195  83.134  1.00  0.00     0.210 HD
ENDBRANCH  37  38
ENDBRANCH  31  37
BRANCH  32  40
ATOM     40  O   UNL     1     -33.303   5.696  83.967  1.00  0.00    -0.387 OA
ATOM     41  H   UNL     1     -33.587   4.787  84.264  1.00  0.00     0.211 HD
ENDBRANCH  32  40
ENDBRANCH   1  27
TORSDOF 12
ENDMDL
MODEL 9
REMARK VINA RESULT:    -6.326      2.249      6.828
REMARK INTER + INTRA:         -10.374
REMARK INTER:                  -9.021
REMARK INTRA:                  -1.353
REMARK UNBOUND:                -1.089
REMARK SMILES O=c1c(O[C@@H]2O[C@H](CO)[C@H](O)[C@@H](O)[C@H]2O)c(-c2ccc(O)c(O)c2)oc2cc(O)cc(O)c12
REMARK SMILES IDX 4 1 3 2 16 3 25 4 2 5 26 6 1 7 33 8 27 9 31 10 28 11 30 12
REMARK SMILES IDX 17 13 18 14 19 15 20 16 24 17 22 18 21 19 23 21 32 23 29 25
REMARK SMILES IDX 5 27 14 28 6 29 12 30 7 31 10 32 15 33 13 35 8 37 9 38 11 40
REMARK H PARENT 21 20 23 22 32 24 29 26 15 34 13 36 9 39 11 41
REMARK Flexibility Score: inf
ROOT
ATOM      1  O   UNL     1     -37.788   4.288  80.473  1.00  0.00    -0.454 OA
ENDROOT
BRANCH   1   2
ATOM      2  C   UNL     1     -36.827   5.169  80.973  1.00  0.00     0.214 A 
ATOM      3  C   UNL     1     -36.601   6.422  80.381  1.00  0.00     0.180 A 
ATOM      4  O   UNL     1     -35.665   7.222  80.867  1.00  0.00    -0.452 OA
ATOM      5  C   UNL     1     -36.039   4.777  82.057  1.00  0.00     0.239 A 
ATOM      6  C   UNL     1     -34.889   6.896  81.899  1.00  0.00     0.146 A 
ATOM      7  O   UNL     1     -36.232   3.633  82.543  1.00  0.00    -0.285 OA
ATOM      8  C   UNL     1     -35.039   5.646  82.558  1.00  0.00     0.111 A 
ATOM      9  C   UNL     1     -33.908   7.804  82.314  1.00  0.00     0.094 A 
ATOM     10  C   UNL     1     -34.166   5.342  83.647  1.00  0.00     0.134 A 
ATOM     11  C   UNL     1     -33.038   7.482  83.351  1.00  0.00     0.123 A 
ATOM     12  C   UNL     1     -33.159   6.252  84.000  1.00  0.00     0.093 A 
BRANCH   3  13
ATOM     13  C   UNL     1     -37.330   6.832  79.169  1.00  0.00     0.025 A 
ATOM     14  C   UNL     1     -36.919   6.333  77.929  1.00  0.00     0.016 A 
ATOM     15  C   UNL     1     -37.599   6.703  76.765  1.00  0.00     0.051 A 
ATOM     16  C   UNL     1     -38.702   7.558  76.834  1.00  0.00     0.157 A 
ATOM     17  C   UNL     1     -38.433   7.687  79.247  1.00  0.00     0.062 A 
ATOM     18  C   UNL     1     -39.128   8.053  78.084  1.00  0.00     0.158 A 
BRANCH  16  19
ATOM     19  O   UNL     1     -39.401   7.890  75.677  1.00  0.00    -0.504 OA
ATOM     20  H   UNL     1     -40.336   8.275  75.714  1.00  0.00     0.293 HD
ENDBRANCH  16  19
BRANCH  18  21
ATOM     21  O   UNL     1     -40.252   8.872  78.197  1.00  0.00    -0.504 OA
ATOM     22  H   UNL     1     -40.287   9.783  77.763  1.00  0.00     0.293 HD
ENDBRANCH  18  21
ENDBRANCH   3  13
BRANCH  10  23
ATOM     23  O   UNL     1     -34.246   4.184  84.422  1.00  0.00    -0.507 OA
ATOM     24  H   UNL     1     -34.530   4.131  85.387  1.00  0.00     0.293 HD
ENDBRANCH  10  23
BRANCH  11  25
ATOM     25  O   UNL     1     -32.062   8.399  83.739  1.00  0.00    -0.508 OA
ATOM     26  H   UNL     1     -31.407   8.786  83.076  1.00  0.00     0.293 HD
ENDBRANCH  11  25
ENDBRANCH   1   2
BRANCH   1  27
ATOM     27  C   UNL     1     -39.179   4.367  80.790  1.00  0.00     0.339 C 
ATOM     28  C   UNL     1     -39.968   3.784  79.597  1.00  0.00     0.214 C 
ATOM     29  O   UNL     1     -39.476   3.629  81.960  1.00  0.00    -0.332 OA
ATOM     30  C   UNL     1     -41.404   3.362  80.013  1.00  0.00     0.180 C 
ATOM     31  C   UNL     1     -40.803   3.890  82.430  1.00  0.00     0.179 C 
ATOM     32  C   UNL     1     -41.839   4.121  81.274  1.00  0.00     0.177 C 
BRANCH  28  33
ATOM     33  O   UNL     1     -40.000   4.735  78.557  1.00  0.00    -0.384 OA
ATOM     34  H   UNL     1     -40.108   5.625  78.985  1.00  0.00     0.211 HD
ENDBRANCH  28  33
BRANCH  30  35
ATOM     35  O   UNL     1     -42.312   3.612  78.972  1.00  0.00    -0.387 OA
ATOM     36  H   UNL     1     -42.340   2.784  78.417  1.00  0.00     0.211 HD
ENDBRANCH  30  35
BRANCH  31  37
ATOM     37  C   UNL     1     -41.193   2.727  83.368  1.00  0.00     0.191 C 
BRANCH  37  38
ATOM     38  O   UNL     1     -40.625   1.518  82.925  1.00  0.00    -0.394 OA
ATOM     39  H   UNL     1     -40.362   1.018  83.746  1.00  0.00     0.210 HD
ENDBRANCH  37  38
ENDBRANCH  31  37
BRANCH  32  40
ATOM     40  O   UNL     1     -43.142   3.746  81.656  1.00  0.00    -0.387 OA
ATOM     41  H   UNL     1     -43.767   4.320  81.132  1.00  0.00     0.211 HD
ENDBRANCH  32  40
ENDBRANCH   1  27
TORSDOF 12
ENDMDL
