MODEL 1
REMARK VINA RESULT:    -5.171      0.000      0.000
REMARK INTER + INTRA:         -11.496
REMARK INTER:                  -9.705
REMARK INTRA:                  -1.791
REMARK UNBOUND:                -1.791
REMARK SMILES CCCCCCCCC=CCCCCCCCC(=O)[O-]
REMARK SMILES IDX 10 1 9 2 11 3 12 4 13 5 14 6 15 7 16 8 17 9 18 10 19 11
REMARK SMILES IDX 20 12 8 13 7 14 6 15 5 16 4 17 3 18 2 19 1 20
REMARK H PARENT
REMARK Flexibility Score: inf
ROOT
ATOM      1  C   UNL     1      19.764  41.569   1.322  1.00  0.00    -0.031 C 
ATOM      2  C   UNL     1      20.924  41.284   1.932  1.00  0.00    -0.031 C 
ENDROOT
BRANCH   1   3
ATOM      3  C   UNL     1      18.480  40.892   1.713  1.00  0.00     0.027 C 
BRANCH   3   4
ATOM      4  C   UNL     1      17.291  41.860   1.620  1.00  0.00     0.004 C 
BRANCH   4   5
ATOM      5  C   UNL     1      17.703  43.323   1.850  1.00  0.00     0.000 C 
BRANCH   5   6
ATOM      6  C   UNL     1      17.580  43.746   3.324  1.00  0.00     0.000 C 
BRANCH   6   7
ATOM      7  C   UNL     1      18.941  44.053   3.973  1.00  0.00     0.000 C 
BRANCH   7   8
ATOM      8  C   UNL     1      19.427  43.001   4.987  1.00  0.00     0.006 C 
BRANCH   8   9
ATOM      9  C   UNL     1      18.333  42.001   5.383  1.00  0.00     0.053 C 
BRANCH   9  10
ATOM     10  C   UNL     1      18.898  40.619   5.478  1.00  0.00     0.041 C 
ATOM     11  O   UNL     1      20.123  40.420   5.268  1.00  0.00    -0.550 OA
ATOM     12  O   UNL     1      18.081  39.559   5.849  1.00  0.00    -0.550 OA
ENDBRANCH   9  10
ENDBRANCH   8   9
ENDBRANCH   7   8
ENDBRANCH   6   7
ENDBRANCH   5   6
ENDBRANCH   4   5
ENDBRANCH   3   4
ENDBRANCH   1   3
BRANCH   2  13
ATOM     13  C   UNL     1      22.213  41.953   1.531  1.00  0.00     0.027 C 
BRANCH  13  14
ATOM     14  C   UNL     1      23.257  40.948   1.024  1.00  0.00     0.004 C 
BRANCH  14  15
ATOM     15  C   UNL     1      22.710  39.513   0.989  1.00  0.00     0.000 C 
BRANCH  15  16
ATOM     16  C   UNL     1      23.842  38.489   1.151  1.00  0.00     0.000 C 
BRANCH  16  17
ATOM     17  C   UNL     1      23.336  37.038   1.116  1.00  0.00    -0.000 C 
BRANCH  17  18
ATOM     18  C   UNL     1      24.482  36.012   1.101  1.00  0.00    -0.000 C 
BRANCH  18  19
ATOM     19  C   UNL     1      24.420  35.076  -0.117  1.00  0.00    -0.003 C 
ATOM     20  C   UNL     1      23.040  35.057  -0.776  1.00  0.00     0.004 C 
ENDBRANCH  18  19
ENDBRANCH  17  18
ENDBRANCH  16  17
ENDBRANCH  15  16
ENDBRANCH  14  15
ENDBRANCH  13  14
ENDBRANCH   2  13
TORSDOF 15
ENDMDL
MODEL 2
REMARK VINA RESULT:    -5.041      1.352      2.198
REMARK INTER + INTRA:         -11.252
REMARK INTER:                  -9.388
REMARK INTRA:                  -1.864
REMARK UNBOUND:                -1.791
REMARK SMILES CCCCCCCCC=CCCCCCCCC(=O)[O-]
REMARK SMILES IDX 10 1 9 2 11 3 12 4 13 5 14 6 15 7 16 8 17 9 18 10 19 11
REMARK SMILES IDX 20 12 8 13 7 14 6 15 5 16 4 17 3 18 2 19 1 20
REMARK H PARENT
REMARK Flexibility Score: inf
ROOT
ATOM      1  C   UNL     1      21.201  42.958   2.276  1.00  0.00    -0.031 C 
ATOM      2  C   UNL     1      21.188  42.454   1.033  1.00  0.00    -0.031 C 
ENDROOT
BRANCH   1   3
ATOM      3  C   UNL     1      20.167  43.948   2.737  1.00  0.00     0.027 C 
BRANCH   3   4
ATOM      4  C   UNL     1      18.988  44.016   1.754  1.00  0.00     0.004 C 
BRANCH   4   5
ATOM      5  C   UNL     1      17.763  43.229   2.247  1.00  0.00     0.000 C 
BRANCH   5   6
ATOM      6  C   UNL     1      17.468  41.991   1.383  1.00  0.00     0.000 C 
BRANCH   6   7
ATOM      7  C   UNL     1      18.138  40.714   1.921  1.00  0.00     0.000 C 
BRANCH   7   8
ATOM      8  C   UNL     1      18.530  40.767   3.409  1.00  0.00     0.006 C 
BRANCH   8   9
ATOM      9  C   UNL     1      19.493  39.644   3.814  1.00  0.00     0.053 C 
BRANCH   9  10
ATOM     10  C   UNL     1      18.955  38.894   4.992  1.00  0.00     0.041 C 
ATOM     11  O   UNL     1      18.239  39.483   5.844  1.00  0.00    -0.550 OA
ATOM     12  O   UNL     1      19.201  37.534   5.121  1.00  0.00    -0.550 OA
ENDBRANCH   9  10
ENDBRANCH   8   9
ENDBRANCH   7   8
ENDBRANCH   6   7
ENDBRANCH   5   6
ENDBRANCH   4   5
ENDBRANCH   3   4
ENDBRANCH   1   3
BRANCH   2  13
ATOM     13  C   UNL     1      22.232  41.473   0.568  1.00  0.00     0.027 C 
BRANCH  13  14
ATOM     14  C   UNL     1      21.892  40.030   0.968  1.00  0.00     0.004 C 
BRANCH  14  15
ATOM     15  C   UNL     1      23.052  39.345   1.706  1.00  0.00     0.000 C 
BRANCH  15  16
ATOM     16  C   UNL     1      23.795  38.372   0.780  1.00  0.00     0.000 C 
BRANCH  16  17
ATOM     17  C   UNL     1      23.688  36.913   1.248  1.00  0.00    -0.000 C 
BRANCH  17  18
ATOM     18  C   UNL     1      22.970  36.015   0.224  1.00  0.00    -0.000 C 
BRANCH  18  19
ATOM     19  C   UNL     1      23.950  35.173  -0.610  1.00  0.00    -0.003 C 
ATOM     20  C   UNL     1      25.257  34.885   0.128  1.00  0.00     0.004 C 
ENDBRANCH  18  19
ENDBRANCH  17  18
ENDBRANCH  16  17
ENDBRANCH  15  16
ENDBRANCH  14  15
ENDBRANCH  13  14
ENDBRANCH   2  13
TORSDOF 15
ENDMDL
MODEL 3
REMARK VINA RESULT:    -4.994      2.855      3.788
REMARK INTER + INTRA:         -11.164
REMARK INTER:                  -9.876
REMARK INTRA:                  -1.289
REMARK UNBOUND:                -1.791
REMARK SMILES CCCCCCCCC=CCCCCCCCC(=O)[O-]
REMARK SMILES IDX 10 1 9 2 11 3 12 4 13 5 14 6 15 7 16 8 17 9 18 10 19 11
REMARK SMILES IDX 20 12 8 13 7 14 6 15 5 16 4 17 3 18 2 19 1 20
REMARK H PARENT
REMARK Flexibility Score: inf
ROOT
ATOM      1  C   UNL     1      21.171  41.724   1.846  1.00  0.00    -0.031 C 
ATOM      2  C   UNL     1      21.971  41.435   0.808  1.00  0.00    -0.031 C 
ENDROOT
BRANCH   1   3
ATOM      3  C   UNL     1      19.699  41.966   1.663  1.00  0.00     0.027 C 
BRANCH   3   4
ATOM      4  C   UNL     1      18.873  41.139   2.660  1.00  0.00     0.004 C 
BRANCH   4   5
ATOM      5  C   UNL     1      19.752  40.333   3.630  1.00  0.00     0.000 C 
BRANCH   5   6
ATOM      6  C   UNL     1      18.939  39.345   4.483  1.00  0.00     0.000 C 
BRANCH   6   7
ATOM      7  C   UNL     1      19.648  37.992   4.669  1.00  0.00     0.000 C 
BRANCH   7   8
ATOM      8  C   UNL     1      18.768  36.877   5.264  1.00  0.00     0.006 C 
BRANCH   8   9
ATOM      9  C   UNL     1      19.401  35.485   5.140  1.00  0.00     0.053 C 
BRANCH   9  10
ATOM     10  C   UNL     1      18.987  34.620   6.288  1.00  0.00     0.041 C 
ATOM     11  O   UNL     1      19.435  34.843   7.443  1.00  0.00    -0.550 OA
ATOM     12  O   UNL     1      18.066  33.600   6.092  1.00  0.00    -0.550 OA
ENDBRANCH   9  10
ENDBRANCH   8   9
ENDBRANCH   7   8
ENDBRANCH   6   7
ENDBRANCH   5   6
ENDBRANCH   4   5
ENDBRANCH   3   4
ENDBRANCH   1   3
BRANCH   2  13
ATOM     13  C   UNL     1      23.449  41.205   0.990  1.00  0.00     0.027 C 
BRANCH  13  14
ATOM     14  C   UNL     1      23.840  39.737   0.768  1.00  0.00     0.004 C 
BRANCH  14  15
ATOM     15  C   UNL     1      22.682  38.776   1.076  1.00  0.00     0.000 C 
BRANCH  15  16
ATOM     16  C   UNL     1      22.979  37.943   2.332  1.00  0.00     0.000 C 
BRANCH  16  17
ATOM     17  C   UNL     1      23.232  36.462   2.011  1.00  0.00    -0.000 C 
BRANCH  17  18
ATOM     18  C   UNL     1      24.591  36.229   1.328  1.00  0.00    -0.000 C 
BRANCH  18  19
ATOM     19  C   UNL     1      24.494  35.260   0.138  1.00  0.00    -0.003 C 
ATOM     20  C   UNL     1      23.085  35.188  -0.452  1.00  0.00     0.004 C 
ENDBRANCH  18  19
ENDBRANCH  17  18
ENDBRANCH  16  17
ENDBRANCH  15  16
ENDBRANCH  14  15
ENDBRANCH  13  14
ENDBRANCH   2  13
TORSDOF 15
ENDMDL
MODEL 4
REMARK VINA RESULT:    -4.967      1.617      2.448
REMARK INTER + INTRA:         -11.114
REMARK INTER:                  -9.156
REMARK INTRA:                  -1.958
REMARK UNBOUND:                -1.791
REMARK SMILES CCCCCCCCC=CCCCCCCCC(=O)[O-]
REMARK SMILES IDX 10 1 9 2 11 3 12 4 13 5 14 6 15 7 16 8 17 9 18 10 19 11
REMARK SMILES IDX 20 12 8 13 7 14 6 15 5 16 4 17 3 18 2 19 1 20
REMARK H PARENT
REMARK Flexibility Score: inf
ROOT
ATOM      1  C   UNL     1      22.010  40.323   1.373  1.00  0.00    -0.031 C 
ATOM      2  C   UNL     1      22.709  40.588   2.486  1.00  0.00    -0.031 C 
ENDROOT
BRANCH   1   3
ATOM      3  C   UNL     1      21.489  41.422   0.489  1.00  0.00     0.027 C 
BRANCH   3   4
ATOM      4  C   UNL     1      20.540  42.352   1.260  1.00  0.00     0.004 C 
BRANCH   4   5
ATOM      5  C   UNL     1      19.068  41.929   1.134  1.00  0.00     0.000 C 
BRANCH   5   6
ATOM      6  C   UNL     1      18.370  41.804   2.500  1.00  0.00     0.000 C 
BRANCH   6   7
ATOM      7  C   UNL     1      19.286  42.185   3.676  1.00  0.00     0.000 C 
BRANCH   7   8
ATOM      8  C   UNL     1      19.710  41.008   4.574  1.00  0.00     0.006 C 
BRANCH   8   9
ATOM      9  C   UNL     1      19.166  39.658   4.088  1.00  0.00     0.053 C 
BRANCH   9  10
ATOM     10  C   UNL     1      18.981  38.724   5.242  1.00  0.00     0.041 C 
ATOM     11  O   UNL     1      19.058  37.480   5.068  1.00  0.00    -0.550 OA
ATOM     12  O   UNL     1      18.775  39.230   6.518  1.00  0.00    -0.550 OA
ENDBRANCH   9  10
ENDBRANCH   8   9
ENDBRANCH   7   8
ENDBRANCH   6   7
ENDBRANCH   5   6
ENDBRANCH   4   5
ENDBRANCH   3   4
ENDBRANCH   1   3
BRANCH   2  13
ATOM     13  C   UNL     1      23.220  39.487   3.378  1.00  0.00     0.027 C 
BRANCH  13  14
ATOM     14  C   UNL     1      22.416  38.188   3.218  1.00  0.00     0.004 C 
BRANCH  14  15
ATOM     15  C   UNL     1      23.132  36.983   3.847  1.00  0.00     0.000 C 
BRANCH  15  16
ATOM     16  C   UNL     1      24.383  36.605   3.040  1.00  0.00     0.000 C 
BRANCH  16  17
ATOM     17  C   UNL     1      24.134  36.623   1.523  1.00  0.00    -0.000 C 
BRANCH  17  18
ATOM     18  C   UNL     1      24.876  35.492   0.790  1.00  0.00    -0.000 C 
BRANCH  18  19
ATOM     19  C   UNL     1      24.481  35.392  -0.693  1.00  0.00    -0.003 C 
ATOM     20  C   UNL     1      23.089  34.794  -0.894  1.00  0.00     0.004 C 
ENDBRANCH  18  19
ENDBRANCH  17  18
ENDBRANCH  16  17
ENDBRANCH  15  16
ENDBRANCH  14  15
ENDBRANCH  13  14
ENDBRANCH   2  13
TORSDOF 15
ENDMDL
MODEL 5
REMARK VINA RESULT:    -4.939      3.148      7.062
REMARK INTER + INTRA:         -11.061
REMARK INTER:                  -8.736
REMARK INTRA:                  -2.325
REMARK UNBOUND:                -1.791
REMARK SMILES CCCCCCCCC=CCCCCCCCC(=O)[O-]
REMARK SMILES IDX 10 1 9 2 11 3 12 4 13 5 14 6 15 7 16 8 17 9 18 10 19 11
REMARK SMILES IDX 20 12 8 13 7 14 6 15 5 16 4 17 3 18 2 19 1 20
REMARK H PARENT
REMARK Flexibility Score: inf
ROOT
ATOM      1  C   UNL     1      20.298  42.224   1.379  1.00  0.00    -0.031 C 
ATOM      2  C   UNL     1      19.209  41.441   1.389  1.00  0.00    -0.031 C 
ENDROOT
BRANCH   1   3
ATOM      3  C   UNL     1      21.519  41.867   0.579  1.00  0.00     0.027 C 
BRANCH   3   4
ATOM      4  C   UNL     1      21.795  40.356   0.631  1.00  0.00     0.004 C 
BRANCH   4   5
ATOM      5  C   UNL     1      22.997  40.007   1.523  1.00  0.00     0.000 C 
BRANCH   5   6
ATOM      6  C   UNL     1      23.973  39.031   0.845  1.00  0.00     0.000 C 
BRANCH   6   7
ATOM      7  C   UNL     1      24.708  38.125   1.849  1.00  0.00     0.000 C 
BRANCH   7   8
ATOM      8  C   UNL     1      24.184  36.679   1.920  1.00  0.00     0.006 C 
BRANCH   8   9
ATOM      9  C   UNL     1      23.264  36.317   0.747  1.00  0.00     0.053 C 
BRANCH   9  10
ATOM     10  C   UNL     1      23.874  35.228  -0.078  1.00  0.00     0.041 C 
ATOM     11  O   UNL     1      23.221  34.705  -1.018  1.00  0.00    -0.550 OA
ATOM     12  O   UNL     1      25.182  34.827   0.159  1.00  0.00    -0.550 OA
ENDBRANCH   9  10
ENDBRANCH   8   9
ENDBRANCH   7   8
ENDBRANCH   6   7
ENDBRANCH   5   6
ENDBRANCH   4   5
ENDBRANCH   3   4
ENDBRANCH   1   3
BRANCH   2  13
ATOM     13  C   UNL     1      17.991  41.793   2.201  1.00  0.00     0.027 C 
BRANCH  13  14
ATOM     14  C   UNL     1      18.217  43.029   3.083  1.00  0.00     0.004 C 
BRANCH  14  15
ATOM     15  C   UNL     1      18.223  42.679   4.579  1.00  0.00     0.000 C 
BRANCH  15  16
ATOM     16  C   UNL     1      19.648  42.729   5.149  1.00  0.00     0.000 C 
BRANCH  16  17
ATOM     17  C   UNL     1      20.140  41.356   5.631  1.00  0.00    -0.000 C 
BRANCH  17  18
ATOM     18  C   UNL     1      21.026  40.647   4.591  1.00  0.00    -0.000 C 
BRANCH  18  19
ATOM     19  C   UNL     1      20.461  39.282   4.167  1.00  0.00    -0.003 C 
ATOM     20  C   UNL     1      19.061  39.023   4.726  1.00  0.00     0.004 C 
ENDBRANCH  18  19
ENDBRANCH  17  18
ENDBRANCH  16  17
ENDBRANCH  15  16
ENDBRANCH  14  15
ENDBRANCH  13  14
ENDBRANCH   2  13
TORSDOF 15
ENDMDL
MODEL 6
REMARK VINA RESULT:    -4.920      1.734      2.445
REMARK INTER + INTRA:         -11.026
REMARK INTER:                  -9.079
REMARK INTRA:                  -1.947
REMARK UNBOUND:                -1.791
REMARK SMILES CCCCCCCCC=CCCCCCCCC(=O)[O-]
REMARK SMILES IDX 10 1 9 2 11 3 12 4 13 5 14 6 15 7 16 8 17 9 18 10 19 11
REMARK SMILES IDX 20 12 8 13 7 14 6 15 5 16 4 17 3 18 2 19 1 20
REMARK H PARENT
REMARK Flexibility Score: inf
ROOT
ATOM      1  C   UNL     1      19.506  42.213   1.292  1.00  0.00    -0.031 C 
ATOM      2  C   UNL     1      20.177  41.071   1.084  1.00  0.00    -0.031 C 
ENDROOT
BRANCH   1   3
ATOM      3  C   UNL     1      18.011  42.231   1.456  1.00  0.00     0.027 C 
BRANCH   3   4
ATOM      4  C   UNL     1      17.602  42.981   2.733  1.00  0.00     0.004 C 
BRANCH   4   5
ATOM      5  C   UNL     1      18.608  42.789   3.878  1.00  0.00     0.000 C 
BRANCH   5   6
ATOM      6  C   UNL     1      18.164  41.709   4.880  1.00  0.00     0.000 C 
BRANCH   6   7
ATOM      7  C   UNL     1      19.340  40.880   5.426  1.00  0.00     0.000 C 
BRANCH   7   8
ATOM      8  C   UNL     1      20.672  41.078   4.680  1.00  0.00     0.006 C 
BRANCH   8   9
ATOM      9  C   UNL     1      21.411  39.761   4.413  1.00  0.00     0.053 C 
BRANCH   9  10
ATOM     10  C   UNL     1      22.889  39.956   4.535  1.00  0.00     0.041 C 
ATOM     11  O   UNL     1      23.435  40.978   4.043  1.00  0.00    -0.550 OA
ATOM     12  O   UNL     1      23.655  39.036   5.239  1.00  0.00    -0.550 OA
ENDBRANCH   9  10
ENDBRANCH   8   9
ENDBRANCH   7   8
ENDBRANCH   6   7
ENDBRANCH   5   6
ENDBRANCH   4   5
ENDBRANCH   3   4
ENDBRANCH   1   3
BRANCH   2  13
ATOM     13  C   UNL     1      21.673  41.055   0.907  1.00  0.00     0.027 C 
BRANCH  13  14
ATOM     14  C   UNL     1      22.229  39.628   0.785  1.00  0.00     0.004 C 
BRANCH  14  15
ATOM     15  C   UNL     1      23.763  39.610   0.712  1.00  0.00     0.000 C 
BRANCH  15  16
ATOM     16  C   UNL     1      24.337  38.438   1.521  1.00  0.00     0.000 C 
BRANCH  16  17
ATOM     17  C   UNL     1      23.599  37.117   1.252  1.00  0.00    -0.000 C 
BRANCH  17  18
ATOM     18  C   UNL     1      24.543  35.903   1.244  1.00  0.00    -0.000 C 
BRANCH  18  19
ATOM     19  C   UNL     1      24.494  35.126  -0.082  1.00  0.00    -0.003 C 
ATOM     20  C   UNL     1      23.094  35.093  -0.695  1.00  0.00     0.004 C 
ENDBRANCH  18  19
ENDBRANCH  17  18
ENDBRANCH  16  17
ENDBRANCH  15  16
ENDBRANCH  14  15
ENDBRANCH  13  14
ENDBRANCH   2  13
TORSDOF 15
ENDMDL
MODEL 7
REMARK VINA RESULT:    -4.805      2.469      6.174
REMARK INTER + INTRA:         -10.809
REMARK INTER:                  -8.070
REMARK INTRA:                  -2.739
REMARK UNBOUND:                -1.791
REMARK SMILES CCCCCCCCC=CCCCCCCCC(=O)[O-]
REMARK SMILES IDX 10 1 9 2 11 3 12 4 13 5 14 6 15 7 16 8 17 9 18 10 19 11
REMARK SMILES IDX 20 12 8 13 7 14 6 15 5 16 4 17 3 18 2 19 1 20
REMARK H PARENT
REMARK Flexibility Score: inf
ROOT
ATOM      1  C   UNL     1      20.976  42.886   1.392  1.00  0.00    -0.031 C 
ATOM      2  C   UNL     1      20.287  43.958   1.810  1.00  0.00    -0.031 C 
ENDROOT
BRANCH   1   3
ATOM      3  C   UNL     1      22.463  42.939   1.177  1.00  0.00     0.027 C 
BRANCH   3   4
ATOM      4  C   UNL     1      23.041  41.535   0.950  1.00  0.00     0.004 C 
BRANCH   4   5
ATOM      5  C   UNL     1      21.962  40.506   0.575  1.00  0.00     0.000 C 
BRANCH   5   6
ATOM      6  C   UNL     1      22.432  39.055   0.780  1.00  0.00     0.000 C 
BRANCH   6   7
ATOM      7  C   UNL     1      23.965  38.926   0.835  1.00  0.00     0.000 C 
BRANCH   7   8
ATOM      8  C   UNL     1      24.516  38.319   2.139  1.00  0.00     0.006 C 
BRANCH   8   9
ATOM      9  C   UNL     1      23.486  38.303   3.275  1.00  0.00     0.053 C 
BRANCH   9  10
ATOM     10  C   UNL     1      23.332  36.919   3.821  1.00  0.00     0.041 C 
ATOM     11  O   UNL     1      24.342  36.275   4.207  1.00  0.00    -0.550 OA
ATOM     12  O   UNL     1      22.067  36.361   3.952  1.00  0.00    -0.550 OA
ENDBRANCH   9  10
ENDBRANCH   8   9
ENDBRANCH   7   8
ENDBRANCH   6   7
ENDBRANCH   5   6
ENDBRANCH   4   5
ENDBRANCH   3   4
ENDBRANCH   1   3
BRANCH   2  13
ATOM     13  C   UNL     1      18.795  43.908   2.012  1.00  0.00     0.027 C 
BRANCH  13  14
ATOM     14  C   UNL     1      18.098  43.006   0.984  1.00  0.00     0.004 C 
BRANCH  14  15
ATOM     15  C   UNL     1      17.389  41.814   1.645  1.00  0.00     0.000 C 
BRANCH  15  16
ATOM     16  C   UNL     1      18.375  40.669   1.916  1.00  0.00     0.000 C 
BRANCH  16  17
ATOM     17  C   UNL     1      18.692  40.503   3.410  1.00  0.00    -0.000 C 
BRANCH  17  18
ATOM     18  C   UNL     1      20.113  39.968   3.657  1.00  0.00    -0.000 C 
BRANCH  18  19
ATOM     19  C   UNL     1      21.024  41.004   4.334  1.00  0.00    -0.003 C 
ATOM     20  C   UNL     1      20.239  42.075   5.092  1.00  0.00     0.004 C 
ENDBRANCH  18  19
ENDBRANCH  17  18
ENDBRANCH  16  17
ENDBRANCH  15  16
ENDBRANCH  14  15
ENDBRANCH  13  14
ENDBRANCH   2  13
TORSDOF 15
ENDMDL
MODEL 8
REMARK VINA RESULT:    -4.798      2.134      3.207
REMARK INTER + INTRA:         -10.797
REMARK INTER:                  -8.934
REMARK INTRA:                  -1.863
REMARK UNBOUND:                -1.791
REMARK SMILES CCCCCCCCC=CCCCCCCCC(=O)[O-]
REMARK SMILES IDX 10 1 9 2 11 3 12 4 13 5 14 6 15 7 16 8 17 9 18 10 19 11
REMARK SMILES IDX 20 12 8 13 7 14 6 15 5 16 4 17 3 18 2 19 1 20
REMARK H PARENT
REMARK Flexibility Score: inf
ROOT
ATOM      1  C   UNL     1      21.908  41.221   4.767  1.00  0.00    -0.031 C 
ATOM      2  C   UNL     1      21.833  40.418   3.694  1.00  0.00    -0.031 C 
ENDROOT
BRANCH   1   3
ATOM      3  C   UNL     1      20.743  41.400   5.700  1.00  0.00     0.027 C 
BRANCH   3   4
ATOM      4  C   UNL     1      19.679  40.316   5.474  1.00  0.00     0.004 C 
BRANCH   4   5
ATOM      5  C   UNL     1      18.256  40.893   5.398  1.00  0.00     0.000 C 
BRANCH   5   6
ATOM      6  C   UNL     1      18.235  42.428   5.505  1.00  0.00     0.000 C 
BRANCH   6   7
ATOM      7  C   UNL     1      17.748  43.110   4.215  1.00  0.00     0.000 C 
BRANCH   7   8
ATOM      8  C   UNL     1      18.866  43.542   3.248  1.00  0.00     0.006 C 
BRANCH   8   9
ATOM      9  C   UNL     1      19.189  42.477   2.192  1.00  0.00     0.053 C 
BRANCH   9  10
ATOM     10  C   UNL     1      17.997  42.227   1.323  1.00  0.00     0.041 C 
ATOM     11  O   UNL     1      17.564  43.134   0.566  1.00  0.00    -0.550 OA
ATOM     12  O   UNL     1      17.398  40.974   1.309  1.00  0.00    -0.550 OA
ENDBRANCH   9  10
ENDBRANCH   8   9
ENDBRANCH   7   8
ENDBRANCH   6   7
ENDBRANCH   5   6
ENDBRANCH   4   5
ENDBRANCH   3   4
ENDBRANCH   1   3
BRANCH   2  13
ATOM     13  C   UNL     1      22.995  40.249   2.752  1.00  0.00     0.027 C 
BRANCH  13  14
ATOM     14  C   UNL     1      22.543  39.883   1.331  1.00  0.00     0.004 C 
BRANCH  14  15
ATOM     15  C   UNL     1      23.483  38.863   0.669  1.00  0.00     0.000 C 
BRANCH  15  16
ATOM     16  C   UNL     1      24.360  38.163   1.718  1.00  0.00     0.000 C 
BRANCH  16  17
ATOM     17  C   UNL     1      24.108  36.649   1.781  1.00  0.00    -0.000 C 
BRANCH  17  18
ATOM     18  C   UNL     1      23.093  36.174   0.727  1.00  0.00    -0.000 C 
BRANCH  18  19
ATOM     19  C   UNL     1      23.735  35.285  -0.352  1.00  0.00    -0.003 C 
ATOM     20  C   UNL     1      25.169  34.883  -0.008  1.00  0.00     0.004 C 
ENDBRANCH  18  19
ENDBRANCH  17  18
ENDBRANCH  16  17
ENDBRANCH  15  16
ENDBRANCH  14  15
ENDBRANCH  13  14
ENDBRANCH   2  13
TORSDOF 15
ENDMDL
MODEL 9
REMARK VINA RESULT:    -4.796      2.161      6.696
REMARK INTER + INTRA:         -10.792
REMARK INTER:                  -8.139
REMARK INTRA:                  -2.654
REMARK UNBOUND:                -1.791
REMARK SMILES CCCCCCCCC=CCCCCCCCC(=O)[O-]
REMARK SMILES IDX 10 1 9 2 11 3 12 4 13 5 14 6 15 7 16 8 17 9 18 10 19 11
REMARK SMILES IDX 20 12 8 13 7 14 6 15 5 16 4 17 3 18 2 19 1 20
REMARK H PARENT
REMARK Flexibility Score: inf
ROOT
ATOM      1  C   UNL     1      21.090  40.525   4.029  1.00  0.00    -0.031 C 
ATOM      2  C   UNL     1      20.222  39.505   3.952  1.00  0.00    -0.031 C 
ENDROOT
BRANCH   1   3
ATOM      3  C   UNL     1      22.432  40.469   3.355  1.00  0.00     0.027 C 
BRANCH   3   4
ATOM      4  C   UNL     1      22.547  41.539   2.257  1.00  0.00     0.004 C 
BRANCH   4   5
ATOM      5  C   UNL     1      22.167  41.001   0.868  1.00  0.00     0.000 C 
BRANCH   5   6
ATOM      6  C   UNL     1      22.434  39.493   0.725  1.00  0.00     0.000 C 
BRANCH   6   7
ATOM      7  C   UNL     1      23.934  39.150   0.710  1.00  0.00     0.000 C 
BRANCH   7   8
ATOM      8  C   UNL     1      24.307  37.843   1.434  1.00  0.00     0.006 C 
BRANCH   8   9
ATOM      9  C   UNL     1      23.082  37.038   1.885  1.00  0.00     0.053 C 
BRANCH   9  10
ATOM     10  C   UNL     1      23.129  36.800   3.361  1.00  0.00     0.041 C 
ATOM     11  O   UNL     1      24.128  37.171   4.031  1.00  0.00    -0.550 OA
ATOM     12  O   UNL     1      22.046  36.216   4.005  1.00  0.00    -0.550 OA
ENDBRANCH   9  10
ENDBRANCH   8   9
ENDBRANCH   7   8
ENDBRANCH   6   7
ENDBRANCH   5   6
ENDBRANCH   4   5
ENDBRANCH   3   4
ENDBRANCH   1   3
BRANCH   2  13
ATOM     13  C   UNL     1      18.882  39.556   4.639  1.00  0.00     0.027 C 
BRANCH  13  14
ATOM     14  C   UNL     1      18.842  40.606   5.758  1.00  0.00     0.004 C 
BRANCH  14  15
ATOM     15  C   UNL     1      17.801  41.703   5.486  1.00  0.00     0.000 C 
BRANCH  15  16
ATOM     16  C   UNL     1      18.435  42.890   4.747  1.00  0.00     0.000 C 
BRANCH  16  17
ATOM     17  C   UNL     1      17.904  43.044   3.313  1.00  0.00    -0.000 C 
BRANCH  17  18
ATOM     18  C   UNL     1      19.016  42.935   2.256  1.00  0.00    -0.000 C 
BRANCH  18  19
ATOM     19  C   UNL     1      18.619  42.036   1.073  1.00  0.00    -0.003 C 
ATOM     20  C   UNL     1      17.687  40.896   1.485  1.00  0.00     0.004 C 
ENDBRANCH  18  19
ENDBRANCH  17  18
ENDBRANCH  16  17
ENDBRANCH  15  16
ENDBRANCH  14  15
ENDBRANCH  13  14
ENDBRANCH   2  13
TORSDOF 15
ENDMDL
