MODEL 1
REMARK VINA RESULT:    -8.262      0.000      0.000
REMARK INTER + INTRA:         -15.379
REMARK INTER:                 -13.575
REMARK INTRA:                  -1.804
REMARK UNBOUND:                -1.804
REMARK SMILES C[C@@H]1O[C@@H](OC[C@@H]2O[C@H](Oc3c(-c4ccc(O)c(O)c4)oc4cc(O)cc(O)c4c3=O)[C@@H](O)[C@H](O)[C@@H]2O)[C@H](O)[C@H](O)[C@H]1O
REMARK SMILES IDX 7 1 36 2 34 3 32 4 9 5 8 6 6 7 5 8 4 9 1 10 2 11 42 12 3 13
REMARK SMILES IDX 40 14 38 15 43 16 41 18 39 20 37 22 35 24 10 26 11 27 12 28
REMARK SMILES IDX 30 29 21 30 29 31 31 32 22 33 27 34 23 35 26 36 24 37 13 38
REMARK SMILES IDX 20 39 14 40 18 41 15 42 16 43 19 44 17 46 28 48 25 50 33 52
REMARK H PARENT 43 17 41 19 39 21 37 23 35 25 19 45 17 47 28 49 25 51 33 53
REMARK Flexibility Score: inf
ROOT
ATOM      1  C   UNL     1       2.050  41.783  82.468  1.00  0.00     0.180 C 
ATOM      2  C   UNL     1       1.729  40.782  81.302  1.00  0.00     0.177 C 
ATOM      3  C   UNL     1       0.213  40.670  81.071  1.00  0.00     0.180 C 
ATOM      4  C   UNL     1      -0.422  42.071  80.883  1.00  0.00     0.214 C 
ATOM      5  C   UNL     1       0.280  43.150  81.751  1.00  0.00     0.339 C 
ATOM      6  O   UNL     1       0.916  42.543  82.861  1.00  0.00    -0.332 OA
ENDROOT
BRANCH   1   7
ATOM      7  C   UNL     1       2.597  41.114  83.744  1.00  0.00     0.198 C 
BRANCH   7   8
ATOM      8  O   UNL     1       3.867  41.660  84.041  1.00  0.00    -0.347 OA
BRANCH   8   9
ATOM      9  C   UNL     1       3.804  43.067  84.250  1.00  0.00     0.281 C 
ATOM     10  C   UNL     1       6.773  44.440  85.682  1.00  0.00     0.041 C 
ATOM     11  C   UNL     1       5.967  43.210  85.264  1.00  0.00     0.150 C 
ATOM     12  C   UNL     1       5.332  42.519  86.543  1.00  0.00     0.174 C 
ATOM     13  O   UNL     1       5.108  43.608  84.193  1.00  0.00    -0.344 OA
ATOM     14  C   UNL     1       3.789  42.639  86.716  1.00  0.00     0.179 C 
ATOM     15  C   UNL     1       3.141  43.456  85.579  1.00  0.00     0.202 C 
BRANCH  12  16
ATOM     16  O   UNL     1       5.720  41.166  86.607  1.00  0.00    -0.388 OA
ATOM     17  H   UNL     1       6.709  41.134  86.642  1.00  0.00     0.211 HD
ENDBRANCH  12  16
BRANCH  14  18
ATOM     18  O   UNL     1       3.502  43.194  87.970  1.00  0.00    -0.387 OA
ATOM     19  H   UNL     1       4.009  44.046  88.045  1.00  0.00     0.211 HD
ENDBRANCH  14  18
BRANCH  15  20
ATOM     20  O   UNL     1       3.312  44.838  85.781  1.00  0.00    -0.385 OA
ATOM     21  H   UNL     1       2.932  45.067  86.663  1.00  0.00     0.211 HD
ENDBRANCH  15  20
ENDBRANCH   8   9
ENDBRANCH   7   8
ENDBRANCH   1   7
BRANCH   2  22
ATOM     22  O   UNL     1       2.256  39.501  81.530  1.00  0.00    -0.387 OA
ATOM     23  H   UNL     1       2.207  39.334  82.513  1.00  0.00     0.211 HD
ENDBRANCH   2  22
BRANCH   3  24
ATOM     24  O   UNL     1      -0.375  40.017  82.168  1.00  0.00    -0.387 OA
ATOM     25  H   UNL     1      -1.110  40.596  82.494  1.00  0.00     0.211 HD
ENDBRANCH   3  24
BRANCH   5  26
ATOM     26  O   UNL     1      -0.711  44.055  82.242  1.00  0.00    -0.454 OA
BRANCH  26  27
ATOM     27  C   UNL     1      -0.430  45.390  82.591  1.00  0.00     0.214 A 
ATOM     28  C   UNL     1      -0.703  46.417  81.675  1.00  0.00     0.180 A 
ATOM     29  C   UNL     1       0.013  45.730  83.879  1.00  0.00     0.239 A 
ATOM     30  O   UNL     1      -0.680  47.679  82.078  1.00  0.00    -0.452 OA
ATOM     31  C   UNL     1       0.070  47.090  84.272  1.00  0.00     0.111 A 
ATOM     32  O   UNL     1       0.342  44.807  84.662  1.00  0.00    -0.285 OA
ATOM     33  C   UNL     1      -0.353  48.048  83.312  1.00  0.00     0.146 A 
ATOM     34  C   UNL     1       0.477  47.555  85.558  1.00  0.00     0.134 A 
ATOM     35  C   UNL     1      -0.402  49.409  83.639  1.00  0.00     0.094 A 
ATOM     36  C   UNL     1       0.373  48.913  85.864  1.00  0.00     0.093 A 
ATOM     37  C   UNL     1      -0.055  49.837  84.917  1.00  0.00     0.123 A 
BRANCH  28  38
ATOM     38  C   UNL     1      -1.062  46.146  80.272  1.00  0.00     0.025 A 
ATOM     39  C   UNL     1      -0.385  46.785  79.219  1.00  0.00     0.062 A 
ATOM     40  C   UNL     1      -2.144  45.304  79.971  1.00  0.00     0.016 A 
ATOM     41  C   UNL     1      -0.784  46.600  77.885  1.00  0.00     0.158 A 
ATOM     42  C   UNL     1      -2.547  45.111  78.647  1.00  0.00     0.051 A 
ATOM     43  C   UNL     1      -1.880  45.747  77.596  1.00  0.00     0.157 A 
BRANCH  41  44
ATOM     44  O   UNL     1      -0.081  47.285  76.885  1.00  0.00    -0.504 OA
ATOM     45  H   UNL     1       0.898  47.541  76.957  1.00  0.00     0.293 HD
ENDBRANCH  41  44
BRANCH  43  46
ATOM     46  O   UNL     1      -2.334  45.510  76.295  1.00  0.00    -0.504 OA
ATOM     47  H   UNL     1      -2.755  44.640  75.990  1.00  0.00     0.293 HD
ENDBRANCH  43  46
ENDBRANCH  28  38
BRANCH  34  48
ATOM     48  O   UNL     1       0.972  46.737  86.575  1.00  0.00    -0.507 OA
ATOM     49  H   UNL     1       1.178  47.041  87.515  1.00  0.00     0.293 HD
ENDBRANCH  34  48
BRANCH  37  50
ATOM     50  O   UNL     1      -0.117  51.188  85.261  1.00  0.00    -0.508 OA
ATOM     51  H   UNL     1      -0.381  51.888  84.588  1.00  0.00     0.293 HD
ENDBRANCH  37  50
ENDBRANCH  26  27
ENDBRANCH   5  26
BRANCH   4  52
ATOM     52  O   UNL     1      -0.413  42.440  79.525  1.00  0.00    -0.384 OA
ATOM     53  H   UNL     1      -1.305  42.827  79.311  1.00  0.00     0.211 HD
ENDBRANCH   4  52
TORSDOF 16
ENDMDL
MODEL 2
REMARK VINA RESULT:    -7.813      2.088      5.793
REMARK INTER + INTRA:         -14.641
REMARK INTER:                 -11.430
REMARK INTRA:                  -3.211
REMARK UNBOUND:                -1.804
REMARK SMILES C[C@@H]1O[C@@H](OC[C@@H]2O[C@H](Oc3c(-c4ccc(O)c(O)c4)oc4cc(O)cc(O)c4c3=O)[C@@H](O)[C@H](O)[C@@H]2O)[C@H](O)[C@H](O)[C@H]1O
REMARK SMILES IDX 7 1 36 2 34 3 32 4 9 5 8 6 6 7 5 8 4 9 1 10 2 11 42 12 3 13
REMARK SMILES IDX 40 14 38 15 43 16 41 18 39 20 37 22 35 24 10 26 11 27 12 28
REMARK SMILES IDX 30 29 21 30 29 31 31 32 22 33 27 34 23 35 26 36 24 37 13 38
REMARK SMILES IDX 20 39 14 40 18 41 15 42 16 43 19 44 17 46 28 48 25 50 33 52
REMARK H PARENT 43 17 41 19 39 21 37 23 35 25 19 45 17 47 28 49 25 51 33 53
REMARK Flexibility Score: inf
ROOT
ATOM      1  C   UNL     1      -1.531  42.645  83.714  1.00  0.00     0.180 C 
ATOM      2  C   UNL     1      -1.630  42.294  85.241  1.00  0.00     0.177 C 
ATOM      3  C   UNL     1      -1.736  43.568  86.096  1.00  0.00     0.180 C 
ATOM      4  C   UNL     1      -2.883  44.479  85.589  1.00  0.00     0.214 C 
ATOM      5  C   UNL     1      -3.040  44.414  84.046  1.00  0.00     0.339 C 
ATOM      6  O   UNL     1      -1.821  44.011  83.450  1.00  0.00    -0.332 OA
ENDROOT
BRANCH   1   7
ATOM      7  C   UNL     1      -0.153  42.357  83.087  1.00  0.00     0.198 C 
BRANCH   7   8
ATOM      8  O   UNL     1       0.846  42.997  83.857  1.00  0.00    -0.347 OA
BRANCH   8   9
ATOM      9  C   UNL     1       2.153  42.712  83.371  1.00  0.00     0.281 C 
ATOM     10  C   UNL     1       3.958  40.382  85.386  1.00  0.00     0.041 C 
ATOM     11  C   UNL     1       2.724  41.263  85.188  1.00  0.00     0.150 C 
ATOM     12  C   UNL     1       2.834  42.560  86.093  1.00  0.00     0.174 C 
ATOM     13  O   UNL     1       2.534  41.414  83.779  1.00  0.00    -0.344 OA
ATOM     14  C   UNL     1       3.086  43.911  85.360  1.00  0.00     0.179 C 
ATOM     15  C   UNL     1       3.208  43.728  83.833  1.00  0.00     0.202 C 
BRANCH  12  16
ATOM     16  O   UNL     1       1.703  42.668  86.926  1.00  0.00    -0.388 OA
ATOM     17  H   UNL     1       2.017  42.700  87.864  1.00  0.00     0.211 HD
ENDBRANCH  12  16
BRANCH  14  18
ATOM     18  O   UNL     1       4.227  44.525  85.893  1.00  0.00    -0.387 OA
ATOM     19  H   UNL     1       4.776  44.852  85.131  1.00  0.00     0.211 HD
ENDBRANCH  14  18
BRANCH  15  20
ATOM     20  O   UNL     1       4.482  43.250  83.477  1.00  0.00    -0.385 OA
ATOM     21  H   UNL     1       5.111  43.491  84.198  1.00  0.00     0.211 HD
ENDBRANCH  15  20
ENDBRANCH   8   9
ENDBRANCH   7   8
ENDBRANCH   1   7
BRANCH   2  22
ATOM     22  O   UNL     1      -0.544  41.526  85.690  1.00  0.00    -0.387 OA
ATOM     23  H   UNL     1      -0.872  40.590  85.799  1.00  0.00     0.211 HD
ENDBRANCH   2  22
BRANCH   3  24
ATOM     24  O   UNL     1      -0.513  44.259  86.049  1.00  0.00    -0.387 OA
ATOM     25  H   UNL     1       0.178  43.609  85.763  1.00  0.00     0.211 HD
ENDBRANCH   3  24
BRANCH   5  26
ATOM     26  O   UNL     1      -3.364  45.720  83.566  1.00  0.00    -0.454 OA
BRANCH  26  27
ATOM     27  C   UNL     1      -2.819  46.265  82.388  1.00  0.00     0.214 A 
ATOM     28  C   UNL     1      -1.821  47.247  82.477  1.00  0.00     0.180 A 
ATOM     29  C   UNL     1      -3.171  45.769  81.123  1.00  0.00     0.239 A 
ATOM     30  O   UNL     1      -1.131  47.582  81.397  1.00  0.00    -0.452 OA
ATOM     31  C   UNL     1      -2.446  46.176  79.976  1.00  0.00     0.111 A 
ATOM     32  O   UNL     1      -4.125  44.959  81.042  1.00  0.00    -0.285 OA
ATOM     33  C   UNL     1      -1.367  47.075  80.191  1.00  0.00     0.146 A 
ATOM     34  C   UNL     1      -2.692  45.722  78.646  1.00  0.00     0.134 A 
ATOM     35  C   UNL     1      -0.548  47.472  79.127  1.00  0.00     0.094 A 
ATOM     36  C   UNL     1      -1.829  46.102  77.617  1.00  0.00     0.093 A 
ATOM     37  C   UNL     1      -0.770  46.973  77.846  1.00  0.00     0.123 A 
BRANCH  28  38
ATOM     38  C   UNL     1      -1.472  47.902  83.751  1.00  0.00     0.025 A 
ATOM     39  C   UNL     1      -0.510  47.340  84.609  1.00  0.00     0.062 A 
ATOM     40  C   UNL     1      -2.158  49.055  84.163  1.00  0.00     0.016 A 
ATOM     41  C   UNL     1      -0.242  47.910  85.864  1.00  0.00     0.158 A 
ATOM     42  C   UNL     1      -1.896  49.631  85.407  1.00  0.00     0.051 A 
ATOM     43  C   UNL     1      -0.943  49.075  86.267  1.00  0.00     0.157 A 
BRANCH  41  44
ATOM     44  O   UNL     1       0.713  47.287  86.680  1.00  0.00    -0.504 OA
ATOM     45  H   UNL     1       0.530  46.454  87.229  1.00  0.00     0.293 HD
ENDBRANCH  41  44
BRANCH  43  46
ATOM     46  O   UNL     1      -0.730  49.702  87.498  1.00  0.00    -0.504 OA
ATOM     47  H   UNL     1      -0.185  49.301  88.253  1.00  0.00     0.293 HD
ENDBRANCH  43  46
ENDBRANCH  28  38
BRANCH  34  48
ATOM     48  O   UNL     1      -3.749  44.888  78.278  1.00  0.00    -0.507 OA
ATOM     49  H   UNL     1      -4.152  44.171  78.862  1.00  0.00     0.293 HD
ENDBRANCH  34  48
BRANCH  37  50
ATOM     50  O   UNL     1       0.049  47.347  76.780  1.00  0.00    -0.508 OA
ATOM     51  H   UNL     1       0.625  48.171  76.826  1.00  0.00     0.293 HD
ENDBRANCH  37  50
ENDBRANCH  26  27
ENDBRANCH   5  26
BRANCH   4  52
ATOM     52  O   UNL     1      -4.093  44.152  86.228  1.00  0.00    -0.384 OA
ATOM     53  H   UNL     1      -4.077  44.563  87.135  1.00  0.00     0.211 HD
ENDBRANCH   4  52
TORSDOF 16
ENDMDL
MODEL 3
REMARK VINA RESULT:    -7.728      1.905      8.942
REMARK INTER + INTRA:         -14.501
REMARK INTER:                 -12.094
REMARK INTRA:                  -2.408
REMARK UNBOUND:                -1.804
REMARK SMILES C[C@@H]1O[C@@H](OC[C@@H]2O[C@H](Oc3c(-c4ccc(O)c(O)c4)oc4cc(O)cc(O)c4c3=O)[C@@H](O)[C@H](O)[C@@H]2O)[C@H](O)[C@H](O)[C@H]1O
REMARK SMILES IDX 7 1 36 2 34 3 32 4 9 5 8 6 6 7 5 8 4 9 1 10 2 11 42 12 3 13
REMARK SMILES IDX 40 14 38 15 43 16 41 18 39 20 37 22 35 24 10 26 11 27 12 28
REMARK SMILES IDX 30 29 21 30 29 31 31 32 22 33 27 34 23 35 26 36 24 37 13 38
REMARK SMILES IDX 20 39 14 40 18 41 15 42 16 43 19 44 17 46 28 48 25 50 33 52
REMARK H PARENT 43 17 41 19 39 21 37 23 35 25 19 45 17 47 28 49 25 51 33 53
REMARK Flexibility Score: inf
ROOT
ATOM      1  C   UNL     1      -0.176  47.287  83.641  1.00  0.00     0.180 C 
ATOM      2  C   UNL     1      -1.261  46.646  84.577  1.00  0.00     0.177 C 
ATOM      3  C   UNL     1      -1.390  45.136  84.321  1.00  0.00     0.180 C 
ATOM      4  C   UNL     1      -0.006  44.442  84.403  1.00  0.00     0.214 C 
ATOM      5  C   UNL     1       1.134  45.351  83.871  1.00  0.00     0.339 C 
ATOM      6  O   UNL     1       0.610  46.311  82.972  1.00  0.00    -0.332 OA
ENDROOT
BRANCH   1   7
ATOM      7  C   UNL     1      -0.749  48.215  82.552  1.00  0.00     0.198 C 
BRANCH   7   8
ATOM      8  O   UNL     1      -1.231  47.426  81.482  1.00  0.00    -0.347 OA
BRANCH   8   9
ATOM      9  C   UNL     1      -2.130  48.152  80.651  1.00  0.00     0.281 C 
ATOM     10  C   UNL     1      -4.124  46.077  78.537  1.00  0.00     0.041 C 
ATOM     11  C   UNL     1      -2.973  46.210  79.534  1.00  0.00     0.150 C 
ATOM     12  C   UNL     1      -1.585  46.138  78.770  1.00  0.00     0.174 C 
ATOM     13  O   UNL     1      -3.252  47.345  80.357  1.00  0.00    -0.344 OA
ATOM     14  C   UNL     1      -0.764  47.458  78.672  1.00  0.00     0.179 C 
ATOM     15  C   UNL     1      -1.490  48.642  79.344  1.00  0.00     0.202 C 
BRANCH  12  16
ATOM     16  O   UNL     1      -0.785  45.112  79.312  1.00  0.00    -0.388 OA
ATOM     17  H   UNL     1      -0.500  45.394  80.217  1.00  0.00     0.211 HD
ENDBRANCH  12  16
BRANCH  14  18
ATOM     18  O   UNL     1      -0.479  47.731  77.328  1.00  0.00    -0.387 OA
ATOM     19  H   UNL     1       0.510  47.741  77.227  1.00  0.00     0.211 HD
ENDBRANCH  14  18
BRANCH  15  20
ATOM     20  O   UNL     1      -2.499  49.160  78.513  1.00  0.00    -0.385 OA
ATOM     21  H   UNL     1      -2.414  48.734  77.626  1.00  0.00     0.211 HD
ENDBRANCH  15  20
ENDBRANCH   8   9
ENDBRANCH   7   8
ENDBRANCH   1   7
BRANCH   2  22
ATOM     22  O   UNL     1      -2.521  47.247  84.434  1.00  0.00    -0.387 OA
ATOM     23  H   UNL     1      -3.164  46.717  84.984  1.00  0.00     0.211 HD
ENDBRANCH   2  22
BRANCH   3  24
ATOM     24  O   UNL     1      -1.960  44.929  83.054  1.00  0.00    -0.387 OA
ATOM     25  H   UNL     1      -1.872  43.964  82.848  1.00  0.00     0.211 HD
ENDBRANCH   3  24
BRANCH   5  26
ATOM     26  O   UNL     1       2.072  44.539  83.164  1.00  0.00    -0.454 OA
BRANCH  26  27
ATOM     27  C   UNL     1       1.864  43.171  82.903  1.00  0.00     0.214 A 
ATOM     28  C   UNL     1       2.547  42.210  83.664  1.00  0.00     0.180 A 
ATOM     29  C   UNL     1       0.904  42.742  81.974  1.00  0.00     0.239 A 
ATOM     30  O   UNL     1       2.178  40.939  83.601  1.00  0.00    -0.452 OA
ATOM     31  C   UNL     1       0.557  41.371  81.895  1.00  0.00     0.111 A 
ATOM     32  O   UNL     1       0.363  43.598  81.234  1.00  0.00    -0.285 OA
ATOM     33  C   UNL     1       1.213  40.496  82.801  1.00  0.00     0.146 A 
ATOM     34  C   UNL     1      -0.420  40.821  81.013  1.00  0.00     0.134 A 
ATOM     35  C   UNL     1       0.879  39.137  82.847  1.00  0.00     0.094 A 
ATOM     36  C   UNL     1      -0.761  39.472  81.116  1.00  0.00     0.093 A 
ATOM     37  C   UNL     1      -0.118  38.630  82.017  1.00  0.00     0.123 A 
BRANCH  28  38
ATOM     38  C   UNL     1       3.648  42.566  84.577  1.00  0.00     0.025 A 
ATOM     39  C   UNL     1       4.913  42.919  84.076  1.00  0.00     0.062 A 
ATOM     40  C   UNL     1       3.469  42.476  85.967  1.00  0.00     0.016 A 
ATOM     41  C   UNL     1       5.989  43.169  84.944  1.00  0.00     0.158 A 
ATOM     42  C   UNL     1       4.531  42.726  86.838  1.00  0.00     0.051 A 
ATOM     43  C   UNL     1       5.793  43.074  86.345  1.00  0.00     0.157 A 
BRANCH  41  44
ATOM     44  O   UNL     1       7.230  43.495  84.378  1.00  0.00    -0.504 OA
ATOM     45  H   UNL     1       7.548  44.446  84.223  1.00  0.00     0.293 HD
ENDBRANCH  41  44
BRANCH  43  46
ATOM     46  O   UNL     1       6.813  43.311  87.272  1.00  0.00    -0.504 OA
ATOM     47  H   UNL     1       6.655  43.602  88.229  1.00  0.00     0.293 HD
ENDBRANCH  43  46
ENDBRANCH  28  38
BRANCH  34  48
ATOM     48  O   UNL     1      -1.098  41.548  80.032  1.00  0.00    -0.507 OA
ATOM     49  H   UNL     1      -1.475  41.160  79.180  1.00  0.00     0.293 HD
ENDBRANCH  34  48
BRANCH  37  50
ATOM     50  O   UNL     1      -0.473  37.282  82.065  1.00  0.00    -0.508 OA
ATOM     51  H   UNL     1      -0.449  36.704  81.241  1.00  0.00     0.293 HD
ENDBRANCH  37  50
ENDBRANCH  26  27
ENDBRANCH   5  26
BRANCH   4  52
ATOM     52  O   UNL     1       0.261  44.025  85.720  1.00  0.00    -0.384 OA
ATOM     53  H   UNL     1      -0.549  43.554  86.058  1.00  0.00     0.211 HD
ENDBRANCH   4  52
TORSDOF 16
ENDMDL
MODEL 4
REMARK VINA RESULT:    -7.699      1.205      2.063
REMARK INTER + INTRA:         -14.453
REMARK INTER:                 -12.102
REMARK INTRA:                  -2.351
REMARK UNBOUND:                -1.804
REMARK SMILES C[C@@H]1O[C@@H](OC[C@@H]2O[C@H](Oc3c(-c4ccc(O)c(O)c4)oc4cc(O)cc(O)c4c3=O)[C@@H](O)[C@H](O)[C@@H]2O)[C@H](O)[C@H](O)[C@H]1O
REMARK SMILES IDX 7 1 36 2 34 3 32 4 9 5 8 6 6 7 5 8 4 9 1 10 2 11 42 12 3 13
REMARK SMILES IDX 40 14 38 15 43 16 41 18 39 20 37 22 35 24 10 26 11 27 12 28
REMARK SMILES IDX 30 29 21 30 29 31 31 32 22 33 27 34 23 35 26 36 24 37 13 38
REMARK SMILES IDX 20 39 14 40 18 41 15 42 16 43 19 44 17 46 28 48 25 50 33 52
REMARK H PARENT 43 17 41 19 39 21 37 23 35 25 19 45 17 47 28 49 25 51 33 53
REMARK Flexibility Score: inf
ROOT
ATOM      1  C   UNL     1       2.263  42.358  82.058  1.00  0.00     0.180 C 
ATOM      2  C   UNL     1       1.852  40.989  81.407  1.00  0.00     0.177 C 
ATOM      3  C   UNL     1       0.393  40.636  81.739  1.00  0.00     0.180 C 
ATOM      4  C   UNL     1      -0.555  41.808  81.378  1.00  0.00     0.214 C 
ATOM      5  C   UNL     1       0.112  43.190  81.612  1.00  0.00     0.339 C 
ATOM      6  O   UNL     1       1.148  43.073  82.570  1.00  0.00    -0.332 OA
ENDROOT
BRANCH   1   7
ATOM      7  C   UNL     1       3.275  42.231  83.213  1.00  0.00     0.198 C 
BRANCH   7   8
ATOM      8  O   UNL     1       2.790  41.288  84.148  1.00  0.00    -0.347 OA
BRANCH   8   9
ATOM      9  C   UNL     1       3.489  41.359  85.386  1.00  0.00     0.281 C 
ATOM     10  C   UNL     1       1.463  40.604  88.227  1.00  0.00     0.041 C 
ATOM     11  C   UNL     1       1.568  40.867  86.724  1.00  0.00     0.150 C 
ATOM     12  C   UNL     1       1.053  42.330  86.394  1.00  0.00     0.174 C 
ATOM     13  O   UNL     1       2.885  40.487  86.318  1.00  0.00    -0.344 OA
ATOM     14  C   UNL     1       2.127  43.376  85.970  1.00  0.00     0.179 C 
ATOM     15  C   UNL     1       3.549  42.778  85.970  1.00  0.00     0.202 C 
BRANCH  12  16
ATOM     16  O   UNL     1       0.026  42.277  85.431  1.00  0.00    -0.388 OA
ATOM     17  H   UNL     1      -0.028  43.163  84.993  1.00  0.00     0.211 HD
ENDBRANCH  12  16
BRANCH  14  18
ATOM     18  O   UNL     1       2.043  44.495  86.808  1.00  0.00    -0.387 OA
ATOM     19  H   UNL     1       2.295  44.203  87.725  1.00  0.00     0.211 HD
ENDBRANCH  14  18
BRANCH  15  20
ATOM     20  O   UNL     1       4.073  42.708  87.273  1.00  0.00    -0.385 OA
ATOM     21  H   UNL     1       3.396  43.068  87.895  1.00  0.00     0.211 HD
ENDBRANCH  15  20
ENDBRANCH   8   9
ENDBRANCH   7   8
ENDBRANCH   1   7
BRANCH   2  22
ATOM     22  O   UNL     1       2.684  39.931  81.805  1.00  0.00    -0.387 OA
ATOM     23  H   UNL     1       3.402  39.848  81.116  1.00  0.00     0.211 HD
ENDBRANCH   2  22
BRANCH   3  24
ATOM     24  O   UNL     1       0.289  40.334  83.108  1.00  0.00    -0.387 OA
ATOM     25  H   UNL     1       1.163  40.553  83.521  1.00  0.00     0.211 HD
ENDBRANCH   3  24
BRANCH   5  26
ATOM     26  O   UNL     1      -0.872  44.090  82.122  1.00  0.00    -0.454 OA
BRANCH  26  27
ATOM     27  C   UNL     1      -0.609  45.445  82.398  1.00  0.00     0.214 A 
ATOM     28  C   UNL     1      -0.829  46.410  81.403  1.00  0.00     0.180 A 
ATOM     29  C   UNL     1      -0.236  45.870  83.683  1.00  0.00     0.239 A 
ATOM     30  O   UNL     1      -0.825  47.695  81.722  1.00  0.00    -0.452 OA
ATOM     31  C   UNL     1      -0.197  47.253  83.988  1.00  0.00     0.111 A 
ATOM     32  O   UNL     1       0.048  45.002  84.541  1.00  0.00    -0.285 OA
ATOM     33  C   UNL     1      -0.565  48.145  82.945  1.00  0.00     0.146 A 
ATOM     34  C   UNL     1       0.140  47.803  85.260  1.00  0.00     0.134 A 
ATOM     35  C   UNL     1      -0.629  49.525  83.178  1.00  0.00     0.094 A 
ATOM     36  C   UNL     1       0.022  49.178  85.470  1.00  0.00     0.093 A 
ATOM     37  C   UNL     1      -0.352  50.037  84.443  1.00  0.00     0.123 A 
BRANCH  28  38
ATOM     38  C   UNL     1      -1.111  46.045  80.003  1.00  0.00     0.025 A 
ATOM     39  C   UNL     1      -0.543  46.772  78.942  1.00  0.00     0.062 A 
ATOM     40  C   UNL     1      -2.020  45.016  79.711  1.00  0.00     0.016 A 
ATOM     41  C   UNL     1      -0.882  46.487  77.608  1.00  0.00     0.158 A 
ATOM     42  C   UNL     1      -2.361  44.723  78.389  1.00  0.00     0.051 A 
ATOM     43  C   UNL     1      -1.802  45.444  77.329  1.00  0.00     0.157 A 
BRANCH  41  44
ATOM     44  O   UNL     1      -0.297  47.264  76.599  1.00  0.00    -0.504 OA
ATOM     45  H   UNL     1      -0.651  48.168  76.304  1.00  0.00     0.293 HD
ENDBRANCH  41  44
BRANCH  43  46
ATOM     46  O   UNL     1      -2.186  45.100  76.030  1.00  0.00    -0.504 OA
ATOM     47  H   UNL     1      -2.889  45.595  75.494  1.00  0.00     0.293 HD
ENDBRANCH  43  46
ENDBRANCH  28  38
BRANCH  34  48
ATOM     48  O   UNL     1       0.576  47.055  86.355  1.00  0.00    -0.507 OA
ATOM     49  H   UNL     1       0.869  46.090  86.318  1.00  0.00     0.293 HD
ENDBRANCH  34  48
BRANCH  37  50
ATOM     50  O   UNL     1      -0.429  51.407  84.693  1.00  0.00    -0.508 OA
ATOM     51  H   UNL     1       0.287  51.886  85.213  1.00  0.00     0.293 HD
ENDBRANCH  37  50
ENDBRANCH  26  27
ENDBRANCH   5  26
BRANCH   4  52
ATOM     52  O   UNL     1      -1.005  41.689  80.050  1.00  0.00    -0.384 OA
ATOM     53  H   UNL     1      -1.950  42.002  80.022  1.00  0.00     0.211 HD
ENDBRANCH   4  52
TORSDOF 16
ENDMDL
MODEL 5
REMARK VINA RESULT:    -7.674      2.290      6.802
REMARK INTER + INTRA:         -14.412
REMARK INTER:                 -11.813
REMARK INTRA:                  -2.599
REMARK UNBOUND:                -1.804
REMARK SMILES C[C@@H]1O[C@@H](OC[C@@H]2O[C@H](Oc3c(-c4ccc(O)c(O)c4)oc4cc(O)cc(O)c4c3=O)[C@@H](O)[C@H](O)[C@@H]2O)[C@H](O)[C@H](O)[C@H]1O
REMARK SMILES IDX 7 1 36 2 34 3 32 4 9 5 8 6 6 7 5 8 4 9 1 10 2 11 42 12 3 13
REMARK SMILES IDX 40 14 38 15 43 16 41 18 39 20 37 22 35 24 10 26 11 27 12 28
REMARK SMILES IDX 30 29 21 30 29 31 31 32 22 33 27 34 23 35 26 36 24 37 13 38
REMARK SMILES IDX 20 39 14 40 18 41 15 42 16 43 19 44 17 46 28 48 25 50 33 52
REMARK H PARENT 43 17 41 19 39 21 37 23 35 25 19 45 17 47 28 49 25 51 33 53
REMARK Flexibility Score: inf
ROOT
ATOM      1  C   UNL     1      -0.699  43.263  85.672  1.00  0.00     0.180 C 
ATOM      2  C   UNL     1       0.560  42.398  86.036  1.00  0.00     0.177 C 
ATOM      3  C   UNL     1       1.809  42.897  85.291  1.00  0.00     0.180 C 
ATOM      4  C   UNL     1       2.012  44.418  85.511  1.00  0.00     0.214 C 
ATOM      5  C   UNL     1       0.661  45.177  85.616  1.00  0.00     0.339 C 
ATOM      6  O   UNL     1      -0.359  44.446  84.962  1.00  0.00    -0.332 OA
ENDROOT
BRANCH   1   7
ATOM      7  C   UNL     1      -1.750  42.524  84.822  1.00  0.00     0.198 C 
BRANCH   7   8
ATOM      8  O   UNL     1      -1.132  42.034  83.649  1.00  0.00    -0.347 OA
BRANCH   8   9
ATOM      9  C   UNL     1      -2.003  42.092  82.525  1.00  0.00     0.281 C 
ATOM     10  C   UNL     1      -1.855  39.198  80.440  1.00  0.00     0.041 C 
ATOM     11  C   UNL     1      -1.298  39.992  81.622  1.00  0.00     0.150 C 
ATOM     12  C   UNL     1       0.054  40.709  81.203  1.00  0.00     0.174 C 
ATOM     13  O   UNL     1      -2.368  40.782  82.145  1.00  0.00    -0.344 OA
ATOM     14  C   UNL     1       0.011  42.258  81.049  1.00  0.00     0.179 C 
ATOM     15  C   UNL     1      -1.396  42.829  81.322  1.00  0.00     0.202 C 
BRANCH  12  16
ATOM     16  O   UNL     1       1.091  40.341  82.082  1.00  0.00    -0.388 OA
ATOM     17  H   UNL     1       0.692  39.823  82.825  1.00  0.00     0.211 HD
ENDBRANCH  12  16
BRANCH  14  18
ATOM     18  O   UNL     1       0.466  42.612  79.772  1.00  0.00    -0.387 OA
ATOM     19  H   UNL     1       0.014  42.016  79.116  1.00  0.00     0.211 HD
ENDBRANCH  14  18
BRANCH  15  20
ATOM     20  O   UNL     1      -2.242  42.654  80.212  1.00  0.00    -0.385 OA
ATOM     21  H   UNL     1      -3.091  43.121  80.398  1.00  0.00     0.211 HD
ENDBRANCH  15  20
ENDBRANCH   8   9
ENDBRANCH   7   8
ENDBRANCH   1   7
BRANCH   2  22
ATOM     22  O   UNL     1       0.374  41.034  85.762  1.00  0.00    -0.387 OA
ATOM     23  H   UNL     1       0.376  40.556  86.639  1.00  0.00     0.211 HD
ENDBRANCH   2  22
BRANCH   3  24
ATOM     24  O   UNL     1       1.670  42.622  83.920  1.00  0.00    -0.387 OA
ATOM     25  H   UNL     1       0.702  42.662  83.711  1.00  0.00     0.211 HD
ENDBRANCH   3  24
BRANCH   5  26
ATOM     26  O   UNL     1       0.797  46.440  84.963  1.00  0.00    -0.454 OA
BRANCH  26  27
ATOM     27  C   UNL     1      -0.056  46.868  83.928  1.00  0.00     0.214 A 
ATOM     28  C   UNL     1      -0.999  47.876  84.181  1.00  0.00     0.180 A 
ATOM     29  C   UNL     1       0.090  46.390  82.616  1.00  0.00     0.239 A 
ATOM     30  O   UNL     1      -1.626  48.456  83.169  1.00  0.00    -0.452 OA
ATOM     31  C   UNL     1      -0.625  47.000  81.556  1.00  0.00     0.111 A 
ATOM     32  O   UNL     1       0.868  45.428  82.413  1.00  0.00    -0.285 OA
ATOM     33  C   UNL     1      -1.457  48.099  81.900  1.00  0.00     0.146 A 
ATOM     34  C   UNL     1      -0.540  46.620  80.184  1.00  0.00     0.134 A 
ATOM     35  C   UNL     1      -2.142  48.811  80.907  1.00  0.00     0.094 A 
ATOM     36  C   UNL     1      -1.200  47.378  79.217  1.00  0.00     0.093 A 
ATOM     37  C   UNL     1      -2.001  48.460  79.567  1.00  0.00     0.123 A 
BRANCH  28  38
ATOM     38  C   UNL     1      -1.295  48.353  85.543  1.00  0.00     0.025 A 
ATOM     39  C   UNL     1      -0.256  48.645  86.445  1.00  0.00     0.062 A 
ATOM     40  C   UNL     1      -2.624  48.444  85.986  1.00  0.00     0.016 A 
ATOM     41  C   UNL     1      -0.534  49.011  87.773  1.00  0.00     0.158 A 
ATOM     42  C   UNL     1      -2.910  48.810  87.303  1.00  0.00     0.051 A 
ATOM     43  C   UNL     1      -1.882  49.098  88.205  1.00  0.00     0.157 A 
BRANCH  41  44
ATOM     44  O   UNL     1       0.548  49.267  88.626  1.00  0.00    -0.504 OA
ATOM     45  H   UNL     1       0.457  49.686  89.545  1.00  0.00     0.293 HD
ENDBRANCH  41  44
BRANCH  43  46
ATOM     46  O   UNL     1      -2.238  49.459  89.509  1.00  0.00    -0.504 OA
ATOM     47  H   UNL     1      -1.611  49.410  90.303  1.00  0.00     0.293 HD
ENDBRANCH  43  46
ENDBRANCH  28  38
BRANCH  34  48
ATOM     48  O   UNL     1       0.187  45.527  79.710  1.00  0.00    -0.507 OA
ATOM     49  H   UNL     1       1.167  45.542  79.469  1.00  0.00     0.293 HD
ENDBRANCH  34  48
BRANCH  37  50
ATOM     50  O   UNL     1      -2.664  49.172  78.567  1.00  0.00    -0.508 OA
ATOM     51  H   UNL     1      -2.802  50.167  78.636  1.00  0.00     0.293 HD
ENDBRANCH  37  50
ENDBRANCH  26  27
ENDBRANCH   5  26
BRANCH   4  52
ATOM     52  O   UNL     1       2.804  44.651  86.651  1.00  0.00    -0.384 OA
ATOM     53  H   UNL     1       2.198  44.939  87.386  1.00  0.00     0.211 HD
ENDBRANCH   4  52
TORSDOF 16
ENDMDL
MODEL 6
REMARK VINA RESULT:    -7.618      1.735      5.375
REMARK INTER + INTRA:         -14.321
REMARK INTER:                 -11.584
REMARK INTRA:                  -2.737
REMARK UNBOUND:                -1.804
REMARK SMILES C[C@@H]1O[C@@H](OC[C@@H]2O[C@H](Oc3c(-c4ccc(O)c(O)c4)oc4cc(O)cc(O)c4c3=O)[C@@H](O)[C@H](O)[C@@H]2O)[C@H](O)[C@H](O)[C@H]1O
REMARK SMILES IDX 7 1 36 2 34 3 32 4 9 5 8 6 6 7 5 8 4 9 1 10 2 11 42 12 3 13
REMARK SMILES IDX 40 14 38 15 43 16 41 18 39 20 37 22 35 24 10 26 11 27 12 28
REMARK SMILES IDX 30 29 21 30 29 31 31 32 22 33 27 34 23 35 26 36 24 37 13 38
REMARK SMILES IDX 20 39 14 40 18 41 15 42 16 43 19 44 17 46 28 48 25 50 33 52
REMARK H PARENT 43 17 41 19 39 21 37 23 35 25 19 45 17 47 28 49 25 51 33 53
REMARK Flexibility Score: inf
ROOT
ATOM      1  C   UNL     1       0.730  41.519  83.036  1.00  0.00     0.180 C 
ATOM      2  C   UNL     1       0.378  40.582  84.246  1.00  0.00     0.177 C 
ATOM      3  C   UNL     1      -0.204  41.389  85.419  1.00  0.00     0.180 C 
ATOM      4  C   UNL     1      -1.388  42.271  84.948  1.00  0.00     0.214 C 
ATOM      5  C   UNL     1      -1.181  42.803  83.505  1.00  0.00     0.339 C 
ATOM      6  O   UNL     1       0.199  42.828  83.190  1.00  0.00    -0.332 OA
ENDROOT
BRANCH   1   7
ATOM      7  C   UNL     1       2.241  41.682  82.780  1.00  0.00     0.198 C 
BRANCH   7   8
ATOM      8  O   UNL     1       2.877  42.038  83.991  1.00  0.00    -0.347 OA
BRANCH   8   9
ATOM      9  C   UNL     1       4.218  41.565  84.045  1.00  0.00     0.281 C 
ATOM     10  C   UNL     1       5.295  40.674  87.331  1.00  0.00     0.041 C 
ATOM     11  C   UNL     1       4.234  41.296  86.423  1.00  0.00     0.150 C 
ATOM     12  C   UNL     1       4.292  42.877  86.528  1.00  0.00     0.174 C 
ATOM     13  O   UNL     1       4.360  40.681  85.139  1.00  0.00    -0.344 OA
ATOM     14  C   UNL     1       4.838  43.646  85.289  1.00  0.00     0.179 C 
ATOM     15  C   UNL     1       5.257  42.690  84.152  1.00  0.00     0.202 C 
BRANCH  12  16
ATOM     16  O   UNL     1       3.030  43.387  86.893  1.00  0.00    -0.388 OA
ATOM     17  H   UNL     1       2.507  42.648  87.294  1.00  0.00     0.211 HD
ENDBRANCH  12  16
BRANCH  14  18
ATOM     18  O   UNL     1       5.902  44.468  85.683  1.00  0.00    -0.387 OA
ATOM     19  H   UNL     1       6.430  44.687  84.868  1.00  0.00     0.211 HD
ENDBRANCH  14  18
BRANCH  15  20
ATOM     20  O   UNL     1       6.517  42.119  84.405  1.00  0.00    -0.385 OA
ATOM     21  H   UNL     1       6.489  41.176  84.117  1.00  0.00     0.211 HD
ENDBRANCH  15  20
ENDBRANCH   8   9
ENDBRANCH   7   8
ENDBRANCH   1   7
BRANCH   2  22
ATOM     22  O   UNL     1       1.485  39.846  84.698  1.00  0.00    -0.387 OA
ATOM     23  H   UNL     1       2.079  39.695  83.909  1.00  0.00     0.211 HD
ENDBRANCH   2  22
BRANCH   3  24
ATOM     24  O   UNL     1       0.807  42.192  85.974  1.00  0.00    -0.387 OA
ATOM     25  H   UNL     1       1.674  41.788  85.719  1.00  0.00     0.211 HD
ENDBRANCH   3  24
BRANCH   5  26
ATOM     26  O   UNL     1      -1.682  44.138  83.435  1.00  0.00    -0.454 OA
BRANCH  26  27
ATOM     27  C   UNL     1      -1.555  44.950  82.292  1.00  0.00     0.214 A 
ATOM     28  C   UNL     1      -0.832  46.150  82.371  1.00  0.00     0.180 A 
ATOM     29  C   UNL     1      -2.042  44.534  81.043  1.00  0.00     0.239 A 
ATOM     30  O   UNL     1      -0.497  46.789  81.260  1.00  0.00    -0.452 OA
ATOM     31  C   UNL     1      -1.705  45.259  79.874  1.00  0.00     0.111 A 
ATOM     32  O   UNL     1      -2.764  43.510  80.993  1.00  0.00    -0.285 OA
ATOM     33  C   UNL     1      -0.858  46.386  80.046  1.00  0.00     0.146 A 
ATOM     34  C   UNL     1      -2.116  44.919  78.550  1.00  0.00     0.134 A 
ATOM     35  C   UNL     1      -0.412  47.118  78.939  1.00  0.00     0.094 A 
ATOM     36  C   UNL     1      -1.617  45.643  77.467  1.00  0.00     0.093 A 
ATOM     37  C   UNL     1      -0.778  46.737  77.651  1.00  0.00     0.123 A 
BRANCH  28  38
ATOM     38  C   UNL     1      -0.385  46.716  83.657  1.00  0.00     0.025 A 
ATOM     39  C   UNL     1       0.489  46.000  84.493  1.00  0.00     0.062 A 
ATOM     40  C   UNL     1      -0.893  47.946  84.101  1.00  0.00     0.016 A 
ATOM     41  C   UNL     1       0.844  46.494  85.759  1.00  0.00     0.158 A 
ATOM     42  C   UNL     1      -0.544  48.448  85.356  1.00  0.00     0.051 A 
ATOM     43  C   UNL     1       0.322  47.739  86.194  1.00  0.00     0.157 A 
BRANCH  41  44
ATOM     44  O   UNL     1       1.701  45.719  86.553  1.00  0.00    -0.504 OA
ATOM     45  H   UNL     1       2.674  45.541  86.327  1.00  0.00     0.293 HD
ENDBRANCH  41  44
BRANCH  43  46
ATOM     46  O   UNL     1       0.631  48.298  87.438  1.00  0.00    -0.504 OA
ATOM     47  H   UNL     1       1.092  47.797  88.188  1.00  0.00     0.293 HD
ENDBRANCH  43  46
ENDBRANCH  28  38
BRANCH  34  48
ATOM     48  O   UNL     1      -2.992  43.879  78.237  1.00  0.00    -0.507 OA
ATOM     49  H   UNL     1      -3.999  43.939  78.270  1.00  0.00     0.293 HD
ENDBRANCH  34  48
BRANCH  37  50
ATOM     50  O   UNL     1      -0.326  47.446  76.538  1.00  0.00    -0.508 OA
ATOM     51  H   UNL     1      -0.179  48.441  76.575  1.00  0.00     0.293 HD
ENDBRANCH  37  50
ENDBRANCH  26  27
ENDBRANCH   5  26
BRANCH   4  52
ATOM     52  O   UNL     1      -2.602  41.565  85.051  1.00  0.00    -0.384 OA
ATOM     53  H   UNL     1      -3.183  41.853  84.295  1.00  0.00     0.211 HD
ENDBRANCH   4  52
TORSDOF 16
ENDMDL
MODEL 7
REMARK VINA RESULT:    -7.336      1.988      6.682
REMARK INTER + INTRA:         -13.857
REMARK INTER:                 -10.822
REMARK INTRA:                  -3.034
REMARK UNBOUND:                -1.804
REMARK SMILES C[C@@H]1O[C@@H](OC[C@@H]2O[C@H](Oc3c(-c4ccc(O)c(O)c4)oc4cc(O)cc(O)c4c3=O)[C@@H](O)[C@H](O)[C@@H]2O)[C@H](O)[C@H](O)[C@H]1O
REMARK SMILES IDX 7 1 36 2 34 3 32 4 9 5 8 6 6 7 5 8 4 9 1 10 2 11 42 12 3 13
REMARK SMILES IDX 40 14 38 15 43 16 41 18 39 20 37 22 35 24 10 26 11 27 12 28
REMARK SMILES IDX 30 29 21 30 29 31 31 32 22 33 27 34 23 35 26 36 24 37 13 38
REMARK SMILES IDX 20 39 14 40 18 41 15 42 16 43 19 44 17 46 28 48 25 50 33 52
REMARK H PARENT 43 17 41 19 39 21 37 23 35 25 19 45 17 47 28 49 25 51 33 53
REMARK Flexibility Score: inf
ROOT
ATOM      1  C   UNL     1      -2.179  42.273  82.119  1.00  0.00     0.180 C 
ATOM      2  C   UNL     1      -1.076  41.488  81.323  1.00  0.00     0.177 C 
ATOM      3  C   UNL     1       0.333  41.938  81.741  1.00  0.00     0.180 C 
ATOM      4  C   UNL     1       0.503  41.864  83.280  1.00  0.00     0.214 C 
ATOM      5  C   UNL     1      -0.812  42.212  84.028  1.00  0.00     0.339 C 
ATOM      6  O   UNL     1      -1.641  43.013  83.207  1.00  0.00    -0.332 OA
ENDROOT
BRANCH   1   7
ATOM      7  C   UNL     1      -2.987  43.269  81.265  1.00  0.00     0.198 C 
BRANCH   7   8
ATOM      8  O   UNL     1      -2.144  44.337  80.881  1.00  0.00    -0.347 OA
BRANCH   8   9
ATOM      9  C   UNL     1      -2.742  45.152  79.879  1.00  0.00     0.281 C 
ATOM     10  C   UNL     1      -0.402  47.148  78.065  1.00  0.00     0.041 C 
ATOM     11  C   UNL     1      -0.690  46.195  79.226  1.00  0.00     0.150 C 
ATOM     12  C   UNL     1      -0.754  47.006  80.588  1.00  0.00     0.174 C 
ATOM     13  O   UNL     1      -1.808  45.389  78.847  1.00  0.00    -0.344 OA
ATOM     14  C   UNL     1      -2.155  47.162  81.250  1.00  0.00     0.179 C 
ATOM     15  C   UNL     1      -3.267  46.491  80.418  1.00  0.00     0.202 C 
BRANCH  12  16
ATOM     16  O   UNL     1       0.161  46.470  81.516  1.00  0.00    -0.388 OA
ATOM     17  H   UNL     1      -0.181  45.587  81.805  1.00  0.00     0.211 HD
ENDBRANCH  12  16
BRANCH  14  18
ATOM     18  O   UNL     1      -2.423  48.521  81.459  1.00  0.00    -0.387 OA
ATOM     19  H   UNL     1      -1.550  48.987  81.561  1.00  0.00     0.211 HD
ENDBRANCH  14  18
BRANCH  15  20
ATOM     20  O   UNL     1      -3.647  47.298  79.330  1.00  0.00    -0.385 OA
ATOM     21  H   UNL     1      -3.603  46.748  78.511  1.00  0.00     0.211 HD
ENDBRANCH  15  20
ENDBRANCH   8   9
ENDBRANCH   7   8
ENDBRANCH   1   7
BRANCH   2  22
ATOM     22  O   UNL     1      -1.212  41.627  79.933  1.00  0.00    -0.387 OA
ATOM     23  H   UNL     1      -0.851  40.794  79.518  1.00  0.00     0.211 HD
ENDBRANCH   2  22
BRANCH   3  24
ATOM     24  O   UNL     1       0.551  43.252  81.292  1.00  0.00    -0.387 OA
ATOM     25  H   UNL     1       1.142  43.692  81.954  1.00  0.00     0.211 HD
ENDBRANCH   3  24
BRANCH   5  26
ATOM     26  O   UNL     1      -0.484  42.960  85.200  1.00  0.00    -0.454 OA
BRANCH  26  27
ATOM     27  C   UNL     1      -0.478  44.367  85.239  1.00  0.00     0.214 A 
ATOM     28  C   UNL     1       0.720  45.061  85.007  1.00  0.00     0.180 A 
ATOM     29  C   UNL     1      -1.665  45.100  85.394  1.00  0.00     0.239 A 
ATOM     30  O   UNL     1       0.691  46.368  84.795  1.00  0.00    -0.452 OA
ATOM     31  C   UNL     1      -1.662  46.503  85.204  1.00  0.00     0.111 A 
ATOM     32  O   UNL     1      -2.715  44.481  85.691  1.00  0.00    -0.285 OA
ATOM     33  C   UNL     1      -0.422  47.093  84.843  1.00  0.00     0.146 A 
ATOM     34  C   UNL     1      -2.807  47.348  85.308  1.00  0.00     0.134 A 
ATOM     35  C   UNL     1      -0.340  48.463  84.561  1.00  0.00     0.094 A 
ATOM     36  C   UNL     1      -2.699  48.699  84.977  1.00  0.00     0.093 A 
ATOM     37  C   UNL     1      -1.480  49.260  84.613  1.00  0.00     0.123 A 
BRANCH  28  38
ATOM     38  C   UNL     1       2.025  44.379  84.946  1.00  0.00     0.025 A 
ATOM     39  C   UNL     1       2.610  43.839  86.105  1.00  0.00     0.062 A 
ATOM     40  C   UNL     1       2.741  44.332  83.740  1.00  0.00     0.016 A 
ATOM     41  C   UNL     1       3.894  43.271  86.069  1.00  0.00     0.158 A 
ATOM     42  C   UNL     1       4.017  43.766  83.692  1.00  0.00     0.051 A 
ATOM     43  C   UNL     1       4.605  43.231  84.842  1.00  0.00     0.157 A 
BRANCH  41  44
ATOM     44  O   UNL     1       4.428  42.771  87.265  1.00  0.00    -0.504 OA
ATOM     45  H   UNL     1       4.589  43.336  88.091  1.00  0.00     0.293 HD
ENDBRANCH  41  44
BRANCH  43  46
ATOM     46  O   UNL     1       5.885  42.679  84.725  1.00  0.00    -0.504 OA
ATOM     47  H   UNL     1       6.743  43.206  84.837  1.00  0.00     0.293 HD
ENDBRANCH  43  46
ENDBRANCH  28  38
BRANCH  34  48
ATOM     48  O   UNL     1      -4.072  46.918  85.711  1.00  0.00    -0.507 OA
ATOM     49  H   UNL     1      -4.825  47.524  86.002  1.00  0.00     0.293 HD
ENDBRANCH  34  48
BRANCH  37  50
ATOM     50  O   UNL     1      -1.416  50.622  84.317  1.00  0.00    -0.508 OA
ATOM     51  H   UNL     1      -1.313  51.311  85.044  1.00  0.00     0.293 HD
ENDBRANCH  37  50
ENDBRANCH  26  27
ENDBRANCH   5  26
BRANCH   4  52
ATOM     52  O   UNL     1       0.977  40.596  83.665  1.00  0.00    -0.384 OA
ATOM     53  H   UNL     1       0.382  40.260  84.389  1.00  0.00     0.211 HD
ENDBRANCH   4  52
TORSDOF 16
ENDMDL
MODEL 8
REMARK VINA RESULT:    -7.224      1.760      5.321
REMARK INTER + INTRA:         -13.674
REMARK INTER:                 -11.839
REMARK INTRA:                  -1.835
REMARK UNBOUND:                -1.804
REMARK SMILES C[C@@H]1O[C@@H](OC[C@@H]2O[C@H](Oc3c(-c4ccc(O)c(O)c4)oc4cc(O)cc(O)c4c3=O)[C@@H](O)[C@H](O)[C@@H]2O)[C@H](O)[C@H](O)[C@H]1O
REMARK SMILES IDX 7 1 36 2 34 3 32 4 9 5 8 6 6 7 5 8 4 9 1 10 2 11 42 12 3 13
REMARK SMILES IDX 40 14 38 15 43 16 41 18 39 20 37 22 35 24 10 26 11 27 12 28
REMARK SMILES IDX 30 29 21 30 29 31 31 32 22 33 27 34 23 35 26 36 24 37 13 38
REMARK SMILES IDX 20 39 14 40 18 41 15 42 16 43 19 44 17 46 28 48 25 50 33 52
REMARK H PARENT 43 17 41 19 39 21 37 23 35 25 19 45 17 47 28 49 25 51 33 53
REMARK Flexibility Score: inf
ROOT
ATOM      1  C   UNL     1       1.724  40.869  82.177  1.00  0.00     0.180 C 
ATOM      2  C   UNL     1       1.108  39.630  82.920  1.00  0.00     0.177 C 
ATOM      3  C   UNL     1      -0.064  40.052  83.821  1.00  0.00     0.180 C 
ATOM      4  C   UNL     1      -1.102  40.881  83.023  1.00  0.00     0.214 C 
ATOM      5  C   UNL     1      -0.431  41.771  81.942  1.00  0.00     0.339 C 
ATOM      6  O   UNL     1       0.915  42.031  82.294  1.00  0.00    -0.332 OA
ENDROOT
BRANCH   1   7
ATOM      7  C   UNL     1       3.133  41.261  82.662  1.00  0.00     0.198 C 
BRANCH   7   8
ATOM      8  O   UNL     1       3.079  41.553  84.044  1.00  0.00    -0.347 OA
BRANCH   8   9
ATOM      9  C   UNL     1       3.276  42.939  84.302  1.00  0.00     0.281 C 
ATOM     10  C   UNL     1       6.703  43.854  84.707  1.00  0.00     0.041 C 
ATOM     11  C   UNL     1       5.649  42.758  84.545  1.00  0.00     0.150 C 
ATOM     12  C   UNL     1       5.379  42.057  85.941  1.00  0.00     0.174 C 
ATOM     13  O   UNL     1       4.550  43.329  83.832  1.00  0.00    -0.344 OA
ATOM     14  C   UNL     1       4.007  42.342  86.620  1.00  0.00     0.179 C 
ATOM     15  C   UNL     1       3.138  43.307  85.786  1.00  0.00     0.202 C 
BRANCH  12  16
ATOM     16  O   UNL     1       5.584  40.667  85.834  1.00  0.00    -0.388 OA
ATOM     17  H   UNL     1       6.422  40.520  85.329  1.00  0.00     0.211 HD
ENDBRANCH  12  16
BRANCH  14  18
ATOM     18  O   UNL     1       4.220  42.835  87.914  1.00  0.00    -0.387 OA
ATOM     19  H   UNL     1       3.330  43.046  88.305  1.00  0.00     0.211 HD
ENDBRANCH  14  18
BRANCH  15  20
ATOM     20  O   UNL     1       3.548  44.642  85.961  1.00  0.00    -0.385 OA
ATOM     21  H   UNL     1       3.002  45.038  86.681  1.00  0.00     0.211 HD
ENDBRANCH  15  20
ENDBRANCH   8   9
ENDBRANCH   7   8
ENDBRANCH   1   7
BRANCH   2  22
ATOM     22  O   UNL     1       2.056  38.937  83.690  1.00  0.00    -0.387 OA
ATOM     23  H   UNL     1       2.956  39.170  83.327  1.00  0.00     0.211 HD
ENDBRANCH   2  22
BRANCH   3  24
ATOM     24  O   UNL     1       0.430  40.805  84.899  1.00  0.00    -0.387 OA
ATOM     25  H   UNL     1       1.230  40.333  85.244  1.00  0.00     0.211 HD
ENDBRANCH   3  24
BRANCH   5  26
ATOM     26  O   UNL     1      -1.128  43.017  81.882  1.00  0.00    -0.454 OA
BRANCH  26  27
ATOM     27  C   UNL     1      -1.453  43.659  80.672  1.00  0.00     0.214 A 
ATOM     28  C   UNL     1      -1.362  45.057  80.584  1.00  0.00     0.180 A 
ATOM     29  C   UNL     1      -1.761  42.926  79.515  1.00  0.00     0.239 A 
ATOM     30  O   UNL     1      -1.421  45.645  79.399  1.00  0.00    -0.452 OA
ATOM     31  C   UNL     1      -1.861  43.585  78.265  1.00  0.00     0.111 A 
ATOM     32  O   UNL     1      -1.930  41.688  79.619  1.00  0.00    -0.285 OA
ATOM     33  C   UNL     1      -1.622  44.985  78.263  1.00  0.00     0.146 A 
ATOM     34  C   UNL     1      -2.141  42.945  77.021  1.00  0.00     0.134 A 
ATOM     35  C   UNL     1      -1.625  45.706  77.062  1.00  0.00     0.094 A 
ATOM     36  C   UNL     1      -2.093  43.686  75.839  1.00  0.00     0.093 A 
ATOM     37  C   UNL     1      -1.844  45.054  75.851  1.00  0.00     0.123 A 
BRANCH  28  38
ATOM     38  C   UNL     1      -1.156  45.908  81.769  1.00  0.00     0.025 A 
ATOM     39  C   UNL     1      -2.249  46.358  82.530  1.00  0.00     0.062 A 
ATOM     40  C   UNL     1       0.133  46.349  82.106  1.00  0.00     0.016 A 
ATOM     41  C   UNL     1      -2.066  47.244  83.605  1.00  0.00     0.158 A 
ATOM     42  C   UNL     1       0.327  47.227  83.175  1.00  0.00     0.051 A 
ATOM     43  C   UNL     1      -0.757  47.681  83.933  1.00  0.00     0.157 A 
BRANCH  41  44
ATOM     44  O   UNL     1      -3.200  47.672  84.308  1.00  0.00    -0.504 OA
ATOM     45  H   UNL     1      -3.212  48.475  84.928  1.00  0.00     0.293 HD
ENDBRANCH  41  44
BRANCH  43  46
ATOM     46  O   UNL     1      -0.493  48.559  84.989  1.00  0.00    -0.504 OA
ATOM     47  H   UNL     1       0.051  49.409  84.900  1.00  0.00     0.293 HD
ENDBRANCH  43  46
ENDBRANCH  28  38
BRANCH  34  48
ATOM     48  O   UNL     1      -2.454  41.592  76.880  1.00  0.00    -0.507 OA
ATOM     49  H   UNL     1      -3.113  41.216  76.215  1.00  0.00     0.293 HD
ENDBRANCH  34  48
BRANCH  37  50
ATOM     50  O   UNL     1      -1.833  45.757  74.647  1.00  0.00    -0.508 OA
ATOM     51  H   UNL     1      -1.114  46.431  74.441  1.00  0.00     0.293 HD
ENDBRANCH  37  50
ENDBRANCH  26  27
ENDBRANCH   5  26
BRANCH   4  52
ATOM     52  O   UNL     1      -2.070  40.038  82.446  1.00  0.00    -0.384 OA
ATOM     53  H   UNL     1      -1.815  39.099  82.656  1.00  0.00     0.211 HD
ENDBRANCH   4  52
TORSDOF 16
ENDMDL
MODEL 9
REMARK VINA RESULT:    -7.139      2.125      6.479
REMARK INTER + INTRA:         -13.534
REMARK INTER:                 -10.791
REMARK INTRA:                  -2.742
REMARK UNBOUND:                -1.804
REMARK SMILES C[C@@H]1O[C@@H](OC[C@@H]2O[C@H](Oc3c(-c4ccc(O)c(O)c4)oc4cc(O)cc(O)c4c3=O)[C@@H](O)[C@H](O)[C@@H]2O)[C@H](O)[C@H](O)[C@H]1O
REMARK SMILES IDX 7 1 36 2 34 3 32 4 9 5 8 6 6 7 5 8 4 9 1 10 2 11 42 12 3 13
REMARK SMILES IDX 40 14 38 15 43 16 41 18 39 20 37 22 35 24 10 26 11 27 12 28
REMARK SMILES IDX 30 29 21 30 29 31 31 32 22 33 27 34 23 35 26 36 24 37 13 38
REMARK SMILES IDX 20 39 14 40 18 41 15 42 16 43 19 44 17 46 28 48 25 50 33 52
REMARK H PARENT 43 17 41 19 39 21 37 23 35 25 19 45 17 47 28 49 25 51 33 53
REMARK Flexibility Score: inf
ROOT
ATOM      1  C   UNL     1       0.965  42.605  86.011  1.00  0.00     0.180 C 
ATOM      2  C   UNL     1       2.303  43.270  85.527  1.00  0.00     0.177 C 
ATOM      3  C   UNL     1       2.046  44.255  84.375  1.00  0.00     0.180 C 
ATOM      4  C   UNL     1       0.944  45.276  84.757  1.00  0.00     0.214 C 
ATOM      5  C   UNL     1      -0.147  44.644  85.663  1.00  0.00     0.339 C 
ATOM      6  O   UNL     1      -0.185  43.242  85.472  1.00  0.00    -0.332 OA
ENDROOT
BRANCH   1   7
ATOM      7  C   UNL     1       0.842  41.108  85.668  1.00  0.00     0.198 C 
BRANCH   7   8
ATOM      8  O   UNL     1       0.834  40.957  84.263  1.00  0.00    -0.347 OA
BRANCH   8   9
ATOM      9  C   UNL     1      -0.153  40.025  83.834  1.00  0.00     0.281 C 
ATOM     10  C   UNL     1       1.047  37.658  81.445  1.00  0.00     0.041 C 
ATOM     11  C   UNL     1       1.286  38.922  82.272  1.00  0.00     0.150 C 
ATOM     12  C   UNL     1       1.148  40.205  81.350  1.00  0.00     0.174 C 
ATOM     13  O   UNL     1       0.476  38.821  83.445  1.00  0.00    -0.344 OA
ATOM     14  C   UNL     1      -0.104  41.104  81.577  1.00  0.00     0.179 C 
ATOM     15  C   UNL     1      -1.024  40.548  82.683  1.00  0.00     0.202 C 
BRANCH  12  16
ATOM     16  O   UNL     1       2.320  40.984  81.424  1.00  0.00    -0.388 OA
ATOM     17  H   UNL     1       2.081  41.916  81.193  1.00  0.00     0.211 HD
ENDBRANCH  12  16
BRANCH  14  18
ATOM     18  O   UNL     1      -0.794  41.255  80.367  1.00  0.00    -0.387 OA
ATOM     19  H   UNL     1      -0.131  41.166  79.630  1.00  0.00     0.211 HD
ENDBRANCH  14  18
BRANCH  15  20
ATOM     20  O   UNL     1      -1.819  39.491  82.202  1.00  0.00    -0.385 OA
ATOM     21  H   UNL     1      -2.088  39.707  81.277  1.00  0.00     0.211 HD
ENDBRANCH  15  20
ENDBRANCH   8   9
ENDBRANCH   7   8
ENDBRANCH   1   7
BRANCH   2  22
ATOM     22  O   UNL     1       3.258  42.325  85.121  1.00  0.00    -0.387 OA
ATOM     23  H   UNL     1       3.515  41.800  85.931  1.00  0.00     0.211 HD
ENDBRANCH   2  22
BRANCH   3  24
ATOM     24  O   UNL     1       1.662  43.537  83.230  1.00  0.00    -0.387 OA
ATOM     25  H   UNL     1       1.522  42.596  83.508  1.00  0.00     0.211 HD
ENDBRANCH   3  24
BRANCH   5  26
ATOM     26  O   UNL     1      -1.416  45.183  85.289  1.00  0.00    -0.454 OA
BRANCH  26  27
ATOM     27  C   UNL     1      -1.626  45.907  84.100  1.00  0.00     0.214 A 
ATOM     28  C   UNL     1      -1.751  47.303  84.152  1.00  0.00     0.180 A 
ATOM     29  C   UNL     1      -1.601  45.276  82.846  1.00  0.00     0.239 A 
ATOM     30  O   UNL     1      -1.697  48.010  83.033  1.00  0.00    -0.452 OA
ATOM     31  C   UNL     1      -1.587  46.053  81.662  1.00  0.00     0.111 A 
ATOM     32  O   UNL     1      -1.580  44.022  82.807  1.00  0.00    -0.285 OA
ATOM     33  C   UNL     1      -1.585  47.464  81.827  1.00  0.00     0.146 A 
ATOM     34  C   UNL     1      -1.536  45.528  80.336  1.00  0.00     0.134 A 
ATOM     35  C   UNL     1      -1.496  48.311  80.715  1.00  0.00     0.094 A 
ATOM     36  C   UNL     1      -1.403  46.399  79.254  1.00  0.00     0.093 A 
ATOM     37  C   UNL     1      -1.389  47.778  79.433  1.00  0.00     0.123 A 
BRANCH  28  38
ATOM     38  C   UNL     1      -1.899  48.032  85.425  1.00  0.00     0.025 A 
ATOM     39  C   UNL     1      -0.771  48.489  86.128  1.00  0.00     0.062 A 
ATOM     40  C   UNL     1      -3.171  48.208  85.993  1.00  0.00     0.016 A 
ATOM     41  C   UNL     1      -0.903  49.103  87.385  1.00  0.00     0.158 A 
ATOM     42  C   UNL     1      -3.313  48.820  87.241  1.00  0.00     0.051 A 
ATOM     43  C   UNL     1      -2.194  49.273  87.946  1.00  0.00     0.157 A 
BRANCH  41  44
ATOM     44  O   UNL     1       0.264  49.515  88.043  1.00  0.00    -0.504 OA
ATOM     45  H   UNL     1       0.606  50.470  88.041  1.00  0.00     0.293 HD
ENDBRANCH  41  44
BRANCH  43  46
ATOM     46  O   UNL     1      -2.407  49.877  89.190  1.00  0.00    -0.504 OA
ATOM     47  H   UNL     1      -2.897  50.754  89.320  1.00  0.00     0.293 HD
ENDBRANCH  43  46
ENDBRANCH  28  38
BRANCH  34  48
ATOM     48  O   UNL     1      -1.593  44.169  80.021  1.00  0.00    -0.507 OA
ATOM     49  H   UNL     1      -0.813  43.530  80.067  1.00  0.00     0.293 HD
ENDBRANCH  34  48
BRANCH  37  50
ATOM     50  O   UNL     1      -1.282  48.610  78.319  1.00  0.00    -0.508 OA
ATOM     51  H   UNL     1      -1.706  48.364  77.439  1.00  0.00     0.293 HD
ENDBRANCH  37  50
ENDBRANCH  26  27
ENDBRANCH   5  26
BRANCH   4  52
ATOM     52  O   UNL     1       1.512  46.407  85.374  1.00  0.00    -0.384 OA
ATOM     53  H   UNL     1       0.812  47.115  85.409  1.00  0.00     0.211 HD
ENDBRANCH   4  52
TORSDOF 16
ENDMDL
