MODEL 1
REMARK VINA RESULT:    -2.067      0.000      0.000
REMARK INTER + INTRA:          -2.127
REMARK INTER:                  -2.127
REMARK INTRA:                   0.000
REMARK UNBOUND:                 0.000
REMARK SMILES CC1(C)[C@@H]2CC[C@@](C)(C2)[C@@H]1O
REMARK SMILES IDX 1 1 2 2 4 3 5 4 6 5 7 6 9 7 10 8 8 9 3 10 11 11
REMARK H PARENT 11 12
REMARK Flexibility Score: inf
ROOT
ATOM      1  C   UNL     1     125.225 111.475 131.808  1.00  0.00     0.014 C 
ATOM      2  C   UNL     1     125.378 110.084 132.476  1.00  0.00    -0.006 C 
ATOM      3  C   UNL     1     126.895 109.794 132.755  1.00  0.00    -0.002 C 
ATOM      4  C   UNL     1     127.124 108.322 133.158  1.00  0.00     0.005 C 
ATOM      5  C   UNL     1     126.482 108.243 134.552  1.00  0.00     0.010 C 
ATOM      6  C   UNL     1     126.022 109.701 134.805  1.00  0.00    -0.006 C 
ATOM      7  C   UNL     1     127.125 110.468 134.103  1.00  0.00     0.013 C 
ATOM      8  C   UNL     1     124.797 110.099 133.930  1.00  0.00     0.126 C 
ATOM      9  C   UNL     1     125.867 110.052 136.288  1.00  0.00     0.014 C 
ATOM     10  C   UNL     1     124.710 109.054 131.529  1.00  0.00     0.014 C 
ENDROOT
BRANCH   8  11
ATOM     11  O   UNL     1     123.641 109.320 134.136  1.00  0.00    -0.392 OA
ATOM     12  H   UNL     1     123.893 108.385 134.314  1.00  0.00     0.211 HD
ENDBRANCH   8  11
TORSDOF 1
ENDMDL
MODEL 2
REMARK VINA RESULT:    -2.022      1.175      1.799
REMARK INTER + INTRA:          -2.081
REMARK INTER:                  -2.081
REMARK INTRA:                   0.000
REMARK UNBOUND:                 0.000
REMARK SMILES CC1(C)[C@@H]2CC[C@@](C)(C2)[C@@H]1O
REMARK SMILES IDX 1 1 2 2 4 3 5 4 6 5 7 6 9 7 10 8 8 9 3 10 11 11
REMARK H PARENT 11 12
REMARK Flexibility Score: inf
ROOT
ATOM      1  C   UNL     1     123.725 111.653 134.536  1.00  0.00     0.014 C 
ATOM      2  C   UNL     1     124.654 110.610 133.862  1.00  0.00    -0.006 C 
ATOM      3  C   UNL     1     126.148 110.914 134.230  1.00  0.00    -0.002 C 
ATOM      4  C   UNL     1     127.123 110.085 133.369  1.00  0.00     0.005 C 
ATOM      5  C   UNL     1     126.911 108.655 133.888  1.00  0.00     0.010 C 
ATOM      6  C   UNL     1     125.886 108.852 135.035  1.00  0.00    -0.006 C 
ATOM      7  C   UNL     1     126.318 110.203 135.568  1.00  0.00     0.013 C 
ATOM      8  C   UNL     1     124.462 109.196 134.506  1.00  0.00     0.126 C 
ATOM      9  C   UNL     1     125.907 107.734 136.081  1.00  0.00     0.014 C 
ATOM     10  C   UNL     1     124.362 110.666 132.340  1.00  0.00     0.014 C 
ENDROOT
BRANCH   8  11
ATOM     11  O   UNL     1     123.882 108.217 133.675  1.00  0.00    -0.392 OA
ATOM     12  H   UNL     1     123.093 107.826 134.117  1.00  0.00     0.211 HD
ENDBRANCH   8  11
TORSDOF 1
ENDMDL
MODEL 3
REMARK VINA RESULT:    -2.019      1.272      2.287
REMARK INTER + INTRA:          -2.079
REMARK INTER:                  -2.079
REMARK INTRA:                   0.000
REMARK UNBOUND:                 0.000
REMARK SMILES CC1(C)[C@@H]2CC[C@@](C)(C2)[C@@H]1O
REMARK SMILES IDX 1 1 2 2 4 3 5 4 6 5 7 6 9 7 10 8 8 9 3 10 11 11
REMARK H PARENT 11 12
REMARK Flexibility Score: inf
ROOT
ATOM      1  C   UNL     1     124.708 107.995 131.908  1.00  0.00     0.014 C 
ATOM      2  C   UNL     1     124.766 108.591 133.338  1.00  0.00    -0.006 C 
ATOM      3  C   UNL     1     126.042 108.061 134.082  1.00  0.00    -0.002 C 
ATOM      4  C   UNL     1     126.001 108.397 135.586  1.00  0.00     0.005 C 
ATOM      5  C   UNL     1     126.185 109.923 135.604  1.00  0.00     0.010 C 
ATOM      6  C   UNL     1     126.377 110.265 134.104  1.00  0.00    -0.006 C 
ATOM      7  C   UNL     1     127.125 109.035 133.630  1.00  0.00     0.013 C 
ATOM      8  C   UNL     1     125.058 110.129 133.288  1.00  0.00     0.126 C 
ATOM      9  C   UNL     1     127.125 111.580 133.861  1.00  0.00     0.014 C 
ATOM     10  C   UNL     1     123.435 108.213 134.037  1.00  0.00     0.014 C 
ENDROOT
BRANCH   8  11
ATOM     11  O   UNL     1     124.007 110.966 133.712  1.00  0.00    -0.392 OA
ATOM     12  H   UNL     1     123.256 110.421 134.044  1.00  0.00     0.211 HD
ENDBRANCH   8  11
TORSDOF 1
ENDMDL
MODEL 4
REMARK VINA RESULT:    -1.980      1.464      2.739
REMARK INTER + INTRA:          -2.038
REMARK INTER:                  -2.038
REMARK INTRA:                   0.000
REMARK UNBOUND:                 0.000
REMARK SMILES CC1(C)[C@@H]2CC[C@@](C)(C2)[C@@H]1O
REMARK SMILES IDX 1 1 2 2 4 3 5 4 6 5 7 6 9 7 10 8 8 9 3 10 11 11
REMARK H PARENT 11 12
REMARK Flexibility Score: inf
ROOT
ATOM      1  C   UNL     1     123.049 109.738 135.281  1.00  0.00     0.014 C 
ATOM      2  C   UNL     1     124.264 110.021 134.361  1.00  0.00    -0.006 C 
ATOM      3  C   UNL     1     125.524 110.357 135.234  1.00  0.00    -0.002 C 
ATOM      4  C   UNL     1     126.677 110.914 134.374  1.00  0.00     0.005 C 
ATOM      5  C   UNL     1     127.122 109.689 133.560  1.00  0.00     0.010 C 
ATOM      6  C   UNL     1     126.210 108.560 134.106  1.00  0.00    -0.006 C 
ATOM      7  C   UNL     1     126.088 108.978 135.558  1.00  0.00     0.013 C 
ATOM      8  C   UNL     1     124.732 108.712 133.640  1.00  0.00     0.126 C 
ATOM      9  C   UNL     1     126.783 107.154 133.909  1.00  0.00     0.014 C 
ATOM     10  C   UNL     1     123.846 111.166 133.403  1.00  0.00     0.014 C 
ENDROOT
BRANCH   8  11
ATOM     11  O   UNL     1     124.542 108.679 132.244  1.00  0.00    -0.392 OA
ATOM     12  H   UNL     1     123.837 108.029 132.017  1.00  0.00     0.211 HD
ENDBRANCH   8  11
TORSDOF 1
ENDMDL
MODEL 5
REMARK VINA RESULT:    -1.972      0.995      3.261
REMARK INTER + INTRA:          -2.030
REMARK INTER:                  -2.030
REMARK INTRA:                   0.000
REMARK UNBOUND:                 0.000
REMARK SMILES CC1(C)[C@@H]2CC[C@@](C)(C2)[C@@H]1O
REMARK SMILES IDX 1 1 2 2 4 3 5 4 6 5 7 6 9 7 10 8 8 9 3 10 11 11
REMARK H PARENT 11 12
REMARK Flexibility Score: inf
ROOT
ATOM      1  C   UNL     1     126.553 106.964 134.499  1.00  0.00     0.014 C 
ATOM      2  C   UNL     1     126.094 108.444 134.523  1.00  0.00    -0.006 C 
ATOM      3  C   UNL     1     127.125 109.332 133.742  1.00  0.00    -0.002 C 
ATOM      4  C   UNL     1     126.866 110.835 133.972  1.00  0.00     0.005 C 
ATOM      5  C   UNL     1     125.547 111.076 133.223  1.00  0.00     0.010 C 
ATOM      6  C   UNL     1     125.246 109.690 132.596  1.00  0.00    -0.006 C 
ATOM      7  C   UNL     1     126.652 109.208 132.298  1.00  0.00     0.013 C 
ATOM      8  C   UNL     1     124.804 108.641 133.658  1.00  0.00     0.126 C 
ATOM      9  C   UNL     1     124.335 109.753 131.366  1.00  0.00     0.014 C 
ATOM     10  C   UNL     1     125.933 108.841 136.014  1.00  0.00     0.014 C 
ENDROOT
BRANCH   8  11
ATOM     11  O   UNL     1     123.633 108.971 134.369  1.00  0.00    -0.392 OA
ATOM     12  H   UNL     1     123.852 109.143 135.315  1.00  0.00     0.211 HD
ENDBRANCH   8  11
TORSDOF 1
ENDMDL
MODEL 6
REMARK VINA RESULT:    -1.854      2.310      3.761
REMARK INTER + INTRA:          -1.908
REMARK INTER:                  -1.908
REMARK INTRA:                   0.000
REMARK UNBOUND:                 0.000
REMARK SMILES CC1(C)[C@@H]2CC[C@@](C)(C2)[C@@H]1O
REMARK SMILES IDX 1 1 2 2 4 3 5 4 6 5 7 6 9 7 10 8 8 9 3 10 11 11
REMARK H PARENT 11 12
REMARK Flexibility Score: inf
ROOT
ATOM      1  C   UNL     1     126.729 109.764 134.233  1.00  0.00     0.014 C 
ATOM      2  C   UNL     1     125.715 110.288 135.281  1.00  0.00    -0.006 C 
ATOM      3  C   UNL     1     125.062 109.079 136.038  1.00  0.00    -0.002 C 
ATOM      4  C   UNL     1     123.854 109.528 136.886  1.00  0.00     0.005 C 
ATOM      5  C   UNL     1     124.508 110.343 138.012  1.00  0.00     0.010 C 
ATOM      6  C   UNL     1     126.022 110.203 137.707  1.00  0.00    -0.006 C 
ATOM      7  C   UNL     1     126.065 108.794 137.149  1.00  0.00     0.013 C 
ATOM      8  C   UNL     1     126.453 111.019 136.452  1.00  0.00     0.126 C 
ATOM      9  C   UNL     1     126.921 110.418 138.928  1.00  0.00     0.014 C 
ATOM     10  C   UNL     1     124.694 111.171 134.517  1.00  0.00     0.014 C 
ENDROOT
BRANCH   8  11
ATOM     11  O   UNL     1     126.236 112.408 136.542  1.00  0.00    -0.392 OA
ATOM     12  H   UNL     1     127.060 112.859 136.842  1.00  0.00     0.211 HD
ENDBRANCH   8  11
TORSDOF 1
ENDMDL
MODEL 7
REMARK VINA RESULT:    -1.796      1.613      2.802
REMARK INTER + INTRA:          -1.849
REMARK INTER:                  -1.849
REMARK INTRA:                   0.000
REMARK UNBOUND:                 0.000
REMARK SMILES CC1(C)[C@@H]2CC[C@@](C)(C2)[C@@H]1O
REMARK SMILES IDX 1 1 2 2 4 3 5 4 6 5 7 6 9 7 10 8 8 9 3 10 11 11
REMARK H PARENT 11 12
REMARK Flexibility Score: inf
ROOT
ATOM      1  C   UNL     1     126.874 110.745 134.298  1.00  0.00     0.014 C 
ATOM      2  C   UNL     1     126.218 109.340 134.327  1.00  0.00    -0.006 C 
ATOM      3  C   UNL     1     126.031 108.872 135.813  1.00  0.00    -0.002 C 
ATOM      4  C   UNL     1     125.646 107.381 135.892  1.00  0.00     0.005 C 
ATOM      5  C   UNL     1     124.216 107.365 135.330  1.00  0.00     0.010 C 
ATOM      6  C   UNL     1     123.933 108.865 135.060  1.00  0.00    -0.006 C 
ATOM      7  C   UNL     1     124.699 109.503 136.201  1.00  0.00     0.013 C 
ATOM      8  C   UNL     1     124.732 109.410 133.839  1.00  0.00     0.126 C 
ATOM      9  C   UNL     1     122.443 109.218 135.036  1.00  0.00     0.014 C 
ATOM     10  C   UNL     1     127.125 108.404 133.487  1.00  0.00     0.014 C 
ENDROOT
BRANCH   8  11
ATOM     11  O   UNL     1     124.457 108.771 132.614  1.00  0.00    -0.392 OA
ATOM     12  H   UNL     1     123.844 109.324 132.077  1.00  0.00     0.211 HD
ENDBRANCH   8  11
TORSDOF 1
ENDMDL
MODEL 8
REMARK VINA RESULT:    -1.764      1.371      3.159
REMARK INTER + INTRA:          -1.815
REMARK INTER:                  -1.815
REMARK INTRA:                   0.000
REMARK UNBOUND:                 0.000
REMARK SMILES CC1(C)[C@@H]2CC[C@@](C)(C2)[C@@H]1O
REMARK SMILES IDX 1 1 2 2 4 3 5 4 6 5 7 6 9 7 10 8 8 9 3 10 11 11
REMARK H PARENT 11 12
REMARK Flexibility Score: inf
ROOT
ATOM      1  C   UNL     1     126.090 110.595 136.771  1.00  0.00     0.014 C 
ATOM      2  C   UNL     1     126.201 110.759 135.234  1.00  0.00    -0.006 C 
ATOM      3  C   UNL     1     126.733 109.427 134.596  1.00  0.00    -0.002 C 
ATOM      4  C   UNL     1     127.124 109.625 133.117  1.00  0.00     0.005 C 
ATOM      5  C   UNL     1     125.767 109.835 132.427  1.00  0.00     0.010 C 
ATOM      6  C   UNL     1     124.757 109.663 133.591  1.00  0.00    -0.006 C 
ATOM      7  C   UNL     1     125.461 108.607 134.418  1.00  0.00     0.013 C 
ATOM      8  C   UNL     1     124.781 110.864 134.582  1.00  0.00     0.126 C 
ATOM      9  C   UNL     1     123.351 109.263 133.134  1.00  0.00     0.014 C 
ATOM     10  C   UNL     1     127.118 111.983 134.977  1.00  0.00     0.014 C 
ENDROOT
BRANCH   8  11
ATOM     11  O   UNL     1     124.460 112.113 134.012  1.00  0.00    -0.392 OA
ATOM     12  H   UNL     1     124.093 111.984 133.107  1.00  0.00     0.211 HD
ENDBRANCH   8  11
TORSDOF 1
ENDMDL
