MODEL 1
REMARK VINA RESULT:    -6.002      0.000      0.000
REMARK INTER + INTRA:         -12.121
REMARK INTER:                 -10.915
REMARK INTRA:                  -1.206
REMARK UNBOUND:                -1.206
REMARK SMILES CCCCCCCCCCCCCCCC(=O)[O-]
REMARK SMILES IDX 9 1 10 2 11 3 12 4 13 5 14 6 15 7 16 8 17 9 18 10 8 11 7 12
REMARK SMILES IDX 6 13 5 14 4 15 3 16 2 17 1 18
REMARK H PARENT
REMARK Flexibility Score: inf
ROOT
ATOM      1  C   UNL     1      -1.366  24.098  45.336  1.00  0.00     0.000 C 
ENDROOT
BRANCH   1   2
ATOM      2  C   UNL     1      -1.760  25.106  46.423  1.00  0.00     0.000 C 
BRANCH   2   3
ATOM      3  C   UNL     1      -0.520  25.625  47.168  1.00  0.00     0.000 C 
BRANCH   3   4
ATOM      4  C   UNL     1      -0.583  25.374  48.685  1.00  0.00     0.000 C 
BRANCH   4   5
ATOM      5  C   UNL     1       0.716  25.677  49.452  1.00  0.00     0.000 C 
BRANCH   5   6
ATOM      6  C   UNL     1       0.964  24.705  50.618  1.00  0.00     0.006 C 
BRANCH   6   7
ATOM      7  C   UNL     1      -0.035  23.540  50.623  1.00  0.00     0.053 C 
BRANCH   7   8
ATOM      8  C   UNL     1       0.493  22.357  51.374  1.00  0.00     0.041 C 
ATOM      9  O   UNL     1      -0.296  21.471  51.797  1.00  0.00    -0.550 OA
ATOM     10  O   UNL     1       1.859  22.220  51.582  1.00  0.00    -0.550 OA
ENDBRANCH   7   8
ENDBRANCH   6   7
ENDBRANCH   5   6
ENDBRANCH   4   5
ENDBRANCH   3   4
ENDBRANCH   2   3
ENDBRANCH   1   2
BRANCH   1  11
ATOM     11  C   UNL     1      -1.987  22.720  45.614  1.00  0.00     0.000 C 
BRANCH  11  12
ATOM     12  C   UNL     1      -0.930  21.633  45.869  1.00  0.00    -0.000 C 
BRANCH  12  13
ATOM     13  C   UNL     1      -0.536  21.524  47.351  1.00  0.00    -0.000 C 
BRANCH  13  14
ATOM     14  C   UNL     1      -0.463  20.058  47.832  1.00  0.00    -0.000 C 
BRANCH  14  15
ATOM     15  C   UNL     1       0.691  19.786  48.817  1.00  0.00    -0.000 C 
BRANCH  15  16
ATOM     16  C   UNL     1       1.984  19.253  48.173  1.00  0.00    -0.000 C 
BRANCH  16  17
ATOM     17  C   UNL     1       3.017  18.694  49.169  1.00  0.00    -0.003 C 
ATOM     18  C   UNL     1       3.821  19.788  49.870  1.00  0.00     0.004 C 
ENDBRANCH  16  17
ENDBRANCH  15  16
ENDBRANCH  14  15
ENDBRANCH  13  14
ENDBRANCH  12  13
ENDBRANCH  11  12
ENDBRANCH   1  11
TORSDOF 14
ENDMDL
MODEL 2
REMARK VINA RESULT:    -5.966      2.722      4.545
REMARK INTER + INTRA:         -12.055
REMARK INTER:                 -10.839
REMARK INTRA:                  -1.215
REMARK UNBOUND:                -1.206
REMARK SMILES CCCCCCCCCCCCCCCC(=O)[O-]
REMARK SMILES IDX 9 1 10 2 11 3 12 4 13 5 14 6 15 7 16 8 17 9 18 10 8 11 7 12
REMARK SMILES IDX 6 13 5 14 4 15 3 16 2 17 1 18
REMARK H PARENT
REMARK Flexibility Score: inf
ROOT
ATOM      1  C   UNL     1       1.489  22.530  51.706  1.00  0.00     0.000 C 
ENDROOT
BRANCH   1   2
ATOM      2  C   UNL     1       1.658  24.030  51.431  1.00  0.00     0.000 C 
BRANCH   2   3
ATOM      3  C   UNL     1       0.462  24.584  50.643  1.00  0.00     0.000 C 
BRANCH   3   4
ATOM      4  C   UNL     1       0.877  25.568  49.534  1.00  0.00     0.000 C 
BRANCH   4   5
ATOM      5  C   UNL     1      -0.277  26.103  48.669  1.00  0.00     0.000 C 
BRANCH   5   6
ATOM      6  C   UNL     1      -0.182  25.655  47.200  1.00  0.00     0.006 C 
BRANCH   6   7
ATOM      7  C   UNL     1      -1.539  25.199  46.646  1.00  0.00     0.053 C 
BRANCH   7   8
ATOM      8  C   UNL     1      -1.400  24.539  45.309  1.00  0.00     0.041 C 
ATOM      9  O   UNL     1      -1.571  23.296  45.193  1.00  0.00    -0.550 OA
ATOM     10  O   UNL     1      -1.108  25.301  44.184  1.00  0.00    -0.550 OA
ENDBRANCH   7   8
ENDBRANCH   6   7
ENDBRANCH   5   6
ENDBRANCH   4   5
ENDBRANCH   3   4
ENDBRANCH   2   3
ENDBRANCH   1   2
BRANCH   1  11
ATOM     11  C   UNL     1       0.100  22.045  51.263  1.00  0.00     0.000 C 
BRANCH  11  12
ATOM     12  C   UNL     1       0.168  20.842  50.309  1.00  0.00    -0.000 C 
BRANCH  12  13
ATOM     13  C   UNL     1      -0.506  21.120  48.954  1.00  0.00    -0.000 C 
BRANCH  13  14
ATOM     14  C   UNL     1      -0.043  20.138  47.856  1.00  0.00    -0.000 C 
BRANCH  14  15
ATOM     15  C   UNL     1       0.801  18.964  48.392  1.00  0.00    -0.000 C 
BRANCH  15  16
ATOM     16  C   UNL     1       2.322  19.116  48.197  1.00  0.00    -0.000 C 
BRANCH  16  17
ATOM     17  C   UNL     1       3.160  18.887  49.469  1.00  0.00    -0.003 C 
ATOM     18  C   UNL     1       3.896  20.144  49.931  1.00  0.00     0.004 C 
ENDBRANCH  16  17
ENDBRANCH  15  16
ENDBRANCH  14  15
ENDBRANCH  13  14
ENDBRANCH  12  13
ENDBRANCH  11  12
ENDBRANCH   1  11
TORSDOF 14
ENDMDL
MODEL 3
REMARK VINA RESULT:    -5.877      1.691      4.902
REMARK INTER + INTRA:         -11.893
REMARK INTER:                 -10.682
REMARK INTRA:                  -1.211
REMARK UNBOUND:                -1.206
REMARK SMILES CCCCCCCCCCCCCCCC(=O)[O-]
REMARK SMILES IDX 9 1 10 2 11 3 12 4 13 5 14 6 15 7 16 8 17 9 18 10 8 11 7 12
REMARK SMILES IDX 6 13 5 14 4 15 3 16 2 17 1 18
REMARK H PARENT
REMARK Flexibility Score: inf
ROOT
ATOM      1  C   UNL     1      -2.116  23.143  45.453  1.00  0.00     0.000 C 
ENDROOT
BRANCH   1   2
ATOM      2  C   UNL     1      -1.121  21.997  45.675  1.00  0.00     0.000 C 
BRANCH   2   3
ATOM      3  C   UNL     1      -0.710  21.903  47.153  1.00  0.00     0.000 C 
BRANCH   3   4
ATOM      4  C   UNL     1      -0.328  20.475  47.580  1.00  0.00     0.000 C 
BRANCH   4   5
ATOM      5  C   UNL     1       0.648  19.750  46.636  1.00  0.00     0.000 C 
BRANCH   5   6
ATOM      6  C   UNL     1       1.970  19.364  47.323  1.00  0.00     0.006 C 
BRANCH   6   7
ATOM      7  C   UNL     1       1.831  19.299  48.850  1.00  0.00     0.053 C 
BRANCH   7   8
ATOM      8  C   UNL     1       3.147  19.046  49.518  1.00  0.00     0.041 C 
ATOM      9  O   UNL     1       3.459  17.881  49.884  1.00  0.00    -0.550 OA
ATOM     10  O   UNL     1       4.040  20.091  49.712  1.00  0.00    -0.550 OA
ENDBRANCH   7   8
ENDBRANCH   6   7
ENDBRANCH   5   6
ENDBRANCH   4   5
ENDBRANCH   3   4
ENDBRANCH   2   3
ENDBRANCH   1   2
BRANCH   1  11
ATOM     11  C   UNL     1      -1.381  24.464  45.182  1.00  0.00     0.000 C 
BRANCH  11  12
ATOM     12  C   UNL     1      -1.405  25.415  46.390  1.00  0.00    -0.000 C 
BRANCH  12  13
ATOM     13  C   UNL     1      -0.019  26.000  46.712  1.00  0.00    -0.000 C 
BRANCH  13  14
ATOM     14  C   UNL     1       0.237  26.096  48.231  1.00  0.00    -0.000 C 
BRANCH  14  15
ATOM     15  C   UNL     1      -0.668  25.175  49.072  1.00  0.00    -0.000 C 
BRANCH  15  16
ATOM     16  C   UNL     1       0.073  24.286  50.088  1.00  0.00    -0.000 C 
BRANCH  16  17
ATOM     17  C   UNL     1       1.335  24.923  50.701  1.00  0.00    -0.003 C 
ATOM     18  C   UNL     1       2.022  24.019  51.723  1.00  0.00     0.004 C 
ENDBRANCH  16  17
ENDBRANCH  15  16
ENDBRANCH  14  15
ENDBRANCH  13  14
ENDBRANCH  12  13
ENDBRANCH  11  12
ENDBRANCH   1  11
TORSDOF 14
ENDMDL
MODEL 4
REMARK VINA RESULT:    -5.835      1.345      5.891
REMARK INTER + INTRA:         -11.816
REMARK INTER:                 -10.796
REMARK INTRA:                  -1.020
REMARK UNBOUND:                -1.206
REMARK SMILES CCCCCCCCCCCCCCCC(=O)[O-]
REMARK SMILES IDX 9 1 10 2 11 3 12 4 13 5 14 6 15 7 16 8 17 9 18 10 8 11 7 12
REMARK SMILES IDX 6 13 5 14 4 15 3 16 2 17 1 18
REMARK H PARENT
REMARK Flexibility Score: inf
ROOT
ATOM      1  C   UNL     1       0.573  22.652  51.263  1.00  0.00     0.000 C 
ENDROOT
BRANCH   1   2
ATOM      2  C   UNL     1      -0.274  21.469  50.778  1.00  0.00     0.000 C 
BRANCH   2   3
ATOM      3  C   UNL     1      -0.282  21.390  49.243  1.00  0.00     0.000 C 
BRANCH   3   4
ATOM      4  C   UNL     1      -0.214  19.946  48.716  1.00  0.00     0.000 C 
BRANCH   4   5
ATOM      5  C   UNL     1       0.589  19.762  47.417  1.00  0.00     0.000 C 
BRANCH   5   6
ATOM      6  C   UNL     1       2.057  19.373  47.670  1.00  0.00     0.006 C 
BRANCH   6   7
ATOM      7  C   UNL     1       2.284  18.874  49.103  1.00  0.00     0.053 C 
BRANCH   7   8
ATOM      8  C   UNL     1       3.252  19.742  49.847  1.00  0.00     0.041 C 
ATOM      9  O   UNL     1       2.846  20.506  50.762  1.00  0.00    -0.550 OA
ATOM     10  O   UNL     1       4.607  19.686  49.548  1.00  0.00    -0.550 OA
ENDBRANCH   7   8
ENDBRANCH   6   7
ENDBRANCH   5   6
ENDBRANCH   4   5
ENDBRANCH   3   4
ENDBRANCH   2   3
ENDBRANCH   1   2
BRANCH   1  11
ATOM     11  C   UNL     1       0.069  23.973  50.660  1.00  0.00     0.000 C 
BRANCH  11  12
ATOM     12  C   UNL     1       1.191  25.005  50.470  1.00  0.00    -0.000 C 
BRANCH  12  13
ATOM     13  C   UNL     1       0.878  26.026  49.363  1.00  0.00    -0.000 C 
BRANCH  13  14
ATOM     14  C   UNL     1      -0.492  25.768  48.699  1.00  0.00    -0.000 C 
BRANCH  14  15
ATOM     15  C   UNL     1      -0.405  25.490  47.186  1.00  0.00    -0.000 C 
BRANCH  15  16
ATOM     16  C   UNL     1      -1.741  25.124  46.514  1.00  0.00    -0.000 C 
BRANCH  16  17
ATOM     17  C   UNL     1      -1.607  24.321  45.206  1.00  0.00    -0.003 C 
ATOM     18  C   UNL     1      -1.705  22.811  45.421  1.00  0.00     0.004 C 
ENDBRANCH  16  17
ENDBRANCH  15  16
ENDBRANCH  14  15
ENDBRANCH  13  14
ENDBRANCH  12  13
ENDBRANCH  11  12
ENDBRANCH   1  11
TORSDOF 14
ENDMDL
MODEL 5
REMARK VINA RESULT:    -5.832      1.202      5.281
REMARK INTER + INTRA:         -11.812
REMARK INTER:                 -10.370
REMARK INTRA:                  -1.442
REMARK UNBOUND:                -1.206
REMARK SMILES CCCCCCCCCCCCCCCC(=O)[O-]
REMARK SMILES IDX 9 1 10 2 11 3 12 4 13 5 14 6 15 7 16 8 17 9 18 10 8 11 7 12
REMARK SMILES IDX 6 13 5 14 4 15 3 16 2 17 1 18
REMARK H PARENT
REMARK Flexibility Score: inf
ROOT
ATOM      1  C   UNL     1       0.702  19.648  46.699  1.00  0.00     0.000 C 
ENDROOT
BRANCH   1   2
ATOM      2  C   UNL     1       2.078  19.384  47.324  1.00  0.00     0.000 C 
BRANCH   2   3
ATOM      3  C   UNL     1       1.940  18.931  48.785  1.00  0.00     0.000 C 
BRANCH   3   4
ATOM      4  C   UNL     1       3.209  19.191  49.617  1.00  0.00     0.000 C 
BRANCH   4   5
ATOM      5  C   UNL     1       3.206  20.503  50.420  1.00  0.00     0.000 C 
BRANCH   5   6
ATOM      6  C   UNL     1       1.787  21.014  50.728  1.00  0.00     0.006 C 
BRANCH   6   7
ATOM      7  C   UNL     1       1.795  22.169  51.739  1.00  0.00     0.053 C 
BRANCH   7   8
ATOM      8  C   UNL     1       1.074  23.372  51.214  1.00  0.00     0.041 C 
ATOM      9  O   UNL     1      -0.091  23.260  50.747  1.00  0.00    -0.550 OA
ATOM     10  O   UNL     1       1.678  24.622  51.267  1.00  0.00    -0.550 OA
ENDBRANCH   7   8
ENDBRANCH   6   7
ENDBRANCH   5   6
ENDBRANCH   4   5
ENDBRANCH   3   4
ENDBRANCH   2   3
ENDBRANCH   1   2
BRANCH   1  11
ATOM     11  C   UNL     1      -0.261  20.258  47.729  1.00  0.00     0.000 C 
BRANCH  11  12
ATOM     12  C   UNL     1      -0.720  21.674  47.346  1.00  0.00    -0.000 C 
BRANCH  12  13
ATOM     13  C   UNL     1      -0.984  21.826  45.838  1.00  0.00    -0.000 C 
BRANCH  13  14
ATOM     14  C   UNL     1      -2.139  22.806  45.541  1.00  0.00    -0.000 C 
BRANCH  14  15
ATOM     15  C   UNL     1      -1.720  24.016  44.682  1.00  0.00    -0.000 C 
BRANCH  15  16
ATOM     16  C   UNL     1      -1.103  25.188  45.468  1.00  0.00    -0.000 C 
BRANCH  16  17
ATOM     17  C   UNL     1      -1.695  25.404  46.873  1.00  0.00    -0.003 C 
ATOM     18  C   UNL     1      -0.632  25.427  47.970  1.00  0.00     0.004 C 
ENDBRANCH  16  17
ENDBRANCH  15  16
ENDBRANCH  14  15
ENDBRANCH  13  14
ENDBRANCH  12  13
ENDBRANCH  11  12
ENDBRANCH   1  11
TORSDOF 14
ENDMDL
MODEL 6
REMARK VINA RESULT:    -5.810      2.444      5.654
REMARK INTER + INTRA:         -11.771
REMARK INTER:                 -10.376
REMARK INTRA:                  -1.395
REMARK UNBOUND:                -1.206
REMARK SMILES CCCCCCCCCCCCCCCC(=O)[O-]
REMARK SMILES IDX 9 1 10 2 11 3 12 4 13 5 14 6 15 7 16 8 17 9 18 10 8 11 7 12
REMARK SMILES IDX 6 13 5 14 4 15 3 16 2 17 1 18
REMARK H PARENT
REMARK Flexibility Score: inf
ROOT
ATOM      1  C   UNL     1       1.958  19.347  47.103  1.00  0.00     0.000 C 
ENDROOT
BRANCH   1   2
ATOM      2  C   UNL     1       0.716  19.992  46.474  1.00  0.00     0.000 C 
BRANCH   2   3
ATOM      3  C   UNL     1      -0.246  20.503  47.557  1.00  0.00     0.000 C 
BRANCH   3   4
ATOM      4  C   UNL     1      -0.959  21.808  47.159  1.00  0.00     0.000 C 
BRANCH   4   5
ATOM      5  C   UNL     1      -1.155  22.010  45.646  1.00  0.00     0.000 C 
BRANCH   5   6
ATOM      6  C   UNL     1      -2.148  23.139  45.316  1.00  0.00     0.006 C 
BRANCH   6   7
ATOM      7  C   UNL     1      -1.435  24.431  44.895  1.00  0.00     0.053 C 
BRANCH   7   8
ATOM      8  C   UNL     1      -1.252  25.366  46.051  1.00  0.00     0.041 C 
ATOM      9  O   UNL     1      -2.145  25.468  46.933  1.00  0.00    -0.550 OA
ATOM     10  O   UNL     1      -0.081  26.105  46.167  1.00  0.00    -0.550 OA
ENDBRANCH   7   8
ENDBRANCH   6   7
ENDBRANCH   5   6
ENDBRANCH   4   5
ENDBRANCH   3   4
ENDBRANCH   2   3
ENDBRANCH   1   2
BRANCH   1  11
ATOM     11  C   UNL     1       1.748  19.102  48.605  1.00  0.00     0.000 C 
BRANCH  11  12
ATOM     12  C   UNL     1       3.045  19.252  49.417  1.00  0.00    -0.000 C 
BRANCH  12  13
ATOM     13  C   UNL     1       3.019  20.469  50.357  1.00  0.00    -0.000 C 
BRANCH  13  14
ATOM     14  C   UNL     1       1.583  20.962  50.638  1.00  0.00    -0.000 C 
BRANCH  14  15
ATOM     15  C   UNL     1       1.503  22.043  51.734  1.00  0.00    -0.000 C 
BRANCH  15  16
ATOM     16  C   UNL     1       1.351  23.485  51.214  1.00  0.00    -0.000 C 
BRANCH  16  17
ATOM     17  C   UNL     1      -0.015  23.799  50.574  1.00  0.00    -0.003 C 
ATOM     18  C   UNL     1       0.046  24.954  49.576  1.00  0.00     0.004 C 
ENDBRANCH  16  17
ENDBRANCH  15  16
ENDBRANCH  14  15
ENDBRANCH  13  14
ENDBRANCH  12  13
ENDBRANCH  11  12
ENDBRANCH   1  11
TORSDOF 14
ENDMDL
MODEL 7
REMARK VINA RESULT:    -5.806      2.119      5.765
REMARK INTER + INTRA:         -11.764
REMARK INTER:                 -10.384
REMARK INTRA:                  -1.379
REMARK UNBOUND:                -1.206
REMARK SMILES CCCCCCCCCCCCCCCC(=O)[O-]
REMARK SMILES IDX 9 1 10 2 11 3 12 4 13 5 14 6 15 7 16 8 17 9 18 10 8 11 7 12
REMARK SMILES IDX 6 13 5 14 4 15 3 16 2 17 1 18
REMARK H PARENT
REMARK Flexibility Score: inf
ROOT
ATOM      1  C   UNL     1       1.135  24.885  50.871  1.00  0.00     0.000 C 
ENDROOT
BRANCH   1   2
ATOM      2  C   UNL     1       2.214  23.951  51.434  1.00  0.00     0.000 C 
BRANCH   2   3
ATOM      3  C   UNL     1       1.698  22.507  51.526  1.00  0.00     0.000 C 
BRANCH   3   4
ATOM      4  C   UNL     1       0.165  22.422  51.627  1.00  0.00     0.000 C 
BRANCH   4   5
ATOM      5  C   UNL     1      -0.494  21.377  50.709  1.00  0.00     0.000 C 
BRANCH   5   6
ATOM      6  C   UNL     1       0.522  20.629  49.828  1.00  0.00     0.006 C 
BRANCH   6   7
ATOM      7  C   UNL     1      -0.068  20.245  48.464  1.00  0.00     0.053 C 
BRANCH   7   8
ATOM      8  C   UNL     1       0.964  19.645  47.560  1.00  0.00     0.041 C 
ATOM      9  O   UNL     1       0.812  19.683  46.310  1.00  0.00    -0.550 OA
ATOM     10  O   UNL     1       2.107  19.068  48.098  1.00  0.00    -0.550 OA
ENDBRANCH   7   8
ENDBRANCH   6   7
ENDBRANCH   5   6
ENDBRANCH   4   5
ENDBRANCH   3   4
ENDBRANCH   2   3
ENDBRANCH   1   2
BRANCH   1  11
ATOM     11  C   UNL     1       1.742  25.893  49.883  1.00  0.00     0.000 C 
BRANCH  11  12
ATOM     12  C   UNL     1       0.862  26.111  48.642  1.00  0.00    -0.000 C 
BRANCH  12  13
ATOM     13  C   UNL     1      -0.420  25.261  48.666  1.00  0.00    -0.000 C 
BRANCH  13  14
ATOM     14  C   UNL     1      -1.365  25.592  47.491  1.00  0.00    -0.000 C 
BRANCH  14  15
ATOM     15  C   UNL     1      -0.653  25.673  46.126  1.00  0.00    -0.000 C 
BRANCH  15  16
ATOM     16  C   UNL     1      -1.310  24.853  45.001  1.00  0.00    -0.000 C 
BRANCH  16  17
ATOM     17  C   UNL     1      -2.137  23.646  45.481  1.00  0.00    -0.003 C 
ATOM     18  C   UNL     1      -1.346  22.339  45.470  1.00  0.00     0.004 C 
ENDBRANCH  16  17
ENDBRANCH  15  16
ENDBRANCH  14  15
ENDBRANCH  13  14
ENDBRANCH  12  13
ENDBRANCH  11  12
ENDBRANCH   1  11
TORSDOF 14
ENDMDL
MODEL 8
REMARK VINA RESULT:    -5.756      1.319      5.151
REMARK INTER + INTRA:         -11.673
REMARK INTER:                 -10.157
REMARK INTRA:                  -1.517
REMARK UNBOUND:                -1.206
REMARK SMILES CCCCCCCCCCCCCCCC(=O)[O-]
REMARK SMILES IDX 9 1 10 2 11 3 12 4 13 5 14 6 15 7 16 8 17 9 18 10 8 11 7 12
REMARK SMILES IDX 6 13 5 14 4 15 3 16 2 17 1 18
REMARK H PARENT
REMARK Flexibility Score: inf
ROOT
ATOM      1  C   UNL     1       2.049  19.366  47.373  1.00  0.00     0.000 C 
ENDROOT
BRANCH   1   2
ATOM      2  C   UNL     1       1.685  19.139  48.846  1.00  0.00     0.000 C 
BRANCH   2   3
ATOM      3  C   UNL     1       2.755  19.732  49.775  1.00  0.00     0.000 C 
BRANCH   3   4
ATOM      4  C   UNL     1       2.209  20.848  50.684  1.00  0.00     0.000 C 
BRANCH   4   5
ATOM      5  C   UNL     1       0.680  21.019  50.662  1.00  0.00     0.000 C 
BRANCH   5   6
ATOM      6  C   UNL     1       0.205  22.260  51.438  1.00  0.00     0.006 C 
BRANCH   6   7
ATOM      7  C   UNL     1       0.124  23.505  50.544  1.00  0.00     0.053 C 
BRANCH   7   8
ATOM      8  C   UNL     1       1.197  24.497  50.873  1.00  0.00     0.041 C 
ATOM      9  O   UNL     1       1.208  25.627  50.318  1.00  0.00    -0.550 OA
ATOM     10  O   UNL     1       2.169  24.183  51.815  1.00  0.00    -0.550 OA
ENDBRANCH   7   8
ENDBRANCH   6   7
ENDBRANCH   5   6
ENDBRANCH   4   5
ENDBRANCH   3   4
ENDBRANCH   2   3
ENDBRANCH   1   2
BRANCH   1  11
ATOM     11  C   UNL     1       0.836  19.876  46.580  1.00  0.00     0.000 C 
BRANCH  11  12
ATOM     12  C   UNL     1      -0.331  20.298  47.487  1.00  0.00    -0.000 C 
BRANCH  12  13
ATOM     13  C   UNL     1      -0.825  21.724  47.194  1.00  0.00    -0.000 C 
BRANCH  13  14
ATOM     14  C   UNL     1      -0.997  21.986  45.681  1.00  0.00    -0.000 C 
BRANCH  14  15
ATOM     15  C   UNL     1      -2.053  23.060  45.354  1.00  0.00    -0.000 C 
BRANCH  15  16
ATOM     16  C   UNL     1      -1.515  24.502  45.290  1.00  0.00    -0.000 C 
BRANCH  16  17
ATOM     17  C   UNL     1      -1.635  25.293  46.606  1.00  0.00    -0.003 C 
ATOM     18  C   UNL     1      -0.281  25.722  47.169  1.00  0.00     0.004 C 
ENDBRANCH  16  17
ENDBRANCH  15  16
ENDBRANCH  14  15
ENDBRANCH  13  14
ENDBRANCH  12  13
ENDBRANCH  11  12
ENDBRANCH   1  11
TORSDOF 14
ENDMDL
MODEL 9
REMARK VINA RESULT:    -5.707      2.051      4.966
REMARK INTER + INTRA:         -11.584
REMARK INTER:                 -10.019
REMARK INTRA:                  -1.565
REMARK UNBOUND:                -1.206
REMARK SMILES CCCCCCCCCCCCCCCC(=O)[O-]
REMARK SMILES IDX 9 1 10 2 11 3 12 4 13 5 14 6 15 7 16 8 17 9 18 10 8 11 7 12
REMARK SMILES IDX 6 13 5 14 4 15 3 16 2 17 1 18
REMARK H PARENT
REMARK Flexibility Score: inf
ROOT
ATOM      1  C   UNL     1       0.555  19.693  46.784  1.00  0.00     0.000 C 
ENDROOT
BRANCH   1   2
ATOM      2  C   UNL     1      -0.274  20.234  47.955  1.00  0.00     0.000 C 
BRANCH   2   3
ATOM      3  C   UNL     1      -0.991  21.536  47.567  1.00  0.00     0.000 C 
BRANCH   3   4
ATOM      4  C   UNL     1      -0.996  21.788  46.048  1.00  0.00     0.000 C 
BRANCH   4   5
ATOM      5  C   UNL     1      -2.004  22.847  45.565  1.00  0.00     0.000 C 
BRANCH   5   6
ATOM      6  C   UNL     1      -1.372  24.238  45.387  1.00  0.00     0.006 C 
BRANCH   6   7
ATOM      7  C   UNL     1      -1.750  25.196  46.525  1.00  0.00     0.053 C 
BRANCH   7   8
ATOM      8  C   UNL     1      -0.589  25.473  47.429  1.00  0.00     0.041 C 
ATOM      9  O   UNL     1      -0.615  25.094  48.630  1.00  0.00    -0.550 OA
ATOM     10  O   UNL     1       0.534  26.125  46.937  1.00  0.00    -0.550 OA
ENDBRANCH   7   8
ENDBRANCH   6   7
ENDBRANCH   5   6
ENDBRANCH   4   5
ENDBRANCH   3   4
ENDBRANCH   2   3
ENDBRANCH   1   2
BRANCH   1  11
ATOM     11  C   UNL     1       1.995  19.390  47.224  1.00  0.00     0.000 C 
BRANCH  11  12
ATOM     12  C   UNL     1       2.091  18.988  48.705  1.00  0.00    -0.000 C 
BRANCH  12  13
ATOM     13  C   UNL     1       3.484  19.248  49.302  1.00  0.00    -0.000 C 
BRANCH  13  14
ATOM     14  C   UNL     1       3.496  20.461  50.256  1.00  0.00    -0.000 C 
BRANCH  14  15
ATOM     15  C   UNL     1       2.141  20.723  50.943  1.00  0.00    -0.000 C 
BRANCH  15  16
ATOM     16  C   UNL     1       1.901  22.182  51.372  1.00  0.00    -0.000 C 
BRANCH  16  17
ATOM     17  C   UNL     1       0.484  22.714  51.087  1.00  0.00    -0.003 C 
ATOM     18  C   UNL     1      -0.612  21.716  51.458  1.00  0.00     0.004 C 
ENDBRANCH  16  17
ENDBRANCH  15  16
ENDBRANCH  14  15
ENDBRANCH  13  14
ENDBRANCH  12  13
ENDBRANCH  11  12
ENDBRANCH   1  11
TORSDOF 14
ENDMDL
