MODEL 1
REMARK VINA RESULT:    -5.591      0.000      0.000
REMARK INTER + INTRA:          -6.974
REMARK INTER:                  -6.735
REMARK INTRA:                  -0.239
REMARK UNBOUND:                -0.239
REMARK SMILES O=c1c(O)c(-c2ccc(O)c(O)c2)oc2cc(O)cc(O)c12
REMARK SMILES IDX 5 1 3 2 2 3 1 4 22 5 20 6 19 7 17 8 16 9 15 10 14 11 6 12
REMARK SMILES IDX 7 13 8 14 9 15 13 16 11 17 10 18 12 20 4 22 21 24 18 26
REMARK H PARENT 10 19 12 21 4 23 21 25 18 27
REMARK Flexibility Score: inf
ROOT
ATOM      1  C   UNL     1     143.388 145.678 137.053  1.00  0.00     0.180 A 
ATOM      2  C   UNL     1     144.699 146.138 137.260  1.00  0.00     0.208 A 
ATOM      3  C   UNL     1     144.919 147.514 137.429  1.00  0.00     0.238 A 
ATOM      4  O   UNL     1     146.101 147.925 137.560  1.00  0.00    -0.285 OA
ATOM      5  C   UNL     1     143.823 148.412 137.403  1.00  0.00     0.111 A 
ATOM      6  C   UNL     1     143.926 149.821 137.602  1.00  0.00     0.134 A 
ATOM      7  C   UNL     1     142.795 150.627 137.426  1.00  0.00     0.093 A 
ATOM      8  C   UNL     1     141.554 150.070 137.122  1.00  0.00     0.123 A 
ATOM      9  C   UNL     1     141.430 148.686 136.984  1.00  0.00     0.094 A 
ATOM     10  C   UNL     1     142.548 147.859 137.118  1.00  0.00     0.146 A 
ATOM     11  O   UNL     1     142.390 146.550 136.968  1.00  0.00    -0.452 OA
ENDROOT
BRANCH   1  12
ATOM     12  C   UNL     1     143.073 144.240 136.893  1.00  0.00     0.025 A 
ATOM     13  C   UNL     1     143.415 143.541 135.722  1.00  0.00     0.016 A 
ATOM     14  C   UNL     1     143.130 142.178 135.602  1.00  0.00     0.051 A 
ATOM     15  C   UNL     1     142.512 141.490 136.655  1.00  0.00     0.157 A 
ATOM     16  C   UNL     1     142.473 143.540 137.953  1.00  0.00     0.062 A 
ATOM     17  C   UNL     1     142.185 142.175 137.837  1.00  0.00     0.158 A 
BRANCH  15  18
ATOM     18  O   UNL     1     142.226 140.131 136.532  1.00  0.00    -0.504 OA
ATOM     19  H   UNL     1     141.794 139.610 137.286  1.00  0.00     0.293 HD
ENDBRANCH  15  18
BRANCH  17  20
ATOM     20  O   UNL     1     141.577 141.518 138.906  1.00  0.00    -0.504 OA
ATOM     21  H   UNL     1     140.977 140.713 138.771  1.00  0.00     0.293 HD
ENDBRANCH  17  20
ENDBRANCH   1  12
BRANCH   2  22
ATOM     22  O   UNL     1     145.768 145.237 137.261  1.00  0.00    -0.502 OA
ATOM     23  H   UNL     1     145.982 144.647 138.055  1.00  0.00     0.293 HD
ENDBRANCH   2  22
BRANCH   6  24
ATOM     24  O   UNL     1     145.099 150.470 137.998  1.00  0.00    -0.507 OA
ATOM     25  H   UNL     1     145.915 150.007 138.369  1.00  0.00     0.293 HD
ENDBRANCH   6  24
BRANCH   8  26
ATOM     26  O   UNL     1     140.445 150.900 136.969  1.00  0.00    -0.508 OA
ATOM     27  H   UNL     1     140.392 151.803 137.425  1.00  0.00     0.293 HD
ENDBRANCH   8  26
TORSDOF 6
ENDMDL
MODEL 2
REMARK VINA RESULT:    -5.583      4.137      6.785
REMARK INTER + INTRA:          -6.965
REMARK INTER:                  -6.746
REMARK INTRA:                  -0.218
REMARK UNBOUND:                -0.239
REMARK SMILES O=c1c(O)c(-c2ccc(O)c(O)c2)oc2cc(O)cc(O)c12
REMARK SMILES IDX 5 1 3 2 2 3 1 4 22 5 20 6 19 7 17 8 16 9 15 10 14 11 6 12
REMARK SMILES IDX 7 13 8 14 9 15 13 16 11 17 10 18 12 20 4 22 21 24 18 26
REMARK H PARENT 10 19 12 21 4 23 21 25 18 27
REMARK Flexibility Score: inf
ROOT
ATOM      1  C   UNL     1     145.630 149.255 137.061  1.00  0.00     0.180 A 
ATOM      2  C   UNL     1     146.078 147.935 137.238  1.00  0.00     0.208 A 
ATOM      3  C   UNL     1     147.454 147.697 137.383  1.00  0.00     0.238 A 
ATOM      4  O   UNL     1     147.854 146.508 137.487  1.00  0.00    -0.285 OA
ATOM      5  C   UNL     1     148.364 148.783 137.365  1.00  0.00     0.111 A 
ATOM      6  C   UNL     1     149.774 148.661 137.543  1.00  0.00     0.134 A 
ATOM      7  C   UNL     1     150.591 149.786 137.377  1.00  0.00     0.093 A 
ATOM      8  C   UNL     1     150.043 151.039 137.104  1.00  0.00     0.123 A 
ATOM      9  C   UNL     1     148.659 151.181 136.987  1.00  0.00     0.094 A 
ATOM     10  C   UNL     1     147.822 150.070 137.112  1.00  0.00     0.146 A 
ATOM     11  O   UNL     1     146.512 150.245 136.983  1.00  0.00    -0.452 OA
ENDROOT
BRANCH   1  12
ATOM     12  C   UNL     1     144.194 149.589 136.927  1.00  0.00     0.025 A 
ATOM     13  C   UNL     1     143.463 149.234 135.779  1.00  0.00     0.016 A 
ATOM     14  C   UNL     1     142.103 149.538 135.684  1.00  0.00     0.051 A 
ATOM     15  C   UNL     1     141.449 150.187 136.739  1.00  0.00     0.157 A 
ATOM     16  C   UNL     1     143.528 150.220 137.990  1.00  0.00     0.062 A 
ATOM     17  C   UNL     1     142.165 150.527 137.899  1.00  0.00     0.158 A 
BRANCH  15  18
ATOM     18  O   UNL     1     140.091 150.491 136.641  1.00  0.00    -0.504 OA
ATOM     19  H   UNL     1     139.408 149.789 136.385  1.00  0.00     0.293 HD
ENDBRANCH  15  18
BRANCH  17  20
ATOM     20  O   UNL     1     141.542 151.167 138.969  1.00  0.00    -0.504 OA
ATOM     21  H   UNL     1     142.018 151.862 139.533  1.00  0.00     0.293 HD
ENDBRANCH  17  20
ENDBRANCH   1  12
BRANCH   2  22
ATOM     22  O   UNL     1     145.166 146.876 137.231  1.00  0.00    -0.502 OA
ATOM     23  H   UNL     1     144.889 146.392 138.076  1.00  0.00     0.293 HD
ENDBRANCH   2  22
BRANCH   6  24
ATOM     24  O   UNL     1     150.416 147.473 137.908  1.00  0.00    -0.507 OA
ATOM     25  H   UNL     1     150.015 146.762 138.500  1.00  0.00     0.293 HD
ENDBRANCH   6  24
BRANCH   8  26
ATOM     26  O   UNL     1     150.884 152.141 136.960  1.00  0.00    -0.508 OA
ATOM     27  H   UNL     1     151.134 152.725 137.749  1.00  0.00     0.293 HD
ENDBRANCH   8  26
TORSDOF 6
ENDMDL
MODEL 3
REMARK VINA RESULT:    -5.575      5.237      9.540
REMARK INTER + INTRA:          -6.955
REMARK INTER:                  -6.733
REMARK INTRA:                  -0.222
REMARK UNBOUND:                -0.239
REMARK SMILES O=c1c(O)c(-c2ccc(O)c(O)c2)oc2cc(O)cc(O)c12
REMARK SMILES IDX 5 1 3 2 2 3 1 4 22 5 20 6 19 7 17 8 16 9 15 10 14 11 6 12
REMARK SMILES IDX 7 13 8 14 9 15 13 16 11 17 10 18 12 20 4 22 21 24 18 26
REMARK H PARENT 10 19 12 21 4 23 21 25 18 27
REMARK Flexibility Score: inf
ROOT
ATOM      1  C   UNL     1     149.194 146.884 137.061  1.00  0.00     0.180 A 
ATOM      2  C   UNL     1     147.875 146.434 137.240  1.00  0.00     0.208 A 
ATOM      3  C   UNL     1     147.641 145.059 137.398  1.00  0.00     0.238 A 
ATOM      4  O   UNL     1     146.452 144.657 137.504  1.00  0.00    -0.285 OA
ATOM      5  C   UNL     1     148.729 144.152 137.391  1.00  0.00     0.111 A 
ATOM      6  C   UNL     1     148.611 142.743 137.582  1.00  0.00     0.134 A 
ATOM      7  C   UNL     1     149.738 141.928 137.425  1.00  0.00     0.093 A 
ATOM      8  C   UNL     1     150.990 142.477 137.149  1.00  0.00     0.123 A 
ATOM      9  C   UNL     1     151.128 143.860 137.018  1.00  0.00     0.094 A 
ATOM     10  C   UNL     1     150.014 144.695 137.134  1.00  0.00     0.146 A 
ATOM     11  O   UNL     1     150.186 146.004 136.993  1.00  0.00    -0.452 OA
ENDROOT
BRANCH   1  12
ATOM     12  C   UNL     1     149.523 148.320 136.913  1.00  0.00     0.025 A 
ATOM     13  C   UNL     1     149.174 149.037 135.755  1.00  0.00     0.016 A 
ATOM     14  C   UNL     1     149.473 150.397 135.647  1.00  0.00     0.051 A 
ATOM     15  C   UNL     1     150.114 151.065 136.700  1.00  0.00     0.157 A 
ATOM     16  C   UNL     1     150.146 149.000 137.973  1.00  0.00     0.062 A 
ATOM     17  C   UNL     1     150.449 150.362 137.869  1.00  0.00     0.158 A 
BRANCH  15  18
ATOM     18  O   UNL     1     150.414 152.422 136.588  1.00  0.00    -0.504 OA
ATOM     19  H   UNL     1     151.145 152.851 137.143  1.00  0.00     0.293 HD
ENDBRANCH  15  18
BRANCH  17  20
ATOM     20  O   UNL     1     151.080 150.999 138.937  1.00  0.00    -0.504 OA
ATOM     21  H   UNL     1     151.446 151.941 138.861  1.00  0.00     0.293 HD
ENDBRANCH  17  20
ENDBRANCH   1  12
BRANCH   2  22
ATOM     22  O   UNL     1     146.813 147.343 137.223  1.00  0.00    -0.502 OA
ATOM     23  H   UNL     1     146.758 148.102 136.555  1.00  0.00     0.293 HD
ENDBRANCH   2  22
BRANCH   6  24
ATOM     24  O   UNL     1     147.424 142.102 137.952  1.00  0.00    -0.507 OA
ATOM     25  H   UNL     1     147.300 141.565 138.796  1.00  0.00     0.293 HD
ENDBRANCH   6  24
BRANCH   8  26
ATOM     26  O   UNL     1     152.095 141.638 137.014  1.00  0.00    -0.508 OA
ATOM     27  H   UNL     1     152.340 140.965 137.730  1.00  0.00     0.293 HD
ENDBRANCH   8  26
TORSDOF 6
ENDMDL
MODEL 4
REMARK VINA RESULT:    -5.574      1.420      3.085
REMARK INTER + INTRA:          -6.954
REMARK INTER:                  -6.654
REMARK INTRA:                  -0.300
REMARK UNBOUND:                -0.239
REMARK SMILES O=c1c(O)c(-c2ccc(O)c(O)c2)oc2cc(O)cc(O)c12
REMARK SMILES IDX 5 1 3 2 2 3 1 4 22 5 20 6 19 7 17 8 16 9 15 10 14 11 6 12
REMARK SMILES IDX 7 13 8 14 9 15 13 16 11 17 10 18 12 20 4 22 21 24 18 26
REMARK H PARENT 10 19 12 21 4 23 21 25 18 27
REMARK Flexibility Score: inf
ROOT
ATOM      1  C   UNL     1     141.790 145.514 136.514  1.00  0.00     0.180 A 
ATOM      2  C   UNL     1     140.550 146.061 136.140  1.00  0.00     0.208 A 
ATOM      3  C   UNL     1     140.357 147.447 136.249  1.00  0.00     0.238 A 
ATOM      4  O   UNL     1     139.228 147.924 135.963  1.00  0.00    -0.285 OA
ATOM      5  C   UNL     1     141.410 148.272 136.715  1.00  0.00     0.111 A 
ATOM      6  C   UNL     1     141.338 149.692 136.827  1.00  0.00     0.134 A 
ATOM      7  C   UNL     1     142.394 150.393 137.423  1.00  0.00     0.093 A 
ATOM      8  C   UNL     1     143.544 149.732 137.851  1.00  0.00     0.123 A 
ATOM      9  C   UNL     1     143.651 148.349 137.692  1.00  0.00     0.094 A 
ATOM     10  C   UNL     1     142.599 147.619 137.134  1.00  0.00     0.146 A 
ATOM     11  O   UNL     1     142.735 146.304 137.010  1.00  0.00    -0.452 OA
ENDROOT
BRANCH   1  12
ATOM     12  C   UNL     1     142.078 144.066 136.404  1.00  0.00     0.025 A 
ATOM     13  C   UNL     1     142.811 143.545 135.324  1.00  0.00     0.016 A 
ATOM     14  C   UNL     1     143.092 142.178 135.253  1.00  0.00     0.051 A 
ATOM     15  C   UNL     1     142.656 141.313 136.266  1.00  0.00     0.157 A 
ATOM     16  C   UNL     1     141.662 143.198 137.427  1.00  0.00     0.062 A 
ATOM     17  C   UNL     1     141.940 141.828 137.360  1.00  0.00     0.158 A 
BRANCH  15  18
ATOM     18  O   UNL     1     142.935 139.949 136.191  1.00  0.00    -0.504 OA
ATOM     19  H   UNL     1     142.534 139.290 136.848  1.00  0.00     0.293 HD
ENDBRANCH  15  18
BRANCH  17  20
ATOM     20  O   UNL     1     141.498 140.996 138.388  1.00  0.00    -0.504 OA
ATOM     21  H   UNL     1     140.661 141.197 138.921  1.00  0.00     0.293 HD
ENDBRANCH  17  20
ENDBRANCH   1  12
BRANCH   2  22
ATOM     22  O   UNL     1     139.517 145.227 135.703  1.00  0.00    -0.502 OA
ATOM     23  H   UNL     1     139.633 144.227 135.599  1.00  0.00     0.293 HD
ENDBRANCH   2  22
BRANCH   6  24
ATOM     24  O   UNL     1     140.272 150.460 136.347  1.00  0.00    -0.507 OA
ATOM     25  H   UNL     1     140.337 151.432 136.083  1.00  0.00     0.293 HD
ENDBRANCH   6  24
BRANCH   8  26
ATOM     26  O   UNL     1     144.583 150.462 138.426  1.00  0.00    -0.508 OA
ATOM     27  H   UNL     1     144.839 151.381 138.084  1.00  0.00     0.293 HD
ENDBRANCH   8  26
TORSDOF 6
ENDMDL
MODEL 5
REMARK VINA RESULT:    -5.572      5.216      7.326
REMARK INTER + INTRA:          -6.951
REMARK INTER:                  -6.636
REMARK INTRA:                  -0.316
REMARK UNBOUND:                -0.239
REMARK SMILES O=c1c(O)c(-c2ccc(O)c(O)c2)oc2cc(O)cc(O)c12
REMARK SMILES IDX 5 1 3 2 2 3 1 4 22 5 20 6 19 7 17 8 16 9 15 10 14 11 6 12
REMARK SMILES IDX 7 13 8 14 9 15 13 16 11 17 10 18 12 20 4 22 21 24 18 26
REMARK H PARENT 10 19 12 21 4 23 21 25 18 27
REMARK Flexibility Score: inf
ROOT
ATOM      1  C   UNL     1     145.542 150.879 136.521  1.00  0.00     0.180 A 
ATOM      2  C   UNL     1     146.099 152.111 136.135  1.00  0.00     0.208 A 
ATOM      3  C   UNL     1     147.486 152.294 136.243  1.00  0.00     0.238 A 
ATOM      4  O   UNL     1     147.972 153.417 135.947  1.00  0.00    -0.285 OA
ATOM      5  C   UNL     1     148.302 151.240 136.720  1.00  0.00     0.111 A 
ATOM      6  C   UNL     1     149.724 151.302 136.832  1.00  0.00     0.134 A 
ATOM      7  C   UNL     1     150.415 150.247 137.439  1.00  0.00     0.093 A 
ATOM      8  C   UNL     1     149.746 149.106 137.878  1.00  0.00     0.123 A 
ATOM      9  C   UNL     1     148.363 149.008 137.718  1.00  0.00     0.094 A 
ATOM     10  C   UNL     1     147.641 150.060 137.149  1.00  0.00     0.146 A 
ATOM     11  O   UNL     1     146.325 149.933 137.026  1.00  0.00    -0.452 OA
ENDROOT
BRANCH   1  12
ATOM     12  C   UNL     1     144.092 150.601 136.412  1.00  0.00     0.025 A 
ATOM     13  C   UNL     1     143.557 149.925 135.302  1.00  0.00     0.016 A 
ATOM     14  C   UNL     1     142.188 149.652 135.232  1.00  0.00     0.051 A 
ATOM     15  C   UNL     1     141.336 150.038 136.276  1.00  0.00     0.157 A 
ATOM     16  C   UNL     1     143.237 150.967 137.465  1.00  0.00     0.062 A 
ATOM     17  C   UNL     1     141.865 150.696 137.399  1.00  0.00     0.158 A 
BRANCH  15  18
ATOM     18  O   UNL     1     139.971 149.767 136.202  1.00  0.00    -0.504 OA
ATOM     19  H   UNL     1     139.620 148.817 136.162  1.00  0.00     0.293 HD
ENDBRANCH  15  18
BRANCH  17  20
ATOM     20  O   UNL     1     141.046 151.087 138.457  1.00  0.00    -0.504 OA
ATOM     21  H   UNL     1     140.036 151.015 138.411  1.00  0.00     0.293 HD
ENDBRANCH  17  20
ENDBRANCH   1  12
BRANCH   2  22
ATOM     22  O   UNL     1     145.273 153.146 135.687  1.00  0.00    -0.502 OA
ATOM     23  H   UNL     1     145.361 153.550 134.763  1.00  0.00     0.293 HD
ENDBRANCH   2  22
BRANCH   6  24
ATOM     24  O   UNL     1     150.500 152.358 136.343  1.00  0.00    -0.507 OA
ATOM     25  H   UNL     1     150.216 152.987 135.608  1.00  0.00     0.293 HD
ENDBRANCH   6  24
BRANCH   8  26
ATOM     26  O   UNL     1     150.468 148.067 138.463  1.00  0.00    -0.508 OA
ATOM     27  H   UNL     1     151.237 148.247 139.097  1.00  0.00     0.293 HD
ENDBRANCH   8  26
TORSDOF 6
ENDMDL
MODEL 6
REMARK VINA RESULT:    -5.569      6.580     10.111
REMARK INTER + INTRA:          -6.948
REMARK INTER:                  -6.649
REMARK INTRA:                  -0.299
REMARK UNBOUND:                -0.239
REMARK SMILES O=c1c(O)c(-c2ccc(O)c(O)c2)oc2cc(O)cc(O)c12
REMARK SMILES IDX 5 1 3 2 2 3 1 4 22 5 20 6 19 7 17 8 16 9 15 10 14 11 6 12
REMARK SMILES IDX 7 13 8 14 9 15 13 16 11 17 10 18 12 20 4 22 21 24 18 26
REMARK H PARENT 10 19 12 21 4 23 21 25 18 27
REMARK Flexibility Score: inf
ROOT
ATOM      1  C   UNL     1     150.864 147.160 136.513  1.00  0.00     0.180 A 
ATOM      2  C   UNL     1     152.109 146.625 136.139  1.00  0.00     0.208 A 
ATOM      3  C   UNL     1     152.318 145.242 136.256  1.00  0.00     0.238 A 
ATOM      4  O   UNL     1     153.452 144.776 135.971  1.00  0.00    -0.285 OA
ATOM      5  C   UNL     1     151.275 144.408 136.729  1.00  0.00     0.111 A 
ATOM      6  C   UNL     1     151.364 142.989 136.849  1.00  0.00     0.134 A 
ATOM      7  C   UNL     1     150.317 142.280 137.451  1.00  0.00     0.093 A 
ATOM      8  C   UNL     1     149.160 142.930 137.877  1.00  0.00     0.123 A 
ATOM      9  C   UNL     1     149.037 144.310 137.710  1.00  0.00     0.094 A 
ATOM     10  C   UNL     1     150.080 145.049 137.146  1.00  0.00     0.146 A 
ATOM     11  O   UNL     1     149.929 146.362 137.014  1.00  0.00    -0.452 OA
ENDROOT
BRANCH   1  12
ATOM     12  C   UNL     1     150.559 148.604 136.394  1.00  0.00     0.025 A 
ATOM     13  C   UNL     1     149.805 149.108 135.320  1.00  0.00     0.016 A 
ATOM     14  C   UNL     1     149.510 150.471 135.242  1.00  0.00     0.051 A 
ATOM     15  C   UNL     1     149.950 151.349 136.242  1.00  0.00     0.157 A 
ATOM     16  C   UNL     1     150.980 149.485 137.404  1.00  0.00     0.062 A 
ATOM     17  C   UNL     1     150.687 150.851 137.330  1.00  0.00     0.158 A 
BRANCH  15  18
ATOM     18  O   UNL     1     149.656 152.709 136.159  1.00  0.00    -0.504 OA
ATOM     19  H   UNL     1     149.700 153.311 136.973  1.00  0.00     0.293 HD
ENDBRANCH  15  18
BRANCH  17  20
ATOM     20  O   UNL     1     151.134 151.697 138.344  1.00  0.00    -0.504 OA
ATOM     21  H   UNL     1     150.548 151.948 139.132  1.00  0.00     0.293 HD
ENDBRANCH  17  20
ENDBRANCH   1  12
BRANCH   2  22
ATOM     22  O   UNL     1     153.132 147.468 135.695  1.00  0.00    -0.502 OA
ATOM     23  H   UNL     1     153.883 147.776 136.300  1.00  0.00     0.293 HD
ENDBRANCH   2  22
BRANCH   6  24
ATOM     24  O   UNL     1     152.438 142.230 136.372  1.00  0.00    -0.507 OA
ATOM     25  H   UNL     1     152.820 141.420 136.836  1.00  0.00     0.293 HD
ENDBRANCH   6  24
BRANCH   8  26
ATOM     26  O   UNL     1     148.130 142.191 138.458  1.00  0.00    -0.508 OA
ATOM     27  H   UNL     1     147.157 142.383 138.251  1.00  0.00     0.293 HD
ENDBRANCH   8  26
TORSDOF 6
ENDMDL
MODEL 7
REMARK VINA RESULT:    -5.553      4.100      6.685
REMARK INTER + INTRA:          -6.929
REMARK INTER:                  -6.710
REMARK INTRA:                  -0.219
REMARK UNBOUND:                -0.239
REMARK SMILES O=c1c(O)c(-c2ccc(O)c(O)c2)oc2cc(O)cc(O)c12
REMARK SMILES IDX 5 1 3 2 2 3 1 4 22 5 20 6 19 7 17 8 16 9 15 10 14 11 6 12
REMARK SMILES IDX 7 13 8 14 9 15 13 16 11 17 10 18 12 20 4 22 21 24 18 26
REMARK H PARENT 10 19 12 21 4 23 21 25 18 27
REMARK Flexibility Score: inf
ROOT
ATOM      1  C   UNL     1     146.848 143.406 137.059  1.00  0.00     0.180 A 
ATOM      2  C   UNL     1     146.401 144.726 137.237  1.00  0.00     0.208 A 
ATOM      3  C   UNL     1     145.026 144.963 137.394  1.00  0.00     0.238 A 
ATOM      4  O   UNL     1     144.626 146.152 137.498  1.00  0.00    -0.285 OA
ATOM      5  C   UNL     1     144.117 143.877 137.388  1.00  0.00     0.111 A 
ATOM      6  C   UNL     1     142.708 143.998 137.579  1.00  0.00     0.134 A 
ATOM      7  C   UNL     1     141.891 142.872 137.423  1.00  0.00     0.093 A 
ATOM      8  C   UNL     1     142.437 141.619 137.149  1.00  0.00     0.123 A 
ATOM      9  C   UNL     1     143.820 141.477 137.019  1.00  0.00     0.094 A 
ATOM     10  C   UNL     1     144.658 142.590 137.133  1.00  0.00     0.146 A 
ATOM     11  O   UNL     1     145.966 142.415 136.992  1.00  0.00    -0.452 OA
ENDROOT
BRANCH   1  12
ATOM     12  C   UNL     1     148.284 143.073 136.912  1.00  0.00     0.025 A 
ATOM     13  C   UNL     1     149.002 143.422 135.755  1.00  0.00     0.016 A 
ATOM     14  C   UNL     1     150.361 143.120 135.648  1.00  0.00     0.051 A 
ATOM     15  C   UNL     1     151.027 142.476 136.700  1.00  0.00     0.157 A 
ATOM     16  C   UNL     1     148.961 142.448 137.972  1.00  0.00     0.062 A 
ATOM     17  C   UNL     1     150.323 142.142 137.869  1.00  0.00     0.158 A 
BRANCH  15  18
ATOM     18  O   UNL     1     152.384 142.173 136.590  1.00  0.00    -0.504 OA
ATOM     19  H   UNL     1     152.864 142.208 135.698  1.00  0.00     0.293 HD
ENDBRANCH  15  18
BRANCH  17  20
ATOM     20  O   UNL     1     150.958 141.509 138.936  1.00  0.00    -0.504 OA
ATOM     21  H   UNL     1     150.991 140.499 139.021  1.00  0.00     0.293 HD
ENDBRANCH  17  20
ENDBRANCH   1  12
BRANCH   2  22
ATOM     22  O   UNL     1     147.312 145.786 137.218  1.00  0.00    -0.502 OA
ATOM     23  H   UNL     1     148.253 145.687 136.858  1.00  0.00     0.293 HD
ENDBRANCH   2  22
BRANCH   6  24
ATOM     24  O   UNL     1     142.069 145.186 137.946  1.00  0.00    -0.507 OA
ATOM     25  H   UNL     1     142.533 145.987 138.349  1.00  0.00     0.293 HD
ENDBRANCH   6  24
BRANCH   8  26
ATOM     26  O   UNL     1     141.596 140.515 137.016  1.00  0.00    -0.508 OA
ATOM     27  H   UNL     1     141.098 140.129 137.809  1.00  0.00     0.293 HD
ENDBRANCH   8  26
TORSDOF 6
ENDMDL
MODEL 8
REMARK VINA RESULT:    -5.345      4.051      7.100
REMARK INTER + INTRA:          -6.678
REMARK INTER:                  -6.380
REMARK INTRA:                  -0.299
REMARK UNBOUND:                -0.239
REMARK SMILES O=c1c(O)c(-c2ccc(O)c(O)c2)oc2cc(O)cc(O)c12
REMARK SMILES IDX 5 1 3 2 2 3 1 4 22 5 20 6 19 7 17 8 16 9 15 10 14 11 6 12
REMARK SMILES IDX 7 13 8 14 9 15 13 16 11 17 10 18 12 20 4 22 21 24 18 26
REMARK H PARENT 10 19 12 21 4 23 21 25 18 27
REMARK Flexibility Score: inf
ROOT
ATOM      1  C   UNL     1     146.371 142.186 136.880  1.00  0.00     0.180 A 
ATOM      2  C   UNL     1     145.852 141.005 136.324  1.00  0.00     0.208 A 
ATOM      3  C   UNL     1     144.463 140.801 136.333  1.00  0.00     0.238 A 
ATOM      4  O   UNL     1     144.009 139.717 135.882  1.00  0.00    -0.285 OA
ATOM      5  C   UNL     1     143.609 141.788 136.883  1.00  0.00     0.111 A 
ATOM      6  C   UNL     1     142.185 141.704 136.909  1.00  0.00     0.134 A 
ATOM      7  C   UNL     1     141.448 142.677 137.595  1.00  0.00     0.093 A 
ATOM      8  C   UNL     1     142.079 143.764 138.199  1.00  0.00     0.123 A 
ATOM      9  C   UNL     1     143.467 143.888 138.129  1.00  0.00     0.094 A 
ATOM     10  C   UNL     1     144.232 142.914 137.482  1.00  0.00     0.146 A 
ATOM     11  O   UNL     1     145.551 143.063 137.447  1.00  0.00    -0.452 OA
ENDROOT
BRANCH   1  12
ATOM     12  C   UNL     1     147.822 142.484 136.885  1.00  0.00     0.025 A 
ATOM     13  C   UNL     1     148.393 143.359 135.944  1.00  0.00     0.016 A 
ATOM     14  C   UNL     1     149.760 143.644 135.982  1.00  0.00     0.051 A 
ATOM     15  C   UNL     1     150.575 143.071 136.968  1.00  0.00     0.157 A 
ATOM     16  C   UNL     1     148.639 141.929 137.883  1.00  0.00     0.062 A 
ATOM     17  C   UNL     1     150.009 142.211 137.925  1.00  0.00     0.158 A 
BRANCH  15  18
ATOM     18  O   UNL     1     151.939 143.355 137.002  1.00  0.00    -0.504 OA
ATOM     19  H   UNL     1     152.599 142.861 136.413  1.00  0.00     0.293 HD
ENDBRANCH  15  18
BRANCH  17  20
ATOM     20  O   UNL     1     150.790 141.631 138.923  1.00  0.00    -0.504 OA
ATOM     21  H   UNL     1     150.381 141.185 139.736  1.00  0.00     0.293 HD
ENDBRANCH  17  20
ENDBRANCH   1  12
BRANCH   2  22
ATOM     22  O   UNL     1     146.714 140.034 135.805  1.00  0.00    -0.502 OA
ATOM     23  H   UNL     1     147.645 140.255 135.473  1.00  0.00     0.293 HD
ENDBRANCH   2  22
BRANCH   6  24
ATOM     24  O   UNL     1     141.450 140.708 136.258  1.00  0.00    -0.507 OA
ATOM     25  H   UNL     1     141.839 139.853 135.892  1.00  0.00     0.293 HD
ENDBRANCH   6  24
BRANCH   8  26
ATOM     26  O   UNL     1     141.313 144.723 138.860  1.00  0.00    -0.508 OA
ATOM     27  H   UNL     1     140.383 144.970 138.544  1.00  0.00     0.293 HD
ENDBRANCH   8  26
TORSDOF 6
ENDMDL
MODEL 9
REMARK VINA RESULT:    -5.320      4.091      6.499
REMARK INTER + INTRA:          -6.647
REMARK INTER:                  -6.319
REMARK INTRA:                  -0.328
REMARK UNBOUND:                -0.239
REMARK SMILES O=c1c(O)c(-c2ccc(O)c(O)c2)oc2cc(O)cc(O)c12
REMARK SMILES IDX 5 1 3 2 2 3 1 4 22 5 20 6 19 7 17 8 16 9 15 10 14 11 6 12
REMARK SMILES IDX 7 13 8 14 9 15 13 16 11 17 10 18 12 20 4 22 21 24 18 26
REMARK H PARENT 10 19 12 21 4 23 21 25 18 27
REMARK Flexibility Score: inf
ROOT
ATOM      1  C   UNL     1     145.615 142.883 136.978  1.00  0.00     0.180 A 
ATOM      2  C   UNL     1     145.983 144.238 137.019  1.00  0.00     0.208 A 
ATOM      3  C   UNL     1     147.329 144.571 137.236  1.00  0.00     0.238 A 
ATOM      4  O   UNL     1     147.644 145.787 137.325  1.00  0.00    -0.285 OA
ATOM      5  C   UNL     1     148.293 143.546 137.395  1.00  0.00     0.111 A 
ATOM      6  C   UNL     1     149.690 143.768 137.580  1.00  0.00     0.134 A 
ATOM      7  C   UNL     1     150.532 142.684 137.856  1.00  0.00     0.093 A 
ATOM      8  C   UNL     1     150.038 141.380 137.889  1.00  0.00     0.123 A 
ATOM      9  C   UNL     1     148.683 141.145 137.650  1.00  0.00     0.094 A 
ATOM     10  C   UNL     1     147.813 142.210 137.407  1.00  0.00     0.146 A 
ATOM     11  O   UNL     1     146.529 141.945 137.195  1.00  0.00    -0.452 OA
ENDROOT
BRANCH   1  12
ATOM     12  C   UNL     1     144.220 142.453 136.728  1.00  0.00     0.025 A 
ATOM     13  C   UNL     1     143.761 142.174 135.429  1.00  0.00     0.016 A 
ATOM     14  C   UNL     1     142.447 141.747 135.219  1.00  0.00     0.051 A 
ATOM     15  C   UNL     1     141.577 141.577 136.304  1.00  0.00     0.157 A 
ATOM     16  C   UNL     1     143.350 142.261 137.814  1.00  0.00     0.062 A 
ATOM     17  C   UNL     1     142.033 141.833 137.609  1.00  0.00     0.158 A 
BRANCH  15  18
ATOM     18  O   UNL     1     140.266 141.152 136.092  1.00  0.00    -0.504 OA
ATOM     19  H   UNL     1     139.665 141.608 135.416  1.00  0.00     0.293 HD
ENDBRANCH  15  18
BRANCH  17  20
ATOM     20  O   UNL     1     141.195 141.667 138.710  1.00  0.00    -0.504 OA
ATOM     21  H   UNL     1     140.208 141.459 138.609  1.00  0.00     0.293 HD
ENDBRANCH  17  20
ENDBRANCH   1  12
BRANCH   2  22
ATOM     22  O   UNL     1     145.013 145.235 136.881  1.00  0.00    -0.502 OA
ATOM     23  H   UNL     1     145.145 146.175 137.234  1.00  0.00     0.293 HD
ENDBRANCH   2  22
BRANCH   6  24
ATOM     24  O   UNL     1     150.302 145.022 137.476  1.00  0.00    -0.507 OA
ATOM     25  H   UNL     1     149.812 145.888 137.311  1.00  0.00     0.293 HD
ENDBRANCH   6  24
BRANCH   8  26
ATOM     26  O   UNL     1     150.907 140.322 138.152  1.00  0.00    -0.508 OA
ATOM     27  H   UNL     1     150.737 139.393 137.785  1.00  0.00     0.293 HD
ENDBRANCH   8  26
TORSDOF 6
ENDMDL
