MODEL 1
REMARK VINA RESULT:    -3.419      0.000      0.000
REMARK INTER + INTRA:         -10.630
REMARK INTER:                  -7.417
REMARK INTRA:                  -3.214
REMARK UNBOUND:                -3.214
REMARK SMILES CCCCCCCCCCCCCCCCCCCCCC(=O)[O-]
REMARK SMILES IDX 12 1 11 2 10 3 9 4 8 5 7 6 6 7 5 8 4 9 3 10 2 11 1 12 13 13
REMARK SMILES IDX 14 14 15 15 16 16 17 17 18 18 19 19 20 20 21 21 22 22 23 23
REMARK SMILES IDX 24 24
REMARK H PARENT
REMARK Flexibility Score: inf
ROOT
ATOM      1  C   UNL     1      57.499   1.213  92.318  1.00  0.00     0.000 C 
ENDROOT
BRANCH   1   2
ATOM      2  C   UNL     1      58.446   0.194  91.653  1.00  0.00     0.000 C 
BRANCH   2   3
ATOM      3  C   UNL     1      58.089  -1.286  91.897  1.00  0.00     0.000 C 
BRANCH   3   4
ATOM      4  C   UNL     1      59.241  -2.153  92.437  1.00  0.00    -0.000 C 
BRANCH   4   5
ATOM      5  C   UNL     1      60.516  -1.344  92.719  1.00  0.00    -0.000 C 
BRANCH   5   6
ATOM      6  C   UNL     1      60.856  -1.362  94.218  1.00  0.00    -0.000 C 
BRANCH   6   7
ATOM      7  C   UNL     1      60.298  -0.140  94.967  1.00  0.00    -0.000 C 
BRANCH   7   8
ATOM      8  C   UNL     1      59.372  -0.533  96.131  1.00  0.00    -0.000 C 
BRANCH   8   9
ATOM      9  C   UNL     1      58.183  -1.393  95.673  1.00  0.00    -0.000 C 
BRANCH   9  10
ATOM     10  C   UNL     1      57.044  -1.429  96.709  1.00  0.00    -0.000 C 
BRANCH  10  11
ATOM     11  C   UNL     1      55.892  -2.354  96.283  1.00  0.00    -0.003 C 
ATOM     12  C   UNL     1      56.018  -2.823  94.834  1.00  0.00     0.004 C 
ENDBRANCH  10  11
ENDBRANCH   9  10
ENDBRANCH   8   9
ENDBRANCH   7   8
ENDBRANCH   6   7
ENDBRANCH   5   6
ENDBRANCH   4   5
ENDBRANCH   3   4
ENDBRANCH   2   3
ENDBRANCH   1   2
BRANCH   1  13
ATOM     13  C   UNL     1      56.467   0.604  93.286  1.00  0.00     0.000 C 
BRANCH  13  14
ATOM     14  C   UNL     1      56.053   1.519  94.455  1.00  0.00     0.000 C 
BRANCH  14  15
ATOM     15  C   UNL     1      57.191   2.366  95.058  1.00  0.00     0.000 C 
BRANCH  15  16
ATOM     16  C   UNL     1      57.298   2.322  96.593  1.00  0.00     0.000 C 
BRANCH  16  17
ATOM     17  C   UNL     1      58.557   3.029  97.124  1.00  0.00     0.000 C 
BRANCH  17  18
ATOM     18  C   UNL     1      58.515   4.550  96.906  1.00  0.00     0.000 C 
BRANCH  18  19
ATOM     19  C   UNL     1      59.915   5.170  96.771  1.00  0.00     0.000 C 
BRANCH  19  20
ATOM     20  C   UNL     1      59.969   6.320  95.749  1.00  0.00     0.006 C 
BRANCH  20  21
ATOM     21  C   UNL     1      59.793   7.716  96.371  1.00  0.00     0.053 C 
BRANCH  21  22
ATOM     22  C   UNL     1      58.434   8.296  96.118  1.00  0.00     0.041 C 
ATOM     23  O   UNL     1      57.487   8.069  96.916  1.00  0.00    -0.550 OA
ATOM     24  O   UNL     1      58.205   9.062  94.981  1.00  0.00    -0.550 OA
ENDBRANCH  21  22
ENDBRANCH  20  21
ENDBRANCH  19  20
ENDBRANCH  18  19
ENDBRANCH  17  18
ENDBRANCH  16  17
ENDBRANCH  15  16
ENDBRANCH  14  15
ENDBRANCH  13  14
ENDBRANCH   1  13
TORSDOF 20
ENDMDL
MODEL 2
REMARK VINA RESULT:    -3.418      1.657      3.428
REMARK INTER + INTRA:         -10.628
REMARK INTER:                  -7.302
REMARK INTRA:                  -3.326
REMARK UNBOUND:                -3.214
REMARK SMILES CCCCCCCCCCCCCCCCCCCCCC(=O)[O-]
REMARK SMILES IDX 12 1 11 2 10 3 9 4 8 5 7 6 6 7 5 8 4 9 3 10 2 11 1 12 13 13
REMARK SMILES IDX 14 14 15 15 16 16 17 17 18 18 19 19 20 20 21 21 22 22 23 23
REMARK SMILES IDX 24 24
REMARK H PARENT
REMARK Flexibility Score: inf
ROOT
ATOM      1  C   UNL     1      60.351  -1.380  93.021  1.00  0.00     0.000 C 
ENDROOT
BRANCH   1   2
ATOM      2  C   UNL     1      61.083  -1.031  94.332  1.00  0.00     0.000 C 
BRANCH   2   3
ATOM      3  C   UNL     1      60.195  -1.008  95.593  1.00  0.00     0.000 C 
BRANCH   3   4
ATOM      4  C   UNL     1      60.729  -0.145  96.750  1.00  0.00    -0.000 C 
BRANCH   4   5
ATOM      5  C   UNL     1      60.027   1.217  96.852  1.00  0.00    -0.000 C 
BRANCH   5   6
ATOM      6  C   UNL     1      58.762   1.250  95.979  1.00  0.00    -0.000 C 
BRANCH   6   7
ATOM      7  C   UNL     1      57.477   1.007  96.787  1.00  0.00    -0.000 C 
BRANCH   7   8
ATOM      8  C   UNL     1      56.600  -0.102  96.182  1.00  0.00    -0.000 C 
BRANCH   8   9
ATOM      9  C   UNL     1      56.759  -1.445  96.913  1.00  0.00    -0.000 C 
BRANCH   9  10
ATOM     10  C   UNL     1      56.056  -2.605  96.185  1.00  0.00    -0.000 C 
BRANCH  10  11
ATOM     11  C   UNL     1      56.124  -2.465  94.656  1.00  0.00    -0.003 C 
ATOM     12  C   UNL     1      57.248  -3.295  94.037  1.00  0.00     0.004 C 
ENDBRANCH  10  11
ENDBRANCH   9  10
ENDBRANCH   8   9
ENDBRANCH   7   8
ENDBRANCH   6   7
ENDBRANCH   5   6
ENDBRANCH   4   5
ENDBRANCH   3   4
ENDBRANCH   2   3
ENDBRANCH   1   2
BRANCH   1  13
ATOM     13  C   UNL     1      59.625  -0.197  92.350  1.00  0.00     0.000 C 
BRANCH  13  14
ATOM     14  C   UNL     1      58.124  -0.084  92.681  1.00  0.00     0.000 C 
BRANCH  14  15
ATOM     15  C   UNL     1      57.538   1.339  92.582  1.00  0.00     0.000 C 
BRANCH  15  16
ATOM     16  C   UNL     1      56.028   1.445  92.861  1.00  0.00     0.000 C 
BRANCH  16  17
ATOM     17  C   UNL     1      55.622   2.815  93.431  1.00  0.00     0.000 C 
BRANCH  17  18
ATOM     18  C   UNL     1      56.831   3.731  93.681  1.00  0.00     0.000 C 
BRANCH  18  19
ATOM     19  C   UNL     1      56.946   4.176  95.149  1.00  0.00     0.000 C 
BRANCH  19  20
ATOM     20  C   UNL     1      57.178   5.690  95.303  1.00  0.00     0.006 C 
BRANCH  20  21
ATOM     21  C   UNL     1      58.295   6.052  96.298  1.00  0.00     0.053 C 
BRANCH  21  22
ATOM     22  C   UNL     1      59.643   6.137  95.648  1.00  0.00     0.041 C 
ATOM     23  O   UNL     1      60.685   5.896  96.312  1.00  0.00    -0.550 OA
ATOM     24  O   UNL     1      59.750   6.517  94.316  1.00  0.00    -0.550 OA
ENDBRANCH  21  22
ENDBRANCH  20  21
ENDBRANCH  19  20
ENDBRANCH  18  19
ENDBRANCH  17  18
ENDBRANCH  16  17
ENDBRANCH  15  16
ENDBRANCH  14  15
ENDBRANCH  13  14
ENDBRANCH   1  13
TORSDOF 20
ENDMDL
MODEL 3
REMARK VINA RESULT:    -3.417      1.697      2.966
REMARK INTER + INTRA:         -10.625
REMARK INTER:                  -8.506
REMARK INTRA:                  -2.118
REMARK UNBOUND:                -3.214
REMARK SMILES CCCCCCCCCCCCCCCCCCCCCC(=O)[O-]
REMARK SMILES IDX 12 1 11 2 10 3 9 4 8 5 7 6 6 7 5 8 4 9 3 10 2 11 1 12 13 13
REMARK SMILES IDX 14 14 15 15 16 16 17 17 18 18 19 19 20 20 21 21 22 22 23 23
REMARK SMILES IDX 24 24
REMARK H PARENT
REMARK Flexibility Score: inf
ROOT
ATOM      1  C   UNL     1      60.793   0.194  96.830  1.00  0.00     0.000 C 
ENDROOT
BRANCH   1   2
ATOM      2  C   UNL     1      60.202  -0.759  95.772  1.00  0.00     0.000 C 
BRANCH   2   3
ATOM      3  C   UNL     1      61.121  -1.051  94.568  1.00  0.00     0.000 C 
BRANCH   3   4
ATOM      4  C   UNL     1      60.588  -2.109  93.585  1.00  0.00    -0.000 C 
BRANCH   4   5
ATOM      5  C   UNL     1      60.018  -1.494  92.298  1.00  0.00    -0.000 C 
BRANCH   5   6
ATOM      6  C   UNL     1      58.506  -1.254  92.427  1.00  0.00    -0.000 C 
BRANCH   6   7
ATOM      7  C   UNL     1      57.841  -2.193  93.448  1.00  0.00    -0.000 C 
BRANCH   7   8
ATOM      8  C   UNL     1      56.837  -1.463  94.356  1.00  0.00    -0.000 C 
BRANCH   8   9
ATOM      9  C   UNL     1      56.949  -1.897  95.826  1.00  0.00    -0.000 C 
BRANCH   9  10
ATOM     10  C   UNL     1      55.598  -2.335  96.421  1.00  0.00    -0.000 C 
BRANCH  10  11
ATOM     11  C   UNL     1      55.542  -3.844  96.702  1.00  0.00    -0.003 C 
ATOM     12  C   UNL     1      55.533  -4.683  95.424  1.00  0.00     0.004 C 
ENDBRANCH  10  11
ENDBRANCH   9  10
ENDBRANCH   8   9
ENDBRANCH   7   8
ENDBRANCH   6   7
ENDBRANCH   5   6
ENDBRANCH   4   5
ENDBRANCH   3   4
ENDBRANCH   2   3
ENDBRANCH   1   2
BRANCH   1  13
ATOM     13  C   UNL     1      60.034   1.525  97.000  1.00  0.00     0.000 C 
BRANCH  13  14
ATOM     14  C   UNL     1      58.723   1.632  96.197  1.00  0.00     0.000 C 
BRANCH  14  15
ATOM     15  C   UNL     1      57.507   2.145  96.995  1.00  0.00     0.000 C 
BRANCH  15  16
ATOM     16  C   UNL     1      57.286   3.668  96.944  1.00  0.00     0.000 C 
BRANCH  16  17
ATOM     17  C   UNL     1      57.485   4.252  95.535  1.00  0.00     0.000 C 
BRANCH  17  18
ATOM     18  C   UNL     1      58.384   5.499  95.535  1.00  0.00     0.000 C 
BRANCH  18  19
ATOM     19  C   UNL     1      59.587   5.365  96.484  1.00  0.00     0.000 C 
BRANCH  19  20
ATOM     20  C   UNL     1      60.648   6.460  96.270  1.00  0.00     0.006 C 
BRANCH  20  21
ATOM     21  C   UNL     1      60.885   6.819  94.793  1.00  0.00     0.053 C 
BRANCH  21  22
ATOM     22  C   UNL     1      60.741   8.287  94.524  1.00  0.00     0.041 C 
ATOM     23  O   UNL     1      61.027   8.756  93.391  1.00  0.00    -0.550 OA
ATOM     24  O   UNL     1      60.322   9.142  95.536  1.00  0.00    -0.550 OA
ENDBRANCH  21  22
ENDBRANCH  20  21
ENDBRANCH  19  20
ENDBRANCH  18  19
ENDBRANCH  17  18
ENDBRANCH  16  17
ENDBRANCH  15  16
ENDBRANCH  14  15
ENDBRANCH  13  14
ENDBRANCH   1  13
TORSDOF 20
ENDMDL
MODEL 4
REMARK VINA RESULT:    -3.353      3.535      5.198
REMARK INTER + INTRA:         -10.487
REMARK INTER:                  -6.680
REMARK INTRA:                  -3.807
REMARK UNBOUND:                -3.214
REMARK SMILES CCCCCCCCCCCCCCCCCCCCCC(=O)[O-]
REMARK SMILES IDX 12 1 11 2 10 3 9 4 8 5 7 6 6 7 5 8 4 9 3 10 2 11 1 12 13 13
REMARK SMILES IDX 14 14 15 15 16 16 17 17 18 18 19 19 20 20 21 21 22 22 23 23
REMARK SMILES IDX 24 24
REMARK H PARENT
REMARK Flexibility Score: inf
ROOT
ATOM      1  C   UNL     1      60.204  -1.558  93.827  1.00  0.00     0.000 C 
ENDROOT
BRANCH   1   2
ATOM      2  C   UNL     1      60.781  -2.984  93.723  1.00  0.00     0.000 C 
BRANCH   2   3
ATOM      3  C   UNL     1      60.667  -3.636  92.330  1.00  0.00     0.000 C 
BRANCH   3   4
ATOM      4  C   UNL     1      59.856  -2.832  91.299  1.00  0.00    -0.000 C 
BRANCH   4   5
ATOM      5  C   UNL     1      58.378  -3.243  91.249  1.00  0.00    -0.000 C 
BRANCH   5   6
ATOM      6  C   UNL     1      58.179  -4.649  91.838  1.00  0.00    -0.000 C 
BRANCH   6   7
ATOM      7  C   UNL     1      57.247  -4.653  93.061  1.00  0.00    -0.000 C 
BRANCH   7   8
ATOM      8  C   UNL     1      56.883  -3.234  93.531  1.00  0.00    -0.000 C 
BRANCH   8   9
ATOM      9  C   UNL     1      56.345  -3.211  94.972  1.00  0.00    -0.000 C 
BRANCH   9  10
ATOM     10  C   UNL     1      57.024  -2.136  95.841  1.00  0.00    -0.000 C 
BRANCH  10  11
ATOM     11  C   UNL     1      56.040  -1.452  96.803  1.00  0.00    -0.003 C 
ATOM     12  C   UNL     1      54.912  -0.723  96.073  1.00  0.00     0.004 C 
ENDBRANCH  10  11
ENDBRANCH   9  10
ENDBRANCH   8   9
ENDBRANCH   7   8
ENDBRANCH   6   7
ENDBRANCH   5   6
ENDBRANCH   4   5
ENDBRANCH   3   4
ENDBRANCH   2   3
ENDBRANCH   1   2
BRANCH   1  13
ATOM     13  C   UNL     1      60.920  -0.641  94.838  1.00  0.00     0.000 C 
BRANCH  13  14
ATOM     14  C   UNL     1      60.128  -0.355  96.129  1.00  0.00     0.000 C 
BRANCH  14  15
ATOM     15  C   UNL     1      60.536   0.931  96.876  1.00  0.00     0.000 C 
BRANCH  15  16
ATOM     16  C   UNL     1      59.403   1.952  97.088  1.00  0.00     0.000 C 
BRANCH  16  17
ATOM     17  C   UNL     1      58.048   1.458  96.554  1.00  0.00     0.000 C 
BRANCH  17  18
ATOM     18  C   UNL     1      57.242   2.575  95.872  1.00  0.00     0.000 C 
BRANCH  18  19
ATOM     19  C   UNL     1      57.099   2.364  94.355  1.00  0.00     0.000 C 
BRANCH  19  20
ATOM     20  C   UNL     1      57.595   0.983  93.889  1.00  0.00     0.006 C 
BRANCH  20  21
ATOM     21  C   UNL     1      56.740   0.358  92.773  1.00  0.00     0.053 C 
BRANCH  21  22
ATOM     22  C   UNL     1      57.449   0.319  91.453  1.00  0.00     0.041 C 
ATOM     23  O   UNL     1      56.825   0.011  90.404  1.00  0.00    -0.550 OA
ATOM     24  O   UNL     1      58.811   0.592  91.386  1.00  0.00    -0.550 OA
ENDBRANCH  21  22
ENDBRANCH  20  21
ENDBRANCH  19  20
ENDBRANCH  18  19
ENDBRANCH  17  18
ENDBRANCH  16  17
ENDBRANCH  15  16
ENDBRANCH  14  15
ENDBRANCH  13  14
ENDBRANCH   1  13
TORSDOF 20
ENDMDL
MODEL 5
REMARK VINA RESULT:    -3.278      3.333      5.895
REMARK INTER + INTRA:         -10.324
REMARK INTER:                  -6.378
REMARK INTRA:                  -3.946
REMARK UNBOUND:                -3.214
REMARK SMILES CCCCCCCCCCCCCCCCCCCCCC(=O)[O-]
REMARK SMILES IDX 12 1 11 2 10 3 9 4 8 5 7 6 6 7 5 8 4 9 3 10 2 11 1 12 13 13
REMARK SMILES IDX 14 14 15 15 16 16 17 17 18 18 19 19 20 20 21 21 22 22 23 23
REMARK SMILES IDX 24 24
REMARK H PARENT
REMARK Flexibility Score: inf
ROOT
ATOM      1  C   UNL     1      58.128   2.296  95.929  1.00  0.00     0.000 C 
ENDROOT
BRANCH   1   2
ATOM      2  C   UNL     1      56.690   1.758  96.068  1.00  0.00     0.000 C 
BRANCH   2   3
ATOM      3  C   UNL     1      56.576   0.343  96.671  1.00  0.00     0.000 C 
BRANCH   3   4
ATOM      4  C   UNL     1      56.237  -0.769  95.662  1.00  0.00    -0.000 C 
BRANCH   4   5
ATOM      5  C   UNL     1      56.356  -2.177  96.263  1.00  0.00    -0.000 C 
BRANCH   5   6
ATOM      6  C   UNL     1      56.521  -3.233  95.158  1.00  0.00    -0.000 C 
BRANCH   6   7
ATOM      7  C   UNL     1      56.317  -2.653  93.749  1.00  0.00    -0.000 C 
BRANCH   7   8
ATOM      8  C   UNL     1      57.344  -3.189  92.736  1.00  0.00    -0.000 C 
BRANCH   8   9
ATOM      9  C   UNL     1      58.383  -4.117  93.386  1.00  0.00    -0.000 C 
BRANCH   9  10
ATOM     10  C   UNL     1      59.397  -4.676  92.371  1.00  0.00    -0.000 C 
BRANCH  10  11
ATOM     11  C   UNL     1      60.695  -3.854  92.324  1.00  0.00    -0.003 C 
ATOM     12  C   UNL     1      61.124  -3.511  90.898  1.00  0.00     0.004 C 
ENDBRANCH  10  11
ENDBRANCH   9  10
ENDBRANCH   8   9
ENDBRANCH   7   8
ENDBRANCH   6   7
ENDBRANCH   5   6
ENDBRANCH   4   5
ENDBRANCH   3   4
ENDBRANCH   2   3
ENDBRANCH   1   2
BRANCH   1  13
ATOM     13  C   UNL     1      59.055   1.987  97.122  1.00  0.00     0.000 C 
BRANCH  13  14
ATOM     14  C   UNL     1      60.379   1.291  96.753  1.00  0.00     0.000 C 
BRANCH  14  15
ATOM     15  C   UNL     1      60.303  -0.246  96.645  1.00  0.00     0.000 C 
BRANCH  15  16
ATOM     16  C   UNL     1      60.646  -0.822  95.259  1.00  0.00     0.000 C 
BRANCH  16  17
ATOM     17  C   UNL     1      59.488  -0.689  94.255  1.00  0.00     0.000 C 
BRANCH  17  18
ATOM     18  C   UNL     1      59.977  -0.411  92.825  1.00  0.00     0.000 C 
BRANCH  18  19
ATOM     19  C   UNL     1      58.855   0.086  91.898  1.00  0.00     0.000 C 
BRANCH  19  20
ATOM     20  C   UNL     1      57.601   0.548  92.663  1.00  0.00     0.006 C 
BRANCH  20  21
ATOM     21  C   UNL     1      57.082   1.931  92.231  1.00  0.00     0.053 C 
BRANCH  21  22
ATOM     22  C   UNL     1      55.598   1.952  92.023  1.00  0.00     0.041 C 
ATOM     23  O   UNL     1      54.845   1.242  92.738  1.00  0.00    -0.550 OA
ATOM     24  O   UNL     1      55.049   2.734  91.013  1.00  0.00    -0.550 OA
ENDBRANCH  21  22
ENDBRANCH  20  21
ENDBRANCH  19  20
ENDBRANCH  18  19
ENDBRANCH  17  18
ENDBRANCH  16  17
ENDBRANCH  15  16
ENDBRANCH  14  15
ENDBRANCH  13  14
ENDBRANCH   1  13
TORSDOF 20
ENDMDL
MODEL 6
REMARK VINA RESULT:    -3.253      3.886      8.118
REMARK INTER + INTRA:         -10.269
REMARK INTER:                  -7.504
REMARK INTRA:                  -2.765
REMARK UNBOUND:                -3.214
REMARK SMILES CCCCCCCCCCCCCCCCCCCCCC(=O)[O-]
REMARK SMILES IDX 12 1 11 2 10 3 9 4 8 5 7 6 6 7 5 8 4 9 3 10 2 11 1 12 13 13
REMARK SMILES IDX 14 14 15 15 16 16 17 17 18 18 19 19 20 20 21 21 22 22 23 23
REMARK SMILES IDX 24 24
REMARK H PARENT
REMARK Flexibility Score: inf
ROOT
ATOM      1  C   UNL     1      55.942  -0.081  94.712  1.00  0.00     0.000 C 
ENDROOT
BRANCH   1   2
ATOM      2  C   UNL     1      56.770   0.341  93.482  1.00  0.00     0.000 C 
BRANCH   2   3
ATOM      3  C   UNL     1      57.344   1.771  93.538  1.00  0.00     0.000 C 
BRANCH   3   4
ATOM      4  C   UNL     1      56.302   2.882  93.755  1.00  0.00    -0.000 C 
BRANCH   4   5
ATOM      5  C   UNL     1      56.348   3.476  95.170  1.00  0.00    -0.000 C 
BRANCH   5   6
ATOM      6  C   UNL     1      57.621   4.313  95.373  1.00  0.00    -0.000 C 
BRANCH   6   7
ATOM      7  C   UNL     1      58.524   3.758  96.487  1.00  0.00    -0.000 C 
BRANCH   7   8
ATOM      8  C   UNL     1      59.565   4.783  96.969  1.00  0.00    -0.000 C 
BRANCH   8   9
ATOM      9  C   UNL     1      59.648   6.014  96.051  1.00  0.00    -0.000 C 
BRANCH   9  10
ATOM     10  C   UNL     1      61.061   6.624  96.004  1.00  0.00    -0.000 C 
BRANCH  10  11
ATOM     11  C   UNL     1      61.125   8.011  96.663  1.00  0.00    -0.003 C 
ATOM     12  C   UNL     1      59.744   8.553  97.029  1.00  0.00     0.004 C 
ENDBRANCH  10  11
ENDBRANCH   9  10
ENDBRANCH   8   9
ENDBRANCH   7   8
ENDBRANCH   6   7
ENDBRANCH   5   6
ENDBRANCH   4   5
ENDBRANCH   3   4
ENDBRANCH   2   3
ENDBRANCH   1   2
BRANCH   1  13
ATOM     13  C   UNL     1      56.730  -0.135  96.036  1.00  0.00     0.000 C 
BRANCH  13  14
ATOM     14  C   UNL     1      57.949  -1.077  96.029  1.00  0.00     0.000 C 
BRANCH  14  15
ATOM     15  C   UNL     1      59.294  -0.410  96.383  1.00  0.00     0.000 C 
BRANCH  15  16
ATOM     16  C   UNL     1      60.098   0.120  95.182  1.00  0.00     0.000 C 
BRANCH  16  17
ATOM     17  C   UNL     1      60.767  -1.002  94.371  1.00  0.00     0.000 C 
BRANCH  17  18
ATOM     18  C   UNL     1      60.251  -1.071  92.925  1.00  0.00     0.000 C 
BRANCH  18  19
ATOM     19  C   UNL     1      60.365  -2.481  92.319  1.00  0.00     0.000 C 
BRANCH  19  20
ATOM     20  C   UNL     1      59.431  -3.503  92.991  1.00  0.00     0.006 C 
BRANCH  20  21
ATOM     21  C   UNL     1      57.944  -3.109  92.954  1.00  0.00     0.053 C 
BRANCH  21  22
ATOM     22  C   UNL     1      57.079  -4.036  93.751  1.00  0.00     0.041 C 
ATOM     23  O   UNL     1      57.373  -5.256  93.847  1.00  0.00    -0.550 OA
ATOM     24  O   UNL     1      55.925  -3.558  94.363  1.00  0.00    -0.550 OA
ENDBRANCH  21  22
ENDBRANCH  20  21
ENDBRANCH  19  20
ENDBRANCH  18  19
ENDBRANCH  17  18
ENDBRANCH  16  17
ENDBRANCH  15  16
ENDBRANCH  14  15
ENDBRANCH  13  14
ENDBRANCH   1  13
TORSDOF 20
ENDMDL
MODEL 7
REMARK VINA RESULT:    -3.212      3.986      8.345
REMARK INTER + INTRA:         -10.181
REMARK INTER:                  -7.440
REMARK INTRA:                  -2.741
REMARK UNBOUND:                -3.214
REMARK SMILES CCCCCCCCCCCCCCCCCCCCCC(=O)[O-]
REMARK SMILES IDX 12 1 11 2 10 3 9 4 8 5 7 6 6 7 5 8 4 9 3 10 2 11 1 12 13 13
REMARK SMILES IDX 14 14 15 15 16 16 17 17 18 18 19 19 20 20 21 21 22 22 23 23
REMARK SMILES IDX 24 24
REMARK H PARENT
REMARK Flexibility Score: inf
ROOT
ATOM      1  C   UNL     1      57.766   5.469  94.012  1.00  0.00     0.000 C 
ENDROOT
BRANCH   1   2
ATOM      2  C   UNL     1      56.943   6.771  94.076  1.00  0.00     0.000 C 
BRANCH   2   3
ATOM      3  C   UNL     1      56.978   7.502  95.434  1.00  0.00     0.000 C 
BRANCH   3   4
ATOM      4  C   UNL     1      57.534   6.672  96.605  1.00  0.00    -0.000 C 
BRANCH   4   5
ATOM      5  C   UNL     1      58.923   7.141  97.063  1.00  0.00    -0.000 C 
BRANCH   5   6
ATOM      6  C   UNL     1      59.985   6.067  96.779  1.00  0.00    -0.000 C 
BRANCH   6   7
ATOM      7  C   UNL     1      61.026   6.522  95.742  1.00  0.00    -0.000 C 
BRANCH   7   8
ATOM      8  C   UNL     1      61.038   8.047  95.548  1.00  0.00    -0.000 C 
BRANCH   8   9
ATOM      9  C   UNL     1      60.545   8.468  94.153  1.00  0.00    -0.000 C 
BRANCH   9  10
ATOM     10  C   UNL     1      60.740   7.365  93.097  1.00  0.00    -0.000 C 
BRANCH  10  11
ATOM     11  C   UNL     1      61.105   7.932  91.717  1.00  0.00    -0.003 C 
ATOM     12  C   UNL     1      60.023   8.851  91.151  1.00  0.00     0.004 C 
ENDBRANCH  10  11
ENDBRANCH   9  10
ENDBRANCH   8   9
ENDBRANCH   7   8
ENDBRANCH   6   7
ENDBRANCH   5   6
ENDBRANCH   4   5
ENDBRANCH   3   4
ENDBRANCH   2   3
ENDBRANCH   1   2
BRANCH   1  13
ATOM     13  C   UNL     1      56.930   4.178  93.915  1.00  0.00     0.000 C 
BRANCH  13  14
ATOM     14  C   UNL     1      56.799   3.388  95.231  1.00  0.00     0.000 C 
BRANCH  14  15
ATOM     15  C   UNL     1      58.128   3.109  95.962  1.00  0.00     0.000 C 
BRANCH  15  16
ATOM     16  C   UNL     1      58.078   1.973  97.000  1.00  0.00     0.000 C 
BRANCH  16  17
ATOM     17  C   UNL     1      57.283   0.751  96.509  1.00  0.00     0.000 C 
BRANCH  17  18
ATOM     18  C   UNL     1      58.193  -0.363  95.965  1.00  0.00     0.000 C 
BRANCH  18  19
ATOM     19  C   UNL     1      59.658  -0.201  96.403  1.00  0.00     0.000 C 
BRANCH  19  20
ATOM     20  C   UNL     1      60.655  -0.337  95.238  1.00  0.00     0.006 C 
BRANCH  20  21
ATOM     21  C   UNL     1      59.988  -0.591  93.874  1.00  0.00     0.053 C 
BRANCH  21  22
ATOM     22  C   UNL     1      60.512  -1.820  93.194  1.00  0.00     0.041 C 
ATOM     23  O   UNL     1      60.473  -1.917  91.939  1.00  0.00    -0.550 OA
ATOM     24  O   UNL     1      61.015  -2.873  93.949  1.00  0.00    -0.550 OA
ENDBRANCH  21  22
ENDBRANCH  20  21
ENDBRANCH  19  20
ENDBRANCH  18  19
ENDBRANCH  17  18
ENDBRANCH  16  17
ENDBRANCH  15  16
ENDBRANCH  14  15
ENDBRANCH  13  14
ENDBRANCH   1  13
TORSDOF 20
ENDMDL
MODEL 8
REMARK VINA RESULT:    -3.182      4.522      7.361
REMARK INTER + INTRA:         -10.117
REMARK INTER:                  -6.208
REMARK INTRA:                  -3.909
REMARK UNBOUND:                -3.214
REMARK SMILES CCCCCCCCCCCCCCCCCCCCCC(=O)[O-]
REMARK SMILES IDX 12 1 11 2 10 3 9 4 8 5 7 6 6 7 5 8 4 9 3 10 2 11 1 12 13 13
REMARK SMILES IDX 14 14 15 15 16 16 17 17 18 18 19 19 20 20 21 21 22 22 23 23
REMARK SMILES IDX 24 24
REMARK H PARENT
REMARK Flexibility Score: inf
ROOT
ATOM      1  C   UNL     1      56.509   1.051  96.201  1.00  0.00     0.000 C 
ENDROOT
BRANCH   1   2
ATOM      2  C   UNL     1      56.316  -0.362  96.787  1.00  0.00     0.000 C 
BRANCH   2   3
ATOM      3  C   UNL     1      57.141  -1.472  96.103  1.00  0.00     0.000 C 
BRANCH   3   4
ATOM      4  C   UNL     1      56.315  -2.510  95.324  1.00  0.00    -0.000 C 
BRANCH   4   5
ATOM      5  C   UNL     1      54.875  -2.638  95.841  1.00  0.00    -0.000 C 
BRANCH   5   6
ATOM      6  C   UNL     1      53.863  -2.262  94.747  1.00  0.00    -0.000 C 
BRANCH   6   7
ATOM      7  C   UNL     1      54.531  -1.633  93.513  1.00  0.00    -0.000 C 
BRANCH   7   8
ATOM      8  C   UNL     1      54.123  -0.165  93.304  1.00  0.00    -0.000 C 
BRANCH   8   9
ATOM      9  C   UNL     1      55.273   0.694  92.753  1.00  0.00    -0.000 C 
BRANCH   9  10
ATOM     10  C   UNL     1      56.506  -0.144  92.365  1.00  0.00    -0.000 C 
BRANCH  10  11
ATOM     11  C   UNL     1      57.789   0.699  92.292  1.00  0.00    -0.003 C 
ATOM     12  C   UNL     1      58.615   0.407  91.040  1.00  0.00     0.004 C 
ENDBRANCH  10  11
ENDBRANCH   9  10
ENDBRANCH   8   9
ENDBRANCH   7   8
ENDBRANCH   6   7
ENDBRANCH   5   6
ENDBRANCH   4   5
ENDBRANCH   3   4
ENDBRANCH   2   3
ENDBRANCH   1   2
BRANCH   1  13
ATOM     13  C   UNL     1      57.957   1.397  95.802  1.00  0.00     0.000 C 
BRANCH  13  14
ATOM     14  C   UNL     1      58.911   1.661  96.983  1.00  0.00     0.000 C 
BRANCH  14  15
ATOM     15  C   UNL     1      60.351   1.144  96.790  1.00  0.00     0.000 C 
BRANCH  15  16
ATOM     16  C   UNL     1      60.475  -0.369  96.539  1.00  0.00     0.000 C 
BRANCH  16  17
ATOM     17  C   UNL     1      61.100  -0.698  95.172  1.00  0.00     0.000 C 
BRANCH  17  18
ATOM     18  C   UNL     1      60.112  -1.398  94.225  1.00  0.00     0.000 C 
BRANCH  18  19
ATOM     19  C   UNL     1      60.756  -2.554  93.442  1.00  0.00     0.000 C 
BRANCH  19  20
ATOM     20  C   UNL     1      59.754  -3.662  93.070  1.00  0.00     0.006 C 
BRANCH  20  21
ATOM     21  C   UNL     1      58.476  -3.144  92.388  1.00  0.00     0.053 C 
BRANCH  21  22
ATOM     22  C   UNL     1      58.550  -3.212  90.892  1.00  0.00     0.041 C 
ATOM     23  O   UNL     1      59.641  -3.468  90.320  1.00  0.00    -0.550 OA
ATOM     24  O   UNL     1      57.416  -2.959  90.128  1.00  0.00    -0.550 OA
ENDBRANCH  21  22
ENDBRANCH  20  21
ENDBRANCH  19  20
ENDBRANCH  18  19
ENDBRANCH  17  18
ENDBRANCH  16  17
ENDBRANCH  15  16
ENDBRANCH  14  15
ENDBRANCH  13  14
ENDBRANCH   1  13
TORSDOF 20
ENDMDL
MODEL 9
REMARK VINA RESULT:    -2.233      3.545      7.827
REMARK INTER + INTRA:          -8.057
REMARK INTER:                  -5.492
REMARK INTRA:                  -2.565
REMARK UNBOUND:                -3.214
REMARK SMILES CCCCCCCCCCCCCCCCCCCCCC(=O)[O-]
REMARK SMILES IDX 12 1 11 2 10 3 9 4 8 5 7 6 6 7 5 8 4 9 3 10 2 11 1 12 13 13
REMARK SMILES IDX 14 14 15 15 16 16 17 17 18 18 19 19 20 20 21 21 22 22 23 23
REMARK SMILES IDX 24 24
REMARK H PARENT
REMARK Flexibility Score: inf
ROOT
ATOM      1  C   UNL     1      57.413   3.903  95.232  1.00  0.00     0.000 C 
ENDROOT
BRANCH   1   2
ATOM      2  C   UNL     1      57.370   5.289  95.905  1.00  0.00     0.000 C 
BRANCH   2   3
ATOM      3  C   UNL     1      58.604   5.641  96.760  1.00  0.00     0.000 C 
BRANCH   3   4
ATOM      4  C   UNL     1      59.930   5.729  95.984  1.00  0.00    -0.000 C 
BRANCH   4   5
ATOM      5  C   UNL     1      60.761   6.965  96.359  1.00  0.00    -0.000 C 
BRANCH   5   6
ATOM      6  C   UNL     1      61.112   7.789  95.109  1.00  0.00    -0.000 C 
BRANCH   6   7
ATOM      7  C   UNL     1      60.589   7.151  93.812  1.00  0.00    -0.000 C 
BRANCH   7   8
ATOM      8  C   UNL     1      59.685   8.103  93.009  1.00  0.00    -0.000 C 
BRANCH   8   9
ATOM      9  C   UNL     1      58.243   7.584  92.888  1.00  0.00    -0.000 C 
BRANCH   9  10
ATOM     10  C   UNL     1      58.178   6.114  92.433  1.00  0.00    -0.000 C 
BRANCH  10  11
ATOM     11  C   UNL     1      57.361   5.935  91.144  1.00  0.00    -0.003 C 
ATOM     12  C   UNL     1      56.766   7.247  90.635  1.00  0.00     0.004 C 
ENDBRANCH  10  11
ENDBRANCH   9  10
ENDBRANCH   8   9
ENDBRANCH   7   8
ENDBRANCH   6   7
ENDBRANCH   5   6
ENDBRANCH   4   5
ENDBRANCH   3   4
ENDBRANCH   2   3
ENDBRANCH   1   2
BRANCH   1  13
ATOM     13  C   UNL     1      57.189   2.712  96.184  1.00  0.00     0.000 C 
BRANCH  13  14
ATOM     14  C   UNL     1      58.227   1.580  96.064  1.00  0.00     0.000 C 
BRANCH  14  15
ATOM     15  C   UNL     1      59.491   1.755  96.929  1.00  0.00     0.000 C 
BRANCH  15  16
ATOM     16  C   UNL     1      60.553   0.652  96.769  1.00  0.00     0.000 C 
BRANCH  16  17
ATOM     17  C   UNL     1      60.063  -0.527  95.910  1.00  0.00     0.000 C 
BRANCH  17  18
ATOM     18  C   UNL     1      61.125  -1.007  94.908  1.00  0.00     0.000 C 
BRANCH  18  19
ATOM     19  C   UNL     1      60.524  -1.408  93.550  1.00  0.00     0.000 C 
BRANCH  19  20
ATOM     20  C   UNL     1      59.669  -0.295  92.918  1.00  0.00     0.006 C 
BRANCH  20  21
ATOM     21  C   UNL     1      58.327  -0.788  92.349  1.00  0.00     0.053 C 
BRANCH  21  22
ATOM     22  C   UNL     1      57.221  -0.751  93.359  1.00  0.00     0.041 C 
ATOM     23  O   UNL     1      57.095  -1.681  94.199  1.00  0.00    -0.550 OA
ATOM     24  O   UNL     1      56.306   0.296  93.352  1.00  0.00    -0.550 OA
ENDBRANCH  21  22
ENDBRANCH  20  21
ENDBRANCH  19  20
ENDBRANCH  18  19
ENDBRANCH  17  18
ENDBRANCH  16  17
ENDBRANCH  15  16
ENDBRANCH  14  15
ENDBRANCH  13  14
ENDBRANCH   1  13
TORSDOF 20
ENDMDL
