MODEL 1
REMARK VINA RESULT:    -4.456      0.000      0.000
REMARK INTER + INTRA:          -7.475
REMARK INTER:                  -7.061
REMARK INTRA:                  -0.414
REMARK UNBOUND:                -0.414
REMARK SMILES CCCCCCCCCCCC(=O)[O-]
REMARK SMILES IDX 7 1 8 2 9 3 10 4 11 5 12 6 13 7 14 8 6 9 5 10 4 11 3 12 2 13
REMARK SMILES IDX 1 14
REMARK H PARENT
REMARK Flexibility Score: inf
ROOT
ATOM      1  C   UNL     1      -9.011   5.566  -8.130  1.00  0.00     0.000 C 
ENDROOT
BRANCH   1   2
ATOM      2  C   UNL     1      -9.326   4.556  -9.247  1.00  0.00     0.000 C 
BRANCH   2   3
ATOM      3  C   UNL     1      -9.529   5.233 -10.613  1.00  0.00     0.000 C 
BRANCH   3   4
ATOM      4  C   UNL     1      -8.756   4.531 -11.746  1.00  0.00     0.006 C 
BRANCH   4   5
ATOM      5  C   UNL     1      -7.641   5.380 -12.374  1.00  0.00     0.053 C 
BRANCH   5   6
ATOM      6  C   UNL     1      -7.451   5.069 -13.828  1.00  0.00     0.041 C 
ATOM      7  O   UNL     1      -6.683   4.137 -14.182  1.00  0.00    -0.550 OA
ATOM      8  O   UNL     1      -8.149   5.788 -14.790  1.00  0.00    -0.550 OA
ENDBRANCH   5   6
ENDBRANCH   4   5
ENDBRANCH   3   4
ENDBRANCH   2   3
ENDBRANCH   1   2
BRANCH   1   9
ATOM      9  C   UNL     1      -7.519   5.610  -7.771  1.00  0.00     0.000 C 
BRANCH   9  10
ATOM     10  C   UNL     1      -7.316   6.132  -6.340  1.00  0.00    -0.000 C 
BRANCH  10  11
ATOM     11  C   UNL     1      -7.867   5.173  -5.271  1.00  0.00    -0.000 C 
BRANCH  11  12
ATOM     12  C   UNL     1      -7.470   5.588  -3.844  1.00  0.00    -0.000 C 
BRANCH  12  13
ATOM     13  C   UNL     1      -6.197   4.878  -3.358  1.00  0.00    -0.003 C 
ATOM     14  C   UNL     1      -6.284   3.357  -3.474  1.00  0.00     0.004 C 
ENDBRANCH  12  13
ENDBRANCH  11  12
ENDBRANCH  10  11
ENDBRANCH   9  10
ENDBRANCH   1   9
TORSDOF 10
ENDMDL
MODEL 2
REMARK VINA RESULT:    -4.451      2.211      3.176
REMARK INTER + INTRA:          -7.466
REMARK INTER:                  -6.587
REMARK INTRA:                  -0.880
REMARK UNBOUND:                -0.414
REMARK SMILES CCCCCCCCCCCC(=O)[O-]
REMARK SMILES IDX 7 1 8 2 9 3 10 4 11 5 12 6 13 7 14 8 6 9 5 10 4 11 3 12 2 13
REMARK SMILES IDX 1 14
REMARK H PARENT
REMARK Flexibility Score: inf
ROOT
ATOM      1  C   UNL     1      -9.611   5.669  -8.459  1.00  0.00     0.000 C 
ENDROOT
BRANCH   1   2
ATOM      2  C   UNL     1      -9.002   4.647  -9.433  1.00  0.00     0.000 C 
BRANCH   2   3
ATOM      3  C   UNL     1      -9.334   4.963 -10.902  1.00  0.00     0.000 C 
BRANCH   3   4
ATOM      4  C   UNL     1      -8.083   5.303 -11.734  1.00  0.00     0.006 C 
BRANCH   4   5
ATOM      5  C   UNL     1      -8.044   4.642 -13.121  1.00  0.00     0.053 C 
BRANCH   5   6
ATOM      6  C   UNL     1      -6.642   4.467 -13.619  1.00  0.00     0.041 C 
ATOM      7  O   UNL     1      -6.357   3.513 -14.389  1.00  0.00    -0.550 OA
ATOM      8  O   UNL     1      -5.657   5.379 -13.260  1.00  0.00    -0.550 OA
ENDBRANCH   5   6
ENDBRANCH   4   5
ENDBRANCH   3   4
ENDBRANCH   2   3
ENDBRANCH   1   2
BRANCH   1   9
ATOM      9  C   UNL     1      -8.880   5.714  -7.110  1.00  0.00     0.000 C 
BRANCH   9  10
ATOM     10  C   UNL     1      -7.363   5.568  -7.305  1.00  0.00    -0.000 C 
BRANCH  10  11
ATOM     11  C   UNL     1      -6.591   6.855  -6.970  1.00  0.00    -0.000 C 
BRANCH  11  12
ATOM     12  C   UNL     1      -5.375   7.070  -7.886  1.00  0.00    -0.000 C 
BRANCH  12  13
ATOM     13  C   UNL     1      -5.542   6.393  -9.255  1.00  0.00    -0.003 C 
ATOM     14  C   UNL     1      -4.241   6.348 -10.058  1.00  0.00     0.004 C 
ENDBRANCH  12  13
ENDBRANCH  11  12
ENDBRANCH  10  11
ENDBRANCH   9  10
ENDBRANCH   1   9
TORSDOF 10
ENDMDL
MODEL 3
REMARK VINA RESULT:    -4.446      2.293      3.967
REMARK INTER + INTRA:          -7.460
REMARK INTER:                  -6.531
REMARK INTRA:                  -0.929
REMARK UNBOUND:                -0.414
REMARK SMILES CCCCCCCCCCCC(=O)[O-]
REMARK SMILES IDX 7 1 8 2 9 3 10 4 11 5 12 6 13 7 14 8 6 9 5 10 4 11 3 12 2 13
REMARK SMILES IDX 1 14
REMARK H PARENT
REMARK Flexibility Score: inf
ROOT
ATOM      1  C   UNL     1      -4.517   6.895  -9.064  1.00  0.00     0.000 C 
ENDROOT
BRANCH   1   2
ATOM      2  C   UNL     1      -4.835   5.760 -10.052  1.00  0.00     0.000 C 
BRANCH   2   3
ATOM      3  C   UNL     1      -5.178   6.282 -11.458  1.00  0.00     0.000 C 
BRANCH   3   4
ATOM      4  C   UNL     1      -6.543   5.777 -11.963  1.00  0.00     0.006 C 
BRANCH   4   5
ATOM      5  C   UNL     1      -6.552   5.335 -13.435  1.00  0.00     0.053 C 
BRANCH   5   6
ATOM      6  C   UNL     1      -7.942   5.267 -13.991  1.00  0.00     0.041 C 
ATOM      7  O   UNL     1      -8.282   6.020 -14.941  1.00  0.00    -0.550 OA
ATOM      8  O   UNL     1      -8.851   4.348 -13.482  1.00  0.00    -0.550 OA
ENDBRANCH   5   6
ENDBRANCH   4   5
ENDBRANCH   3   4
ENDBRANCH   2   3
ENDBRANCH   1   2
BRANCH   1   9
ATOM      9  C   UNL     1      -5.574   7.036  -7.959  1.00  0.00     0.000 C 
BRANCH   9  10
ATOM     10  C   UNL     1      -6.622   5.916  -8.059  1.00  0.00    -0.000 C 
BRANCH  10  11
ATOM     11  C   UNL     1      -7.857   6.176  -7.180  1.00  0.00    -0.000 C 
BRANCH  11  12
ATOM     12  C   UNL     1      -9.137   5.553  -7.762  1.00  0.00    -0.000 C 
BRANCH  12  13
ATOM     13  C   UNL     1      -8.896   4.871  -9.118  1.00  0.00    -0.003 C 
ATOM     14  C   UNL     1      -9.922   5.276 -10.177  1.00  0.00     0.004 C 
ENDBRANCH  12  13
ENDBRANCH  11  12
ENDBRANCH  10  11
ENDBRANCH   9  10
ENDBRANCH   1   9
TORSDOF 10
ENDMDL
MODEL 4
REMARK VINA RESULT:    -4.435      3.826      8.085
REMARK INTER + INTRA:          -7.442
REMARK INTER:                  -7.013
REMARK INTRA:                  -0.429
REMARK UNBOUND:                -0.414
REMARK SMILES CCCCCCCCCCCC(=O)[O-]
REMARK SMILES IDX 7 1 8 2 9 3 10 4 11 5 12 6 13 7 14 8 6 9 5 10 4 11 3 12 2 13
REMARK SMILES IDX 1 14
REMARK H PARENT
REMARK Flexibility Score: inf
ROOT
ATOM      1  C   UNL     1      -9.556   5.012 -10.678  1.00  0.00     0.000 C 
ENDROOT
BRANCH   1   2
ATOM      2  C   UNL     1      -9.405   4.498  -9.236  1.00  0.00     0.000 C 
BRANCH   2   3
ATOM      3  C   UNL     1      -9.012   5.614  -8.252  1.00  0.00     0.000 C 
BRANCH   3   4
ATOM      4  C   UNL     1      -7.519   5.575  -7.874  1.00  0.00     0.006 C 
BRANCH   4   5
ATOM      5  C   UNL     1      -7.174   6.316  -6.574  1.00  0.00     0.053 C 
BRANCH   5   6
ATOM      6  C   UNL     1      -7.774   5.651  -5.373  1.00  0.00     0.041 C 
ATOM      7  O   UNL     1      -7.421   4.486  -5.051  1.00  0.00    -0.550 OA
ATOM      8  O   UNL     1      -8.699   6.331  -4.590  1.00  0.00    -0.550 OA
ENDBRANCH   5   6
ENDBRANCH   4   5
ENDBRANCH   3   4
ENDBRANCH   2   3
ENDBRANCH   1   2
BRANCH   1   9
ATOM      9  C   UNL     1      -8.264   4.874 -11.497  1.00  0.00     0.000 C 
BRANCH   9  10
ATOM     10  C   UNL     1      -8.572   4.402 -12.927  1.00  0.00    -0.000 C 
BRANCH  10  11
ATOM     11  C   UNL     1      -7.302   4.169 -13.764  1.00  0.00    -0.000 C 
BRANCH  11  12
ATOM     12  C   UNL     1      -6.817   5.448 -14.468  1.00  0.00    -0.000 C 
BRANCH  12  13
ATOM     13  C   UNL     1      -7.842   5.990 -15.476  1.00  0.00    -0.003 C 
ATOM     14  C   UNL     1      -7.335   5.951 -16.918  1.00  0.00     0.004 C 
ENDBRANCH  12  13
ENDBRANCH  11  12
ENDBRANCH  10  11
ENDBRANCH   9  10
ENDBRANCH   1   9
TORSDOF 10
ENDMDL
MODEL 5
REMARK VINA RESULT:    -4.434      1.386      2.770
REMARK INTER + INTRA:          -7.441
REMARK INTER:                  -7.016
REMARK INTRA:                  -0.425
REMARK UNBOUND:                -0.414
REMARK SMILES CCCCCCCCCCCC(=O)[O-]
REMARK SMILES IDX 7 1 8 2 9 3 10 4 11 5 12 6 13 7 14 8 6 9 5 10 4 11 3 12 2 13
REMARK SMILES IDX 1 14
REMARK H PARENT
REMARK Flexibility Score: inf
ROOT
ATOM      1  C   UNL     1      -9.452   5.146 -10.750  1.00  0.00     0.000 C 
ENDROOT
BRANCH   1   2
ATOM      2  C   UNL     1      -8.266   4.863 -11.687  1.00  0.00     0.000 C 
BRANCH   2   3
ATOM      3  C   UNL     1      -8.714   4.522 -13.119  1.00  0.00     0.000 C 
BRANCH   3   4
ATOM      4  C   UNL     1      -8.061   5.431 -14.178  1.00  0.00     0.006 C 
BRANCH   4   5
ATOM      5  C   UNL     1      -6.531   5.315 -14.259  1.00  0.00     0.053 C 
BRANCH   5   6
ATOM      6  C   UNL     1      -6.098   4.344 -15.314  1.00  0.00     0.041 C 
ATOM      7  O   UNL     1      -6.210   4.640 -16.533  1.00  0.00    -0.550 OA
ATOM      8  O   UNL     1      -5.539   3.125 -14.951  1.00  0.00    -0.550 OA
ENDBRANCH   5   6
ENDBRANCH   4   5
ENDBRANCH   3   4
ENDBRANCH   2   3
ENDBRANCH   1   2
BRANCH   1   9
ATOM      9  C   UNL     1      -9.313   4.454  -9.387  1.00  0.00     0.000 C 
BRANCH   9  10
ATOM     10  C   UNL     1      -9.077   5.485  -8.272  1.00  0.00    -0.000 C 
BRANCH  10  11
ATOM     11  C   UNL     1      -7.605   5.568  -7.838  1.00  0.00    -0.000 C 
BRANCH  11  12
ATOM     12  C   UNL     1      -7.351   6.694  -6.822  1.00  0.00    -0.000 C 
BRANCH  12  13
ATOM     13  C   UNL     1      -8.090   6.467  -5.493  1.00  0.00    -0.003 C 
ATOM     14  C   UNL     1      -7.719   5.142  -4.828  1.00  0.00     0.004 C 
ENDBRANCH  12  13
ENDBRANCH  11  12
ENDBRANCH  10  11
ENDBRANCH   9  10
ENDBRANCH   1   9
TORSDOF 10
ENDMDL
MODEL 6
REMARK VINA RESULT:    -4.384      2.366      3.337
REMARK INTER + INTRA:          -7.361
REMARK INTER:                  -6.816
REMARK INTRA:                  -0.545
REMARK UNBOUND:                -0.414
REMARK SMILES CCCCCCCCCCCC(=O)[O-]
REMARK SMILES IDX 7 1 8 2 9 3 10 4 11 5 12 6 13 7 14 8 6 9 5 10 4 11 3 12 2 13
REMARK SMILES IDX 1 14
REMARK H PARENT
REMARK Flexibility Score: inf
ROOT
ATOM      1  C   UNL     1      -9.506   5.200 -10.626  1.00  0.00     0.000 C 
ENDROOT
BRANCH   1   2
ATOM      2  C   UNL     1      -8.735   4.520 -11.770  1.00  0.00     0.000 C 
BRANCH   2   3
ATOM      3  C   UNL     1      -7.654   5.433 -12.375  1.00  0.00     0.000 C 
BRANCH   3   4
ATOM      4  C   UNL     1      -7.486   5.230 -13.893  1.00  0.00     0.006 C 
BRANCH   4   5
ATOM      5  C   UNL     1      -6.515   4.104 -14.280  1.00  0.00     0.053 C 
BRANCH   5   6
ATOM      6  C   UNL     1      -5.363   4.612 -15.092  1.00  0.00     0.041 C 
ATOM      7  O   UNL     1      -4.755   5.658 -14.745  1.00  0.00    -0.550 OA
ATOM      8  O   UNL     1      -4.939   3.910 -16.213  1.00  0.00    -0.550 OA
ENDBRANCH   5   6
ENDBRANCH   4   5
ENDBRANCH   3   4
ENDBRANCH   2   3
ENDBRANCH   1   2
BRANCH   1   9
ATOM      9  C   UNL     1      -9.316   4.491  -9.277  1.00  0.00     0.000 C 
BRANCH   9  10
ATOM     10  C   UNL     1      -9.044   5.509  -8.158  1.00  0.00    -0.000 C 
BRANCH  10  11
ATOM     11  C   UNL     1      -7.606   5.431  -7.619  1.00  0.00    -0.000 C 
BRANCH  11  12
ATOM     12  C   UNL     1      -7.100   6.783  -7.088  1.00  0.00    -0.000 C 
BRANCH  12  13
ATOM     13  C   UNL     1      -5.650   7.075  -7.506  1.00  0.00    -0.003 C 
ATOM     14  C   UNL     1      -5.326   6.574  -8.913  1.00  0.00     0.004 C 
ENDBRANCH  12  13
ENDBRANCH  11  12
ENDBRANCH  10  11
ENDBRANCH   9  10
ENDBRANCH   1   9
TORSDOF 10
ENDMDL
MODEL 7
REMARK VINA RESULT:    -4.297      4.525      7.833
REMARK INTER + INTRA:          -7.224
REMARK INTER:                  -6.615
REMARK INTRA:                  -0.609
REMARK UNBOUND:                -0.414
REMARK SMILES CCCCCCCCCCCC(=O)[O-]
REMARK SMILES IDX 7 1 8 2 9 3 10 4 11 5 12 6 13 7 14 8 6 9 5 10 4 11 3 12 2 13
REMARK SMILES IDX 1 14
REMARK H PARENT
REMARK Flexibility Score: inf
ROOT
ATOM      1  C   UNL     1      -8.056   5.276  -8.449  1.00  0.00     0.000 C 
ENDROOT
BRANCH   1   2
ATOM      2  C   UNL     1      -7.795   6.111  -7.183  1.00  0.00     0.000 C 
BRANCH   2   3
ATOM      3  C   UNL     1      -7.852   5.266  -5.899  1.00  0.00     0.000 C 
BRANCH   3   4
ATOM      4  C   UNL     1      -9.107   5.555  -5.052  1.00  0.00     0.006 C 
BRANCH   4   5
ATOM      5  C   UNL     1      -9.453   7.046  -4.917  1.00  0.00     0.053 C 
BRANCH   5   6
ATOM      6  C   UNL     1      -8.559   7.742  -3.937  1.00  0.00     0.041 C 
ATOM      7  O   UNL     1      -7.767   8.640  -4.327  1.00  0.00    -0.550 OA
ATOM      8  O   UNL     1      -8.625   7.422  -2.586  1.00  0.00    -0.550 OA
ENDBRANCH   5   6
ENDBRANCH   4   5
ENDBRANCH   3   4
ENDBRANCH   2   3
ENDBRANCH   1   2
BRANCH   1   9
ATOM      9  C   UNL     1      -9.548   5.170  -8.795  1.00  0.00     0.000 C 
BRANCH   9  10
ATOM     10  C   UNL     1      -9.761   5.228 -10.316  1.00  0.00    -0.000 C 
BRANCH  10  11
ATOM     11  C   UNL     1      -8.483   4.912 -11.110  1.00  0.00    -0.000 C 
BRANCH  11  12
ATOM     12  C   UNL     1      -8.770   4.588 -12.586  1.00  0.00    -0.000 C 
BRANCH  12  13
ATOM     13  C   UNL     1      -7.704   5.163 -13.533  1.00  0.00    -0.003 C 
ATOM     14  C   UNL     1      -6.323   5.255 -12.885  1.00  0.00     0.004 C 
ENDBRANCH  12  13
ENDBRANCH  11  12
ENDBRANCH  10  11
ENDBRANCH   9  10
ENDBRANCH   1   9
TORSDOF 10
ENDMDL
MODEL 8
REMARK VINA RESULT:    -4.163      1.685      2.131
REMARK INTER + INTRA:          -7.010
REMARK INTER:                  -6.581
REMARK INTRA:                  -0.430
REMARK UNBOUND:                -0.414
REMARK SMILES CCCCCCCCCCCC(=O)[O-]
REMARK SMILES IDX 7 1 8 2 9 3 10 4 11 5 12 6 13 7 14 8 6 9 5 10 4 11 3 12 2 13
REMARK SMILES IDX 1 14
REMARK H PARENT
REMARK Flexibility Score: inf
ROOT
ATOM      1  C   UNL     1      -9.405   5.338  -8.732  1.00  0.00     0.000 C 
ENDROOT
BRANCH   1   2
ATOM      2  C   UNL     1      -9.734   5.122 -10.219  1.00  0.00     0.000 C 
BRANCH   2   3
ATOM      3  C   UNL     1      -8.493   5.238 -11.120  1.00  0.00     0.000 C 
BRANCH   3   4
ATOM      4  C   UNL     1      -8.657   4.491 -12.457  1.00  0.00     0.006 C 
BRANCH   4   5
ATOM      5  C   UNL     1      -7.962   5.164 -13.651  1.00  0.00     0.053 C 
BRANCH   5   6
ATOM      6  C   UNL     1      -6.503   4.832 -13.710  1.00  0.00     0.041 C 
ATOM      7  O   UNL     1      -5.664   5.551 -13.106  1.00  0.00    -0.550 OA
ATOM      8  O   UNL     1      -6.072   3.710 -14.406  1.00  0.00    -0.550 OA
ENDBRANCH   5   6
ENDBRANCH   4   5
ENDBRANCH   3   4
ENDBRANCH   2   3
ENDBRANCH   1   2
BRANCH   1   9
ATOM      9  C   UNL     1      -7.900   5.254  -8.438  1.00  0.00     0.000 C 
BRANCH   9  10
ATOM     10  C   UNL     1      -7.549   6.031  -7.159  1.00  0.00    -0.000 C 
BRANCH  10  11
ATOM     11  C   UNL     1      -6.264   6.863  -7.301  1.00  0.00    -0.000 C 
BRANCH  11  12
ATOM     12  C   UNL     1      -5.949   7.684  -6.039  1.00  0.00    -0.000 C 
BRANCH  12  13
ATOM     13  C   UNL     1      -4.692   7.186  -5.310  1.00  0.00    -0.003 C 
ATOM     14  C   UNL     1      -5.005   6.165  -4.216  1.00  0.00     0.004 C 
ENDBRANCH  12  13
ENDBRANCH  11  12
ENDBRANCH  10  11
ENDBRANCH   9  10
ENDBRANCH   1   9
TORSDOF 10
ENDMDL
MODEL 9
REMARK VINA RESULT:    -4.050      5.520      7.356
REMARK INTER + INTRA:          -6.831
REMARK INTER:                  -6.351
REMARK INTRA:                  -0.480
REMARK UNBOUND:                -0.414
REMARK SMILES CCCCCCCCCCCC(=O)[O-]
REMARK SMILES IDX 7 1 8 2 9 3 10 4 11 5 12 6 13 7 14 8 6 9 5 10 4 11 3 12 2 13
REMARK SMILES IDX 1 14
REMARK H PARENT
REMARK Flexibility Score: inf
ROOT
ATOM      1  C   UNL     1     -10.126   8.118  -3.404  1.00  0.00     0.000 C 
ENDROOT
BRANCH   1   2
ATOM      2  C   UNL     1      -8.688   7.576  -3.415  1.00  0.00     0.000 C 
BRANCH   2   3
ATOM      3  C   UNL     1      -8.152   7.356  -4.841  1.00  0.00     0.000 C 
BRANCH   3   4
ATOM      4  C   UNL     1      -8.300   5.898  -5.314  1.00  0.00     0.006 C 
BRANCH   4   5
ATOM      5  C   UNL     1      -9.308   5.700  -6.456  1.00  0.00     0.053 C 
BRANCH   5   6
ATOM      6  C   UNL     1      -8.629   5.547  -7.783  1.00  0.00     0.041 C 
ATOM      7  O   UNL     1      -7.374   5.484  -7.849  1.00  0.00    -0.550 OA
ATOM      8  O   UNL     1      -9.386   5.442  -8.944  1.00  0.00    -0.550 OA
ENDBRANCH   5   6
ENDBRANCH   4   5
ENDBRANCH   3   4
ENDBRANCH   2   3
ENDBRANCH   1   2
BRANCH   1   9
ATOM      9  C   UNL     1     -10.709   8.230  -1.988  1.00  0.00     0.000 C 
BRANCH   9  10
ATOM     10  C   UNL     1     -11.671   9.424  -1.884  1.00  0.00    -0.000 C 
BRANCH  10  11
ATOM     11  C   UNL     1     -11.915  10.112  -3.238  1.00  0.00    -0.000 C 
BRANCH  11  12
ATOM     12  C   UNL     1     -13.376  10.558  -3.418  1.00  0.00    -0.000 C 
BRANCH  12  13
ATOM     13  C   UNL     1     -13.632  11.970  -2.866  1.00  0.00    -0.003 C 
ATOM     14  C   UNL     1     -12.771  13.037  -3.541  1.00  0.00     0.004 C 
ENDBRANCH  12  13
ENDBRANCH  11  12
ENDBRANCH  10  11
ENDBRANCH   9  10
ENDBRANCH   1   9
TORSDOF 10
ENDMDL
