MODEL 1
REMARK VINA RESULT:    10.935      0.000      0.000
REMARK INTER + INTRA:          17.092
REMARK INTER:                  15.090
REMARK INTRA:                   2.001
REMARK UNBOUND:                 2.001
REMARK SMILES CC[C@@H](CC[C@H](C)[C@H]1CC[C@@H]2[C@@H]3CC=C4C[C@H](O)CC[C@@]4(C)[C@H]3CC[C@]21C)C(C)C
REMARK SMILES IDX 5 1 4 2 3 3 2 4 1 5 28 6 29 7 30 8 6 9 7 10 8 11 9 12 26 13
REMARK SMILES IDX 10 14 11 15 25 16 27 17 12 18 24 19 23 20 13 21 21 22 14 23
REMARK SMILES IDX 15 24 20 25 22 26 16 27 19 28 17 29 18 30
REMARK H PARENT 18 31
REMARK Flexibility Score: inf
ROOT
ATOM      1  C   UNL     1       6.029 -36.535  17.197  1.00  0.00     0.004 C 
ENDROOT
BRANCH   1   2
ATOM      2  C   UNL     1       6.173 -37.965  16.637  1.00  0.00     0.004 C 
BRANCH   2   3
ATOM      3  C   UNL     1       6.626 -37.975  15.151  1.00  0.00    -0.009 C 
BRANCH   3   4
ATOM      4  C   UNL     1       8.176 -38.015  14.965  1.00  0.00     0.000 C 
ATOM      5  C   UNL     1       8.697 -37.794  13.538  1.00  0.00     0.004 C 
ENDBRANCH   3   4
BRANCH   3   6
ATOM      6  C   UNL     1       5.891 -36.872  14.317  1.00  0.00    -0.014 C 
ATOM      7  C   UNL     1       6.430 -36.770  12.881  1.00  0.00     0.007 C 
ATOM      8  C   UNL     1       5.875 -35.486  14.975  1.00  0.00     0.007 C 
ENDBRANCH   3   6
ENDBRANCH   2   3
ENDBRANCH   1   2
BRANCH   1   9
ATOM      9  C   UNL     1       7.296 -35.933  17.870  1.00  0.00    -0.011 C 
ATOM     10  C   UNL     1       7.656 -36.662  19.182  1.00  0.00     0.008 C 
BRANCH   9  11
ATOM     11  C   UNL     1       7.286 -34.361  17.949  1.00  0.00    -0.002 C 
ATOM     12  C   UNL     1       7.879 -33.776  19.269  1.00  0.00     0.005 C 
ATOM     13  C   UNL     1       7.997 -33.542  16.799  1.00  0.00    -0.026 C 
ATOM     14  C   UNL     1       9.012 -32.814  18.895  1.00  0.00     0.005 C 
ATOM     15  C   UNL     1       9.337 -33.180  17.461  1.00  0.00    -0.001 C 
ATOM     16  C   UNL     1       8.284 -34.247  15.416  1.00  0.00     0.007 C 
ATOM     17  C   UNL     1       7.097 -32.286  16.551  1.00  0.00     0.012 C 
ATOM     18  C   UNL     1      10.302 -32.274  16.641  1.00  0.00     0.000 C 
ATOM     19  C   UNL     1       9.654 -33.878  14.769  1.00  0.00     0.005 C 
ATOM     20  C   UNL     1      10.101 -32.436  15.112  1.00  0.00     0.003 C 
ATOM     21  C   UNL     1      10.296 -30.777  16.959  1.00  0.00     0.031 C 
ATOM     22  C   UNL     1      11.339 -31.872  14.321  1.00  0.00    -0.008 C 
ATOM     23  C   UNL     1      11.383 -30.097  16.160  1.00  0.00    -0.027 C 
ATOM     24  C   UNL     1      11.875 -30.586  14.991  1.00  0.00    -0.065 C 
ATOM     25  C   UNL     1      12.504 -32.907  14.263  1.00  0.00     0.014 C 
ATOM     26  C   UNL     1      10.881 -31.523  12.878  1.00  0.00     0.016 C 
ATOM     27  C   UNL     1      13.148 -29.990  14.431  1.00  0.00     0.063 C 
ATOM     28  C   UNL     1      13.815 -32.324  13.697  1.00  0.00     0.033 C 
ATOM     29  C   UNL     1      14.256 -31.056  14.446  1.00  0.00     0.118 C 
BRANCH  29  30
ATOM     30  O   UNL     1      15.413 -30.544  13.839  1.00  0.00    -0.393 OA
ATOM     31  H   UNL     1      15.126 -29.783  13.269  1.00  0.00     0.210 HD
ENDBRANCH  29  30
ENDBRANCH   9  11
ENDBRANCH   1   9
TORSDOF 7
ENDMDL
MODEL 2
REMARK VINA RESULT:    12.635      2.651      4.736
REMARK INTER + INTRA:          19.438
REMARK INTER:                  16.440
REMARK INTRA:                   2.998
REMARK UNBOUND:                 2.001
REMARK SMILES CC[C@@H](CC[C@H](C)[C@H]1CC[C@@H]2[C@@H]3CC=C4C[C@H](O)CC[C@@]4(C)[C@H]3CC[C@]21C)C(C)C
REMARK SMILES IDX 5 1 4 2 3 3 2 4 1 5 28 6 29 7 30 8 6 9 7 10 8 11 9 12 26 13
REMARK SMILES IDX 10 14 11 15 25 16 27 17 12 18 24 19 23 20 13 21 21 22 14 23
REMARK SMILES IDX 15 24 20 25 22 26 16 27 19 28 17 29 18 30
REMARK H PARENT 18 31
REMARK Flexibility Score: inf
ROOT
ATOM      1  C   UNL     1       8.200 -37.426  14.210  1.00  0.00     0.004 C 
ENDROOT
BRANCH   1   2
ATOM      2  C   UNL     1       8.211 -36.954  15.678  1.00  0.00     0.004 C 
BRANCH   2   3
ATOM      3  C   UNL     1       7.239 -37.773  16.570  1.00  0.00    -0.009 C 
BRANCH   3   4
ATOM      4  C   UNL     1       5.888 -38.125  15.871  1.00  0.00     0.000 C 
ATOM      5  C   UNL     1       5.877 -38.059  14.337  1.00  0.00     0.004 C 
ENDBRANCH   3   4
BRANCH   3   6
ATOM      6  C   UNL     1       7.098 -37.144  17.997  1.00  0.00    -0.014 C 
ATOM      7  C   UNL     1       7.744 -35.751  18.088  1.00  0.00     0.007 C 
ATOM      8  C   UNL     1       7.607 -38.037  19.136  1.00  0.00     0.007 C 
ENDBRANCH   3   6
ENDBRANCH   2   3
ENDBRANCH   1   2
BRANCH   1   9
ATOM      9  C   UNL     1       8.375 -36.318  13.133  1.00  0.00    -0.011 C 
ATOM     10  C   UNL     1       9.861 -35.991  12.877  1.00  0.00     0.008 C 
BRANCH   9  11
ATOM     11  C   UNL     1       7.433 -35.075  13.343  1.00  0.00    -0.002 C 
ATOM     12  C   UNL     1       6.088 -35.397  14.068  1.00  0.00     0.005 C 
ATOM     13  C   UNL     1       8.004 -33.816  14.110  1.00  0.00    -0.026 C 
ATOM     14  C   UNL     1       5.990 -34.498  15.305  1.00  0.00     0.005 C 
ATOM     15  C   UNL     1       7.410 -34.014  15.514  1.00  0.00    -0.001 C 
ATOM     16  C   UNL     1       9.567 -33.635  14.237  1.00  0.00     0.007 C 
ATOM     17  C   UNL     1       7.407 -32.566  13.382  1.00  0.00     0.012 C 
ATOM     18  C   UNL     1       7.690 -32.894  16.558  1.00  0.00     0.000 C 
ATOM     19  C   UNL     1      10.050 -33.089  15.615  1.00  0.00     0.005 C 
ATOM     20  C   UNL     1       9.016 -32.143  16.272  1.00  0.00     0.003 C 
ATOM     21  C   UNL     1       6.594 -31.848  16.773  1.00  0.00     0.031 C 
ATOM     22  C   UNL     1       9.493 -31.343  17.541  1.00  0.00    -0.008 C 
ATOM     23  C   UNL     1       6.996 -30.935  17.909  1.00  0.00    -0.027 C 
ATOM     24  C   UNL     1       8.286 -30.718  18.277  1.00  0.00    -0.065 C 
ATOM     25  C   UNL     1      10.249 -32.262  18.548  1.00  0.00     0.014 C 
ATOM     26  C   UNL     1      10.434 -30.199  17.072  1.00  0.00     0.016 C 
ATOM     27  C   UNL     1       8.560 -30.026  19.594  1.00  0.00     0.063 C 
ATOM     28  C   UNL     1      10.539 -31.582  19.901  1.00  0.00     0.033 C 
ATOM     29  C   UNL     1       9.267 -31.007  20.545  1.00  0.00     0.118 C 
BRANCH  29  30
ATOM     30  O   UNL     1       9.613 -30.347  21.733  1.00  0.00    -0.393 OA
ATOM     31  H   UNL     1       9.022 -30.707  22.446  1.00  0.00     0.210 HD
ENDBRANCH  29  30
ENDBRANCH   9  11
ENDBRANCH   1   9
TORSDOF 7
ENDMDL
MODEL 3
REMARK VINA RESULT:    12.721      2.606      5.219
REMARK INTER + INTRA:          19.556
REMARK INTER:                  16.804
REMARK INTRA:                   2.752
REMARK UNBOUND:                 2.001
REMARK SMILES CC[C@@H](CC[C@H](C)[C@H]1CC[C@@H]2[C@@H]3CC=C4C[C@H](O)CC[C@@]4(C)[C@H]3CC[C@]21C)C(C)C
REMARK SMILES IDX 5 1 4 2 3 3 2 4 1 5 28 6 29 7 30 8 6 9 7 10 8 11 9 12 26 13
REMARK SMILES IDX 10 14 11 15 25 16 27 17 12 18 24 19 23 20 13 21 21 22 14 23
REMARK SMILES IDX 15 24 20 25 22 26 16 27 19 28 17 29 18 30
REMARK H PARENT 18 31
REMARK Flexibility Score: inf
ROOT
ATOM      1  C   UNL     1       9.508 -36.406  14.107  1.00  0.00     0.004 C 
ENDROOT
BRANCH   1   2
ATOM      2  C   UNL     1       9.864 -35.526  12.891  1.00  0.00     0.004 C 
BRANCH   2   3
ATOM      3  C   UNL     1      11.357 -35.100  12.886  1.00  0.00    -0.009 C 
BRANCH   3   4
ATOM      4  C   UNL     1      12.227 -35.841  13.951  1.00  0.00     0.000 C 
ATOM      5  C   UNL     1      12.886 -37.152  13.500  1.00  0.00     0.004 C 
ENDBRANCH   3   4
BRANCH   3   6
ATOM      6  C   UNL     1      11.513 -33.542  12.878  1.00  0.00    -0.014 C 
ATOM      7  C   UNL     1      12.473 -33.045  13.971  1.00  0.00     0.007 C 
ATOM      8  C   UNL     1      10.187 -32.773  12.950  1.00  0.00     0.007 C 
ENDBRANCH   3   6
ENDBRANCH   2   3
ENDBRANCH   1   2
BRANCH   1   9
ATOM      9  C   UNL     1       8.063 -36.981  14.136  1.00  0.00    -0.011 C 
ATOM     10  C   UNL     1       7.773 -37.876  12.913  1.00  0.00     0.008 C 
BRANCH   9  11
ATOM     11  C   UNL     1       6.960 -35.909  14.469  1.00  0.00    -0.002 C 
ATOM     12  C   UNL     1       5.888 -36.383  15.500  1.00  0.00     0.005 C 
ATOM     13  C   UNL     1       7.419 -34.492  14.998  1.00  0.00    -0.026 C 
ATOM     14  C   UNL     1       5.875 -35.385  16.663  1.00  0.00     0.005 C 
ATOM     15  C   UNL     1       7.184 -34.636  16.511  1.00  0.00    -0.001 C 
ATOM     16  C   UNL     1       8.907 -34.024  14.754  1.00  0.00     0.007 C 
ATOM     17  C   UNL     1       6.448 -33.456  14.340  1.00  0.00     0.012 C 
ATOM     18  C   UNL     1       7.450 -33.376  17.385  1.00  0.00     0.000 C 
ATOM     19  C   UNL     1       9.550 -33.252  15.946  1.00  0.00     0.005 C 
ATOM     20  C   UNL     1       8.511 -32.437  16.754  1.00  0.00     0.003 C 
ATOM     21  C   UNL     1       6.239 -32.523  17.770  1.00  0.00     0.031 C 
ATOM     22  C   UNL     1       9.076 -31.430  17.824  1.00  0.00    -0.008 C 
ATOM     23  C   UNL     1       6.681 -31.434  18.720  1.00  0.00    -0.027 C 
ATOM     24  C   UNL     1       7.951 -30.952  18.770  1.00  0.00    -0.065 C 
ATOM     25  C   UNL     1      10.193 -32.084  18.694  1.00  0.00     0.014 C 
ATOM     26  C   UNL     1       9.653 -30.196  17.077  1.00  0.00     0.016 C 
ATOM     27  C   UNL     1       8.352 -30.082  19.940  1.00  0.00     0.063 C 
ATOM     28  C   UNL     1      10.620 -31.217  19.896  1.00  0.00     0.033 C 
ATOM     29  C   UNL     1       9.422 -30.810  20.770  1.00  0.00     0.118 C 
BRANCH  29  30
ATOM     30  O   UNL     1       9.872 -29.971  21.802  1.00  0.00    -0.393 OA
ATOM     31  H   UNL     1       9.371 -29.118  21.719  1.00  0.00     0.210 HD
ENDBRANCH  29  30
ENDBRANCH   9  11
ENDBRANCH   1   9
TORSDOF 7
ENDMDL
MODEL 4
REMARK VINA RESULT:    13.907      1.018      1.351
REMARK INTER + INTRA:          21.193
REMARK INTER:                  19.973
REMARK INTRA:                   1.220
REMARK UNBOUND:                 2.001
REMARK SMILES CC[C@@H](CC[C@H](C)[C@H]1CC[C@@H]2[C@@H]3CC=C4C[C@H](O)CC[C@@]4(C)[C@H]3CC[C@]21C)C(C)C
REMARK SMILES IDX 5 1 4 2 3 3 2 4 1 5 28 6 29 7 30 8 6 9 7 10 8 11 9 12 26 13
REMARK SMILES IDX 10 14 11 15 25 16 27 17 12 18 24 19 23 20 13 21 21 22 14 23
REMARK SMILES IDX 15 24 20 25 22 26 16 27 19 28 17 29 18 30
REMARK H PARENT 18 31
REMARK Flexibility Score: inf
ROOT
ATOM      1  C   UNL     1       7.707 -35.922  17.213  1.00  0.00     0.004 C 
ENDROOT
BRANCH   1   2
ATOM      2  C   UNL     1       7.515 -37.290  16.528  1.00  0.00     0.004 C 
BRANCH   2   3
ATOM      3  C   UNL     1       7.966 -37.276  15.042  1.00  0.00    -0.009 C 
BRANCH   3   4
ATOM      4  C   UNL     1       9.281 -36.473  14.791  1.00  0.00     0.000 C 
ATOM      5  C   UNL     1      10.113 -36.891  13.570  1.00  0.00     0.004 C 
ENDBRANCH   3   4
BRANCH   3   6
ATOM      6  C   UNL     1       6.781 -36.917  14.083  1.00  0.00    -0.014 C 
ATOM      7  C   UNL     1       6.357 -38.109  13.208  1.00  0.00     0.007 C 
ATOM      8  C   UNL     1       7.027 -35.681  13.209  1.00  0.00     0.007 C 
ENDBRANCH   3   6
ENDBRANCH   2   3
ENDBRANCH   1   2
BRANCH   1   9
ATOM      9  C   UNL     1       6.567 -34.884  17.002  1.00  0.00    -0.011 C 
ATOM     10  C   UNL     1       5.875 -35.057  15.633  1.00  0.00     0.008 C 
BRANCH   9  11
ATOM     11  C   UNL     1       6.973 -33.410  17.375  1.00  0.00    -0.002 C 
ATOM     12  C   UNL     1       7.652 -33.260  18.773  1.00  0.00     0.005 C 
ATOM     13  C   UNL     1       7.920 -32.616  16.389  1.00  0.00    -0.026 C 
ATOM     14  C   UNL     1       9.013 -32.587  18.570  1.00  0.00     0.005 C 
ATOM     15  C   UNL     1       9.282 -32.755  17.088  1.00  0.00    -0.001 C 
ATOM     16  C   UNL     1       8.059 -33.104  14.895  1.00  0.00     0.007 C 
ATOM     17  C   UNL     1       7.396 -31.141  16.393  1.00  0.00     0.012 C 
ATOM     18  C   UNL     1      10.483 -32.007  16.439  1.00  0.00     0.000 C 
ATOM     19  C   UNL     1       9.501 -33.005  14.309  1.00  0.00     0.005 C 
ATOM     20  C   UNL     1      10.304 -31.825  14.909  1.00  0.00     0.003 C 
ATOM     21  C   UNL     1      10.865 -30.650  17.032  1.00  0.00     0.031 C 
ATOM     22  C   UNL     1      11.676 -31.479  14.221  1.00  0.00    -0.008 C 
ATOM     23  C   UNL     1      12.124 -30.151  16.360  1.00  0.00    -0.027 C 
ATOM     24  C   UNL     1      12.510 -30.531  15.114  1.00  0.00    -0.065 C 
ATOM     25  C   UNL     1      12.524 -32.760  13.954  1.00  0.00     0.014 C 
ATOM     26  C   UNL     1      11.381 -30.760  12.876  1.00  0.00     0.016 C 
ATOM     27  C   UNL     1      13.915 -30.207  14.657  1.00  0.00     0.063 C 
ATOM     28  C   UNL     1      13.963 -32.458  13.489  1.00  0.00     0.033 C 
ATOM     29  C   UNL     1      14.698 -31.515  14.457  1.00  0.00     0.118 C 
BRANCH  29  30
ATOM     30  O   UNL     1      15.971 -31.230  13.940  1.00  0.00    -0.393 OA
ATOM     31  H   UNL     1      16.395 -30.581  14.560  1.00  0.00     0.210 HD
ENDBRANCH  29  30
ENDBRANCH   9  11
ENDBRANCH   1   9
TORSDOF 7
ENDMDL
