MODEL 1
REMARK VINA RESULT:    -5.814      0.000      0.000
REMARK INTER + INTRA:         -10.444
REMARK INTER:                  -9.893
REMARK INTRA:                  -0.551
REMARK UNBOUND:                -0.551
REMARK SMILES CCCCCCCCCCCCCC(=O)[O-]
REMARK SMILES IDX 8 1 9 2 10 3 11 4 12 5 13 6 14 7 15 8 16 9 7 10 6 11 5 12
REMARK SMILES IDX 4 13 3 14 2 15 1 16
REMARK H PARENT
REMARK Flexibility Score: inf
ROOT
ATOM      1  C   UNL     1     -11.755  -0.572 -10.476  1.00  0.00     0.000 C 
ENDROOT
BRANCH   1   2
ATOM      2  C   UNL     1     -13.178  -1.109 -10.242  1.00  0.00     0.000 C 
BRANCH   2   3
ATOM      3  C   UNL     1     -14.314  -0.152 -10.648  1.00  0.00     0.000 C 
BRANCH   3   4
ATOM      4  C   UNL     1     -14.970   0.546  -9.448  1.00  0.00     0.000 C 
BRANCH   4   5
ATOM      5  C   UNL     1     -14.694   2.057  -9.473  1.00  0.00     0.006 C 
BRANCH   5   6
ATOM      6  C   UNL     1     -13.195   2.373  -9.396  1.00  0.00     0.053 C 
BRANCH   6   7
ATOM      7  C   UNL     1     -12.931   3.624  -8.615  1.00  0.00     0.041 C 
ATOM      8  O   UNL     1     -13.859   4.449  -8.406  1.00  0.00    -0.550 OA
ATOM      9  O   UNL     1     -11.667   3.863  -8.090  1.00  0.00    -0.550 OA
ENDBRANCH   6   7
ENDBRANCH   5   6
ENDBRANCH   4   5
ENDBRANCH   3   4
ENDBRANCH   2   3
ENDBRANCH   1   2
BRANCH   1  10
ATOM     10  C   UNL     1     -10.669  -1.452  -9.833  1.00  0.00     0.000 C 
BRANCH  10  11
ATOM     11  C   UNL     1     -11.183  -2.854  -9.470  1.00  0.00    -0.000 C 
BRANCH  11  12
ATOM     12  C   UNL     1     -10.551  -3.403  -8.182  1.00  0.00    -0.000 C 
BRANCH  12  13
ATOM     13  C   UNL     1      -9.939  -4.789  -8.418  1.00  0.00    -0.000 C 
BRANCH  13  14
ATOM     14  C   UNL     1     -10.354  -5.769  -7.311  1.00  0.00    -0.000 C 
BRANCH  14  15
ATOM     15  C   UNL     1     -11.083  -5.076  -6.150  1.00  0.00    -0.003 C 
ATOM     16  C   UNL     1     -11.806  -6.061  -5.232  1.00  0.00     0.004 C 
ENDBRANCH  14  15
ENDBRANCH  13  14
ENDBRANCH  12  13
ENDBRANCH  11  12
ENDBRANCH  10  11
ENDBRANCH   1  10
TORSDOF 12
ENDMDL
MODEL 2
REMARK VINA RESULT:    -5.700      3.946      7.802
REMARK INTER + INTRA:         -10.249
REMARK INTER:                  -9.495
REMARK INTRA:                  -0.755
REMARK UNBOUND:                -0.551
REMARK SMILES CCCCCCCCCCCCCC(=O)[O-]
REMARK SMILES IDX 8 1 9 2 10 3 11 4 12 5 13 6 14 7 15 8 16 9 7 10 6 11 5 12
REMARK SMILES IDX 4 13 3 14 2 15 1 16
REMARK H PARENT
REMARK Flexibility Score: inf
ROOT
ATOM      1  C   UNL     1     -10.999  -1.270  -9.254  1.00  0.00     0.000 C 
ENDROOT
BRANCH   1   2
ATOM      2  C   UNL     1     -10.043  -2.128 -10.102  1.00  0.00     0.000 C 
BRANCH   2   3
ATOM      3  C   UNL     1     -10.188  -3.649  -9.915  1.00  0.00     0.000 C 
BRANCH   3   4
ATOM      4  C   UNL     1     -11.458  -4.041  -9.146  1.00  0.00     0.000 C 
BRANCH   4   5
ATOM      5  C   UNL     1     -11.242  -5.341  -8.355  1.00  0.00     0.006 C 
BRANCH   5   6
ATOM      6  C   UNL     1     -10.651  -5.081  -6.964  1.00  0.00     0.053 C 
BRANCH   6   7
ATOM      7  C   UNL     1     -10.991  -6.178  -6.003  1.00  0.00     0.041 C 
ATOM      8  O   UNL     1     -10.586  -7.352  -6.210  1.00  0.00    -0.550 OA
ATOM      9  O   UNL     1     -11.730  -5.898  -4.860  1.00  0.00    -0.550 OA
ENDBRANCH   6   7
ENDBRANCH   5   6
ENDBRANCH   4   5
ENDBRANCH   3   4
ENDBRANCH   2   3
ENDBRANCH   1   2
BRANCH   1  10
ATOM     10  C   UNL     1     -11.747  -0.210 -10.081  1.00  0.00     0.000 C 
BRANCH  10  11
ATOM     11  C   UNL     1     -13.202  -0.609 -10.376  1.00  0.00    -0.000 C 
BRANCH  11  12
ATOM     12  C   UNL     1     -14.212   0.461  -9.931  1.00  0.00    -0.000 C 
BRANCH  12  13
ATOM     13  C   UNL     1     -13.508   1.792  -9.639  1.00  0.00    -0.000 C 
BRANCH  13  14
ATOM     14  C   UNL     1     -14.429   2.743  -8.861  1.00  0.00    -0.000 C 
BRANCH  14  15
ATOM     15  C   UNL     1     -13.667   3.917  -8.227  1.00  0.00    -0.003 C 
ATOM     16  C   UNL     1     -12.166   3.867  -8.507  1.00  0.00     0.004 C 
ENDBRANCH  14  15
ENDBRANCH  13  14
ENDBRANCH  12  13
ENDBRANCH  11  12
ENDBRANCH  10  11
ENDBRANCH   1  10
TORSDOF 12
ENDMDL
MODEL 3
REMARK VINA RESULT:    -5.672      3.833      7.890
REMARK INTER + INTRA:         -10.203
REMARK INTER:                  -9.457
REMARK INTRA:                  -0.745
REMARK UNBOUND:                -0.551
REMARK SMILES CCCCCCCCCCCCCC(=O)[O-]
REMARK SMILES IDX 8 1 9 2 10 3 11 4 12 5 13 6 14 7 15 8 16 9 7 10 6 11 5 12
REMARK SMILES IDX 4 13 3 14 2 15 1 16
REMARK H PARENT
REMARK Flexibility Score: inf
ROOT
ATOM      1  C   UNL     1     -10.726  -1.420 -10.094  1.00  0.00     0.000 C 
ENDROOT
BRANCH   1   2
ATOM      2  C   UNL     1     -11.167  -2.651  -9.283  1.00  0.00     0.000 C 
BRANCH   2   3
ATOM      3  C   UNL     1     -10.246  -3.023  -8.106  1.00  0.00     0.000 C 
BRANCH   3   4
ATOM      4  C   UNL     1      -9.562  -4.386  -8.285  1.00  0.00     0.000 C 
BRANCH   4   5
ATOM      5  C   UNL     1     -10.346  -5.270  -9.268  1.00  0.00     0.006 C 
BRANCH   5   6
ATOM      6  C   UNL     1     -10.645  -6.658  -8.687  1.00  0.00     0.053 C 
BRANCH   6   7
ATOM      7  C   UNL     1     -11.185  -6.571  -7.293  1.00  0.00     0.041 C 
ATOM      8  O   UNL     1     -12.310  -6.049  -7.079  1.00  0.00    -0.550 OA
ATOM      9  O   UNL     1     -10.458  -7.097  -6.232  1.00  0.00    -0.550 OA
ENDBRANCH   6   7
ENDBRANCH   5   6
ENDBRANCH   4   5
ENDBRANCH   3   4
ENDBRANCH   2   3
ENDBRANCH   1   2
BRANCH   1  10
ATOM     10  C   UNL     1     -11.700  -0.237  -9.964  1.00  0.00     0.000 C 
BRANCH  10  11
ATOM     11  C   UNL     1     -13.136  -0.606 -10.369  1.00  0.00    -0.000 C 
BRANCH  11  12
ATOM     12  C   UNL     1     -14.158   0.473  -9.978  1.00  0.00    -0.000 C 
BRANCH  12  13
ATOM     13  C   UNL     1     -13.455   1.776  -9.581  1.00  0.00    -0.000 C 
BRANCH  13  14
ATOM     14  C   UNL     1     -14.413   2.710  -8.826  1.00  0.00    -0.000 C 
BRANCH  14  15
ATOM     15  C   UNL     1     -13.707   3.956  -8.269  1.00  0.00    -0.003 C 
ATOM     16  C   UNL     1     -12.184   3.834  -8.295  1.00  0.00     0.004 C 
ENDBRANCH  14  15
ENDBRANCH  13  14
ENDBRANCH  12  13
ENDBRANCH  11  12
ENDBRANCH  10  11
ENDBRANCH   1  10
TORSDOF 12
ENDMDL
MODEL 4
REMARK VINA RESULT:    -5.546      1.044      1.976
REMARK INTER + INTRA:          -9.988
REMARK INTER:                  -9.399
REMARK INTRA:                  -0.589
REMARK UNBOUND:                -0.551
REMARK SMILES CCCCCCCCCCCCCC(=O)[O-]
REMARK SMILES IDX 8 1 9 2 10 3 11 4 12 5 13 6 14 7 15 8 16 9 7 10 6 11 5 12
REMARK SMILES IDX 4 13 3 14 2 15 1 16
REMARK H PARENT
REMARK Flexibility Score: inf
ROOT
ATOM      1  C   UNL     1     -11.173  -2.403  -9.591  1.00  0.00     0.000 C 
ENDROOT
BRANCH   1   2
ATOM      2  C   UNL     1     -11.078  -1.013 -10.244  1.00  0.00     0.000 C 
BRANCH   2   3
ATOM      3  C   UNL     1     -11.724   0.132  -9.443  1.00  0.00     0.000 C 
BRANCH   3   4
ATOM      4  C   UNL     1     -13.126   0.504  -9.948  1.00  0.00     0.000 C 
BRANCH   4   5
ATOM      5  C   UNL     1     -13.635   1.782  -9.265  1.00  0.00     0.006 C 
BRANCH   5   6
ATOM      6  C   UNL     1     -12.721   2.985  -9.530  1.00  0.00     0.053 C 
BRANCH   6   7
ATOM      7  C   UNL     1     -12.269   3.631  -8.257  1.00  0.00     0.041 C 
ATOM      8  O   UNL     1     -11.045   3.681  -7.971  1.00  0.00    -0.550 OA
ATOM      9  O   UNL     1     -13.200   4.205  -7.400  1.00  0.00    -0.550 OA
ENDBRANCH   6   7
ENDBRANCH   5   6
ENDBRANCH   4   5
ENDBRANCH   3   4
ENDBRANCH   2   3
ENDBRANCH   1   2
BRANCH   1  10
ATOM     10  C   UNL     1     -10.192  -2.584  -8.421  1.00  0.00     0.000 C 
BRANCH  10  11
ATOM     11  C   UNL     1      -9.438  -3.923  -8.483  1.00  0.00    -0.000 C 
BRANCH  11  12
ATOM     12  C   UNL     1     -10.207  -5.068  -7.806  1.00  0.00    -0.000 C 
BRANCH  12  13
ATOM     13  C   UNL     1     -10.884  -4.587  -6.517  1.00  0.00    -0.000 C 
BRANCH  13  14
ATOM     14  C   UNL     1     -11.037  -5.740  -5.513  1.00  0.00    -0.000 C 
BRANCH  14  15
ATOM     15  C   UNL     1     -11.839  -6.919  -6.085  1.00  0.00    -0.003 C 
ATOM     16  C   UNL     1     -13.316  -6.584  -6.293  1.00  0.00     0.004 C 
ENDBRANCH  14  15
ENDBRANCH  13  14
ENDBRANCH  12  13
ENDBRANCH  11  12
ENDBRANCH  10  11
ENDBRANCH   1  10
TORSDOF 12
ENDMDL
MODEL 5
REMARK VINA RESULT:    -5.139      4.019      7.683
REMARK INTER + INTRA:          -9.295
REMARK INTER:                  -8.496
REMARK INTRA:                  -0.800
REMARK UNBOUND:                -0.551
REMARK SMILES CCCCCCCCCCCCCC(=O)[O-]
REMARK SMILES IDX 8 1 9 2 10 3 11 4 12 5 13 6 14 7 15 8 16 9 7 10 6 11 5 12
REMARK SMILES IDX 4 13 3 14 2 15 1 16
REMARK H PARENT
REMARK Flexibility Score: inf
ROOT
ATOM      1  C   UNL     1      -9.891  -5.005  -8.293  1.00  0.00     0.000 C 
ENDROOT
BRANCH   1   2
ATOM      2  C   UNL     1     -10.929  -4.755  -7.185  1.00  0.00     0.000 C 
BRANCH   2   3
ATOM      3  C   UNL     1     -10.783  -5.645  -5.938  1.00  0.00     0.000 C 
BRANCH   3   4
ATOM      4  C   UNL     1     -12.111  -5.872  -5.201  1.00  0.00     0.000 C 
BRANCH   4   5
ATOM      5  C   UNL     1     -12.679  -7.265  -5.508  1.00  0.00     0.006 C 
BRANCH   5   6
ATOM      6  C   UNL     1     -14.087  -7.197  -6.114  1.00  0.00     0.053 C 
BRANCH   6   7
ATOM      7  C   UNL     1     -14.054  -6.756  -7.545  1.00  0.00     0.041 C 
ATOM      8  O   UNL     1     -14.865  -5.887  -7.959  1.00  0.00    -0.550 OA
ATOM      9  O   UNL     1     -13.107  -7.282  -8.413  1.00  0.00    -0.550 OA
ENDBRANCH   6   7
ENDBRANCH   5   6
ENDBRANCH   4   5
ENDBRANCH   3   4
ENDBRANCH   2   3
ENDBRANCH   1   2
BRANCH   1  10
ATOM     10  C   UNL     1     -10.006  -4.008  -9.459  1.00  0.00     0.000 C 
BRANCH  10  11
ATOM     11  C   UNL     1     -11.175  -3.026  -9.283  1.00  0.00    -0.000 C 
BRANCH  11  12
ATOM     12  C   UNL     1     -10.714  -1.564  -9.193  1.00  0.00    -0.000 C 
BRANCH  12  13
ATOM     13  C   UNL     1     -11.289  -0.735 -10.348  1.00  0.00    -0.000 C 
BRANCH  13  14
ATOM     14  C   UNL     1     -12.481   0.111  -9.878  1.00  0.00    -0.000 C 
BRANCH  14  15
ATOM     15  C   UNL     1     -13.826  -0.424 -10.394  1.00  0.00    -0.003 C 
ATOM     16  C   UNL     1     -15.004   0.472 -10.017  1.00  0.00     0.004 C 
ENDBRANCH  14  15
ENDBRANCH  13  14
ENDBRANCH  12  13
ENDBRANCH  11  12
ENDBRANCH  10  11
ENDBRANCH   1  10
TORSDOF 12
ENDMDL
MODEL 6
REMARK VINA RESULT:    -4.926      2.513      5.145
REMARK INTER + INTRA:          -8.933
REMARK INTER:                  -7.592
REMARK INTRA:                  -1.341
REMARK UNBOUND:                -0.551
REMARK SMILES CCCCCCCCCCCCCC(=O)[O-]
REMARK SMILES IDX 8 1 9 2 10 3 11 4 12 5 13 6 14 7 15 8 16 9 7 10 6 11 5 12
REMARK SMILES IDX 4 13 3 14 2 15 1 16
REMARK H PARENT
REMARK Flexibility Score: inf
ROOT
ATOM      1  C   UNL     1     -10.796  -4.825  -6.683  1.00  0.00     0.000 C 
ENDROOT
BRANCH   1   2
ATOM      2  C   UNL     1     -10.118  -5.302  -7.979  1.00  0.00     0.000 C 
BRANCH   2   3
ATOM      3  C   UNL     1      -9.787  -4.191  -8.992  1.00  0.00     0.000 C 
BRANCH   3   4
ATOM      4  C   UNL     1     -10.998  -3.313  -9.338  1.00  0.00     0.000 C 
BRANCH   4   5
ATOM      5  C   UNL     1     -10.680  -1.826  -9.118  1.00  0.00     0.006 C 
BRANCH   5   6
ATOM      6  C   UNL     1     -11.025  -0.972 -10.345  1.00  0.00     0.053 C 
BRANCH   6   7
ATOM      7  C   UNL     1     -12.331  -0.260 -10.175  1.00  0.00     0.041 C 
ATOM      8  O   UNL     1     -13.386  -0.746 -10.661  1.00  0.00    -0.550 OA
ATOM      9  O   UNL     1     -12.389   0.925  -9.453  1.00  0.00    -0.550 OA
ENDBRANCH   6   7
ENDBRANCH   5   6
ENDBRANCH   4   5
ENDBRANCH   3   4
ENDBRANCH   2   3
ENDBRANCH   1   2
BRANCH   1  10
ATOM     10  C   UNL     1     -10.960  -5.948  -5.644  1.00  0.00     0.000 C 
BRANCH  10  11
ATOM     11  C   UNL     1     -12.414  -6.106  -5.170  1.00  0.00    -0.000 C 
BRANCH  11  12
ATOM     12  C   UNL     1     -13.000  -7.486  -5.507  1.00  0.00    -0.000 C 
BRANCH  12  13
ATOM     13  C   UNL     1     -14.241  -7.352  -6.398  1.00  0.00    -0.000 C 
BRANCH  13  14
ATOM     14  C   UNL     1     -14.014  -8.023  -7.761  1.00  0.00    -0.000 C 
BRANCH  14  15
ATOM     15  C   UNL     1     -13.281  -7.108  -8.754  1.00  0.00    -0.003 C 
ATOM     16  C   UNL     1     -13.830  -5.682  -8.762  1.00  0.00     0.004 C 
ENDBRANCH  14  15
ENDBRANCH  13  14
ENDBRANCH  12  13
ENDBRANCH  11  12
ENDBRANCH  10  11
ENDBRANCH   1  10
TORSDOF 12
ENDMDL
MODEL 7
REMARK VINA RESULT:    -4.923      2.179      4.256
REMARK INTER + INTRA:          -8.928
REMARK INTER:                  -7.984
REMARK INTRA:                  -0.944
REMARK UNBOUND:                -0.551
REMARK SMILES CCCCCCCCCCCCCC(=O)[O-]
REMARK SMILES IDX 8 1 9 2 10 3 11 4 12 5 13 6 14 7 15 8 16 9 7 10 6 11 5 12
REMARK SMILES IDX 4 13 3 14 2 15 1 16
REMARK H PARENT
REMARK Flexibility Score: inf
ROOT
ATOM      1  C   UNL     1     -10.356  -5.756  -9.027  1.00  0.00     0.000 C 
ENDROOT
BRANCH   1   2
ATOM      2  C   UNL     1     -11.196  -4.500  -8.730  1.00  0.00     0.000 C 
BRANCH   2   3
ATOM      3  C   UNL     1     -10.911  -3.292  -9.640  1.00  0.00     0.000 C 
BRANCH   3   4
ATOM      4  C   UNL     1     -10.705  -1.986  -8.859  1.00  0.00     0.000 C 
BRANCH   4   5
ATOM      5  C   UNL     1     -10.940  -0.764  -9.759  1.00  0.00     0.006 C 
BRANCH   5   6
ATOM      6  C   UNL     1     -12.376  -0.705 -10.294  1.00  0.00     0.053 C 
BRANCH   6   7
ATOM      7  C   UNL     1     -13.101   0.511  -9.805  1.00  0.00     0.041 C 
ATOM      8  O   UNL     1     -14.357   0.563  -9.853  1.00  0.00    -0.550 OA
ATOM      9  O   UNL     1     -12.389   1.574  -9.265  1.00  0.00    -0.550 OA
ENDBRANCH   6   7
ENDBRANCH   5   6
ENDBRANCH   4   5
ENDBRANCH   3   4
ENDBRANCH   2   3
ENDBRANCH   1   2
BRANCH   1  10
ATOM     10  C   UNL     1     -10.960  -7.037  -8.427  1.00  0.00     0.000 C 
BRANCH  10  11
ATOM     11  C   UNL     1     -12.170  -7.549  -9.224  1.00  0.00    -0.000 C 
BRANCH  11  12
ATOM     12  C   UNL     1     -13.407  -7.777  -8.342  1.00  0.00    -0.000 C 
BRANCH  12  13
ATOM     13  C   UNL     1     -13.559  -6.654  -7.308  1.00  0.00    -0.000 C 
BRANCH  13  14
ATOM     14  C   UNL     1     -13.742  -7.228  -5.895  1.00  0.00    -0.000 C 
BRANCH  14  15
ATOM     15  C   UNL     1     -12.425  -7.287  -5.107  1.00  0.00    -0.003 C 
ATOM     16  C   UNL     1     -11.706  -5.939  -5.052  1.00  0.00     0.004 C 
ENDBRANCH  14  15
ENDBRANCH  13  14
ENDBRANCH  12  13
ENDBRANCH  11  12
ENDBRANCH  10  11
ENDBRANCH   1  10
TORSDOF 12
ENDMDL
MODEL 8
REMARK VINA RESULT:    -4.913      1.798      3.922
REMARK INTER + INTRA:          -8.911
REMARK INTER:                  -8.092
REMARK INTRA:                  -0.819
REMARK UNBOUND:                -0.551
REMARK SMILES CCCCCCCCCCCCCC(=O)[O-]
REMARK SMILES IDX 8 1 9 2 10 3 11 4 12 5 13 6 14 7 15 8 16 9 7 10 6 11 5 12
REMARK SMILES IDX 4 13 3 14 2 15 1 16
REMARK H PARENT
REMARK Flexibility Score: inf
ROOT
ATOM      1  C   UNL     1      -9.466  -4.657  -8.538  1.00  0.00     0.000 C 
ENDROOT
BRANCH   1   2
ATOM      2  C   UNL     1      -9.922  -3.190  -8.634  1.00  0.00     0.000 C 
BRANCH   2   3
ATOM      3  C   UNL     1     -10.599  -2.800  -9.960  1.00  0.00     0.000 C 
BRANCH   3   4
ATOM      4  C   UNL     1     -10.461  -1.306 -10.289  1.00  0.00     0.000 C 
BRANCH   4   5
ATOM      5  C   UNL     1     -11.388  -0.461  -9.403  1.00  0.00     0.006 C 
BRANCH   5   6
ATOM      6  C   UNL     1     -12.744  -0.194 -10.070  1.00  0.00     0.053 C 
BRANCH   6   7
ATOM      7  C   UNL     1     -13.306   1.136  -9.672  1.00  0.00     0.041 C 
ATOM      8  O   UNL     1     -14.547   1.339  -9.716  1.00  0.00    -0.550 OA
ATOM      9  O   UNL     1     -12.460   2.141  -9.221  1.00  0.00    -0.550 OA
ENDBRANCH   6   7
ENDBRANCH   5   6
ENDBRANCH   4   5
ENDBRANCH   3   4
ENDBRANCH   2   3
ENDBRANCH   1   2
BRANCH   1  10
ATOM     10  C   UNL     1     -10.445  -5.538  -7.743  1.00  0.00     0.000 C 
BRANCH  10  11
ATOM     11  C   UNL     1     -10.889  -4.886  -6.424  1.00  0.00    -0.000 C 
BRANCH  11  12
ATOM     12  C   UNL     1     -11.291  -5.918  -5.359  1.00  0.00    -0.000 C 
BRANCH  12  13
ATOM     13  C   UNL     1     -12.783  -6.259  -5.461  1.00  0.00    -0.000 C 
BRANCH  13  14
ATOM     14  C   UNL     1     -12.986  -7.702  -5.946  1.00  0.00    -0.000 C 
BRANCH  14  15
ATOM     15  C   UNL     1     -13.660  -7.772  -7.325  1.00  0.00    -0.003 C 
ATOM     16  C   UNL     1     -14.103  -6.402  -7.838  1.00  0.00     0.004 C 
ENDBRANCH  14  15
ENDBRANCH  13  14
ENDBRANCH  12  13
ENDBRANCH  11  12
ENDBRANCH  10  11
ENDBRANCH   1  10
TORSDOF 12
ENDMDL
MODEL 9
REMARK VINA RESULT:    -4.670     16.298     18.143
REMARK INTER + INTRA:          -8.498
REMARK INTER:                  -6.996
REMARK INTRA:                  -1.501
REMARK UNBOUND:                -0.551
REMARK SMILES CCCCCCCCCCCCCC(=O)[O-]
REMARK SMILES IDX 8 1 9 2 10 3 11 4 12 5 13 6 14 7 15 8 16 9 7 10 6 11 5 12
REMARK SMILES IDX 4 13 3 14 2 15 1 16
REMARK H PARENT
REMARK Flexibility Score: inf
ROOT
ATOM      1  C   UNL     1     -10.730   5.221   5.436  1.00  0.00     0.000 C 
ENDROOT
BRANCH   1   2
ATOM      2  C   UNL     1      -9.466   5.370   6.303  1.00  0.00     0.000 C 
BRANCH   2   3
ATOM      3  C   UNL     1      -9.185   6.797   6.809  1.00  0.00     0.000 C 
BRANCH   3   4
ATOM      4  C   UNL     1      -9.108   7.832   5.677  1.00  0.00     0.000 C 
BRANCH   4   5
ATOM      5  C   UNL     1      -8.378   9.101   6.142  1.00  0.00     0.006 C 
BRANCH   5   6
ATOM      6  C   UNL     1      -7.215   9.473   5.214  1.00  0.00     0.053 C 
BRANCH   6   7
ATOM      7  C   UNL     1      -6.366  10.561   5.798  1.00  0.00     0.041 C 
ATOM      8  O   UNL     1      -6.902  11.545   6.371  1.00  0.00    -0.550 OA
ATOM      9  O   UNL     1      -4.982  10.471   5.738  1.00  0.00    -0.550 OA
ENDBRANCH   6   7
ENDBRANCH   5   6
ENDBRANCH   4   5
ENDBRANCH   3   4
ENDBRANCH   2   3
ENDBRANCH   1   2
BRANCH   1  10
ATOM     10  C   UNL     1     -11.629   4.057   5.884  1.00  0.00     0.000 C 
BRANCH  10  11
ATOM     11  C   UNL     1     -11.267   3.533   7.283  1.00  0.00    -0.000 C 
BRANCH  11  12
ATOM     12  C   UNL     1     -12.319   3.895   8.343  1.00  0.00    -0.000 C 
BRANCH  12  13
ATOM     13  C   UNL     1     -11.904   5.148   9.123  1.00  0.00    -0.000 C 
BRANCH  13  14
ATOM     14  C   UNL     1     -12.985   6.236   9.031  1.00  0.00    -0.000 C 
BRANCH  14  15
ATOM     15  C   UNL     1     -12.748   7.207   7.864  1.00  0.00    -0.003 C 
ATOM     16  C   UNL     1     -13.751   7.021   6.727  1.00  0.00     0.004 C 
ENDBRANCH  14  15
ENDBRANCH  13  14
ENDBRANCH  12  13
ENDBRANCH  11  12
ENDBRANCH  10  11
ENDBRANCH   1  10
TORSDOF 12
ENDMDL
