MODEL 1
REMARK VINA RESULT:    29.780      0.000      0.000
REMARK INTER + INTRA:          35.139
REMARK INTER:                  35.003
REMARK INTRA:                   0.136
REMARK UNBOUND:                 0.136
REMARK SMILES O=c1c(O)c(-c2ccc(O)cc2)oc2cc(O)cc(O)c12
REMARK SMILES IDX 5 1 3 2 2 3 1 4 21 5 19 6 18 7 16 8 15 9 14 10 13 11 6 12
REMARK SMILES IDX 7 13 8 14 9 15 12 16 11 17 10 18 4 20 20 22 17 24
REMARK H PARENT 10 19 4 21 20 23 17 25
REMARK Flexibility Score: inf
ROOT
ATOM      1  C   UNL     1       2.402  -1.255   0.916  1.00  0.00     0.180 A 
ATOM      2  C   UNL     1       1.542  -0.813   1.936  1.00  0.00     0.208 A 
ATOM      3  C   UNL     1       0.154  -0.869   1.727  1.00  0.00     0.238 A 
ATOM      4  O   UNL     1      -0.612  -0.522   2.665  1.00  0.00    -0.285 OA
ATOM      5  C   UNL     1      -0.355  -1.351   0.498  1.00  0.00     0.111 A 
ATOM      6  C   UNL     1      -1.742  -1.414   0.163  1.00  0.00     0.134 A 
ATOM      7  C   UNL     1      -2.137  -2.030  -1.030  1.00  0.00     0.093 A 
ATOM      8  C   UNL     1      -1.192  -2.526  -1.932  1.00  0.00     0.123 A 
ATOM      9  C   UNL     1       0.166  -2.416  -1.642  1.00  0.00     0.094 A 
ATOM     10  C   UNL     1       0.589  -1.839  -0.442  1.00  0.00     0.146 A 
ATOM     11  O   UNL     1       1.893  -1.763  -0.200  1.00  0.00    -0.452 OA
ENDROOT
BRANCH   1  12
ATOM     12  C   UNL     1       3.876  -1.204   1.051  1.00  0.00     0.021 A 
ATOM     13  C   UNL     1       4.480  -1.666   2.232  1.00  0.00     0.016 A 
ATOM     14  C   UNL     1       5.871  -1.649   2.371  1.00  0.00     0.047 A 
ATOM     15  C   UNL     1       6.676  -1.182   1.324  1.00  0.00     0.115 A 
ATOM     16  C   UNL     1       4.693  -0.756  -0.004  1.00  0.00     0.016 A 
ATOM     17  C   UNL     1       6.084  -0.740   0.138  1.00  0.00     0.047 A 
BRANCH  15  18
ATOM     18  O   UNL     1       8.063  -1.159   1.451  1.00  0.00    -0.508 OA
ATOM     19  H   UNL     1       8.659  -0.825   0.702  1.00  0.00     0.293 HD
ENDBRANCH  15  18
ENDBRANCH   1  12
BRANCH   2  20
ATOM     20  O   UNL     1       2.065  -0.361   3.151  1.00  0.00    -0.502 OA
ATOM     21  H   UNL     1       2.291  -0.989   3.912  1.00  0.00     0.293 HD
ENDBRANCH   2  20
BRANCH   6  22
ATOM     22  O   UNL     1      -2.760  -0.866   0.950  1.00  0.00    -0.507 OA
ATOM     23  H   UNL     1      -2.671  -0.025   1.501  1.00  0.00     0.293 HD
ENDBRANCH   6  22
BRANCH   8  24
ATOM     24  O   UNL     1      -1.593  -3.125  -3.125  1.00  0.00    -0.508 OA
ATOM     25  H   UNL     1      -2.467  -3.632  -3.195  1.00  0.00     0.293 HD
ENDBRANCH   8  24
TORSDOF 5
ENDMDL
