MODEL 1
REMARK VINA RESULT:    -5.777      0.000      0.000
REMARK INTER + INTRA:          -7.079
REMARK INTER:                  -6.959
REMARK INTRA:                  -0.120
REMARK UNBOUND:                -0.120
REMARK SMILES O=c1c(O)c(-c2ccc(O)c(O)c2)oc2cc(O)cc(O)c12
REMARK SMILES IDX 5 1 3 2 2 3 1 4 22 5 20 6 19 7 17 8 16 9 15 10 14 11 6 12
REMARK SMILES IDX 7 13 8 14 9 15 13 16 11 17 10 18 12 20 4 22 21 24 18 26
REMARK H PARENT 10 19 12 21 4 23 21 25 18 27
REMARK Flexibility Score: inf
ROOT
ATOM      1  C   UNL     1       8.088  -4.831 -29.136  1.00  0.00     0.180 A 
ATOM      2  C   UNL     1       9.166  -5.141 -28.284  1.00  0.00     0.208 A 
ATOM      3  C   UNL     1      10.476  -4.950 -28.750  1.00  0.00     0.238 A 
ATOM      4  O   UNL     1      11.449  -5.214 -27.992  1.00  0.00    -0.285 OA
ATOM      5  C   UNL     1      10.687  -4.473 -30.060  1.00  0.00     0.111 A 
ATOM      6  C   UNL     1      11.975  -4.256 -30.607  1.00  0.00     0.134 A 
ATOM      7  C   UNL     1      12.102  -3.788 -31.923  1.00  0.00     0.093 A 
ATOM      8  C   UNL     1      10.967  -3.534 -32.702  1.00  0.00     0.123 A 
ATOM      9  C   UNL     1       9.696  -3.746 -32.167  1.00  0.00     0.094 A 
ATOM     10  C   UNL     1       9.548  -4.210 -30.856  1.00  0.00     0.146 A 
ATOM     11  O   UNL     1       8.326  -4.398 -30.371  1.00  0.00    -0.452 OA
ENDROOT
BRANCH   1  12
ATOM     12  C   UNL     1       6.678  -4.989 -28.711  1.00  0.00     0.025 A 
ATOM     13  C   UNL     1       5.810  -5.778 -29.481  1.00  0.00     0.016 A 
ATOM     14  C   UNL     1       4.470  -5.923 -29.110  1.00  0.00     0.051 A 
ATOM     15  C   UNL     1       3.976  -5.270 -27.974  1.00  0.00     0.157 A 
ATOM     16  C   UNL     1       6.174  -4.317 -27.583  1.00  0.00     0.062 A 
ATOM     17  C   UNL     1       4.832  -4.459 -27.210  1.00  0.00     0.158 A 
BRANCH  15  18
ATOM     18  O   UNL     1       2.640  -5.418 -27.606  1.00  0.00    -0.504 OA
ATOM     19  H   UNL     1       2.283  -6.294 -27.244  1.00  0.00     0.293 HD
ENDBRANCH  15  18
BRANCH  17  20
ATOM     20  O   UNL     1       4.368  -3.783 -26.082  1.00  0.00    -0.504 OA
ATOM     21  H   UNL     1       4.121  -4.267 -25.228  1.00  0.00     0.293 HD
ENDBRANCH  17  20
ENDBRANCH   1  12
BRANCH   2  22
ATOM     22  O   UNL     1       8.930  -5.660 -27.009  1.00  0.00    -0.502 OA
ATOM     23  H   UNL     1       9.158  -6.616 -26.761  1.00  0.00     0.293 HD
ENDBRANCH   2  22
BRANCH   6  24
ATOM     24  O   UNL     1      13.125  -4.502 -29.856  1.00  0.00    -0.507 OA
ATOM     25  H   UNL     1      14.022  -4.103 -30.108  1.00  0.00     0.293 HD
ENDBRANCH   6  24
BRANCH   8  26
ATOM     26  O   UNL     1      11.092  -3.070 -34.009  1.00  0.00    -0.508 OA
ATOM     27  H   UNL     1      11.555  -3.619 -34.724  1.00  0.00     0.293 HD
ENDBRANCH   8  26
TORSDOF 6
ENDMDL
MODEL 2
REMARK VINA RESULT:    -5.734      1.595      3.420
REMARK INTER + INTRA:          -7.027
REMARK INTER:                  -6.816
REMARK INTRA:                  -0.211
REMARK UNBOUND:                -0.120
REMARK SMILES O=c1c(O)c(-c2ccc(O)c(O)c2)oc2cc(O)cc(O)c12
REMARK SMILES IDX 5 1 3 2 2 3 1 4 22 5 20 6 19 7 17 8 16 9 15 10 14 11 6 12
REMARK SMILES IDX 7 13 8 14 9 15 13 16 11 17 10 18 12 20 4 22 21 24 18 26
REMARK H PARENT 10 19 12 21 4 23 21 25 18 27
REMARK Flexibility Score: inf
ROOT
ATOM      1  C   UNL     1       8.139  -5.139 -28.408  1.00  0.00     0.180 A 
ATOM      2  C   UNL     1       8.699  -4.478 -29.518  1.00  0.00     0.208 A 
ATOM      3  C   UNL     1      10.094  -4.491 -29.681  1.00  0.00     0.238 A 
ATOM      4  O   UNL     1      10.607  -3.912 -30.677  1.00  0.00    -0.285 OA
ATOM      5  C   UNL     1      10.901  -5.144 -28.727  1.00  0.00     0.111 A 
ATOM      6  C   UNL     1      12.313  -5.201 -28.817  1.00  0.00     0.134 A 
ATOM      7  C   UNL     1      13.048  -5.863 -27.821  1.00  0.00     0.093 A 
ATOM      8  C   UNL     1      12.397  -6.468 -26.739  1.00  0.00     0.123 A 
ATOM      9  C   UNL     1      11.005  -6.415 -26.648  1.00  0.00     0.094 A 
ATOM     10  C   UNL     1      10.256  -5.762 -27.631  1.00  0.00     0.146 A 
ATOM     11  O   UNL     1       8.932  -5.732 -27.520  1.00  0.00    -0.452 OA
ENDROOT
BRANCH   1  12
ATOM     12  C   UNL     1       6.676  -5.185 -28.177  1.00  0.00     0.025 A 
ATOM     13  C   UNL     1       5.864  -5.930 -29.045  1.00  0.00     0.016 A 
ATOM     14  C   UNL     1       4.479  -5.970 -28.859  1.00  0.00     0.051 A 
ATOM     15  C   UNL     1       3.886  -5.254 -27.812  1.00  0.00     0.157 A 
ATOM     16  C   UNL     1       6.075  -4.450 -27.140  1.00  0.00     0.062 A 
ATOM     17  C   UNL     1       4.688  -4.486 -26.951  1.00  0.00     0.158 A 
BRANCH  15  18
ATOM     18  O   UNL     1       2.505  -5.297 -27.628  1.00  0.00    -0.504 OA
ATOM     19  H   UNL     1       2.028  -6.157 -27.383  1.00  0.00     0.293 HD
ENDBRANCH  15  18
BRANCH  17  20
ATOM     20  O   UNL     1       4.127  -3.750 -25.909  1.00  0.00    -0.504 OA
ATOM     21  H   UNL     1       4.545  -3.717 -24.987  1.00  0.00     0.293 HD
ENDBRANCH  17  20
ENDBRANCH   1  12
BRANCH   2  22
ATOM     22  O   UNL     1       7.881  -3.795 -30.421  1.00  0.00    -0.502 OA
ATOM     23  H   UNL     1       6.878  -3.935 -30.457  1.00  0.00     0.293 HD
ENDBRANCH   2  22
BRANCH   6  24
ATOM     24  O   UNL     1      12.990  -4.606 -29.882  1.00  0.00    -0.507 OA
ATOM     25  H   UNL     1      13.995  -4.477 -29.870  1.00  0.00     0.293 HD
ENDBRANCH   6  24
BRANCH   8  26
ATOM     26  O   UNL     1      13.125  -7.125 -25.751  1.00  0.00    -0.508 OA
ATOM     27  H   UNL     1      13.619  -6.614 -25.028  1.00  0.00     0.293 HD
ENDBRANCH   8  26
TORSDOF 6
ENDMDL
MODEL 3
REMARK VINA RESULT:    -5.181      1.777      3.018
REMARK INTER + INTRA:          -6.361
REMARK INTER:                  -6.602
REMARK INTRA:                   0.241
REMARK UNBOUND:                -0.120
REMARK SMILES O=c1c(O)c(-c2ccc(O)c(O)c2)oc2cc(O)cc(O)c12
REMARK SMILES IDX 5 1 3 2 2 3 1 4 22 5 20 6 19 7 17 8 16 9 15 10 14 11 6 12
REMARK SMILES IDX 7 13 8 14 9 15 13 16 11 17 10 18 12 20 4 22 21 24 18 26
REMARK H PARENT 10 19 12 21 4 23 21 25 18 27
REMARK Flexibility Score: inf
ROOT
ATOM      1  C   UNL     1       6.188  -5.668 -28.858  1.00  0.00     0.180 A 
ATOM      2  C   UNL     1       6.596  -6.281 -27.657  1.00  0.00     0.208 A 
ATOM      3  C   UNL     1       7.950  -6.219 -27.291  1.00  0.00     0.238 A 
ATOM      4  O   UNL     1       8.326  -6.755 -26.213  1.00  0.00    -0.285 OA
ATOM      5  C   UNL     1       8.872  -5.566 -28.135  1.00  0.00     0.111 A 
ATOM      6  C   UNL     1      10.253  -5.462 -27.840  1.00  0.00     0.134 A 
ATOM      7  C   UNL     1      11.108  -4.804 -28.736  1.00  0.00     0.093 A 
ATOM      8  C   UNL     1      10.609  -4.249 -29.921  1.00  0.00     0.123 A 
ATOM      9  C   UNL     1       9.248  -4.349 -30.215  1.00  0.00     0.094 A 
ATOM     10  C   UNL     1       8.379  -4.999 -29.333  1.00  0.00     0.146 A 
ATOM     11  O   UNL     1       7.088  -5.075 -29.637  1.00  0.00    -0.452 OA
ENDROOT
BRANCH   1  12
ATOM     12  C   UNL     1       4.776  -5.676 -29.304  1.00  0.00     0.025 A 
ATOM     13  C   UNL     1       4.485  -5.596 -30.675  1.00  0.00     0.016 A 
ATOM     14  C   UNL     1       3.159  -5.580 -31.117  1.00  0.00     0.051 A 
ATOM     15  C   UNL     1       2.106  -5.627 -30.194  1.00  0.00     0.157 A 
ATOM     16  C   UNL     1       3.716  -5.701 -28.380  1.00  0.00     0.062 A 
ATOM     17  C   UNL     1       2.387  -5.682 -28.819  1.00  0.00     0.158 A 
BRANCH  15  18
ATOM     18  O   UNL     1       0.785  -5.612 -30.638  1.00  0.00    -0.504 OA
ATOM     19  H   UNL     1       0.110  -4.947 -30.277  1.00  0.00     0.293 HD
ENDBRANCH  15  18
BRANCH  17  20
ATOM     20  O   UNL     1       1.362  -5.715 -27.875  1.00  0.00    -0.504 OA
ATOM     21  H   UNL     1       1.545  -5.808 -26.883  1.00  0.00     0.293 HD
ENDBRANCH  17  20
ENDBRANCH   1  12
BRANCH   2  22
ATOM     22  O   UNL     1       5.672  -6.965 -26.865  1.00  0.00    -0.502 OA
ATOM     23  H   UNL     1       4.720  -7.138 -27.167  1.00  0.00     0.293 HD
ENDBRANCH   2  22
BRANCH   6  24
ATOM     24  O   UNL     1      10.780  -6.006 -26.668  1.00  0.00    -0.507 OA
ATOM     25  H   UNL     1      10.418  -5.758 -25.754  1.00  0.00     0.293 HD
ENDBRANCH   6  24
BRANCH   8  26
ATOM     26  O   UNL     1      11.457  -3.596 -30.811  1.00  0.00    -0.508 OA
ATOM     27  H   UNL     1      11.132  -2.826 -31.384  1.00  0.00     0.293 HD
ENDBRANCH   8  26
TORSDOF 6
ENDMDL
MODEL 4
REMARK VINA RESULT:    -5.137      1.650      6.790
REMARK INTER + INTRA:          -6.308
REMARK INTER:                  -6.426
REMARK INTRA:                   0.119
REMARK UNBOUND:                -0.120
REMARK SMILES O=c1c(O)c(-c2ccc(O)c(O)c2)oc2cc(O)cc(O)c12
REMARK SMILES IDX 5 1 3 2 2 3 1 4 22 5 20 6 19 7 17 8 16 9 15 10 14 11 6 12
REMARK SMILES IDX 7 13 8 14 9 15 13 16 11 17 10 18 12 20 4 22 21 24 18 26
REMARK H PARENT 10 19 12 21 4 23 21 25 18 27
REMARK Flexibility Score: inf
ROOT
ATOM      1  C   UNL     1       7.553  -4.627 -29.783  1.00  0.00     0.180 A 
ATOM      2  C   UNL     1       7.102  -4.252 -28.502  1.00  0.00     0.208 A 
ATOM      3  C   UNL     1       5.778  -4.544 -28.138  1.00  0.00     0.238 A 
ATOM      4  O   UNL     1       5.365  -4.223 -26.991  1.00  0.00    -0.285 OA
ATOM      5  C   UNL     1       4.926  -5.185 -29.061  1.00  0.00     0.111 A 
ATOM      6  C   UNL     1       3.578  -5.511 -28.774  1.00  0.00     0.134 A 
ATOM      7  C   UNL     1       2.792  -6.140 -29.750  1.00  0.00     0.093 A 
ATOM      8  C   UNL     1       3.326  -6.449 -31.007  1.00  0.00     0.123 A 
ATOM      9  C   UNL     1       4.654  -6.129 -31.294  1.00  0.00     0.094 A 
ATOM     10  C   UNL     1       5.455  -5.504 -30.333  1.00  0.00     0.146 A 
ATOM     11  O   UNL     1       6.717  -5.216 -30.633  1.00  0.00    -0.452 OA
ENDROOT
BRANCH   1  12
ATOM     12  C   UNL     1       8.941  -4.370 -30.234  1.00  0.00     0.025 A 
ATOM     13  C   UNL     1       9.177  -4.013 -31.571  1.00  0.00     0.016 A 
ATOM     14  C   UNL     1      10.479  -3.787 -32.023  1.00  0.00     0.051 A 
ATOM     15  C   UNL     1      11.566  -3.930 -31.150  1.00  0.00     0.157 A 
ATOM     16  C   UNL     1      10.035  -4.533 -29.366  1.00  0.00     0.062 A 
ATOM     17  C   UNL     1      11.342  -4.310 -29.816  1.00  0.00     0.158 A 
BRANCH  15  18
ATOM     18  O   UNL     1      12.863  -3.702 -31.604  1.00  0.00    -0.504 OA
ATOM     19  H   UNL     1      13.048  -3.377 -32.546  1.00  0.00     0.293 HD
ENDBRANCH  15  18
BRANCH  17  20
ATOM     20  O   UNL     1      12.402  -4.474 -28.926  1.00  0.00    -0.504 OA
ATOM     21  H   UNL     1      12.885  -3.687 -28.512  1.00  0.00     0.293 HD
ENDBRANCH  17  20
ENDBRANCH   1  12
BRANCH   2  22
ATOM     22  O   UNL     1       7.951  -3.574 -27.625  1.00  0.00    -0.502 OA
ATOM     23  H   UNL     1       8.804  -3.124 -27.935  1.00  0.00     0.293 HD
ENDBRANCH   2  22
BRANCH   6  24
ATOM     24  O   UNL     1       3.017  -5.215 -27.532  1.00  0.00    -0.507 OA
ATOM     25  H   UNL     1       3.586  -4.924 -26.745  1.00  0.00     0.293 HD
ENDBRANCH   6  24
BRANCH   8  26
ATOM     26  O   UNL     1       2.546  -7.073 -31.976  1.00  0.00    -0.508 OA
ATOM     27  H   UNL     1       2.847  -7.130 -32.943  1.00  0.00     0.293 HD
ENDBRANCH   8  26
TORSDOF 6
ENDMDL
MODEL 5
REMARK VINA RESULT:    -5.102      1.471      7.157
REMARK INTER + INTRA:          -6.266
REMARK INTER:                  -6.568
REMARK INTRA:                   0.302
REMARK UNBOUND:                -0.120
REMARK SMILES O=c1c(O)c(-c2ccc(O)c(O)c2)oc2cc(O)cc(O)c12
REMARK SMILES IDX 5 1 3 2 2 3 1 4 22 5 20 6 19 7 17 8 16 9 15 10 14 11 6 12
REMARK SMILES IDX 7 13 8 14 9 15 13 16 11 17 10 18 12 20 4 22 21 24 18 26
REMARK H PARENT 10 19 12 21 4 23 21 25 18 27
REMARK Flexibility Score: inf
ROOT
ATOM      1  C   UNL     1       7.885  -4.560 -30.268  1.00  0.00     0.180 A 
ATOM      2  C   UNL     1       6.986  -5.299 -31.062  1.00  0.00     0.208 A 
ATOM      3  C   UNL     1       5.701  -5.563 -30.563  1.00  0.00     0.238 A 
ATOM      4  O   UNL     1       4.883  -6.214 -31.268  1.00  0.00    -0.285 OA
ATOM      5  C   UNL     1       5.343  -5.102 -29.279  1.00  0.00     0.111 A 
ATOM      6  C   UNL     1       4.070  -5.328 -28.703  1.00  0.00     0.134 A 
ATOM      7  C   UNL     1       3.793  -4.846 -27.414  1.00  0.00     0.093 A 
ATOM      8  C   UNL     1       4.766  -4.143 -26.693  1.00  0.00     0.123 A 
ATOM      9  C   UNL     1       6.022  -3.917 -27.258  1.00  0.00     0.094 A 
ATOM     10  C   UNL     1       6.316  -4.389 -28.541  1.00  0.00     0.146 A 
ATOM     11  O   UNL     1       7.518  -4.155 -29.055  1.00  0.00    -0.452 OA
ENDROOT
BRANCH   1  12
ATOM     12  C   UNL     1       9.252  -4.226 -30.732  1.00  0.00     0.025 A 
ATOM     13  C   UNL     1       9.492  -4.054 -32.104  1.00  0.00     0.016 A 
ATOM     14  C   UNL     1      10.777  -3.760 -32.566  1.00  0.00     0.051 A 
ATOM     15  C   UNL     1      11.844  -3.650 -31.665  1.00  0.00     0.157 A 
ATOM     16  C   UNL     1      10.328  -4.136 -29.832  1.00  0.00     0.062 A 
ATOM     17  C   UNL     1      11.618  -3.844 -30.291  1.00  0.00     0.158 A 
BRANCH  15  18
ATOM     18  O   UNL     1      13.125  -3.355 -32.128  1.00  0.00    -0.504 OA
ATOM     19  H   UNL     1      13.307  -3.174 -33.108  1.00  0.00     0.293 HD
ENDBRANCH  15  18
BRANCH  17  20
ATOM     20  O   UNL     1      12.661  -3.756 -29.370  1.00  0.00    -0.504 OA
ATOM     21  H   UNL     1      13.625  -3.635 -29.658  1.00  0.00     0.293 HD
ENDBRANCH  17  20
ENDBRANCH   1  12
BRANCH   2  22
ATOM     22  O   UNL     1       7.382  -5.787 -32.309  1.00  0.00    -0.502 OA
ATOM     23  H   UNL     1       7.478  -5.188 -33.121  1.00  0.00     0.293 HD
ENDBRANCH   2  22
BRANCH   6  24
ATOM     24  O   UNL     1       3.081  -6.027 -29.396  1.00  0.00    -0.507 OA
ATOM     25  H   UNL     1       2.108  -5.744 -29.367  1.00  0.00     0.293 HD
ENDBRANCH   6  24
BRANCH   8  26
ATOM     26  O   UNL     1       4.493  -3.664 -25.415  1.00  0.00    -0.508 OA
ATOM     27  H   UNL     1       3.544  -3.480 -25.109  1.00  0.00     0.293 HD
ENDBRANCH   8  26
TORSDOF 6
ENDMDL
MODEL 6
REMARK VINA RESULT:    -5.048      1.794      3.273
REMARK INTER + INTRA:          -6.200
REMARK INTER:                  -6.601
REMARK INTRA:                   0.401
REMARK UNBOUND:                -0.120
REMARK SMILES O=c1c(O)c(-c2ccc(O)c(O)c2)oc2cc(O)cc(O)c12
REMARK SMILES IDX 5 1 3 2 2 3 1 4 22 5 20 6 19 7 17 8 16 9 15 10 14 11 6 12
REMARK SMILES IDX 7 13 8 14 9 15 13 16 11 17 10 18 12 20 4 22 21 24 18 26
REMARK H PARENT 10 19 12 21 4 23 21 25 18 27
REMARK Flexibility Score: inf
ROOT
ATOM      1  C   UNL     1       7.528  -4.574 -30.291  1.00  0.00     0.180 A 
ATOM      2  C   UNL     1       7.039  -5.259 -31.421  1.00  0.00     0.208 A 
ATOM      3  C   UNL     1       7.902  -5.477 -32.506  1.00  0.00     0.238 A 
ATOM      4  O   UNL     1       7.480  -6.099 -33.519  1.00  0.00    -0.285 OA
ATOM      5  C   UNL     1       9.226  -4.995 -32.453  1.00  0.00     0.111 A 
ATOM      6  C   UNL     1      10.157  -5.170 -33.505  1.00  0.00     0.134 A 
ATOM      7  C   UNL     1      11.455  -4.651 -33.380  1.00  0.00     0.093 A 
ATOM      8  C   UNL     1      11.837  -3.960 -32.224  1.00  0.00     0.123 A 
ATOM      9  C   UNL     1      10.923  -3.785 -31.184  1.00  0.00     0.094 A 
ATOM     10  C   UNL     1       9.625  -4.297 -31.290  1.00  0.00     0.146 A 
ATOM     11  O   UNL     1       8.778  -4.119 -30.282  1.00  0.00    -0.452 OA
ENDROOT
BRANCH   1  12
ATOM     12  C   UNL     1       6.684  -4.320 -29.100  1.00  0.00     0.025 A 
ATOM     13  C   UNL     1       7.132  -3.425 -28.116  1.00  0.00     0.016 A 
ATOM     14  C   UNL     1       6.363  -3.187 -26.974  1.00  0.00     0.051 A 
ATOM     15  C   UNL     1       5.143  -3.852 -26.792  1.00  0.00     0.157 A 
ATOM     16  C   UNL     1       5.471  -5.002 -28.904  1.00  0.00     0.062 A 
ATOM     17  C   UNL     1       4.698  -4.768 -27.760  1.00  0.00     0.158 A 
BRANCH  15  18
ATOM     18  O   UNL     1       4.378  -3.611 -25.652  1.00  0.00    -0.504 OA
ATOM     19  H   UNL     1       4.399  -4.237 -24.856  1.00  0.00     0.293 HD
ENDBRANCH  15  18
BRANCH  17  20
ATOM     20  O   UNL     1       3.497  -5.457 -27.601  1.00  0.00    -0.504 OA
ATOM     21  H   UNL     1       3.347  -6.377 -27.998  1.00  0.00     0.293 HD
ENDBRANCH  17  20
ENDBRANCH   1  12
BRANCH   2  22
ATOM     22  O   UNL     1       5.710  -5.683 -31.469  1.00  0.00    -0.502 OA
ATOM     23  H   UNL     1       5.215  -5.822 -32.343  1.00  0.00     0.293 HD
ENDBRANCH   2  22
BRANCH   6  24
ATOM     24  O   UNL     1       9.805  -5.853 -34.669  1.00  0.00    -0.507 OA
ATOM     25  H   UNL     1      10.500  -6.151 -35.344  1.00  0.00     0.293 HD
ENDBRANCH   6  24
BRANCH   8  26
ATOM     26  O   UNL     1      13.124  -3.444 -32.099  1.00  0.00    -0.508 OA
ATOM     27  H   UNL     1      13.381  -2.554 -32.510  1.00  0.00     0.293 HD
ENDBRANCH   8  26
TORSDOF 6
ENDMDL
MODEL 7
REMARK VINA RESULT:    -5.044      2.189      7.261
REMARK INTER + INTRA:          -6.196
REMARK INTER:                  -6.597
REMARK INTRA:                   0.401
REMARK UNBOUND:                -0.120
REMARK SMILES O=c1c(O)c(-c2ccc(O)c(O)c2)oc2cc(O)cc(O)c12
REMARK SMILES IDX 5 1 3 2 2 3 1 4 22 5 20 6 19 7 17 8 16 9 15 10 14 11 6 12
REMARK SMILES IDX 7 13 8 14 9 15 13 16 11 17 10 18 12 20 4 22 21 24 18 26
REMARK H PARENT 10 19 12 21 4 23 21 25 18 27
REMARK Flexibility Score: inf
ROOT
ATOM      1  C   UNL     1       6.767  -5.091 -30.395  1.00  0.00     0.180 A 
ATOM      2  C   UNL     1       6.341  -5.267 -31.726  1.00  0.00     0.208 A 
ATOM      3  C   UNL     1       4.977  -5.485 -31.976  1.00  0.00     0.238 A 
ATOM      4  O   UNL     1       4.580  -5.634 -33.165  1.00  0.00    -0.285 OA
ATOM      5  C   UNL     1       4.070  -5.542 -30.899  1.00  0.00     0.111 A 
ATOM      6  C   UNL     1       2.681  -5.761 -31.066  1.00  0.00     0.134 A 
ATOM      7  C   UNL     1       1.844  -5.814 -29.941  1.00  0.00     0.093 A 
ATOM      8  C   UNL     1       2.370  -5.653 -28.653  1.00  0.00     0.123 A 
ATOM      9  C   UNL     1       3.739  -5.437 -28.484  1.00  0.00     0.094 A 
ATOM     10  C   UNL     1       4.588  -5.379 -29.593  1.00  0.00     0.146 A 
ATOM     11  O   UNL     1       5.886  -5.167 -29.402  1.00  0.00    -0.452 OA
ENDROOT
BRANCH   1  12
ATOM     12  C   UNL     1       8.186  -4.839 -30.051  1.00  0.00     0.025 A 
ATOM     13  C   UNL     1       9.048  -4.309 -31.024  1.00  0.00     0.016 A 
ATOM     14  C   UNL     1      10.395  -4.083 -30.729  1.00  0.00     0.051 A 
ATOM     15  C   UNL     1      10.903  -4.398 -29.462  1.00  0.00     0.157 A 
ATOM     16  C   UNL     1       8.704  -5.174 -28.788  1.00  0.00     0.062 A 
ATOM     17  C   UNL     1      10.054  -4.951 -28.489  1.00  0.00     0.158 A 
BRANCH  15  18
ATOM     18  O   UNL     1      12.247  -4.171 -29.170  1.00  0.00    -0.504 OA
ATOM     19  H   UNL     1      12.552  -3.914 -28.239  1.00  0.00     0.293 HD
ENDBRANCH  15  18
BRANCH  17  20
ATOM     20  O   UNL     1      10.532  -5.289 -27.224  1.00  0.00    -0.504 OA
ATOM     21  H   UNL     1      11.013  -6.162 -27.046  1.00  0.00     0.293 HD
ENDBRANCH  17  20
ENDBRANCH   1  12
BRANCH   2  22
ATOM     22  O   UNL     1       7.266  -5.256 -32.771  1.00  0.00    -0.502 OA
ATOM     23  H   UNL     1       7.159  -4.662 -33.585  1.00  0.00     0.293 HD
ENDBRANCH   2  22
BRANCH   6  24
ATOM     24  O   UNL     1       2.128  -5.926 -32.336  1.00  0.00    -0.507 OA
ATOM     25  H   UNL     1       1.174  -6.243 -32.465  1.00  0.00     0.293 HD
ENDBRANCH   6  24
BRANCH   8  26
ATOM     26  O   UNL     1       1.541  -5.706 -27.536  1.00  0.00    -0.508 OA
ATOM     27  H   UNL     1       1.281  -6.588 -27.110  1.00  0.00     0.293 HD
ENDBRANCH   8  26
TORSDOF 6
ENDMDL
MODEL 8
REMARK VINA RESULT:    -4.997      2.735      6.161
REMARK INTER + INTRA:          -6.139
REMARK INTER:                  -6.151
REMARK INTRA:                   0.012
REMARK UNBOUND:                -0.120
REMARK SMILES O=c1c(O)c(-c2ccc(O)c(O)c2)oc2cc(O)cc(O)c12
REMARK SMILES IDX 5 1 3 2 2 3 1 4 22 5 20 6 19 7 17 8 16 9 15 10 14 11 6 12
REMARK SMILES IDX 7 13 8 14 9 15 13 16 11 17 10 18 12 20 4 22 21 24 18 26
REMARK H PARENT 10 19 12 21 4 23 21 25 18 27
REMARK Flexibility Score: inf
ROOT
ATOM      1  C   UNL     1       7.188  -5.781 -28.602  1.00  0.00     0.180 A 
ATOM      2  C   UNL     1       5.983  -5.524 -27.920  1.00  0.00     0.208 A 
ATOM      3  C   UNL     1       4.800  -5.390 -28.663  1.00  0.00     0.238 A 
ATOM      4  O   UNL     1       3.712  -5.171 -28.063  1.00  0.00    -0.285 OA
ATOM      5  C   UNL     1       4.842  -5.496 -30.068  1.00  0.00     0.111 A 
ATOM      6  C   UNL     1       3.696  -5.371 -30.890  1.00  0.00     0.134 A 
ATOM      7  C   UNL     1       3.823  -5.479 -32.283  1.00  0.00     0.093 A 
ATOM      8  C   UNL     1       5.073  -5.710 -32.869  1.00  0.00     0.123 A 
ATOM      9  C   UNL     1       6.206  -5.834 -32.063  1.00  0.00     0.094 A 
ATOM     10  C   UNL     1       6.099  -5.731 -30.672  1.00  0.00     0.146 A 
ATOM     11  O   UNL     1       7.194  -5.859 -29.930  1.00  0.00    -0.452 OA
ENDROOT
BRANCH   1  12
ATOM     12  C   UNL     1       8.475  -5.952 -27.887  1.00  0.00     0.025 A 
ATOM     13  C   UNL     1       8.549  -6.841 -26.804  1.00  0.00     0.016 A 
ATOM     14  C   UNL     1       9.746  -7.003 -26.102  1.00  0.00     0.051 A 
ATOM     15  C   UNL     1      10.882  -6.266 -26.463  1.00  0.00     0.157 A 
ATOM     16  C   UNL     1       9.610  -5.199 -28.233  1.00  0.00     0.062 A 
ATOM     17  C   UNL     1      10.811  -5.356 -27.531  1.00  0.00     0.158 A 
BRANCH  15  18
ATOM     18  O   UNL     1      12.075  -6.431 -25.762  1.00  0.00    -0.504 OA
ATOM     19  H   UNL     1      12.084  -6.635 -24.769  1.00  0.00     0.293 HD
ENDBRANCH  15  18
BRANCH  17  20
ATOM     20  O   UNL     1      11.919  -4.598 -27.905  1.00  0.00    -0.504 OA
ATOM     21  H   UNL     1      11.869  -3.893 -28.631  1.00  0.00     0.293 HD
ENDBRANCH  17  20
ENDBRANCH   1  12
BRANCH   2  22
ATOM     22  O   UNL     1       5.976  -5.374 -26.532  1.00  0.00    -0.502 OA
ATOM     23  H   UNL     1       6.677  -5.799 -25.936  1.00  0.00     0.293 HD
ENDBRANCH   2  22
BRANCH   6  24
ATOM     24  O   UNL     1       2.437  -5.139 -30.335  1.00  0.00    -0.507 OA
ATOM     25  H   UNL     1       1.787  -5.895 -30.154  1.00  0.00     0.293 HD
ENDBRANCH   6  24
BRANCH   8  26
ATOM     26  O   UNL     1       5.200  -5.817 -34.251  1.00  0.00    -0.508 OA
ATOM     27  H   UNL     1       4.715  -6.537 -34.773  1.00  0.00     0.293 HD
ENDBRANCH   8  26
TORSDOF 6
ENDMDL
MODEL 9
REMARK VINA RESULT:    -4.879      2.232      4.396
REMARK INTER + INTRA:          -5.997
REMARK INTER:                  -5.973
REMARK INTRA:                  -0.023
REMARK UNBOUND:                -0.120
REMARK SMILES O=c1c(O)c(-c2ccc(O)c(O)c2)oc2cc(O)cc(O)c12
REMARK SMILES IDX 5 1 3 2 2 3 1 4 22 5 20 6 19 7 17 8 16 9 15 10 14 11 6 12
REMARK SMILES IDX 7 13 8 14 9 15 13 16 11 17 10 18 12 20 4 22 21 24 18 26
REMARK H PARENT 10 19 12 21 4 23 21 25 18 27
REMARK Flexibility Score: inf
ROOT
ATOM      1  C   UNL     1       7.880  -5.251 -29.534  1.00  0.00     0.180 A 
ATOM      2  C   UNL     1       8.903  -4.550 -30.202  1.00  0.00     0.208 A 
ATOM      3  C   UNL     1      10.185  -4.515 -29.630  1.00  0.00     0.238 A 
ATOM      4  O   UNL     1      11.112  -3.899 -30.223  1.00  0.00    -0.285 OA
ATOM      5  C   UNL     1      10.417  -5.160 -28.398  1.00  0.00     0.111 A 
ATOM      6  C   UNL     1      11.677  -5.168 -27.753  1.00  0.00     0.134 A 
ATOM      7  C   UNL     1      11.826  -5.825 -26.523  1.00  0.00     0.093 A 
ATOM      8  C   UNL     1      10.737  -6.473 -25.925  1.00  0.00     0.123 A 
ATOM      9  C   UNL     1       9.493  -6.468 -26.557  1.00  0.00     0.094 A 
ATOM     10  C   UNL     1       9.326  -5.820 -27.785  1.00  0.00     0.146 A 
ATOM     11  O   UNL     1       8.131  -5.835 -28.366  1.00  0.00    -0.452 OA
ENDROOT
BRANCH   1  12
ATOM     12  C   UNL     1       6.507  -5.350 -30.083  1.00  0.00     0.025 A 
ATOM     13  C   UNL     1       5.410  -5.093 -29.246  1.00  0.00     0.016 A 
ATOM     14  C   UNL     1       4.106  -5.201 -29.736  1.00  0.00     0.051 A 
ATOM     15  C   UNL     1       3.880  -5.582 -31.065  1.00  0.00     0.157 A 
ATOM     16  C   UNL     1       6.276  -5.752 -31.410  1.00  0.00     0.062 A 
ATOM     17  C   UNL     1       4.971  -5.864 -31.904  1.00  0.00     0.158 A 
BRANCH  15  18
ATOM     18  O   UNL     1       2.578  -5.687 -31.551  1.00  0.00    -0.504 OA
ATOM     19  H   UNL     1       1.914  -6.342 -31.155  1.00  0.00     0.293 HD
ENDBRANCH  15  18
BRANCH  17  20
ATOM     20  O   UNL     1       4.779  -6.260 -33.227  1.00  0.00    -0.504 OA
ATOM     21  H   UNL     1       3.866  -6.252 -33.664  1.00  0.00     0.293 HD
ENDBRANCH  17  20
ENDBRANCH   1  12
BRANCH   2  22
ATOM     22  O   UNL     1       8.635  -3.877 -31.396  1.00  0.00    -0.502 OA
ATOM     23  H   UNL     1       8.277  -4.351 -32.217  1.00  0.00     0.293 HD
ENDBRANCH   2  22
BRANCH   6  24
ATOM     24  O   UNL     1      12.780  -4.531 -28.324  1.00  0.00    -0.507 OA
ATOM     25  H   UNL     1      13.712  -4.925 -28.268  1.00  0.00     0.293 HD
ENDBRANCH   6  24
BRANCH   8  26
ATOM     26  O   UNL     1      10.883  -7.125 -24.704  1.00  0.00    -0.508 OA
ATOM     27  H   UNL     1      11.793  -7.413 -24.362  1.00  0.00     0.293 HD
ENDBRANCH   8  26
TORSDOF 6
ENDMDL
