MODEL 1
REMARK VINA RESULT:    -7.611      0.000      0.000
REMARK INTER + INTRA:          -8.479
REMARK INTER:                  -8.945
REMARK INTRA:                   0.466
REMARK UNBOUND:                 0.466
REMARK SMILES O=c1c(O)c(-c2ccc(O)cc2)oc2cc(O)cc(O)c12
REMARK SMILES IDX 5 1 3 2 2 3 1 4 21 5 19 6 18 7 16 8 15 9 14 10 13 11 6 12
REMARK SMILES IDX 7 13 8 14 9 15 12 16 11 17 10 18 4 20 20 22 17 24
REMARK H PARENT 10 19 4 21 20 23 17 25
REMARK Flexibility Score: inf
ROOT
ATOM      1  C   UNL     1      10.650  -2.701  19.296  1.00  0.00     0.180 A 
ATOM      2  C   UNL     1      11.969  -2.233  19.153  1.00  0.00     0.208 A 
ATOM      3  C   UNL     1      12.193  -0.853  19.024  1.00  0.00     0.238 A 
ATOM      4  O   UNL     1      13.369  -0.446  18.842  1.00  0.00    -0.285 OA
ATOM      5  C   UNL     1      11.098   0.044  19.058  1.00  0.00     0.111 A 
ATOM      6  C   UNL     1      11.211   1.465  18.977  1.00  0.00     0.134 A 
ATOM      7  C   UNL     1      10.052   2.245  18.888  1.00  0.00     0.093 A 
ATOM      8  C   UNL     1       8.786   1.665  18.943  1.00  0.00     0.123 A 
ATOM      9  C   UNL     1       8.663   0.282  19.082  1.00  0.00     0.094 A 
ATOM     10  C   UNL     1       9.800  -0.528  19.137  1.00  0.00     0.146 A 
ATOM     11  O   UNL     1       9.640  -1.840  19.258  1.00  0.00    -0.452 OA
ENDROOT
BRANCH   1  12
ATOM     12  C   UNL     1      10.338  -4.138  19.463  1.00  0.00     0.021 A 
ATOM     13  C   UNL     1       8.998  -4.561  19.447  1.00  0.00     0.016 A 
ATOM     14  C   UNL     1       8.679  -5.911  19.624  1.00  0.00     0.047 A 
ATOM     15  C   UNL     1       9.690  -6.851  19.836  1.00  0.00     0.115 A 
ATOM     16  C   UNL     1      11.350  -5.087  19.695  1.00  0.00     0.016 A 
ATOM     17  C   UNL     1      11.028  -6.435  19.874  1.00  0.00     0.047 A 
BRANCH  15  18
ATOM     18  O   UNL     1       9.357  -8.193  20.010  1.00  0.00    -0.508 OA
ATOM     19  H   UNL     1      10.065  -8.893  20.199  1.00  0.00     0.293 HD
ENDBRANCH  15  18
ENDBRANCH   1  12
BRANCH   2  20
ATOM     20  O   UNL     1      13.033  -3.138  19.101  1.00  0.00    -0.502 OA
ATOM     21  H   UNL     1      13.282  -3.637  18.256  1.00  0.00     0.293 HD
ENDBRANCH   2  20
BRANCH   6  22
ATOM     22  O   UNL     1      12.427   2.153  19.008  1.00  0.00    -0.507 OA
ATOM     23  H   UNL     1      13.334   1.721  18.929  1.00  0.00     0.293 HD
ENDBRANCH   6  22
BRANCH   8  24
ATOM     24  O   UNL     1       7.654   2.474  18.868  1.00  0.00    -0.508 OA
ATOM     25  H   UNL     1       7.352   3.037  19.655  1.00  0.00     0.293 HD
ENDBRANCH   8  24
TORSDOF 5
ENDMDL
MODEL 2
REMARK VINA RESULT:    -7.265      1.430      6.532
REMARK INTER + INTRA:          -8.073
REMARK INTER:                  -8.370
REMARK INTRA:                   0.296
REMARK UNBOUND:                 0.466
REMARK SMILES O=c1c(O)c(-c2ccc(O)cc2)oc2cc(O)cc(O)c12
REMARK SMILES IDX 5 1 3 2 2 3 1 4 21 5 19 6 18 7 16 8 15 9 14 10 13 11 6 12
REMARK SMILES IDX 7 13 8 14 9 15 12 16 11 17 10 18 4 20 20 22 17 24
REMARK H PARENT 10 19 4 21 20 23 17 25
REMARK Flexibility Score: inf
ROOT
ATOM      1  C   UNL     1       9.573  -1.540  19.390  1.00  0.00     0.180 A 
ATOM      2  C   UNL     1      10.915  -1.955  19.446  1.00  0.00     0.208 A 
ATOM      3  C   UNL     1      11.201  -3.323  19.582  1.00  0.00     0.238 A 
ATOM      4  O   UNL     1      12.402  -3.681  19.686  1.00  0.00    -0.285 OA
ATOM      5  C   UNL     1      10.142  -4.260  19.644  1.00  0.00     0.111 A 
ATOM      6  C   UNL     1      10.317  -5.674  19.741  1.00  0.00     0.134 A 
ATOM      7  C   UNL     1       9.198  -6.496  19.927  1.00  0.00     0.093 A 
ATOM      8  C   UNL     1       7.910  -5.965  19.954  1.00  0.00     0.123 A 
ATOM      9  C   UNL     1       7.724  -4.590  19.800  1.00  0.00     0.094 A 
ATOM     10  C   UNL     1       8.821  -3.740  19.649  1.00  0.00     0.146 A 
ATOM     11  O   UNL     1       8.602  -2.438  19.517  1.00  0.00    -0.452 OA
ENDROOT
BRANCH   1  12
ATOM     12  C   UNL     1       9.193  -0.119  19.222  1.00  0.00     0.021 A 
ATOM     13  C   UNL     1       8.039   0.206  18.489  1.00  0.00     0.016 A 
ATOM     14  C   UNL     1       7.675   1.543  18.298  1.00  0.00     0.047 A 
ATOM     15  C   UNL     1       8.464   2.570  18.823  1.00  0.00     0.115 A 
ATOM     16  C   UNL     1       9.994   0.919  19.731  1.00  0.00     0.016 A 
ATOM     17  C   UNL     1       9.627   2.254  19.538  1.00  0.00     0.047 A 
BRANCH  15  18
ATOM     18  O   UNL     1       8.088   3.896  18.626  1.00  0.00    -0.508 OA
ATOM     19  H   UNL     1       7.116   4.159  18.511  1.00  0.00     0.293 HD
ENDBRANCH  15  18
ENDBRANCH   1  12
BRANCH   2  20
ATOM     20  O   UNL     1      11.944  -1.010  19.405  1.00  0.00    -0.502 OA
ATOM     21  H   UNL     1      12.878  -1.208  19.742  1.00  0.00     0.293 HD
ENDBRANCH   2  20
BRANCH   6  22
ATOM     22  O   UNL     1      11.553  -6.317  19.633  1.00  0.00    -0.507 OA
ATOM     23  H   UNL     1      12.157  -6.534  20.411  1.00  0.00     0.293 HD
ENDBRANCH   6  22
BRANCH   8  24
ATOM     24  O   UNL     1       6.819  -6.815  20.125  1.00  0.00    -0.508 OA
ATOM     25  H   UNL     1       6.827  -7.764  19.772  1.00  0.00     0.293 HD
ENDBRANCH   8  24
TORSDOF 5
ENDMDL
MODEL 3
REMARK VINA RESULT:    -6.028      1.691      7.079
REMARK INTER + INTRA:          -6.618
REMARK INTER:                  -7.112
REMARK INTRA:                   0.494
REMARK UNBOUND:                 0.466
REMARK SMILES O=c1c(O)c(-c2ccc(O)cc2)oc2cc(O)cc(O)c12
REMARK SMILES IDX 5 1 3 2 2 3 1 4 21 5 19 6 18 7 16 8 15 9 14 10 13 11 6 12
REMARK SMILES IDX 7 13 8 14 9 15 12 16 11 17 10 18 4 20 20 22 17 24
REMARK H PARENT 10 19 4 21 20 23 17 25
REMARK Flexibility Score: inf
ROOT
ATOM      1  C   UNL     1      10.137  -1.652  19.846  1.00  0.00     0.180 A 
ATOM      2  C   UNL     1       8.736  -1.731  19.752  1.00  0.00     0.208 A 
ATOM      3  C   UNL     1       8.124  -2.994  19.734  1.00  0.00     0.238 A 
ATOM      4  O   UNL     1       6.876  -3.059  19.594  1.00  0.00    -0.285 OA
ATOM      5  C   UNL     1       8.918  -4.163  19.827  1.00  0.00     0.111 A 
ATOM      6  C   UNL     1       8.402  -5.493  19.859  1.00  0.00     0.134 A 
ATOM      7  C   UNL     1       9.287  -6.578  19.821  1.00  0.00     0.093 A 
ATOM      8  C   UNL     1      10.667  -6.382  19.819  1.00  0.00     0.123 A 
ATOM      9  C   UNL     1      11.183  -5.086  19.848  1.00  0.00     0.094 A 
ATOM     10  C   UNL     1      10.327  -3.983  19.850  1.00  0.00     0.146 A 
ATOM     11  O   UNL     1      10.858  -2.767  19.866  1.00  0.00    -0.452 OA
ENDROOT
BRANCH   1  12
ATOM     12  C   UNL     1      10.851  -0.357  19.897  1.00  0.00     0.021 A 
ATOM     13  C   UNL     1      12.256  -0.343  19.953  1.00  0.00     0.016 A 
ATOM     14  C   UNL     1      12.950   0.869  20.024  1.00  0.00     0.047 A 
ATOM     15  C   UNL     1      12.252   2.079  20.055  1.00  0.00     0.115 A 
ATOM     16  C   UNL     1      10.154   0.864  19.948  1.00  0.00     0.016 A 
ATOM     17  C   UNL     1      10.852   2.074  20.020  1.00  0.00     0.047 A 
BRANCH  15  18
ATOM     18  O   UNL     1      12.958   3.279  20.125  1.00  0.00    -0.508 OA
ATOM     19  H   UNL     1      12.558   4.103  20.557  1.00  0.00     0.293 HD
ENDBRANCH  15  18
ENDBRANCH   1  12
BRANCH   2  20
ATOM     20  O   UNL     1       7.974  -0.565  19.639  1.00  0.00    -0.502 OA
ATOM     21  H   UNL     1       7.086  -0.448  20.114  1.00  0.00     0.293 HD
ENDBRANCH   2  20
BRANCH   6  22
ATOM     22  O   UNL     1       7.042  -5.800  19.955  1.00  0.00    -0.507 OA
ATOM     23  H   UNL     1       6.471  -6.126  19.190  1.00  0.00     0.293 HD
ENDBRANCH   6  22
BRANCH   8  24
ATOM     24  O   UNL     1      11.517  -7.486  19.798  1.00  0.00    -0.508 OA
ATOM     25  H   UNL     1      12.505  -7.389  19.595  1.00  0.00     0.293 HD
ENDBRANCH   8  24
TORSDOF 5
ENDMDL
MODEL 4
REMARK VINA RESULT:    -4.778      2.296      6.901
REMARK INTER + INTRA:          -5.150
REMARK INTER:                  -5.616
REMARK INTRA:                   0.466
REMARK UNBOUND:                 0.466
REMARK SMILES O=c1c(O)c(-c2ccc(O)cc2)oc2cc(O)cc(O)c12
REMARK SMILES IDX 5 1 3 2 2 3 1 4 21 5 19 6 18 7 16 8 15 9 14 10 13 11 6 12
REMARK SMILES IDX 7 13 8 14 9 15 12 16 11 17 10 18 4 20 20 22 17 24
REMARK H PARENT 10 19 4 21 20 23 17 25
REMARK Flexibility Score: inf
ROOT
ATOM      1  C   UNL     1       9.116   0.155  19.604  1.00  0.00     0.180 A 
ATOM      2  C   UNL     1       8.471  -1.094  19.568  1.00  0.00     0.208 A 
ATOM      3  C   UNL     1       9.249  -2.260  19.483  1.00  0.00     0.238 A 
ATOM      4  O   UNL     1       8.664  -3.371  19.397  1.00  0.00    -0.285 OA
ATOM      5  C   UNL     1      10.661  -2.164  19.453  1.00  0.00     0.111 A 
ATOM      6  C   UNL     1      11.548  -3.282  19.409  1.00  0.00     0.134 A 
ATOM      7  C   UNL     1      12.923  -3.065  19.249  1.00  0.00     0.093 A 
ATOM      8  C   UNL     1      13.448  -1.775  19.199  1.00  0.00     0.123 A 
ATOM      9  C   UNL     1      12.596  -0.675  19.301  1.00  0.00     0.094 A 
ATOM     10  C   UNL     1      11.216  -0.857  19.424  1.00  0.00     0.146 A 
ATOM     11  O   UNL     1      10.439   0.215  19.508  1.00  0.00    -0.452 OA
ENDROOT
BRANCH   1  12
ATOM     12  C   UNL     1       8.365   1.426  19.719  1.00  0.00     0.021 A 
ATOM     13  C   UNL     1       9.052   2.648  19.608  1.00  0.00     0.016 A 
ATOM     14  C   UNL     1       8.367   3.859  19.735  1.00  0.00     0.047 A 
ATOM     15  C   UNL     1       6.993   3.868  19.990  1.00  0.00     0.115 A 
ATOM     16  C   UNL     1       6.986   1.441  19.994  1.00  0.00     0.016 A 
ATOM     17  C   UNL     1       6.304   2.655  20.122  1.00  0.00     0.047 A 
BRANCH  15  18
ATOM     18  O   UNL     1       6.323   5.083  20.113  1.00  0.00    -0.508 OA
ATOM     19  H   UNL     1       5.421   5.146  20.569  1.00  0.00     0.293 HD
ENDBRANCH  15  18
ENDBRANCH   1  12
BRANCH   2  20
ATOM     20  O   UNL     1       7.076  -1.164  19.578  1.00  0.00    -0.502 OA
ATOM     21  H   UNL     1       6.489  -0.345  19.470  1.00  0.00     0.293 HD
ENDBRANCH   2  20
BRANCH   6  22
ATOM     22  O   UNL     1      11.137  -4.610  19.544  1.00  0.00    -0.507 OA
ATOM     23  H   UNL     1      10.442  -4.933  20.199  1.00  0.00     0.293 HD
ENDBRANCH   6  22
BRANCH   8  24
ATOM     24  O   UNL     1      14.823  -1.598  19.056  1.00  0.00    -0.508 OA
ATOM     25  H   UNL     1      15.396  -2.273  18.564  1.00  0.00     0.293 HD
ENDBRANCH   8  24
TORSDOF 5
ENDMDL
