MODEL 1
REMARK VINA RESULT:    -5.001      0.000      0.000
REMARK INTER + INTRA:         -10.231
REMARK INTER:                  -9.094
REMARK INTRA:                  -1.137
REMARK UNBOUND:                -1.137
REMARK SMILES CCCCCCCCCCCCCCCC(=O)[O-]
REMARK SMILES IDX 9 1 10 2 11 3 12 4 13 5 14 6 15 7 16 8 17 9 18 10 8 11 7 12
REMARK SMILES IDX 6 13 5 14 4 15 3 16 2 17 1 18
REMARK H PARENT
REMARK Flexibility Score: inf
ROOT
ATOM      1  C   UNL     1       1.343  24.854  51.186  1.00  0.00     0.000 C 
ENDROOT
BRANCH   1   2
ATOM      2  C   UNL     1       1.906  25.272  49.810  1.00  0.00     0.000 C 
BRANCH   2   3
ATOM      3  C   UNL     1       1.366  24.429  48.642  1.00  0.00     0.000 C 
BRANCH   3   4
ATOM      4  C   UNL     1       1.729  25.018  47.269  1.00  0.00     0.000 C 
BRANCH   4   5
ATOM      5  C   UNL     1       1.223  24.153  46.103  1.00  0.00     0.000 C 
BRANCH   5   6
ATOM      6  C   UNL     1       2.323  23.840  45.077  1.00  0.00     0.006 C 
BRANCH   6   7
ATOM      7  C   UNL     1       2.484  22.327  44.893  1.00  0.00     0.053 C 
BRANCH   7   8
ATOM      8  C   UNL     1       2.118  21.926  43.499  1.00  0.00     0.041 C 
ATOM      9  O   UNL     1       1.255  21.030  43.304  1.00  0.00    -0.550 OA
ATOM     10  O   UNL     1       2.764  22.508  42.416  1.00  0.00    -0.550 OA
ENDBRANCH   7   8
ENDBRANCH   6   7
ENDBRANCH   5   6
ENDBRANCH   4   5
ENDBRANCH   3   4
ENDBRANCH   2   3
ENDBRANCH   1   2
BRANCH   1  11
ATOM     11  C   UNL     1       0.595  23.504  51.160  1.00  0.00     0.000 C 
BRANCH  11  12
ATOM     12  C   UNL     1       1.255  22.401  52.013  1.00  0.00    -0.000 C 
BRANCH  12  13
ATOM     13  C   UNL     1       2.366  21.618  51.281  1.00  0.00    -0.000 C 
BRANCH  13  14
ATOM     14  C   UNL     1       3.669  21.485  52.098  1.00  0.00    -0.000 C 
BRANCH  14  15
ATOM     15  C   UNL     1       4.488  22.785  52.166  1.00  0.00    -0.000 C 
BRANCH  15  16
ATOM     16  C   UNL     1       5.297  23.044  50.884  1.00  0.00    -0.000 C 
BRANCH  16  17
ATOM     17  C   UNL     1       6.535  23.916  51.135  1.00  0.00    -0.003 C 
ATOM     18  C   UNL     1       6.334  25.367  50.697  1.00  0.00     0.004 C 
ENDBRANCH  16  17
ENDBRANCH  15  16
ENDBRANCH  14  15
ENDBRANCH  13  14
ENDBRANCH  12  13
ENDBRANCH  11  12
ENDBRANCH   1  11
TORSDOF 14
ENDMDL
MODEL 2
REMARK VINA RESULT:    -4.912      3.396      7.243
REMARK INTER + INTRA:         -10.068
REMARK INTER:                  -9.050
REMARK INTRA:                  -1.019
REMARK UNBOUND:                -1.137
REMARK SMILES CCCCCCCCCCCCCCCC(=O)[O-]
REMARK SMILES IDX 9 1 10 2 11 3 12 4 13 5 14 6 15 7 16 8 17 9 18 10 8 11 7 12
REMARK SMILES IDX 6 13 5 14 4 15 3 16 2 17 1 18
REMARK H PARENT
REMARK Flexibility Score: inf
ROOT
ATOM      1  C   UNL     1       1.416  25.661  48.915  1.00  0.00     0.000 C 
ENDROOT
BRANCH   1   2
ATOM      2  C   UNL     1       2.385  24.991  49.915  1.00  0.00     0.000 C 
BRANCH   2   3
ATOM      3  C   UNL     1       1.999  25.209  51.387  1.00  0.00     0.000 C 
BRANCH   3   4
ATOM      4  C   UNL     1       0.816  24.330  51.826  1.00  0.00     0.000 C 
BRANCH   4   5
ATOM      5  C   UNL     1       0.995  22.856  51.427  1.00  0.00     0.000 C 
BRANCH   5   6
ATOM      6  C   UNL     1       1.802  22.056  52.461  1.00  0.00     0.006 C 
BRANCH   6   7
ATOM      7  C   UNL     1       3.054  21.445  51.823  1.00  0.00     0.053 C 
BRANCH   7   8
ATOM      8  C   UNL     1       4.252  22.298  52.097  1.00  0.00     0.041 C 
ATOM      9  O   UNL     1       4.524  22.649  53.275  1.00  0.00    -0.550 OA
ATOM     10  O   UNL     1       5.042  22.745  51.045  1.00  0.00    -0.550 OA
ENDBRANCH   7   8
ENDBRANCH   6   7
ENDBRANCH   5   6
ENDBRANCH   4   5
ENDBRANCH   3   4
ENDBRANCH   2   3
ENDBRANCH   1   2
BRANCH   1  11
ATOM     11  C   UNL     1       1.804  25.435  47.439  1.00  0.00     0.000 C 
BRANCH  11  12
ATOM     12  C   UNL     1       0.910  24.417  46.701  1.00  0.00    -0.000 C 
BRANCH  12  13
ATOM     13  C   UNL     1       1.456  23.980  45.325  1.00  0.00    -0.000 C 
BRANCH  13  14
ATOM     14  C   UNL     1       2.438  22.791  45.399  1.00  0.00    -0.000 C 
BRANCH  14  15
ATOM     15  C   UNL     1       3.517  22.816  44.303  1.00  0.00    -0.000 C 
BRANCH  15  16
ATOM     16  C   UNL     1       2.924  22.793  42.886  1.00  0.00    -0.000 C 
BRANCH  16  17
ATOM     17  C   UNL     1       2.118  21.516  42.605  1.00  0.00    -0.003 C 
ATOM     18  C   UNL     1       2.088  21.150  41.121  1.00  0.00     0.004 C 
ENDBRANCH  16  17
ENDBRANCH  15  16
ENDBRANCH  14  15
ENDBRANCH  13  14
ENDBRANCH  12  13
ENDBRANCH  11  12
ENDBRANCH   1  11
TORSDOF 14
ENDMDL
MODEL 3
REMARK VINA RESULT:    -4.839      3.411      6.994
REMARK INTER + INTRA:          -9.936
REMARK INTER:                  -8.881
REMARK INTRA:                  -1.055
REMARK UNBOUND:                -1.137
REMARK SMILES CCCCCCCCCCCCCCCC(=O)[O-]
REMARK SMILES IDX 9 1 10 2 11 3 12 4 13 5 14 6 15 7 16 8 17 9 18 10 8 11 7 12
REMARK SMILES IDX 6 13 5 14 4 15 3 16 2 17 1 18
REMARK H PARENT
REMARK Flexibility Score: inf
ROOT
ATOM      1  C   UNL     1       0.865  23.895  50.974  1.00  0.00     0.000 C 
ENDROOT
BRANCH   1   2
ATOM      2  C   UNL     1       1.231  22.621  51.767  1.00  0.00     0.000 C 
BRANCH   2   3
ATOM      3  C   UNL     1       2.275  21.738  51.063  1.00  0.00     0.000 C 
BRANCH   3   4
ATOM      4  C   UNL     1       3.529  21.502  51.923  1.00  0.00     0.000 C 
BRANCH   4   5
ATOM      5  C   UNL     1       3.695  22.557  53.028  1.00  0.00     0.000 C 
BRANCH   5   6
ATOM      6  C   UNL     1       4.678  23.671  52.640  1.00  0.00     0.006 C 
BRANCH   6   7
ATOM      7  C   UNL     1       5.570  23.232  51.474  1.00  0.00     0.053 C 
BRANCH   7   8
ATOM      8  C   UNL     1       6.635  24.251  51.215  1.00  0.00     0.041 C 
ATOM      9  O   UNL     1       7.764  24.140  51.761  1.00  0.00    -0.550 OA
ATOM     10  O   UNL     1       6.365  25.348  50.407  1.00  0.00    -0.550 OA
ENDBRANCH   7   8
ENDBRANCH   6   7
ENDBRANCH   5   6
ENDBRANCH   4   5
ENDBRANCH   3   4
ENDBRANCH   2   3
ENDBRANCH   1   2
BRANCH   1  11
ATOM     11  C   UNL     1       1.656  24.049  49.658  1.00  0.00     0.000 C 
BRANCH  11  12
ATOM     12  C   UNL     1       1.574  25.457  49.033  1.00  0.00    -0.000 C 
BRANCH  12  13
ATOM     13  C   UNL     1       1.742  25.476  47.499  1.00  0.00    -0.000 C 
BRANCH  13  14
ATOM     14  C   UNL     1       1.228  24.196  46.805  1.00  0.00    -0.000 C 
BRANCH  14  15
ATOM     15  C   UNL     1       1.700  24.055  45.348  1.00  0.00    -0.000 C 
BRANCH  15  16
ATOM     16  C   UNL     1       2.418  22.722  45.083  1.00  0.00    -0.000 C 
BRANCH  16  17
ATOM     17  C   UNL     1       3.167  22.713  43.743  1.00  0.00    -0.003 C 
ATOM     18  C   UNL     1       2.436  21.916  42.662  1.00  0.00     0.004 C 
ENDBRANCH  16  17
ENDBRANCH  15  16
ENDBRANCH  14  15
ENDBRANCH  13  14
ENDBRANCH  12  13
ENDBRANCH  11  12
ENDBRANCH   1  11
TORSDOF 14
ENDMDL
MODEL 4
REMARK VINA RESULT:    -4.718      0.881      1.706
REMARK INTER + INTRA:          -9.716
REMARK INTER:                  -8.368
REMARK INTRA:                  -1.348
REMARK UNBOUND:                -1.137
REMARK SMILES CCCCCCCCCCCCCCCC(=O)[O-]
REMARK SMILES IDX 9 1 10 2 11 3 12 4 13 5 14 6 15 7 16 8 17 9 18 10 8 11 7 12
REMARK SMILES IDX 6 13 5 14 4 15 3 16 2 17 1 18
REMARK H PARENT
REMARK Flexibility Score: inf
ROOT
ATOM      1  C   UNL     1       2.295  25.555  49.631  1.00  0.00     0.000 C 
ENDROOT
BRANCH   1   2
ATOM      2  C   UNL     1       2.019  24.337  48.721  1.00  0.00     0.000 C 
BRANCH   2   3
ATOM      3  C   UNL     1       1.068  24.646  47.552  1.00  0.00     0.000 C 
BRANCH   3   4
ATOM      4  C   UNL     1       1.495  23.959  46.244  1.00  0.00     0.000 C 
BRANCH   4   5
ATOM      5  C   UNL     1       2.363  24.864  45.356  1.00  0.00     0.000 C 
BRANCH   5   6
ATOM      6  C   UNL     1       2.933  24.127  44.135  1.00  0.00     0.006 C 
BRANCH   6   7
ATOM      7  C   UNL     1       2.859  22.609  44.330  1.00  0.00     0.053 C 
BRANCH   7   8
ATOM      8  C   UNL     1       2.285  21.951  43.115  1.00  0.00     0.041 C 
ATOM      9  O   UNL     1       2.677  22.287  41.967  1.00  0.00    -0.550 OA
ATOM     10  O   UNL     1       1.282  20.999  43.248  1.00  0.00    -0.550 OA
ENDBRANCH   7   8
ENDBRANCH   6   7
ENDBRANCH   5   6
ENDBRANCH   4   5
ENDBRANCH   3   4
ENDBRANCH   2   3
ENDBRANCH   1   2
BRANCH   1  11
ATOM     11  C   UNL     1       1.448  25.563  50.921  1.00  0.00     0.000 C 
BRANCH  11  12
ATOM     12  C   UNL     1       0.887  24.181  51.315  1.00  0.00    -0.000 C 
BRANCH  12  13
ATOM     13  C   UNL     1       1.803  23.376  52.261  1.00  0.00    -0.000 C 
BRANCH  13  14
ATOM     14  C   UNL     1       2.349  22.075  51.632  1.00  0.00    -0.000 C 
BRANCH  14  15
ATOM     15  C   UNL     1       3.847  21.845  51.900  1.00  0.00    -0.000 C 
BRANCH  15  16
ATOM     16  C   UNL     1       4.748  22.595  50.907  1.00  0.00    -0.000 C 
BRANCH  16  17
ATOM     17  C   UNL     1       5.728  23.549  51.606  1.00  0.00    -0.003 C 
ATOM     18  C   UNL     1       5.508  23.618  53.118  1.00  0.00     0.004 C 
ENDBRANCH  16  17
ENDBRANCH  15  16
ENDBRANCH  14  15
ENDBRANCH  13  14
ENDBRANCH  12  13
ENDBRANCH  11  12
ENDBRANCH   1  11
TORSDOF 14
ENDMDL
MODEL 5
REMARK VINA RESULT:    -4.709      4.677      8.161
REMARK INTER + INTRA:          -9.700
REMARK INTER:                  -8.789
REMARK INTRA:                  -0.911
REMARK UNBOUND:                -1.137
REMARK SMILES CCCCCCCCCCCCCCCC(=O)[O-]
REMARK SMILES IDX 9 1 10 2 11 3 12 4 13 5 14 6 15 7 16 8 17 9 18 10 8 11 7 12
REMARK SMILES IDX 6 13 5 14 4 15 3 16 2 17 1 18
REMARK H PARENT
REMARK Flexibility Score: inf
ROOT
ATOM      1  C   UNL     1       1.980  24.534  50.317  1.00  0.00     0.000 C 
ENDROOT
BRANCH   1   2
ATOM      2  C   UNL     1       0.880  23.978  51.248  1.00  0.00     0.000 C 
BRANCH   2   3
ATOM      3  C   UNL     1       1.069  22.494  51.606  1.00  0.00     0.000 C 
BRANCH   3   4
ATOM      4  C   UNL     1       2.436  21.946  51.162  1.00  0.00     0.000 C 
BRANCH   4   5
ATOM      5  C   UNL     1       3.190  21.244  52.303  1.00  0.00     0.000 C 
BRANCH   5   6
ATOM      6  C   UNL     1       4.091  22.202  53.097  1.00  0.00     0.006 C 
BRANCH   6   7
ATOM      7  C   UNL     1       3.459  22.553  54.448  1.00  0.00     0.053 C 
BRANCH   7   8
ATOM      8  C   UNL     1       4.470  22.438  55.545  1.00  0.00     0.041 C 
ATOM      9  O   UNL     1       4.151  21.926  56.650  1.00  0.00    -0.550 OA
ATOM     10  O   UNL     1       5.752  22.941  55.364  1.00  0.00    -0.550 OA
ENDBRANCH   7   8
ENDBRANCH   6   7
ENDBRANCH   5   6
ENDBRANCH   4   5
ENDBRANCH   3   4
ENDBRANCH   2   3
ENDBRANCH   1   2
BRANCH   1  11
ATOM     11  C   UNL     1       1.435  25.079  48.980  1.00  0.00     0.000 C 
BRANCH  11  12
ATOM     12  C   UNL     1       1.748  24.187  47.761  1.00  0.00    -0.000 C 
BRANCH  12  13
ATOM     13  C   UNL     1       0.953  24.554  46.490  1.00  0.00    -0.000 C 
BRANCH  13  14
ATOM     14  C   UNL     1       1.264  23.644  45.282  1.00  0.00    -0.000 C 
BRANCH  14  15
ATOM     15  C   UNL     1       2.765  23.538  44.963  1.00  0.00    -0.000 C 
BRANCH  15  16
ATOM     16  C   UNL     1       3.060  22.562  43.813  1.00  0.00    -0.000 C 
BRANCH  16  17
ATOM     17  C   UNL     1       1.917  21.563  43.582  1.00  0.00    -0.003 C 
ATOM     18  C   UNL     1       1.703  21.241  42.103  1.00  0.00     0.004 C 
ENDBRANCH  16  17
ENDBRANCH  15  16
ENDBRANCH  14  15
ENDBRANCH  13  14
ENDBRANCH  12  13
ENDBRANCH  11  12
ENDBRANCH   1  11
TORSDOF 14
ENDMDL
MODEL 6
REMARK VINA RESULT:    -4.676      1.724      2.469
REMARK INTER + INTRA:          -9.640
REMARK INTER:                  -8.426
REMARK INTRA:                  -1.214
REMARK UNBOUND:                -1.137
REMARK SMILES CCCCCCCCCCCCCCCC(=O)[O-]
REMARK SMILES IDX 9 1 10 2 11 3 12 4 13 5 14 6 15 7 16 8 17 9 18 10 8 11 7 12
REMARK SMILES IDX 6 13 5 14 4 15 3 16 2 17 1 18
REMARK H PARENT
REMARK Flexibility Score: inf
ROOT
ATOM      1  C   UNL     1       1.831  24.347  48.423  1.00  0.00     0.000 C 
ENDROOT
BRANCH   1   2
ATOM      2  C   UNL     1       0.855  24.750  47.295  1.00  0.00     0.000 C 
BRANCH   2   3
ATOM      3  C   UNL     1       1.228  24.168  45.921  1.00  0.00     0.000 C 
BRANCH   3   4
ATOM      4  C   UNL     1       2.312  23.081  46.012  1.00  0.00     0.000 C 
BRANCH   4   5
ATOM      5  C   UNL     1       2.472  22.294  44.701  1.00  0.00     0.000 C 
BRANCH   5   6
ATOM      6  C   UNL     1       3.653  22.788  43.853  1.00  0.00     0.006 C 
BRANCH   6   7
ATOM      7  C   UNL     1       3.162  23.418  42.545  1.00  0.00     0.053 C 
BRANCH   7   8
ATOM      8  C   UNL     1       3.567  24.856  42.471  1.00  0.00     0.041 C 
ATOM      9  O   UNL     1       2.932  25.727  43.122  1.00  0.00    -0.550 OA
ATOM     10  O   UNL     1       4.615  25.242  41.645  1.00  0.00    -0.550 OA
ENDBRANCH   7   8
ENDBRANCH   6   7
ENDBRANCH   5   6
ENDBRANCH   4   5
ENDBRANCH   3   4
ENDBRANCH   2   3
ENDBRANCH   1   2
BRANCH   1  11
ATOM     11  C   UNL     1       1.254  24.558  49.839  1.00  0.00     0.000 C 
BRANCH  11  12
ATOM     12  C   UNL     1       1.883  23.650  50.916  1.00  0.00    -0.000 C 
BRANCH  12  13
ATOM     13  C   UNL     1       2.708  22.476  50.349  1.00  0.00    -0.000 C 
BRANCH  13  14
ATOM     14  C   UNL     1       3.996  22.183  51.149  1.00  0.00    -0.000 C 
BRANCH  14  15
ATOM     15  C   UNL     1       4.629  23.437  51.777  1.00  0.00    -0.000 C 
BRANCH  15  16
ATOM     16  C   UNL     1       6.121  23.580  51.439  1.00  0.00    -0.000 C 
BRANCH  16  17
ATOM     17  C   UNL     1       6.491  25.004  50.999  1.00  0.00    -0.003 C 
ATOM     18  C   UNL     1       5.276  25.821  50.559  1.00  0.00     0.004 C 
ENDBRANCH  16  17
ENDBRANCH  15  16
ENDBRANCH  14  15
ENDBRANCH  13  14
ENDBRANCH  12  13
ENDBRANCH  11  12
ENDBRANCH   1  11
TORSDOF 14
ENDMDL
MODEL 7
REMARK VINA RESULT:    -4.646      3.617      6.973
REMARK INTER + INTRA:          -9.586
REMARK INTER:                  -8.418
REMARK INTRA:                  -1.167
REMARK UNBOUND:                -1.137
REMARK SMILES CCCCCCCCCCCCCCCC(=O)[O-]
REMARK SMILES IDX 9 1 10 2 11 3 12 4 13 5 14 6 15 7 16 8 17 9 18 10 8 11 7 12
REMARK SMILES IDX 6 13 5 14 4 15 3 16 2 17 1 18
REMARK H PARENT
REMARK Flexibility Score: inf
ROOT
ATOM      1  C   UNL     1       0.872  24.787  47.120  1.00  0.00     0.000 C 
ENDROOT
BRANCH   1   2
ATOM      2  C   UNL     1       1.665  24.177  48.296  1.00  0.00     0.000 C 
BRANCH   2   3
ATOM      3  C   UNL     1       2.148  25.219  49.320  1.00  0.00     0.000 C 
BRANCH   3   4
ATOM      4  C   UNL     1       2.257  24.646  50.743  1.00  0.00     0.000 C 
BRANCH   4   5
ATOM      5  C   UNL     1       1.824  23.173  50.822  1.00  0.00     0.000 C 
BRANCH   5   6
ATOM      6  C   UNL     1       3.016  22.205  50.850  1.00  0.00     0.006 C 
BRANCH   6   7
ATOM      7  C   UNL     1       3.807  22.350  52.154  1.00  0.00     0.053 C 
BRANCH   7   8
ATOM      8  C   UNL     1       5.108  23.045  51.905  1.00  0.00     0.041 C 
ATOM      9  O   UNL     1       5.643  23.733  52.813  1.00  0.00    -0.550 OA
ATOM     10  O   UNL     1       5.707  22.971  50.654  1.00  0.00    -0.550 OA
ENDBRANCH   7   8
ENDBRANCH   6   7
ENDBRANCH   5   6
ENDBRANCH   4   5
ENDBRANCH   3   4
ENDBRANCH   2   3
ENDBRANCH   1   2
BRANCH   1  11
ATOM     11  C   UNL     1       1.142  24.091  45.770  1.00  0.00     0.000 C 
BRANCH  11  12
ATOM     12  C   UNL     1       2.339  23.118  45.791  1.00  0.00    -0.000 C 
BRANCH  12  13
ATOM     13  C   UNL     1       2.325  22.076  44.652  1.00  0.00    -0.000 C 
BRANCH  13  14
ATOM     14  C   UNL     1       2.607  22.680  43.259  1.00  0.00    -0.000 C 
BRANCH  14  15
ATOM     15  C   UNL     1       3.808  23.641  43.238  1.00  0.00    -0.000 C 
BRANCH  15  16
ATOM     16  C   UNL     1       3.399  25.094  42.948  1.00  0.00    -0.000 C 
BRANCH  16  17
ATOM     17  C   UNL     1       4.319  26.114  43.635  1.00  0.00    -0.003 C 
ATOM     18  C   UNL     1       3.875  26.443  45.060  1.00  0.00     0.004 C 
ENDBRANCH  16  17
ENDBRANCH  15  16
ENDBRANCH  14  15
ENDBRANCH  13  14
ENDBRANCH  12  13
ENDBRANCH  11  12
ENDBRANCH   1  11
TORSDOF 14
ENDMDL
MODEL 8
REMARK VINA RESULT:    -4.594      4.835      7.132
REMARK INTER + INTRA:          -9.491
REMARK INTER:                  -7.387
REMARK INTRA:                  -2.104
REMARK UNBOUND:                -1.137
REMARK SMILES CCCCCCCCCCCCCCCC(=O)[O-]
REMARK SMILES IDX 9 1 10 2 11 3 12 4 13 5 14 6 15 7 16 8 17 9 18 10 8 11 7 12
REMARK SMILES IDX 6 13 5 14 4 15 3 16 2 17 1 18
REMARK H PARENT
REMARK Flexibility Score: inf
ROOT
ATOM      1  C   UNL     1       0.112  23.968  53.018  1.00  0.00     0.000 C 
ENDROOT
BRANCH   1   2
ATOM      2  C   UNL     1       0.266  23.061  51.777  1.00  0.00     0.000 C 
BRANCH   2   3
ATOM      3  C   UNL     1       1.467  23.431  50.890  1.00  0.00     0.000 C 
BRANCH   3   4
ATOM      4  C   UNL     1       2.429  22.252  50.672  1.00  0.00     0.000 C 
BRANCH   4   5
ATOM      5  C   UNL     1       2.748  21.500  51.974  1.00  0.00     0.000 C 
BRANCH   5   6
ATOM      6  C   UNL     1       4.052  21.978  52.630  1.00  0.00     0.006 C 
BRANCH   6   7
ATOM      7  C   UNL     1       4.981  22.621  51.595  1.00  0.00     0.053 C 
BRANCH   7   8
ATOM      8  C   UNL     1       5.605  23.863  52.149  1.00  0.00     0.041 C 
ATOM      9  O   UNL     1       4.880  24.803  52.569  1.00  0.00    -0.550 OA
ATOM     10  O   UNL     1       6.987  24.001  52.160  1.00  0.00    -0.550 OA
ENDBRANCH   7   8
ENDBRANCH   6   7
ENDBRANCH   5   6
ENDBRANCH   4   5
ENDBRANCH   3   4
ENDBRANCH   2   3
ENDBRANCH   1   2
BRANCH   1  11
ATOM     11  C   UNL     1       1.426  24.657  53.442  1.00  0.00     0.000 C 
BRANCH  11  12
ATOM     12  C   UNL     1       1.679  24.650  54.964  1.00  0.00    -0.000 C 
BRANCH  12  13
ATOM     13  C   UNL     1       2.022  23.259  55.539  1.00  0.00    -0.000 C 
BRANCH  13  14
ATOM     14  C   UNL     1       0.844  22.591  56.282  1.00  0.00    -0.000 C 
BRANCH  14  15
ATOM     15  C   UNL     1       0.182  23.502  57.329  1.00  0.00    -0.000 C 
BRANCH  15  16
ATOM     16  C   UNL     1      -1.349  23.367  57.350  1.00  0.00    -0.000 C 
BRANCH  16  17
ATOM     17  C   UNL     1      -2.013  24.012  56.125  1.00  0.00    -0.003 C 
ATOM     18  C   UNL     1      -1.872  25.534  56.108  1.00  0.00     0.004 C 
ENDBRANCH  16  17
ENDBRANCH  15  16
ENDBRANCH  14  15
ENDBRANCH  13  14
ENDBRANCH  12  13
ENDBRANCH  11  12
ENDBRANCH   1  11
TORSDOF 14
ENDMDL
MODEL 9
REMARK VINA RESULT:    -4.575      5.584      8.220
REMARK INTER + INTRA:          -9.456
REMARK INTER:                  -7.557
REMARK INTRA:                  -1.899
REMARK UNBOUND:                -1.137
REMARK SMILES CCCCCCCCCCCCCCCC(=O)[O-]
REMARK SMILES IDX 9 1 10 2 11 3 12 4 13 5 14 6 15 7 16 8 17 9 18 10 8 11 7 12
REMARK SMILES IDX 6 13 5 14 4 15 3 16 2 17 1 18
REMARK H PARENT
REMARK Flexibility Score: inf
ROOT
ATOM      1  C   UNL     1       0.908  25.042  52.637  1.00  0.00     0.000 C 
ENDROOT
BRANCH   1   2
ATOM      2  C   UNL     1       1.110  24.834  54.154  1.00  0.00     0.000 C 
BRANCH   2   3
ATOM      3  C   UNL     1       0.870  23.387  54.615  1.00  0.00     0.000 C 
BRANCH   3   4
ATOM      4  C   UNL     1       1.628  23.042  55.908  1.00  0.00     0.000 C 
BRANCH   4   5
ATOM      5  C   UNL     1       0.688  22.642  57.056  1.00  0.00     0.000 C 
BRANCH   5   6
ATOM      6  C   UNL     1      -0.167  23.816  57.558  1.00  0.00     0.006 C 
BRANCH   6   7
ATOM      7  C   UNL     1      -1.644  23.605  57.208  1.00  0.00     0.053 C 
BRANCH   7   8
ATOM      8  C   UNL     1      -2.154  24.742  56.380  1.00  0.00     0.041 C 
ATOM      9  O   UNL     1      -2.331  25.874  56.900  1.00  0.00    -0.550 OA
ATOM     10  O   UNL     1      -2.478  24.538  55.045  1.00  0.00    -0.550 OA
ENDBRANCH   7   8
ENDBRANCH   6   7
ENDBRANCH   5   6
ENDBRANCH   4   5
ENDBRANCH   3   4
ENDBRANCH   2   3
ENDBRANCH   1   2
BRANCH   1  11
ATOM     11  C   UNL     1       0.688  23.725  51.861  1.00  0.00     0.000 C 
BRANCH  11  12
ATOM     12  C   UNL     1       1.588  23.568  50.618  1.00  0.00    -0.000 C 
BRANCH  12  13
ATOM     13  C   UNL     1       2.481  22.310  50.642  1.00  0.00    -0.000 C 
BRANCH  13  14
ATOM     14  C   UNL     1       2.559  21.634  52.028  1.00  0.00    -0.000 C 
BRANCH  14  15
ATOM     15  C   UNL     1       3.926  21.794  52.715  1.00  0.00    -0.000 C 
BRANCH  15  16
ATOM     16  C   UNL     1       4.304  23.266  52.945  1.00  0.00    -0.000 C 
BRANCH  16  17
ATOM     17  C   UNL     1       5.759  23.568  52.556  1.00  0.00    -0.003 C 
ATOM     18  C   UNL     1       5.997  23.486  51.048  1.00  0.00     0.004 C 
ENDBRANCH  16  17
ENDBRANCH  15  16
ENDBRANCH  14  15
ENDBRANCH  13  14
ENDBRANCH  12  13
ENDBRANCH  11  12
ENDBRANCH   1  11
TORSDOF 14
ENDMDL
