MODEL 1
REMARK VINA RESULT:    -3.563      0.000      0.000
REMARK INTER + INTRA:         -11.729
REMARK INTER:                  -8.146
REMARK INTRA:                  -3.584
REMARK UNBOUND:                -3.584
REMARK SMILES CCCCCCCCCCCCCCCCCCCCCCCC(=O)[O-]
REMARK SMILES IDX 13 1 14 2 15 3 16 4 17 5 18 6 19 7 20 8 21 9 22 10 23 11
REMARK SMILES IDX 24 12 25 13 26 14 12 15 11 16 10 17 9 18 8 19 7 20 6 21 5 22
REMARK SMILES IDX 4 23 3 24 2 25 1 26
REMARK H PARENT
REMARK Flexibility Score: inf
ROOT
ATOM      1  C   UNL     1     -31.753   3.097 -38.350  1.00  0.00     0.000 C 
ENDROOT
BRANCH   1   2
ATOM      2  C   UNL     1     -31.124   2.948 -39.744  1.00  0.00     0.000 C 
BRANCH   2   3
ATOM      3  C   UNL     1     -29.688   3.493 -39.813  1.00  0.00     0.000 C 
BRANCH   3   4
ATOM      4  C   UNL     1     -29.607   5.031 -39.914  1.00  0.00     0.000 C 
BRANCH   4   5
ATOM      5  C   UNL     1     -28.999   5.662 -38.649  1.00  0.00     0.000 C 
BRANCH   5   6
ATOM      6  C   UNL     1     -28.016   4.725 -37.932  1.00  0.00     0.000 C 
BRANCH   6   7
ATOM      7  C   UNL     1     -26.942   5.488 -37.142  1.00  0.00     0.000 C 
BRANCH   7   8
ATOM      8  C   UNL     1     -26.400   4.639 -35.986  1.00  0.00     0.000 C 
BRANCH   8   9
ATOM      9  C   UNL     1     -26.348   5.451 -34.683  1.00  0.00     0.000 C 
BRANCH   9  10
ATOM     10  C   UNL     1     -25.643   4.708 -33.533  1.00  0.00     0.006 C 
BRANCH  10  11
ATOM     11  C   UNL     1     -24.404   5.437 -32.985  1.00  0.00     0.053 C 
BRANCH  11  12
ATOM     12  C   UNL     1     -24.336   5.410 -31.487  1.00  0.00     0.041 C 
ATOM     13  O   UNL     1     -24.610   4.352 -30.860  1.00  0.00    -0.550 OA
ATOM     14  O   UNL     1     -24.009   6.560 -30.781  1.00  0.00    -0.550 OA
ENDBRANCH  11  12
ENDBRANCH  10  11
ENDBRANCH   9  10
ENDBRANCH   8   9
ENDBRANCH   7   8
ENDBRANCH   6   7
ENDBRANCH   5   6
ENDBRANCH   4   5
ENDBRANCH   3   4
ENDBRANCH   2   3
ENDBRANCH   1   2
BRANCH   1  15
ATOM     15  C   UNL     1     -33.087   2.342 -38.208  1.00  0.00     0.000 C 
BRANCH  15  16
ATOM     16  C   UNL     1     -33.138   0.963 -38.895  1.00  0.00     0.000 C 
BRANCH  16  17
ATOM     17  C   UNL     1     -32.398  -0.128 -38.109  1.00  0.00     0.000 C 
BRANCH  17  18
ATOM     18  C   UNL     1     -31.182  -0.644 -38.894  1.00  0.00    -0.000 C 
BRANCH  18  19
ATOM     19  C   UNL     1     -29.845  -0.248 -38.247  1.00  0.00    -0.000 C 
BRANCH  19  20
ATOM     20  C   UNL     1     -29.958   0.281 -36.804  1.00  0.00    -0.000 C 
BRANCH  20  21
ATOM     21  C   UNL     1     -29.019   1.469 -36.503  1.00  0.00    -0.000 C 
BRANCH  21  22
ATOM     22  C   UNL     1     -28.706   1.600 -35.003  1.00  0.00    -0.000 C 
BRANCH  22  23
ATOM     23  C   UNL     1     -29.181   2.937 -34.405  1.00  0.00    -0.000 C 
BRANCH  23  24
ATOM     24  C   UNL     1     -30.216   3.703 -35.255  1.00  0.00    -0.000 C 
BRANCH  24  25
ATOM     25  C   UNL     1     -31.633   3.758 -34.657  1.00  0.00    -0.003 C 
ATOM     26  C   UNL     1     -31.661   3.462 -33.158  1.00  0.00     0.004 C 
ENDBRANCH  24  25
ENDBRANCH  23  24
ENDBRANCH  22  23
ENDBRANCH  21  22
ENDBRANCH  20  21
ENDBRANCH  19  20
ENDBRANCH  18  19
ENDBRANCH  17  18
ENDBRANCH  16  17
ENDBRANCH  15  16
ENDBRANCH   1  15
TORSDOF 22
ENDMDL
MODEL 2
REMARK VINA RESULT:    -3.428      2.086      3.421
REMARK INTER + INTRA:         -11.421
REMARK INTER:                  -7.116
REMARK INTRA:                  -4.305
REMARK UNBOUND:                -3.584
REMARK SMILES CCCCCCCCCCCCCCCCCCCCCCCC(=O)[O-]
REMARK SMILES IDX 13 1 14 2 15 3 16 4 17 5 18 6 19 7 20 8 21 9 22 10 23 11
REMARK SMILES IDX 24 12 25 13 26 14 12 15 11 16 10 17 9 18 8 19 7 20 6 21 5 22
REMARK SMILES IDX 4 23 3 24 2 25 1 26
REMARK H PARENT
REMARK Flexibility Score: inf
ROOT
ATOM      1  C   UNL     1     -32.806   2.236 -39.356  1.00  0.00     0.000 C 
ENDROOT
BRANCH   1   2
ATOM      2  C   UNL     1     -32.983   3.461 -38.445  1.00  0.00     0.000 C 
BRANCH   2   3
ATOM      3  C   UNL     1     -32.592   3.181 -36.984  1.00  0.00     0.000 C 
BRANCH   3   4
ATOM      4  C   UNL     1     -31.451   4.079 -36.460  1.00  0.00     0.000 C 
BRANCH   4   5
ATOM      5  C   UNL     1     -30.068   3.436 -36.670  1.00  0.00     0.000 C 
BRANCH   5   6
ATOM      6  C   UNL     1     -29.218   4.180 -37.710  1.00  0.00     0.000 C 
BRANCH   6   7
ATOM      7  C   UNL     1     -28.000   3.365 -38.170  1.00  0.00     0.000 C 
BRANCH   7   8
ATOM      8  C   UNL     1     -27.663   2.261 -37.161  1.00  0.00     0.000 C 
BRANCH   8   9
ATOM      9  C   UNL     1     -26.145   2.144 -36.959  1.00  0.00     0.000 C 
BRANCH   9  10
ATOM     10  C   UNL     1     -25.507   3.428 -36.398  1.00  0.00     0.006 C 
BRANCH  10  11
ATOM     11  C   UNL     1     -25.492   3.498 -34.861  1.00  0.00     0.053 C 
BRANCH  11  12
ATOM     12  C   UNL     1     -25.861   4.855 -34.343  1.00  0.00     0.041 C 
ATOM     13  O   UNL     1     -25.642   5.155 -33.139  1.00  0.00    -0.550 OA
ATOM     14  O   UNL     1     -26.482   5.777 -35.177  1.00  0.00    -0.550 OA
ENDBRANCH  11  12
ENDBRANCH  10  11
ENDBRANCH   9  10
ENDBRANCH   8   9
ENDBRANCH   7   8
ENDBRANCH   6   7
ENDBRANCH   5   6
ENDBRANCH   4   5
ENDBRANCH   3   4
ENDBRANCH   2   3
ENDBRANCH   1   2
BRANCH   1  15
ATOM     15  C   UNL     1     -32.802   0.906 -38.581  1.00  0.00     0.000 C 
BRANCH  15  16
ATOM     16  C   UNL     1     -31.637  -0.045 -38.914  1.00  0.00     0.000 C 
BRANCH  16  17
ATOM     17  C   UNL     1     -30.337   0.694 -39.260  1.00  0.00     0.000 C 
BRANCH  17  18
ATOM     18  C   UNL     1     -29.417  -0.183 -40.123  1.00  0.00    -0.000 C 
BRANCH  18  19
ATOM     19  C   UNL     1     -29.747  -1.681 -40.011  1.00  0.00    -0.000 C 
BRANCH  19  20
ATOM     20  C   UNL     1     -28.754  -2.498 -39.162  1.00  0.00    -0.000 C 
BRANCH  20  21
ATOM     21  C   UNL     1     -27.671  -1.638 -38.475  1.00  0.00    -0.000 C 
BRANCH  21  22
ATOM     22  C   UNL     1     -27.922  -1.478 -36.966  1.00  0.00    -0.000 C 
BRANCH  22  23
ATOM     23  C   UNL     1     -29.061  -2.376 -36.449  1.00  0.00    -0.000 C 
BRANCH  23  24
ATOM     24  C   UNL     1     -30.335  -1.628 -36.005  1.00  0.00    -0.000 C 
BRANCH  24  25
ATOM     25  C   UNL     1     -30.116  -0.160 -35.600  1.00  0.00    -0.003 C 
ATOM     26  C   UNL     1     -31.295   0.429 -34.827  1.00  0.00     0.004 C 
ENDBRANCH  24  25
ENDBRANCH  23  24
ENDBRANCH  22  23
ENDBRANCH  21  22
ENDBRANCH  20  21
ENDBRANCH  19  20
ENDBRANCH  18  19
ENDBRANCH  17  18
ENDBRANCH  16  17
ENDBRANCH  15  16
ENDBRANCH   1  15
TORSDOF 22
ENDMDL
MODEL 3
REMARK VINA RESULT:    -3.352      3.346      6.168
REMARK INTER + INTRA:         -11.247
REMARK INTER:                  -7.078
REMARK INTRA:                  -4.169
REMARK UNBOUND:                -3.584
REMARK SMILES CCCCCCCCCCCCCCCCCCCCCCCC(=O)[O-]
REMARK SMILES IDX 13 1 14 2 15 3 16 4 17 5 18 6 19 7 20 8 21 9 22 10 23 11
REMARK SMILES IDX 24 12 25 13 26 14 12 15 11 16 10 17 9 18 8 19 7 20 6 21 5 22
REMARK SMILES IDX 4 23 3 24 2 25 1 26
REMARK H PARENT
REMARK Flexibility Score: inf
ROOT
ATOM      1  C   UNL     1     -33.145   1.418 -38.470  1.00  0.00     0.000 C 
ENDROOT
BRANCH   1   2
ATOM      2  C   UNL     1     -32.499   0.031 -38.613  1.00  0.00     0.000 C 
BRANCH   2   3
ATOM      3  C   UNL     1     -31.033   0.099 -39.075  1.00  0.00     0.000 C 
BRANCH   3   4
ATOM      4  C   UNL     1     -30.484  -1.240 -39.610  1.00  0.00     0.000 C 
BRANCH   4   5
ATOM      5  C   UNL     1     -28.972  -1.384 -39.360  1.00  0.00     0.000 C 
BRANCH   5   6
ATOM      6  C   UNL     1     -28.646  -2.413 -38.267  1.00  0.00     0.000 C 
BRANCH   6   7
ATOM      7  C   UNL     1     -27.651  -1.875 -37.228  1.00  0.00     0.000 C 
BRANCH   7   8
ATOM      8  C   UNL     1     -28.014  -0.447 -36.804  1.00  0.00     0.000 C 
BRANCH   8   9
ATOM      9  C   UNL     1     -28.715  -0.439 -35.437  1.00  0.00     0.000 C 
BRANCH   9  10
ATOM     10  C   UNL     1     -30.231  -0.184 -35.535  1.00  0.00     0.006 C 
BRANCH  10  11
ATOM     11  C   UNL     1     -31.071  -1.466 -35.674  1.00  0.00     0.053 C 
BRANCH  11  12
ATOM     12  C   UNL     1     -30.784  -2.462 -34.591  1.00  0.00     0.041 C 
ATOM     13  O   UNL     1     -30.426  -3.634 -34.887  1.00  0.00    -0.550 OA
ATOM     14  O   UNL     1     -30.948  -2.111 -33.257  1.00  0.00    -0.550 OA
ENDBRANCH  11  12
ENDBRANCH  10  11
ENDBRANCH   9  10
ENDBRANCH   8   9
ENDBRANCH   7   8
ENDBRANCH   6   7
ENDBRANCH   5   6
ENDBRANCH   4   5
ENDBRANCH   3   4
ENDBRANCH   2   3
ENDBRANCH   1   2
BRANCH   1  15
ATOM     15  C   UNL     1     -32.512   2.475 -39.393  1.00  0.00     0.000 C 
BRANCH  15  16
ATOM     16  C   UNL     1     -31.871   3.677 -38.672  1.00  0.00     0.000 C 
BRANCH  16  17
ATOM     17  C   UNL     1     -31.695   3.450 -37.164  1.00  0.00     0.000 C 
BRANCH  17  18
ATOM     18  C   UNL     1     -30.242   3.708 -36.734  1.00  0.00    -0.000 C 
BRANCH  18  19
ATOM     19  C   UNL     1     -29.227   2.889 -37.549  1.00  0.00    -0.000 C 
BRANCH  19  20
ATOM     20  C   UNL     1     -28.208   3.729 -38.342  1.00  0.00    -0.000 C 
BRANCH  20  21
ATOM     21  C   UNL     1     -27.830   5.058 -37.654  1.00  0.00    -0.000 C 
BRANCH  21  22
ATOM     22  C   UNL     1     -26.526   4.948 -36.847  1.00  0.00    -0.000 C 
BRANCH  22  23
ATOM     23  C   UNL     1     -26.643   5.547 -35.433  1.00  0.00    -0.000 C 
BRANCH  23  24
ATOM     24  C   UNL     1     -26.117   4.648 -34.295  1.00  0.00    -0.000 C 
BRANCH  24  25
ATOM     25  C   UNL     1     -26.479   3.158 -34.426  1.00  0.00    -0.003 C 
ATOM     26  C   UNL     1     -27.897   2.843 -33.953  1.00  0.00     0.004 C 
ENDBRANCH  24  25
ENDBRANCH  23  24
ENDBRANCH  22  23
ENDBRANCH  21  22
ENDBRANCH  20  21
ENDBRANCH  19  20
ENDBRANCH  18  19
ENDBRANCH  17  18
ENDBRANCH  16  17
ENDBRANCH  15  16
ENDBRANCH   1  15
TORSDOF 22
ENDMDL
MODEL 4
REMARK VINA RESULT:    -3.347      1.709      3.967
REMARK INTER + INTRA:         -11.235
REMARK INTER:                  -7.180
REMARK INTRA:                  -4.055
REMARK UNBOUND:                -3.584
REMARK SMILES CCCCCCCCCCCCCCCCCCCCCCCC(=O)[O-]
REMARK SMILES IDX 13 1 14 2 15 3 16 4 17 5 18 6 19 7 20 8 21 9 22 10 23 11
REMARK SMILES IDX 24 12 25 13 26 14 12 15 11 16 10 17 9 18 8 19 7 20 6 21 5 22
REMARK SMILES IDX 4 23 3 24 2 25 1 26
REMARK H PARENT
REMARK Flexibility Score: inf
ROOT
ATOM      1  C   UNL     1     -32.924   2.397 -37.785  1.00  0.00     0.000 C 
ENDROOT
BRANCH   1   2
ATOM      2  C   UNL     1     -32.475   2.039 -39.211  1.00  0.00     0.000 C 
BRANCH   2   3
ATOM      3  C   UNL     1     -31.378   2.975 -39.745  1.00  0.00     0.000 C 
BRANCH   3   4
ATOM      4  C   UNL     1     -29.998   2.298 -39.895  1.00  0.00     0.000 C 
BRANCH   4   5
ATOM      5  C   UNL     1     -28.844   3.265 -39.573  1.00  0.00     0.000 C 
BRANCH   5   6
ATOM      6  C   UNL     1     -29.328   4.581 -38.948  1.00  0.00     0.000 C 
BRANCH   6   7
ATOM      7  C   UNL     1     -28.259   5.244 -38.067  1.00  0.00     0.000 C 
BRANCH   7   8
ATOM      8  C   UNL     1     -27.375   4.192 -37.387  1.00  0.00     0.000 C 
BRANCH   8   9
ATOM      9  C   UNL     1     -26.460   4.837 -36.335  1.00  0.00     0.000 C 
BRANCH   9  10
ATOM     10  C   UNL     1     -26.763   4.370 -34.899  1.00  0.00     0.006 C 
BRANCH  10  11
ATOM     11  C   UNL     1     -25.619   3.574 -34.248  1.00  0.00     0.053 C 
BRANCH  11  12
ATOM     12  C   UNL     1     -24.478   4.450 -33.822  1.00  0.00     0.041 C 
ATOM     13  O   UNL     1     -23.298   4.158 -34.152  1.00  0.00    -0.550 OA
ATOM     14  O   UNL     1     -24.713   5.567 -33.030  1.00  0.00    -0.550 OA
ENDBRANCH  11  12
ENDBRANCH  10  11
ENDBRANCH   9  10
ENDBRANCH   8   9
ENDBRANCH   7   8
ENDBRANCH   6   7
ENDBRANCH   5   6
ENDBRANCH   4   5
ENDBRANCH   3   4
ENDBRANCH   2   3
ENDBRANCH   1   2
BRANCH   1  15
ATOM     15  C   UNL     1     -33.268   3.888 -37.619  1.00  0.00     0.000 C 
BRANCH  15  16
ATOM     16  C   UNL     1     -32.313   4.686 -36.711  1.00  0.00     0.000 C 
BRANCH  16  17
ATOM     17  C   UNL     1     -31.910   3.921 -35.442  1.00  0.00     0.000 C 
BRANCH  17  18
ATOM     18  C   UNL     1     -30.398   3.646 -35.421  1.00  0.00    -0.000 C 
BRANCH  18  19
ATOM     19  C   UNL     1     -30.068   2.160 -35.201  1.00  0.00    -0.000 C 
BRANCH  19  20
ATOM     20  C   UNL     1     -29.754   1.371 -36.487  1.00  0.00    -0.000 C 
BRANCH  20  21
ATOM     21  C   UNL     1     -30.471   0.005 -36.567  1.00  0.00    -0.000 C 
BRANCH  21  22
ATOM     22  C   UNL     1     -30.102  -0.774 -37.841  1.00  0.00    -0.000 C 
BRANCH  22  23
ATOM     23  C   UNL     1     -29.060  -1.879 -37.587  1.00  0.00    -0.000 C 
BRANCH  23  24
ATOM     24  C   UNL     1     -27.590  -1.445 -37.759  1.00  0.00    -0.000 C 
BRANCH  24  25
ATOM     25  C   UNL     1     -27.310  -0.579 -39.000  1.00  0.00    -0.003 C 
ATOM     26  C   UNL     1     -26.538  -1.324 -40.088  1.00  0.00     0.004 C 
ENDBRANCH  24  25
ENDBRANCH  23  24
ENDBRANCH  22  23
ENDBRANCH  21  22
ENDBRANCH  20  21
ENDBRANCH  19  20
ENDBRANCH  18  19
ENDBRANCH  17  18
ENDBRANCH  16  17
ENDBRANCH  15  16
ENDBRANCH   1  15
TORSDOF 22
ENDMDL
MODEL 5
REMARK VINA RESULT:    -3.304      4.116      6.970
REMARK INTER + INTRA:         -11.137
REMARK INTER:                  -7.365
REMARK INTRA:                  -3.771
REMARK UNBOUND:                -3.584
REMARK SMILES CCCCCCCCCCCCCCCCCCCCCCCC(=O)[O-]
REMARK SMILES IDX 13 1 14 2 15 3 16 4 17 5 18 6 19 7 20 8 21 9 22 10 23 11
REMARK SMILES IDX 24 12 25 13 26 14 12 15 11 16 10 17 9 18 8 19 7 20 6 21 5 22
REMARK SMILES IDX 4 23 3 24 2 25 1 26
REMARK H PARENT
REMARK Flexibility Score: inf
ROOT
ATOM      1  C   UNL     1     -33.102   1.388 -38.945  1.00  0.00     0.000 C 
ENDROOT
BRANCH   1   2
ATOM      2  C   UNL     1     -32.711   0.051 -38.295  1.00  0.00     0.000 C 
BRANCH   2   3
ATOM      3  C   UNL     1     -31.390  -0.515 -38.843  1.00  0.00     0.000 C 
BRANCH   3   4
ATOM      4  C   UNL     1     -30.396   0.566 -39.315  1.00  0.00     0.000 C 
BRANCH   4   5
ATOM      5  C   UNL     1     -29.298   0.836 -38.270  1.00  0.00     0.000 C 
BRANCH   5   6
ATOM      6  C   UNL     1     -29.305  -0.186 -37.124  1.00  0.00     0.000 C 
BRANCH   6   7
ATOM      7  C   UNL     1     -29.679   0.445 -35.774  1.00  0.00     0.000 C 
BRANCH   7   8
ATOM      8  C   UNL     1     -30.152  -0.622 -34.779  1.00  0.00     0.000 C 
BRANCH   8   9
ATOM      9  C   UNL     1     -31.643  -0.937 -34.976  1.00  0.00     0.000 C 
BRANCH   9  10
ATOM     10  C   UNL     1     -32.391  -1.181 -33.652  1.00  0.00     0.006 C 
BRANCH  10  11
ATOM     11  C   UNL     1     -33.641  -2.066 -33.795  1.00  0.00     0.053 C 
BRANCH  11  12
ATOM     12  C   UNL     1     -33.340  -3.522 -33.598  1.00  0.00     0.041 C 
ATOM     13  O   UNL     1     -34.243  -4.384 -33.767  1.00  0.00    -0.550 OA
ATOM     14  O   UNL     1     -32.074  -3.925 -33.191  1.00  0.00    -0.550 OA
ENDBRANCH  11  12
ENDBRANCH  10  11
ENDBRANCH   9  10
ENDBRANCH   8   9
ENDBRANCH   7   8
ENDBRANCH   6   7
ENDBRANCH   5   6
ENDBRANCH   4   5
ENDBRANCH   3   4
ENDBRANCH   2   3
ENDBRANCH   1   2
BRANCH   1  15
ATOM     15  C   UNL     1     -33.301   2.519 -37.920  1.00  0.00     0.000 C 
BRANCH  15  16
ATOM     16  C   UNL     1     -32.025   2.972 -37.185  1.00  0.00     0.000 C 
BRANCH  16  17
ATOM     17  C   UNL     1     -31.595   4.400 -37.549  1.00  0.00     0.000 C 
BRANCH  17  18
ATOM     18  C   UNL     1     -31.066   4.467 -38.989  1.00  0.00    -0.000 C 
BRANCH  18  19
ATOM     19  C   UNL     1     -29.701   5.167 -39.089  1.00  0.00    -0.000 C 
BRANCH  19  20
ATOM     20  C   UNL     1     -28.500   4.303 -38.659  1.00  0.00    -0.000 C 
BRANCH  20  21
ATOM     21  C   UNL     1     -27.812   4.795 -37.367  1.00  0.00    -0.000 C 
BRANCH  21  22
ATOM     22  C   UNL     1     -28.061   3.852 -36.178  1.00  0.00    -0.000 C 
BRANCH  22  23
ATOM     23  C   UNL     1     -26.801   3.620 -35.323  1.00  0.00    -0.000 C 
BRANCH  23  24
ATOM     24  C   UNL     1     -25.673   2.832 -36.019  1.00  0.00    -0.000 C 
BRANCH  24  25
ATOM     25  C   UNL     1     -25.971   1.340 -36.250  1.00  0.00    -0.003 C 
ATOM     26  C   UNL     1     -25.600   0.866 -37.654  1.00  0.00     0.004 C 
ENDBRANCH  24  25
ENDBRANCH  23  24
ENDBRANCH  22  23
ENDBRANCH  21  22
ENDBRANCH  20  21
ENDBRANCH  19  20
ENDBRANCH  18  19
ENDBRANCH  17  18
ENDBRANCH  16  17
ENDBRANCH  15  16
ENDBRANCH   1  15
TORSDOF 22
ENDMDL
MODEL 6
REMARK VINA RESULT:    -3.298      3.386      6.810
REMARK INTER + INTRA:         -11.124
REMARK INTER:                  -6.361
REMARK INTRA:                  -4.763
REMARK UNBOUND:                -3.584
REMARK SMILES CCCCCCCCCCCCCCCCCCCCCCCC(=O)[O-]
REMARK SMILES IDX 13 1 14 2 15 3 16 4 17 5 18 6 19 7 20 8 21 9 22 10 23 11
REMARK SMILES IDX 24 12 25 13 26 14 12 15 11 16 10 17 9 18 8 19 7 20 6 21 5 22
REMARK SMILES IDX 4 23 3 24 2 25 1 26
REMARK H PARENT
REMARK Flexibility Score: inf
ROOT
ATOM      1  C   UNL     1     -28.846   2.574 -38.371  1.00  0.00     0.000 C 
ENDROOT
BRANCH   1   2
ATOM      2  C   UNL     1     -27.770   1.497 -38.161  1.00  0.00     0.000 C 
BRANCH   2   3
ATOM      3  C   UNL     1     -28.363   0.124 -37.801  1.00  0.00     0.000 C 
BRANCH   3   4
ATOM      4  C   UNL     1     -28.687  -0.757 -39.027  1.00  0.00     0.000 C 
BRANCH   4   5
ATOM      5  C   UNL     1     -30.156  -1.216 -39.034  1.00  0.00     0.000 C 
BRANCH   5   6
ATOM      6  C   UNL     1     -31.138  -0.063 -39.287  1.00  0.00     0.000 C 
BRANCH   6   7
ATOM      7  C   UNL     1     -32.382  -0.139 -38.390  1.00  0.00     0.000 C 
BRANCH   7   8
ATOM      8  C   UNL     1     -33.075   1.226 -38.291  1.00  0.00     0.000 C 
BRANCH   8   9
ATOM      9  C   UNL     1     -32.516   2.205 -39.334  1.00  0.00     0.000 C 
BRANCH   9  10
ATOM     10  C   UNL     1     -32.453   3.658 -38.829  1.00  0.00     0.006 C 
BRANCH  10  11
ATOM     11  C   UNL     1     -32.241   3.783 -37.310  1.00  0.00     0.053 C 
BRANCH  11  12
ATOM     12  C   UNL     1     -33.377   4.483 -36.627  1.00  0.00     0.041 C 
ATOM     13  O   UNL     1     -34.566   4.249 -36.973  1.00  0.00    -0.550 OA
ATOM     14  O   UNL     1     -33.125   5.422 -35.635  1.00  0.00    -0.550 OA
ENDBRANCH  11  12
ENDBRANCH  10  11
ENDBRANCH   9  10
ENDBRANCH   8   9
ENDBRANCH   7   8
ENDBRANCH   6   7
ENDBRANCH   5   6
ENDBRANCH   4   5
ENDBRANCH   3   4
ENDBRANCH   2   3
ENDBRANCH   1   2
BRANCH   1  15
ATOM     15  C   UNL     1     -28.257   3.985 -38.551  1.00  0.00     0.000 C 
BRANCH  15  16
ATOM     16  C   UNL     1     -27.953   4.742 -37.244  1.00  0.00     0.000 C 
BRANCH  16  17
ATOM     17  C   UNL     1     -26.466   4.711 -36.863  1.00  0.00     0.000 C 
BRANCH  17  18
ATOM     18  C   UNL     1     -26.258   4.013 -35.510  1.00  0.00    -0.000 C 
BRANCH  18  19
ATOM     19  C   UNL     1     -27.564   3.454 -34.923  1.00  0.00    -0.000 C 
BRANCH  19  20
ATOM     20  C   UNL     1     -27.488   1.985 -34.463  1.00  0.00    -0.000 C 
BRANCH  20  21
ATOM     21  C   UNL     1     -28.861   1.374 -34.106  1.00  0.00    -0.000 C 
BRANCH  21  22
ATOM     22  C   UNL     1     -29.990   1.911 -35.001  1.00  0.00    -0.000 C 
BRANCH  22  23
ATOM     23  C   UNL     1     -31.219   0.985 -35.036  1.00  0.00    -0.000 C 
BRANCH  23  24
ATOM     24  C   UNL     1     -30.993  -0.426 -34.454  1.00  0.00    -0.000 C 
BRANCH  24  25
ATOM     25  C   UNL     1     -30.927  -1.554 -35.498  1.00  0.00    -0.003 C 
ATOM     26  C   UNL     1     -29.694  -2.442 -35.342  1.00  0.00     0.004 C 
ENDBRANCH  24  25
ENDBRANCH  23  24
ENDBRANCH  22  23
ENDBRANCH  21  22
ENDBRANCH  20  21
ENDBRANCH  19  20
ENDBRANCH  18  19
ENDBRANCH  17  18
ENDBRANCH  16  17
ENDBRANCH  15  16
ENDBRANCH   1  15
TORSDOF 22
ENDMDL
MODEL 7
REMARK VINA RESULT:    -3.298      1.781      3.033
REMARK INTER + INTRA:         -11.123
REMARK INTER:                  -6.718
REMARK INTRA:                  -4.405
REMARK UNBOUND:                -3.584
REMARK SMILES CCCCCCCCCCCCCCCCCCCCCCCC(=O)[O-]
REMARK SMILES IDX 13 1 14 2 15 3 16 4 17 5 18 6 19 7 20 8 21 9 22 10 23 11
REMARK SMILES IDX 24 12 25 13 26 14 12 15 11 16 10 17 9 18 8 19 7 20 6 21 5 22
REMARK SMILES IDX 4 23 3 24 2 25 1 26
REMARK H PARENT
REMARK Flexibility Score: inf
ROOT
ATOM      1  C   UNL     1     -32.490   3.337 -38.432  1.00  0.00     0.000 C 
ENDROOT
BRANCH   1   2
ATOM      2  C   UNL     1     -31.968   3.487 -36.994  1.00  0.00     0.000 C 
BRANCH   2   3
ATOM      3  C   UNL     1     -30.671   4.309 -36.912  1.00  0.00     0.000 C 
BRANCH   3   4
ATOM      4  C   UNL     1     -30.272   4.980 -38.243  1.00  0.00     0.000 C 
BRANCH   4   5
ATOM      5  C   UNL     1     -28.789   4.750 -38.584  1.00  0.00     0.000 C 
BRANCH   5   6
ATOM      6  C   UNL     1     -28.246   3.433 -38.010  1.00  0.00     0.000 C 
BRANCH   6   7
ATOM      7  C   UNL     1     -27.083   3.651 -37.031  1.00  0.00     0.000 C 
BRANCH   7   8
ATOM      8  C   UNL     1     -26.549   5.086 -37.119  1.00  0.00     0.000 C 
BRANCH   8   9
ATOM      9  C   UNL     1     -26.738   5.827 -35.786  1.00  0.00     0.000 C 
BRANCH   9  10
ATOM     10  C   UNL     1     -26.696   4.894 -34.562  1.00  0.00     0.006 C 
BRANCH  10  11
ATOM     11  C   UNL     1     -25.445   5.071 -33.684  1.00  0.00     0.053 C 
BRANCH  11  12
ATOM     12  C   UNL     1     -24.374   4.071 -34.001  1.00  0.00     0.041 C 
ATOM     13  O   UNL     1     -23.164   4.351 -33.789  1.00  0.00    -0.550 OA
ATOM     14  O   UNL     1     -24.706   2.845 -34.564  1.00  0.00    -0.550 OA
ENDBRANCH  11  12
ENDBRANCH  10  11
ENDBRANCH   9  10
ENDBRANCH   8   9
ENDBRANCH   7   8
ENDBRANCH   6   7
ENDBRANCH   5   6
ENDBRANCH   4   5
ENDBRANCH   3   4
ENDBRANCH   2   3
ENDBRANCH   1   2
BRANCH   1  15
ATOM     15  C   UNL     1     -32.262   1.929 -39.011  1.00  0.00     0.000 C 
BRANCH  15  16
ATOM     16  C   UNL     1     -30.909   1.720 -39.717  1.00  0.00     0.000 C 
BRANCH  16  17
ATOM     17  C   UNL     1     -30.222   0.404 -39.326  1.00  0.00     0.000 C 
BRANCH  17  18
ATOM     18  C   UNL     1     -31.180  -0.505 -38.541  1.00  0.00    -0.000 C 
BRANCH  18  19
ATOM     19  C   UNL     1     -30.667  -0.830 -37.129  1.00  0.00    -0.000 C 
BRANCH  19  20
ATOM     20  C   UNL     1     -31.463  -0.171 -35.986  1.00  0.00    -0.000 C 
BRANCH  20  21
ATOM     21  C   UNL     1     -30.593   0.232 -34.775  1.00  0.00    -0.000 C 
BRANCH  21  22
ATOM     22  C   UNL     1     -29.600   1.356 -35.118  1.00  0.00    -0.000 C 
BRANCH  22  23
ATOM     23  C   UNL     1     -28.167   1.057 -34.641  1.00  0.00    -0.000 C 
BRANCH  23  24
ATOM     24  C   UNL     1     -27.523  -0.203 -35.254  1.00  0.00    -0.000 C 
BRANCH  24  25
ATOM     25  C   UNL     1     -26.604   0.060 -36.460  1.00  0.00    -0.003 C 
ATOM     26  C   UNL     1     -27.037  -0.692 -37.718  1.00  0.00     0.004 C 
ENDBRANCH  24  25
ENDBRANCH  23  24
ENDBRANCH  22  23
ENDBRANCH  21  22
ENDBRANCH  20  21
ENDBRANCH  19  20
ENDBRANCH  18  19
ENDBRANCH  17  18
ENDBRANCH  16  17
ENDBRANCH  15  16
ENDBRANCH   1  15
TORSDOF 22
ENDMDL
MODEL 8
REMARK VINA RESULT:    -3.281      1.328      2.060
REMARK INTER + INTRA:         -11.085
REMARK INTER:                  -7.015
REMARK INTRA:                  -4.070
REMARK UNBOUND:                -3.584
REMARK SMILES CCCCCCCCCCCCCCCCCCCCCCCC(=O)[O-]
REMARK SMILES IDX 13 1 14 2 15 3 16 4 17 5 18 6 19 7 20 8 21 9 22 10 23 11
REMARK SMILES IDX 24 12 25 13 26 14 12 15 11 16 10 17 9 18 8 19 7 20 6 21 5 22
REMARK SMILES IDX 4 23 3 24 2 25 1 26
REMARK H PARENT
REMARK Flexibility Score: inf
ROOT
ATOM      1  C   UNL     1     -32.280   1.574 -38.104  1.00  0.00     0.000 C 
ENDROOT
BRANCH   1   2
ATOM      2  C   UNL     1     -32.923   2.473 -39.172  1.00  0.00     0.000 C 
BRANCH   2   3
ATOM      3  C   UNL     1     -31.908   3.395 -39.868  1.00  0.00     0.000 C 
BRANCH   3   4
ATOM      4  C   UNL     1     -31.050   4.229 -38.892  1.00  0.00     0.000 C 
BRANCH   4   5
ATOM      5  C   UNL     1     -29.584   4.323 -39.350  1.00  0.00     0.000 C 
BRANCH   5   6
ATOM      6  C   UNL     1     -28.588   4.045 -38.215  1.00  0.00     0.000 C 
BRANCH   6   7
ATOM      7  C   UNL     1     -27.830   5.305 -37.772  1.00  0.00     0.000 C 
BRANCH   7   8
ATOM      8  C   UNL     1     -26.907   5.005 -36.584  1.00  0.00     0.000 C 
BRANCH   8   9
ATOM      9  C   UNL     1     -26.272   3.613 -36.718  1.00  0.00     0.000 C 
BRANCH   9  10
ATOM     10  C   UNL     1     -25.522   3.165 -35.449  1.00  0.00     0.006 C 
BRANCH  10  11
ATOM     11  C   UNL     1     -25.727   4.096 -34.242  1.00  0.00     0.053 C 
BRANCH  11  12
ATOM     12  C   UNL     1     -24.434   4.631 -33.702  1.00  0.00     0.041 C 
ATOM     13  O   UNL     1     -23.344   4.076 -34.004  1.00  0.00    -0.550 OA
ATOM     14  O   UNL     1     -24.434   5.717 -32.837  1.00  0.00    -0.550 OA
ENDBRANCH  11  12
ENDBRANCH  10  11
ENDBRANCH   9  10
ENDBRANCH   8   9
ENDBRANCH   7   8
ENDBRANCH   6   7
ENDBRANCH   5   6
ENDBRANCH   4   5
ENDBRANCH   3   4
ENDBRANCH   2   3
ENDBRANCH   1   2
BRANCH   1  15
ATOM     15  C   UNL     1     -32.322   0.080 -38.470  1.00  0.00     0.000 C 
BRANCH  15  16
ATOM     16  C   UNL     1     -30.980  -0.524 -38.925  1.00  0.00     0.000 C 
BRANCH  16  17
ATOM     17  C   UNL     1     -29.898   0.537 -39.176  1.00  0.00     0.000 C 
BRANCH  17  18
ATOM     18  C   UNL     1     -28.687   0.318 -38.255  1.00  0.00    -0.000 C 
BRANCH  18  19
ATOM     19  C   UNL     1     -29.038  -0.491 -36.995  1.00  0.00    -0.000 C 
BRANCH  19  20
ATOM     20  C   UNL     1     -28.539   0.125 -35.674  1.00  0.00    -0.000 C 
BRANCH  20  21
ATOM     21  C   UNL     1     -29.579   1.032 -34.980  1.00  0.00    -0.000 C 
BRANCH  21  22
ATOM     22  C   UNL     1     -28.923   2.190 -34.209  1.00  0.00    -0.000 C 
BRANCH  22  23
ATOM     23  C   UNL     1     -29.612   3.544 -34.460  1.00  0.00    -0.000 C 
BRANCH  23  24
ATOM     24  C   UNL     1     -30.752   3.516 -35.498  1.00  0.00    -0.000 C 
BRANCH  24  25
ATOM     25  C   UNL     1     -32.146   3.854 -34.939  1.00  0.00    -0.003 C 
ATOM     26  C   UNL     1     -32.811   5.025 -35.660  1.00  0.00     0.004 C 
ENDBRANCH  24  25
ENDBRANCH  23  24
ENDBRANCH  22  23
ENDBRANCH  21  22
ENDBRANCH  20  21
ENDBRANCH  19  20
ENDBRANCH  18  19
ENDBRANCH  17  18
ENDBRANCH  16  17
ENDBRANCH  15  16
ENDBRANCH   1  15
TORSDOF 22
ENDMDL
MODEL 9
REMARK VINA RESULT:    -3.254      2.166      4.088
REMARK INTER + INTRA:         -11.023
REMARK INTER:                  -6.639
REMARK INTRA:                  -4.384
REMARK UNBOUND:                -3.584
REMARK SMILES CCCCCCCCCCCCCCCCCCCCCCCC(=O)[O-]
REMARK SMILES IDX 13 1 14 2 15 3 16 4 17 5 18 6 19 7 20 8 21 9 22 10 23 11
REMARK SMILES IDX 24 12 25 13 26 14 12 15 11 16 10 17 9 18 8 19 7 20 6 21 5 22
REMARK SMILES IDX 4 23 3 24 2 25 1 26
REMARK H PARENT
REMARK Flexibility Score: inf
ROOT
ATOM      1  C   UNL     1     -30.652  -1.009 -39.571  1.00  0.00     0.000 C 
ENDROOT
BRANCH   1   2
ATOM      2  C   UNL     1     -30.929   0.410 -39.050  1.00  0.00     0.000 C 
BRANCH   2   3
ATOM      3  C   UNL     1     -32.409   0.639 -38.699  1.00  0.00     0.000 C 
BRANCH   3   4
ATOM      4  C   UNL     1     -32.863   2.108 -38.831  1.00  0.00     0.000 C 
BRANCH   4   5
ATOM      5  C   UNL     1     -31.943   2.914 -39.766  1.00  0.00     0.000 C 
BRANCH   5   6
ATOM      6  C   UNL     1     -31.813   4.386 -39.348  1.00  0.00     0.000 C 
BRANCH   6   7
ATOM      7  C   UNL     1     -30.539   4.658 -38.535  1.00  0.00     0.000 C 
BRANCH   7   8
ATOM      8  C   UNL     1     -29.284   4.456 -39.393  1.00  0.00     0.000 C 
BRANCH   8   9
ATOM      9  C   UNL     1     -28.347   3.415 -38.761  1.00  0.00     0.000 C 
BRANCH   9  10
ATOM     10  C   UNL     1     -28.110   3.645 -37.257  1.00  0.00     0.006 C 
BRANCH  10  11
ATOM     11  C   UNL     1     -26.628   3.807 -36.877  1.00  0.00     0.053 C 
BRANCH  11  12
ATOM     12  C   UNL     1     -26.412   4.875 -35.847  1.00  0.00     0.041 C 
ATOM     13  O   UNL     1     -26.656   6.080 -36.124  1.00  0.00    -0.550 OA
ATOM     14  O   UNL     1     -25.907   4.548 -34.595  1.00  0.00    -0.550 OA
ENDBRANCH  11  12
ENDBRANCH  10  11
ENDBRANCH   9  10
ENDBRANCH   8   9
ENDBRANCH   7   8
ENDBRANCH   6   7
ENDBRANCH   5   6
ENDBRANCH   4   5
ENDBRANCH   3   4
ENDBRANCH   2   3
ENDBRANCH   1   2
BRANCH   1  15
ATOM     15  C   UNL     1     -29.172  -1.242 -39.925  1.00  0.00     0.000 C 
BRANCH  15  16
ATOM     16  C   UNL     1     -28.209  -0.119 -39.493  1.00  0.00     0.000 C 
BRANCH  16  17
ATOM     17  C   UNL     1     -27.277  -0.534 -38.345  1.00  0.00     0.000 C 
BRANCH  17  18
ATOM     18  C   UNL     1     -27.979  -0.391 -36.986  1.00  0.00    -0.000 C 
BRANCH  18  19
ATOM     19  C   UNL     1     -28.315  -1.748 -36.345  1.00  0.00    -0.000 C 
BRANCH  19  20
ATOM     20  C   UNL     1     -29.434  -1.703 -35.287  1.00  0.00    -0.000 C 
BRANCH  20  21
ATOM     21  C   UNL     1     -30.824  -1.362 -35.867  1.00  0.00    -0.000 C 
BRANCH  21  22
ATOM     22  C   UNL     1     -31.511  -0.218 -35.103  1.00  0.00    -0.000 C 
BRANCH  22  23
ATOM     23  C   UNL     1     -30.598   1.006 -34.907  1.00  0.00    -0.000 C 
BRANCH  23  24
ATOM     24  C   UNL     1     -31.005   2.261 -35.706  1.00  0.00    -0.000 C 
BRANCH  24  25
ATOM     25  C   UNL     1     -31.702   3.357 -34.881  1.00  0.00    -0.003 C 
ATOM     26  C   UNL     1     -32.766   4.116 -35.672  1.00  0.00     0.004 C 
ENDBRANCH  24  25
ENDBRANCH  23  24
ENDBRANCH  22  23
ENDBRANCH  21  22
ENDBRANCH  20  21
ENDBRANCH  19  20
ENDBRANCH  18  19
ENDBRANCH  17  18
ENDBRANCH  16  17
ENDBRANCH  15  16
ENDBRANCH   1  15
TORSDOF 22
ENDMDL
