MODEL 1
REMARK VINA RESULT:    -4.814      0.000      0.000
REMARK INTER + INTRA:          -6.082
REMARK INTER:                  -5.798
REMARK INTRA:                  -0.284
REMARK UNBOUND:                -0.284
REMARK SMILES O=c1c(O)c(-c2ccc(O)c(O)c2)oc2cc(O)cc(O)c12
REMARK SMILES IDX 5 1 3 2 2 3 1 4 22 5 20 6 19 7 17 8 16 9 15 10 14 11 6 12
REMARK SMILES IDX 7 13 8 14 9 15 13 16 11 17 10 18 12 20 4 22 21 24 18 26
REMARK H PARENT 10 19 12 21 4 23 21 25 18 27
REMARK Flexibility Score: inf
ROOT
ATOM      1  C   UNL     1       4.595  25.095  71.735  1.00  0.00     0.180 A 
ATOM      2  C   UNL     1       4.771  26.426  72.150  1.00  0.00     0.208 A 
ATOM      3  C   UNL     1       3.680  27.307  72.093  1.00  0.00     0.238 A 
ATOM      4  O   UNL     1       3.828  28.483  72.516  1.00  0.00    -0.285 OA
ATOM      5  C   UNL     1       2.430  26.851  71.607  1.00  0.00     0.111 A 
ATOM      6  C   UNL     1       1.268  27.667  71.468  1.00  0.00     0.134 A 
ATOM      7  C   UNL     1       0.050  27.078  71.101  1.00  0.00     0.093 A 
ATOM      8  C   UNL     1      -0.032  25.719  70.805  1.00  0.00     0.123 A 
ATOM      9  C   UNL     1       1.112  24.923  70.880  1.00  0.00     0.094 A 
ATOM     10  C   UNL     1       2.333  25.473  71.278  1.00  0.00     0.146 A 
ATOM     11  O   UNL     1       3.395  24.680  71.348  1.00  0.00    -0.452 OA
ENDROOT
BRANCH   1  12
ATOM     12  C   UNL     1       5.705  24.114  71.742  1.00  0.00     0.025 A 
ATOM     13  C   UNL     1       6.130  23.497  72.932  1.00  0.00     0.016 A 
ATOM     14  C   UNL     1       7.194  22.592  72.918  1.00  0.00     0.051 A 
ATOM     15  C   UNL     1       7.859  22.301  71.719  1.00  0.00     0.157 A 
ATOM     16  C   UNL     1       6.388  23.834  70.546  1.00  0.00     0.062 A 
ATOM     17  C   UNL     1       7.454  22.928  70.528  1.00  0.00     0.158 A 
BRANCH  15  18
ATOM     18  O   UNL     1       8.919  21.396  71.708  1.00  0.00    -0.504 OA
ATOM     19  H   UNL     1       8.957  20.616  72.354  1.00  0.00     0.293 HD
ENDBRANCH  15  18
BRANCH  17  20
ATOM     20  O   UNL     1       8.099  22.665  69.321  1.00  0.00    -0.504 OA
ATOM     21  H   UNL     1       8.505  23.402  68.756  1.00  0.00     0.293 HD
ENDBRANCH  17  20
ENDBRANCH   1  12
BRANCH   2  22
ATOM     22  O   UNL     1       6.007  26.851  72.646  1.00  0.00    -0.502 OA
ATOM     23  H   UNL     1       6.539  27.597  72.215  1.00  0.00     0.293 HD
ENDBRANCH   2  22
BRANCH   6  24
ATOM     24  O   UNL     1       1.260  29.052  71.651  1.00  0.00    -0.507 OA
ATOM     25  H   UNL     1       0.430  29.613  71.767  1.00  0.00     0.293 HD
ENDBRANCH   6  24
BRANCH   8  26
ATOM     26  O   UNL     1      -1.255  25.170  70.427  1.00  0.00    -0.508 OA
ATOM     27  H   UNL     1      -2.114  25.704  70.478  1.00  0.00     0.293 HD
ENDBRANCH   8  26
TORSDOF 6
ENDMDL
MODEL 2
REMARK VINA RESULT:    -4.725     11.935     14.840
REMARK INTER + INTRA:          -5.975
REMARK INTER:                  -5.653
REMARK INTRA:                  -0.323
REMARK UNBOUND:                -0.284
REMARK SMILES O=c1c(O)c(-c2ccc(O)c(O)c2)oc2cc(O)cc(O)c12
REMARK SMILES IDX 5 1 3 2 2 3 1 4 22 5 20 6 19 7 17 8 16 9 15 10 14 11 6 12
REMARK SMILES IDX 7 13 8 14 9 15 13 16 11 17 10 18 12 20 4 22 21 24 18 26
REMARK H PARENT 10 19 12 21 4 23 21 25 18 27
REMARK Flexibility Score: inf
ROOT
ATOM      1  C   UNL     1      13.362  25.349  81.703  1.00  0.00     0.180 A 
ATOM      2  C   UNL     1      14.566  24.884  82.258  1.00  0.00     0.208 A 
ATOM      3  C   UNL     1      15.194  23.767  81.684  1.00  0.00     0.238 A 
ATOM      4  O   UNL     1      16.300  23.388  82.151  1.00  0.00    -0.285 OA
ATOM      5  C   UNL     1      14.604  23.120  80.572  1.00  0.00     0.111 A 
ATOM      6  C   UNL     1      15.132  21.957  79.935  1.00  0.00     0.134 A 
ATOM      7  C   UNL     1      14.534  21.480  78.762  1.00  0.00     0.093 A 
ATOM      8  C   UNL     1      13.390  22.083  78.240  1.00  0.00     0.123 A 
ATOM      9  C   UNL     1      12.830  23.185  78.888  1.00  0.00     0.094 A 
ATOM     10  C   UNL     1      13.424  23.706  80.040  1.00  0.00     0.146 A 
ATOM     11  O   UNL     1      12.867  24.761  80.619  1.00  0.00    -0.452 OA
ENDROOT
BRANCH   1  12
ATOM     12  C   UNL     1      12.627  26.504  82.269  1.00  0.00     0.025 A 
ATOM     13  C   UNL     1      11.759  26.354  83.364  1.00  0.00     0.016 A 
ATOM     14  C   UNL     1      11.058  27.453  83.866  1.00  0.00     0.051 A 
ATOM     15  C   UNL     1      11.204  28.715  83.274  1.00  0.00     0.157 A 
ATOM     16  C   UNL     1      12.754  27.767  81.665  1.00  0.00     0.062 A 
ATOM     17  C   UNL     1      12.054  28.870  82.166  1.00  0.00     0.158 A 
BRANCH  15  18
ATOM     18  O   UNL     1      10.505  29.811  83.778  1.00  0.00    -0.504 OA
ATOM     19  H   UNL     1      10.867  30.361  84.549  1.00  0.00     0.293 HD
ENDBRANCH  15  18
BRANCH  17  20
ATOM     20  O   UNL     1      12.214  30.110  81.549  1.00  0.00    -0.504 OA
ATOM     21  H   UNL     1      13.076  30.373  81.086  1.00  0.00     0.293 HD
ENDBRANCH  17  20
ENDBRANCH   1  12
BRANCH   2  22
ATOM     22  O   UNL     1      15.144  25.550  83.343  1.00  0.00    -0.502 OA
ATOM     23  H   UNL     1      14.844  26.471  83.638  1.00  0.00     0.293 HD
ENDBRANCH   2  22
BRANCH   6  24
ATOM     24  O   UNL     1      16.217  21.225  80.425  1.00  0.00    -0.507 OA
ATOM     25  H   UNL     1      17.186  21.451  80.258  1.00  0.00     0.293 HD
ENDBRANCH   6  24
BRANCH   8  26
ATOM     26  O   UNL     1      12.812  21.572  77.080  1.00  0.00    -0.508 OA
ATOM     27  H   UNL     1      12.381  22.177  76.392  1.00  0.00     0.293 HD
ENDBRANCH   8  26
TORSDOF 6
ENDMDL
MODEL 3
REMARK VINA RESULT:    -4.721      1.430      6.687
REMARK INTER + INTRA:          -5.970
REMARK INTER:                  -5.774
REMARK INTRA:                  -0.196
REMARK UNBOUND:                -0.284
REMARK SMILES O=c1c(O)c(-c2ccc(O)c(O)c2)oc2cc(O)cc(O)c12
REMARK SMILES IDX 5 1 3 2 2 3 1 4 22 5 20 6 19 7 17 8 16 9 15 10 14 11 6 12
REMARK SMILES IDX 7 13 8 14 9 15 13 16 11 17 10 18 12 20 4 22 21 24 18 26
REMARK H PARENT 10 19 12 21 4 23 21 25 18 27
REMARK Flexibility Score: inf
ROOT
ATOM      1  C   UNL     1       3.890  25.405  71.377  1.00  0.00     0.180 A 
ATOM      2  C   UNL     1       4.689  26.491  71.772  1.00  0.00     0.208 A 
ATOM      3  C   UNL     1       6.024  26.257  72.138  1.00  0.00     0.238 A 
ATOM      4  O   UNL     1       6.750  27.240  72.439  1.00  0.00    -0.285 OA
ATOM      5  C   UNL     1       6.539  24.938  72.120  1.00  0.00     0.111 A 
ATOM      6  C   UNL     1       7.864  24.580  72.510  1.00  0.00     0.134 A 
ATOM      7  C   UNL     1       8.306  23.263  72.327  1.00  0.00     0.093 A 
ATOM      8  C   UNL     1       7.451  22.279  71.831  1.00  0.00     0.123 A 
ATOM      9  C   UNL     1       6.135  22.606  71.503  1.00  0.00     0.094 A 
ATOM     10  C   UNL     1       5.676  23.918  71.640  1.00  0.00     0.146 A 
ATOM     11  O   UNL     1       4.420  24.189  71.307  1.00  0.00    -0.452 OA
ENDROOT
BRANCH   1  12
ATOM     12  C   UNL     1       2.466  25.569  71.002  1.00  0.00     0.025 A 
ATOM     13  C   UNL     1       2.092  26.251  69.831  1.00  0.00     0.016 A 
ATOM     14  C   UNL     1       0.742  26.414  69.510  1.00  0.00     0.051 A 
ATOM     15  C   UNL     1      -0.253  25.910  70.358  1.00  0.00     0.157 A 
ATOM     16  C   UNL     1       1.465  25.083  71.860  1.00  0.00     0.062 A 
ATOM     17  C   UNL     1       0.112  25.244  71.540  1.00  0.00     0.158 A 
BRANCH  15  18
ATOM     18  O   UNL     1      -1.599  26.073  70.033  1.00  0.00    -0.504 OA
ATOM     19  H   UNL     1      -2.310  26.163  70.750  1.00  0.00     0.293 HD
ENDBRANCH  15  18
BRANCH  17  20
ATOM     20  O   UNL     1      -0.854  24.738  72.408  1.00  0.00    -0.504 OA
ATOM     21  H   UNL     1      -1.402  23.916  72.184  1.00  0.00     0.293 HD
ENDBRANCH  17  20
ENDBRANCH   1  12
BRANCH   2  22
ATOM     22  O   UNL     1       4.167  27.788  71.762  1.00  0.00    -0.502 OA
ATOM     23  H   UNL     1       3.222  27.997  72.060  1.00  0.00     0.293 HD
ENDBRANCH   2  22
BRANCH   6  24
ATOM     24  O   UNL     1       8.770  25.465  73.100  1.00  0.00    -0.507 OA
ATOM     25  H   UNL     1       9.770  25.432  72.976  1.00  0.00     0.293 HD
ENDBRANCH   6  24
BRANCH   8  26
ATOM     26  O   UNL     1       7.919  20.976  71.677  1.00  0.00    -0.508 OA
ATOM     27  H   UNL     1       8.719  20.636  72.197  1.00  0.00     0.293 HD
ENDBRANCH   8  26
TORSDOF 6
ENDMDL
MODEL 4
REMARK VINA RESULT:    -4.695     11.415     14.078
REMARK INTER + INTRA:          -5.939
REMARK INTER:                  -5.674
REMARK INTRA:                  -0.265
REMARK UNBOUND:                -0.284
REMARK SMILES O=c1c(O)c(-c2ccc(O)c(O)c2)oc2cc(O)cc(O)c12
REMARK SMILES IDX 5 1 3 2 2 3 1 4 22 5 20 6 19 7 17 8 16 9 15 10 14 11 6 12
REMARK SMILES IDX 7 13 8 14 9 15 13 16 11 17 10 18 12 20 4 22 21 24 18 26
REMARK H PARENT 10 19 12 21 4 23 21 25 18 27
REMARK Flexibility Score: inf
ROOT
ATOM      1  C   UNL     1      13.857  22.600  79.633  1.00  0.00     0.180 A 
ATOM      2  C   UNL     1      13.402  23.092  78.399  1.00  0.00     0.208 A 
ATOM      3  C   UNL     1      13.171  22.189  77.349  1.00  0.00     0.238 A 
ATOM      4  O   UNL     1      12.713  22.629  76.262  1.00  0.00    -0.285 OA
ATOM      5  C   UNL     1      13.413  20.807  77.541  1.00  0.00     0.111 A 
ATOM      6  C   UNL     1      13.251  19.808  76.535  1.00  0.00     0.134 A 
ATOM      7  C   UNL     1      13.392  18.456  76.875  1.00  0.00     0.093 A 
ATOM      8  C   UNL     1      13.754  18.072  78.166  1.00  0.00     0.123 A 
ATOM      9  C   UNL     1      13.972  19.045  79.143  1.00  0.00     0.094 A 
ATOM     10  C   UNL     1      13.804  20.399  78.844  1.00  0.00     0.146 A 
ATOM     11  O   UNL     1      14.011  21.291  79.804  1.00  0.00    -0.452 OA
ENDROOT
BRANCH   1  12
ATOM     12  C   UNL     1      14.147  23.492  80.779  1.00  0.00     0.025 A 
ATOM     13  C   UNL     1      15.467  23.785  81.163  1.00  0.00     0.016 A 
ATOM     14  C   UNL     1      15.717  24.610  82.262  1.00  0.00     0.051 A 
ATOM     15  C   UNL     1      14.654  25.145  83.001  1.00  0.00     0.157 A 
ATOM     16  C   UNL     1      13.084  24.013  81.537  1.00  0.00     0.062 A 
ATOM     17  C   UNL     1      13.331  24.841  82.638  1.00  0.00     0.158 A 
BRANCH  15  18
ATOM     18  O   UNL     1      14.906  25.970  84.096  1.00  0.00    -0.504 OA
ATOM     19  H   UNL     1      15.827  26.027  84.516  1.00  0.00     0.293 HD
ENDBRANCH  15  18
BRANCH  17  20
ATOM     20  O   UNL     1      12.251  25.350  83.357  1.00  0.00    -0.504 OA
ATOM     21  H   UNL     1      11.412  25.689  82.901  1.00  0.00     0.293 HD
ENDBRANCH  17  20
ENDBRANCH   1  12
BRANCH   2  22
ATOM     22  O   UNL     1      13.149  24.457  78.236  1.00  0.00    -0.502 OA
ATOM     23  H   UNL     1      12.239  24.867  78.411  1.00  0.00     0.293 HD
ENDBRANCH   2  22
BRANCH   6  24
ATOM     24  O   UNL     1      12.980  20.089  75.194  1.00  0.00    -0.507 OA
ATOM     25  H   UNL     1      12.118  20.485  74.852  1.00  0.00     0.293 HD
ENDBRANCH   6  24
BRANCH   8  26
ATOM     26  O   UNL     1      13.901  16.719  78.464  1.00  0.00    -0.508 OA
ATOM     27  H   UNL     1      13.565  16.330  79.337  1.00  0.00     0.293 HD
ENDBRANCH   8  26
TORSDOF 6
ENDMDL
MODEL 5
REMARK VINA RESULT:    -4.673      1.529      2.198
REMARK INTER + INTRA:          -5.913
REMARK INTER:                  -5.597
REMARK INTRA:                  -0.316
REMARK UNBOUND:                -0.284
REMARK SMILES O=c1c(O)c(-c2ccc(O)c(O)c2)oc2cc(O)cc(O)c12
REMARK SMILES IDX 5 1 3 2 2 3 1 4 22 5 20 6 19 7 17 8 16 9 15 10 14 11 6 12
REMARK SMILES IDX 7 13 8 14 9 15 13 16 11 17 10 18 12 20 4 22 21 24 18 26
REMARK H PARENT 10 19 12 21 4 23 21 25 18 27
REMARK Flexibility Score: inf
ROOT
ATOM      1  C   UNL     1       2.787  25.673  71.038  1.00  0.00     0.180 A 
ATOM      2  C   UNL     1       2.931  27.048  70.785  1.00  0.00     0.208 A 
ATOM      3  C   UNL     1       1.802  27.792  70.406  1.00  0.00     0.238 A 
ATOM      4  O   UNL     1       1.925  29.033  70.233  1.00  0.00    -0.285 OA
ATOM      5  C   UNL     1       0.548  27.150  70.269  1.00  0.00     0.111 A 
ATOM      6  C   UNL     1      -0.654  27.798  69.852  1.00  0.00     0.134 A 
ATOM      7  C   UNL     1      -1.864  27.093  69.879  1.00  0.00     0.093 A 
ATOM      8  C   UNL     1      -1.906  25.748  70.243  1.00  0.00     0.123 A 
ATOM      9  C   UNL     1      -0.728  25.088  70.596  1.00  0.00     0.094 A 
ATOM     10  C   UNL     1       0.489  25.774  70.614  1.00  0.00     0.146 A 
ATOM     11  O   UNL     1       1.585  25.113  70.965  1.00  0.00    -0.452 OA
ENDROOT
BRANCH   1  12
ATOM     12  C   UNL     1       3.935  24.817  71.416  1.00  0.00     0.025 A 
ATOM     13  C   UNL     1       4.250  24.569  72.763  1.00  0.00     0.016 A 
ATOM     14  C   UNL     1       5.352  23.778  73.097  1.00  0.00     0.051 A 
ATOM     15  C   UNL     1       6.163  23.234  72.092  1.00  0.00     0.157 A 
ATOM     16  C   UNL     1       4.763  24.288  70.412  1.00  0.00     0.062 A 
ATOM     17  C   UNL     1       5.867  23.494  70.743  1.00  0.00     0.158 A 
BRANCH  15  18
ATOM     18  O   UNL     1       7.261  22.443  72.428  1.00  0.00    -0.504 OA
ATOM     19  H   UNL     1       7.304  21.944  73.309  1.00  0.00     0.293 HD
ENDBRANCH  15  18
BRANCH  17  20
ATOM     20  O   UNL     1       6.659  22.974  69.719  1.00  0.00    -0.504 OA
ATOM     21  H   UNL     1       6.376  23.014  68.747  1.00  0.00     0.293 HD
ENDBRANCH  17  20
ENDBRANCH   1  12
BRANCH   2  22
ATOM     22  O   UNL     1       4.173  27.667  70.947  1.00  0.00    -0.502 OA
ATOM     23  H   UNL     1       5.047  27.194  70.747  1.00  0.00     0.293 HD
ENDBRANCH   2  22
BRANCH   6  24
ATOM     24  O   UNL     1      -0.708  29.113  69.382  1.00  0.00    -0.507 OA
ATOM     25  H   UNL     1      -0.609  29.934  69.959  1.00  0.00     0.293 HD
ENDBRANCH   6  24
BRANCH   8  26
ATOM     26  O   UNL     1      -3.125  25.073  70.242  1.00  0.00    -0.508 OA
ATOM     27  H   UNL     1      -3.755  25.118  71.034  1.00  0.00     0.293 HD
ENDBRANCH   8  26
TORSDOF 6
ENDMDL
MODEL 6
REMARK VINA RESULT:    -4.594     12.711     15.405
REMARK INTER + INTRA:          -5.817
REMARK INTER:                  -5.593
REMARK INTRA:                  -0.224
REMARK UNBOUND:                -0.284
REMARK SMILES O=c1c(O)c(-c2ccc(O)c(O)c2)oc2cc(O)cc(O)c12
REMARK SMILES IDX 5 1 3 2 2 3 1 4 22 5 20 6 19 7 17 8 16 9 15 10 14 11 6 12
REMARK SMILES IDX 7 13 8 14 9 15 13 16 11 17 10 18 12 20 4 22 21 24 18 26
REMARK H PARENT 10 19 12 21 4 23 21 25 18 27
REMARK Flexibility Score: inf
ROOT
ATOM      1  C   UNL     1      14.411  19.895  78.896  1.00  0.00     0.180 A 
ATOM      2  C   UNL     1      15.064  19.886  77.652  1.00  0.00     0.208 A 
ATOM      3  C   UNL     1      15.486  18.661  77.113  1.00  0.00     0.238 A 
ATOM      4  O   UNL     1      16.023  18.653  75.975  1.00  0.00    -0.285 OA
ATOM      5  C   UNL     1      15.264  17.461  77.831  1.00  0.00     0.111 A 
ATOM      6  C   UNL     1      15.685  16.167  77.399  1.00  0.00     0.134 A 
ATOM      7  C   UNL     1      15.296  15.035  78.127  1.00  0.00     0.093 A 
ATOM      8  C   UNL     1      14.559  15.154  79.304  1.00  0.00     0.123 A 
ATOM      9  C   UNL     1      14.192  16.419  79.768  1.00  0.00     0.094 A 
ATOM     10  C   UNL     1      14.535  17.564  79.045  1.00  0.00     0.146 A 
ATOM     11  O   UNL     1      14.158  18.747  79.515  1.00  0.00    -0.452 OA
ENDROOT
BRANCH   1  12
ATOM     12  C   UNL     1      13.960  21.150  79.541  1.00  0.00     0.025 A 
ATOM     13  C   UNL     1      12.598  21.489  79.610  1.00  0.00     0.016 A 
ATOM     14  C   UNL     1      12.197  22.689  80.202  1.00  0.00     0.051 A 
ATOM     15  C   UNL     1      13.151  23.574  80.722  1.00  0.00     0.157 A 
ATOM     16  C   UNL     1      14.914  22.050  80.045  1.00  0.00     0.062 A 
ATOM     17  C   UNL     1      14.516  23.253  80.639  1.00  0.00     0.158 A 
BRANCH  15  18
ATOM     18  O   UNL     1      12.748  24.770  81.314  1.00  0.00    -0.504 OA
ATOM     19  H   UNL     1      13.276  25.192  82.069  1.00  0.00     0.293 HD
ENDBRANCH  15  18
BRANCH  17  20
ATOM     20  O   UNL     1      15.490  24.116  81.140  1.00  0.00    -0.504 OA
ATOM     21  H   UNL     1      15.434  25.120  81.019  1.00  0.00     0.293 HD
ENDBRANCH  17  20
ENDBRANCH   1  12
BRANCH   2  22
ATOM     22  O   UNL     1      15.255  21.079  76.950  1.00  0.00    -0.502 OA
ATOM     23  H   UNL     1      14.676  21.897  77.099  1.00  0.00     0.293 HD
ENDBRANCH   2  22
BRANCH   6  24
ATOM     24  O   UNL     1      16.501  15.944  76.287  1.00  0.00    -0.507 OA
ATOM     25  H   UNL     1      17.284  16.521  76.023  1.00  0.00     0.293 HD
ENDBRANCH   6  24
BRANCH   8  26
ATOM     26  O   UNL     1      14.202  14.008  80.011  1.00  0.00    -0.508 OA
ATOM     27  H   UNL     1      14.596  13.803  80.922  1.00  0.00     0.293 HD
ENDBRANCH   8  26
TORSDOF 6
ENDMDL
MODEL 7
REMARK VINA RESULT:    -4.589     10.013     12.503
REMARK INTER + INTRA:          -5.811
REMARK INTER:                  -5.562
REMARK INTRA:                  -0.250
REMARK UNBOUND:                -0.284
REMARK SMILES O=c1c(O)c(-c2ccc(O)c(O)c2)oc2cc(O)cc(O)c12
REMARK SMILES IDX 5 1 3 2 2 3 1 4 22 5 20 6 19 7 17 8 16 9 15 10 14 11 6 12
REMARK SMILES IDX 7 13 8 14 9 15 13 16 11 17 10 18 12 20 4 22 21 24 18 26
REMARK H PARENT 10 19 12 21 4 23 21 25 18 27
REMARK Flexibility Score: inf
ROOT
ATOM      1  C   UNL     1      12.573  18.898  75.001  1.00  0.00     0.180 A 
ATOM      2  C   UNL     1      12.705  20.294  75.084  1.00  0.00     0.208 A 
ATOM      3  C   UNL     1      13.155  20.866  76.285  1.00  0.00     0.238 A 
ATOM      4  O   UNL     1      13.323  22.112  76.337  1.00  0.00    -0.285 OA
ATOM      5  C   UNL     1      13.452  20.036  77.393  1.00  0.00     0.111 A 
ATOM      6  C   UNL     1      13.876  20.510  78.671  1.00  0.00     0.134 A 
ATOM      7  C   UNL     1      14.268  19.591  79.653  1.00  0.00     0.093 A 
ATOM      8  C   UNL     1      14.188  18.218  79.428  1.00  0.00     0.123 A 
ATOM      9  C   UNL     1      13.718  17.743  78.202  1.00  0.00     0.094 A 
ATOM     10  C   UNL     1      13.354  18.634  77.190  1.00  0.00     0.146 A 
ATOM     11  O   UNL     1      12.923  18.141  76.036  1.00  0.00    -0.452 OA
ENDROOT
BRANCH   1  12
ATOM     12  C   UNL     1      12.081  18.223  73.778  1.00  0.00     0.025 A 
ATOM     13  C   UNL     1      12.956  17.539  72.916  1.00  0.00     0.016 A 
ATOM     14  C   UNL     1      12.472  16.931  71.756  1.00  0.00     0.051 A 
ATOM     15  C   UNL     1      11.111  17.008  71.431  1.00  0.00     0.157 A 
ATOM     16  C   UNL     1      10.720  18.316  73.437  1.00  0.00     0.062 A 
ATOM     17  C   UNL     1      10.233  17.707  72.276  1.00  0.00     0.158 A 
BRANCH  15  18
ATOM     18  O   UNL     1      10.631  16.398  70.273  1.00  0.00    -0.504 OA
ATOM     19  H   UNL     1      10.467  16.927  69.424  1.00  0.00     0.293 HD
ENDBRANCH  15  18
BRANCH  17  20
ATOM     20  O   UNL     1       8.875  17.809  71.977  1.00  0.00    -0.504 OA
ATOM     21  H   UNL     1       8.183  18.023  72.685  1.00  0.00     0.293 HD
ENDBRANCH  17  20
ENDBRANCH   1  12
BRANCH   2  22
ATOM     22  O   UNL     1      12.428  21.094  73.972  1.00  0.00    -0.502 OA
ATOM     23  H   UNL     1      12.009  20.724  73.127  1.00  0.00     0.293 HD
ENDBRANCH   2  22
BRANCH   6  24
ATOM     24  O   UNL     1      13.906  21.859  79.031  1.00  0.00    -0.507 OA
ATOM     25  H   UNL     1      14.733  22.437  79.032  1.00  0.00     0.293 HD
ENDBRANCH   6  24
BRANCH   8  26
ATOM     26  O   UNL     1      14.571  17.333  80.433  1.00  0.00    -0.508 OA
ATOM     27  H   UNL     1      15.336  17.544  81.063  1.00  0.00     0.293 HD
ENDBRANCH   8  26
TORSDOF 6
ENDMDL
MODEL 8
REMARK VINA RESULT:    -4.467     12.481     14.964
REMARK INTER + INTRA:          -5.665
REMARK INTER:                  -5.345
REMARK INTRA:                  -0.320
REMARK UNBOUND:                -0.284
REMARK SMILES O=c1c(O)c(-c2ccc(O)c(O)c2)oc2cc(O)cc(O)c12
REMARK SMILES IDX 5 1 3 2 2 3 1 4 22 5 20 6 19 7 17 8 16 9 15 10 14 11 6 12
REMARK SMILES IDX 7 13 8 14 9 15 13 16 11 17 10 18 12 20 4 22 21 24 18 26
REMARK H PARENT 10 19 12 21 4 23 21 25 18 27
REMARK Flexibility Score: inf
ROOT
ATOM      1  C   UNL     1      14.004  24.088  80.833  1.00  0.00     0.180 A 
ATOM      2  C   UNL     1      15.312  23.813  81.266  1.00  0.00     0.208 A 
ATOM      3  C   UNL     1      15.934  22.627  80.843  1.00  0.00     0.238 A 
ATOM      4  O   UNL     1      17.125  22.412  81.190  1.00  0.00    -0.285 OA
ATOM      5  C   UNL     1      15.235  21.724  80.007  1.00  0.00     0.111 A 
ATOM      6  C   UNL     1      15.753  20.475  79.550  1.00  0.00     0.134 A 
ATOM      7  C   UNL     1      15.024  19.723  78.620  1.00  0.00     0.093 A 
ATOM      8  C   UNL     1      13.769  20.142  78.180  1.00  0.00     0.123 A 
ATOM      9  C   UNL     1      13.227  21.333  78.665  1.00  0.00     0.094 A 
ATOM     10  C   UNL     1      13.946  22.123  79.566  1.00  0.00     0.146 A 
ATOM     11  O   UNL     1      13.399  23.253  79.995  1.00  0.00    -0.452 OA
ENDROOT
BRANCH   1  12
ATOM     12  C   UNL     1      13.273  25.304  81.257  1.00  0.00     0.025 A 
ATOM     13  C   UNL     1      13.311  26.485  80.495  1.00  0.00     0.016 A 
ATOM     14  C   UNL     1      12.633  27.627  80.926  1.00  0.00     0.051 A 
ATOM     15  C   UNL     1      11.918  27.612  82.131  1.00  0.00     0.157 A 
ATOM     16  C   UNL     1      12.571  25.300  82.475  1.00  0.00     0.062 A 
ATOM     17  C   UNL     1      11.890  26.443  82.909  1.00  0.00     0.158 A 
BRANCH  15  18
ATOM     18  O   UNL     1      11.240  28.753  82.558  1.00  0.00    -0.504 OA
ATOM     19  H   UNL     1      10.343  29.015  82.165  1.00  0.00     0.293 HD
ENDBRANCH  15  18
BRANCH  17  20
ATOM     20  O   UNL     1      11.194  26.398  84.116  1.00  0.00    -0.504 OA
ATOM     21  H   UNL     1      11.321  25.646  84.783  1.00  0.00     0.293 HD
ENDBRANCH  17  20
ENDBRANCH   1  12
BRANCH   2  22
ATOM     22  O   UNL     1      15.992  24.728  82.074  1.00  0.00    -0.502 OA
ATOM     23  H   UNL     1      16.619  25.428  81.695  1.00  0.00     0.293 HD
ENDBRANCH   2  22
BRANCH   6  24
ATOM     24  O   UNL     1      16.956  19.920  79.996  1.00  0.00    -0.507 OA
ATOM     25  H   UNL     1      17.821  19.930  79.478  1.00  0.00     0.293 HD
ENDBRANCH   6  24
BRANCH   8  26
ATOM     26  O   UNL     1      13.065  19.361  77.267  1.00  0.00    -0.508 OA
ATOM     27  H   UNL     1      12.105  19.085  77.435  1.00  0.00     0.293 HD
ENDBRANCH   8  26
TORSDOF 6
ENDMDL
MODEL 9
REMARK VINA RESULT:    -4.375      2.448      3.935
REMARK INTER + INTRA:          -5.553
REMARK INTER:                  -5.326
REMARK INTRA:                  -0.227
REMARK UNBOUND:                -0.284
REMARK SMILES O=c1c(O)c(-c2ccc(O)c(O)c2)oc2cc(O)cc(O)c12
REMARK SMILES IDX 5 1 3 2 2 3 1 4 22 5 20 6 19 7 17 8 16 9 15 10 14 11 6 12
REMARK SMILES IDX 7 13 8 14 9 15 13 16 11 17 10 18 12 20 4 22 21 24 18 26
REMARK H PARENT 10 19 12 21 4 23 21 25 18 27
REMARK Flexibility Score: inf
ROOT
ATOM      1  C   UNL     1       6.729  24.133  71.663  1.00  0.00     0.180 A 
ATOM      2  C   UNL     1       6.549  23.619  70.367  1.00  0.00     0.208 A 
ATOM      3  C   UNL     1       5.296  23.758  69.748  1.00  0.00     0.238 A 
ATOM      4  O   UNL     1       5.155  23.344  68.568  1.00  0.00    -0.285 OA
ATOM      5  C   UNL     1       4.236  24.395  70.437  1.00  0.00     0.111 A 
ATOM      6  C   UNL     1       2.915  24.555  69.922  1.00  0.00     0.134 A 
ATOM      7  C   UNL     1       1.982  25.317  70.638  1.00  0.00     0.093 A 
ATOM      8  C   UNL     1       2.301  25.868  71.878  1.00  0.00     0.123 A 
ATOM      9  C   UNL     1       3.573  25.667  72.419  1.00  0.00     0.094 A 
ATOM     10  C   UNL     1       4.536  24.942  71.713  1.00  0.00     0.146 A 
ATOM     11  O   UNL     1       5.736  24.784  72.257  1.00  0.00    -0.452 OA
ENDROOT
BRANCH   1  12
ATOM     12  C   UNL     1       8.013  24.002  72.391  1.00  0.00     0.025 A 
ATOM     13  C   UNL     1       8.477  22.753  72.838  1.00  0.00     0.016 A 
ATOM     14  C   UNL     1       9.679  22.657  73.544  1.00  0.00     0.051 A 
ATOM     15  C   UNL     1      10.428  23.807  73.824  1.00  0.00     0.157 A 
ATOM     16  C   UNL     1       8.757  25.155  72.692  1.00  0.00     0.062 A 
ATOM     17  C   UNL     1       9.962  25.063  73.398  1.00  0.00     0.158 A 
BRANCH  15  18
ATOM     18  O   UNL     1      11.628  23.708  74.526  1.00  0.00    -0.504 OA
ATOM     19  H   UNL     1      12.505  24.020  74.124  1.00  0.00     0.293 HD
ENDBRANCH  15  18
BRANCH  17  20
ATOM     20  O   UNL     1      10.680  26.227  73.667  1.00  0.00    -0.504 OA
ATOM     21  H   UNL     1      11.362  26.277  74.415  1.00  0.00     0.293 HD
ENDBRANCH  17  20
ENDBRANCH   1  12
BRANCH   2  22
ATOM     22  O   UNL     1       7.614  23.013  69.696  1.00  0.00    -0.502 OA
ATOM     23  H   UNL     1       8.407  23.538  69.346  1.00  0.00     0.293 HD
ENDBRANCH   2  22
BRANCH   6  24
ATOM     24  O   UNL     1       2.464  23.970  68.736  1.00  0.00    -0.507 OA
ATOM     25  H   UNL     1       2.719  24.277  67.810  1.00  0.00     0.293 HD
ENDBRANCH   6  24
BRANCH   8  26
ATOM     26  O   UNL     1       1.344  26.607  72.569  1.00  0.00    -0.508 OA
ATOM     27  H   UNL     1       0.415  26.752  72.194  1.00  0.00     0.293 HD
ENDBRANCH   8  26
TORSDOF 6
ENDMDL
