MODEL 1
REMARK VINA RESULT:    -5.172      0.000      0.000
REMARK INTER + INTRA:          -6.350
REMARK INTER:                  -6.079
REMARK INTRA:                  -0.271
REMARK UNBOUND:                -0.271
REMARK SMILES O=c1c(O)c(-c2ccc(O)cc2)oc2cc(O)cc(O)c12
REMARK SMILES IDX 5 1 3 2 2 3 1 4 21 5 19 6 18 7 16 8 15 9 14 10 13 11 6 12
REMARK SMILES IDX 7 13 8 14 9 15 12 16 11 17 10 18 4 20 20 22 17 24
REMARK H PARENT 10 19 4 21 20 23 17 25
REMARK Flexibility Score: inf
ROOT
ATOM      1  C   UNL     1       4.449   6.613   2.105  1.00  0.00     0.180 A 
ATOM      2  C   UNL     1       4.918   7.242   0.938  1.00  0.00     0.208 A 
ATOM      3  C   UNL     1       6.227   6.982   0.502  1.00  0.00     0.238 A 
ATOM      4  O   UNL     1       6.658   7.588  -0.512  1.00  0.00    -0.285 OA
ATOM      5  C   UNL     1       7.045   6.084   1.230  1.00  0.00     0.111 A 
ATOM      6  C   UNL     1       8.373   5.715   0.857  1.00  0.00     0.134 A 
ATOM      7  C   UNL     1       9.137   4.921   1.722  1.00  0.00     0.093 A 
ATOM      8  C   UNL     1       8.598   4.429   2.912  1.00  0.00     0.123 A 
ATOM      9  C   UNL     1       7.283   4.734   3.255  1.00  0.00     0.094 A 
ATOM     10  C   UNL     1       6.508   5.554   2.431  1.00  0.00     0.146 A 
ATOM     11  O   UNL     1       5.263   5.828   2.801  1.00  0.00    -0.452 OA
ENDROOT
BRANCH   1  12
ATOM     12  C   UNL     1       3.073   6.819   2.613  1.00  0.00     0.021 A 
ATOM     13  C   UNL     1       1.975   6.151   2.044  1.00  0.00     0.016 A 
ATOM     14  C   UNL     1       0.687   6.342   2.556  1.00  0.00     0.047 A 
ATOM     15  C   UNL     1       0.483   7.190   3.649  1.00  0.00     0.115 A 
ATOM     16  C   UNL     1       2.864   7.654   3.723  1.00  0.00     0.016 A 
ATOM     17  C   UNL     1       1.576   7.844   4.233  1.00  0.00     0.047 A 
BRANCH  15  18
ATOM     18  O   UNL     1      -0.805   7.372   4.147  1.00  0.00    -0.508 OA
ATOM     19  H   UNL     1      -1.611   6.957   3.694  1.00  0.00     0.293 HD
ENDBRANCH  15  18
ENDBRANCH   1  12
BRANCH   2  20
ATOM     20  O   UNL     1       4.100   8.142   0.247  1.00  0.00    -0.502 OA
ATOM     21  H   UNL     1       3.711   8.968   0.683  1.00  0.00     0.293 HD
ENDBRANCH   2  20
BRANCH   6  22
ATOM     22  O   UNL     1       8.973   6.077  -0.353  1.00  0.00    -0.507 OA
ATOM     23  H   UNL     1       8.496   6.526  -1.119  1.00  0.00     0.293 HD
ENDBRANCH   6  22
BRANCH   8  24
ATOM     24  O   UNL     1       9.360   3.626   3.759  1.00  0.00    -0.508 OA
ATOM     25  H   UNL     1      10.027   4.026   4.410  1.00  0.00     0.293 HD
ENDBRANCH   8  24
TORSDOF 5
ENDMDL
MODEL 2
REMARK VINA RESULT:    -5.003      0.100      1.062
REMARK INTER + INTRA:          -6.151
REMARK INTER:                  -5.908
REMARK INTRA:                  -0.243
REMARK UNBOUND:                -0.271
REMARK SMILES O=c1c(O)c(-c2ccc(O)cc2)oc2cc(O)cc(O)c12
REMARK SMILES IDX 5 1 3 2 2 3 1 4 21 5 19 6 18 7 16 8 15 9 14 10 13 11 6 12
REMARK SMILES IDX 7 13 8 14 9 15 12 16 11 17 10 18 4 20 20 22 17 24
REMARK H PARENT 10 19 4 21 20 23 17 25
REMARK Flexibility Score: inf
ROOT
ATOM      1  C   UNL     1       4.471   6.653   2.182  1.00  0.00     0.180 A 
ATOM      2  C   UNL     1       4.914   7.254   0.991  1.00  0.00     0.208 A 
ATOM      3  C   UNL     1       6.208   6.970   0.525  1.00  0.00     0.238 A 
ATOM      4  O   UNL     1       6.618   7.552  -0.512  1.00  0.00    -0.285 OA
ATOM      5  C   UNL     1       7.035   6.077   1.247  1.00  0.00     0.111 A 
ATOM      6  C   UNL     1       8.348   5.686   0.846  1.00  0.00     0.134 A 
ATOM      7  C   UNL     1       9.127   4.899   1.705  1.00  0.00     0.093 A 
ATOM      8  C   UNL     1       8.616   4.436   2.919  1.00  0.00     0.123 A 
ATOM      9  C   UNL     1       7.314   4.763   3.291  1.00  0.00     0.094 A 
ATOM     10  C   UNL     1       6.526   5.576   2.473  1.00  0.00     0.146 A 
ATOM     11  O   UNL     1       5.295   5.872   2.871  1.00  0.00    -0.452 OA
ENDROOT
BRANCH   1  12
ATOM     12  C   UNL     1       3.112   6.884   2.723  1.00  0.00     0.021 A 
ATOM     13  C   UNL     1       2.888   7.777   3.786  1.00  0.00     0.016 A 
ATOM     14  C   UNL     1       1.593   7.999   4.264  1.00  0.00     0.047 A 
ATOM     15  C   UNL     1       0.505   7.344   3.678  1.00  0.00     0.115 A 
ATOM     16  C   UNL     1       2.012   6.246   2.125  1.00  0.00     0.016 A 
ATOM     17  C   UNL     1       0.718   6.469   2.605  1.00  0.00     0.047 A 
BRANCH  15  18
ATOM     18  O   UNL     1      -0.780   7.574   4.165  1.00  0.00    -0.508 OA
ATOM     19  H   UNL     1      -0.948   7.759   5.148  1.00  0.00     0.293 HD
ENDBRANCH  15  18
ENDBRANCH   1  12
BRANCH   2  20
ATOM     20  O   UNL     1       4.088   8.150   0.305  1.00  0.00    -0.502 OA
ATOM     21  H   UNL     1       3.746   7.967  -0.630  1.00  0.00     0.293 HD
ENDBRANCH   2  20
BRANCH   6  22
ATOM     22  O   UNL     1       8.919   6.017  -0.386  1.00  0.00    -0.507 OA
ATOM     23  H   UNL     1       8.959   5.404  -1.185  1.00  0.00     0.293 HD
ENDBRANCH   6  22
BRANCH   8  24
ATOM     24  O   UNL     1       9.392   3.641   3.760  1.00  0.00    -0.508 OA
ATOM     25  H   UNL     1      10.391   3.546   3.626  1.00  0.00     0.293 HD
ENDBRANCH   8  24
TORSDOF 5
ENDMDL
MODEL 3
REMARK VINA RESULT:    -4.988      2.007      6.654
REMARK INTER + INTRA:          -6.134
REMARK INTER:                  -5.871
REMARK INTRA:                  -0.263
REMARK UNBOUND:                -0.271
REMARK SMILES O=c1c(O)c(-c2ccc(O)cc2)oc2cc(O)cc(O)c12
REMARK SMILES IDX 5 1 3 2 2 3 1 4 21 5 19 6 18 7 16 8 15 9 14 10 13 11 6 12
REMARK SMILES IDX 7 13 8 14 9 15 12 16 11 17 10 18 4 20 20 22 17 24
REMARK H PARENT 10 19 4 21 20 23 17 25
REMARK Flexibility Score: inf
ROOT
ATOM      1  C   UNL     1       4.901   6.357   2.857  1.00  0.00     0.180 A 
ATOM      2  C   UNL     1       4.363   5.975   1.616  1.00  0.00     0.208 A 
ATOM      3  C   UNL     1       3.066   6.394   1.278  1.00  0.00     0.238 A 
ATOM      4  O   UNL     1       2.569   6.005   0.190  1.00  0.00    -0.285 OA
ATOM      5  C   UNL     1       2.330   7.202   2.179  1.00  0.00     0.111 A 
ATOM      6  C   UNL     1       1.024   7.716   1.923  1.00  0.00     0.134 A 
ATOM      7  C   UNL     1       0.338   8.395   2.939  1.00  0.00     0.093 A 
ATOM      8  C   UNL     1       0.938   8.633   4.178  1.00  0.00     0.123 A 
ATOM      9  C   UNL     1       2.235   8.187   4.416  1.00  0.00     0.094 A 
ATOM     10  C   UNL     1       2.931   7.475   3.435  1.00  0.00     0.146 A 
ATOM     11  O   UNL     1       4.161   7.059   3.707  1.00  0.00    -0.452 OA
ENDROOT
BRANCH   1  12
ATOM     12  C   UNL     1       6.270   5.974   3.272  1.00  0.00     0.021 A 
ATOM     13  C   UNL     1       7.342   6.881   3.186  1.00  0.00     0.016 A 
ATOM     14  C   UNL     1       8.622   6.506   3.608  1.00  0.00     0.047 A 
ATOM     15  C   UNL     1       8.844   5.229   4.132  1.00  0.00     0.115 A 
ATOM     16  C   UNL     1       6.497   4.700   3.819  1.00  0.00     0.016 A 
ATOM     17  C   UNL     1       7.777   4.328   4.239  1.00  0.00     0.047 A 
BRANCH  15  18
ATOM     18  O   UNL     1      10.124   4.869   4.547  1.00  0.00    -0.508 OA
ATOM     19  H   UNL     1      10.423   3.900   4.561  1.00  0.00     0.293 HD
ENDBRANCH  15  18
ENDBRANCH   1  12
BRANCH   2  20
ATOM     20  O   UNL     1       5.098   5.159   0.750  1.00  0.00    -0.502 OA
ATOM     21  H   UNL     1       5.964   4.714   1.027  1.00  0.00     0.293 HD
ENDBRANCH   2  20
BRANCH   6  22
ATOM     22  O   UNL     1       0.371   7.614   0.691  1.00  0.00    -0.507 OA
ATOM     23  H   UNL     1      -0.597   7.844   0.532  1.00  0.00     0.293 HD
ENDBRANCH   6  22
BRANCH   8  24
ATOM     24  O   UNL     1       0.254   9.323   5.177  1.00  0.00    -0.508 OA
ATOM     25  H   UNL     1      -0.299   8.836   5.873  1.00  0.00     0.293 HD
ENDBRANCH   8  24
TORSDOF 5
ENDMDL
MODEL 4
REMARK VINA RESULT:    -4.908      1.438      2.085
REMARK INTER + INTRA:          -6.040
REMARK INTER:                  -5.760
REMARK INTRA:                  -0.280
REMARK UNBOUND:                -0.271
REMARK SMILES O=c1c(O)c(-c2ccc(O)cc2)oc2cc(O)cc(O)c12
REMARK SMILES IDX 5 1 3 2 2 3 1 4 21 5 19 6 18 7 16 8 15 9 14 10 13 11 6 12
REMARK SMILES IDX 7 13 8 14 9 15 12 16 11 17 10 18 4 20 20 22 17 24
REMARK H PARENT 10 19 4 21 20 23 17 25
REMARK Flexibility Score: inf
ROOT
ATOM      1  C   UNL     1       3.348   7.633   2.983  1.00  0.00     0.180 A 
ATOM      2  C   UNL     1       3.482   8.342   1.777  1.00  0.00     0.208 A 
ATOM      3  C   UNL     1       4.519   7.997   0.895  1.00  0.00     0.238 A 
ATOM      4  O   UNL     1       4.666   8.670  -0.157  1.00  0.00    -0.285 OA
ATOM      5  C   UNL     1       5.398   6.937   1.223  1.00  0.00     0.111 A 
ATOM      6  C   UNL     1       6.459   6.476   0.386  1.00  0.00     0.134 A 
ATOM      7  C   UNL     1       7.348   5.507   0.869  1.00  0.00     0.093 A 
ATOM      8  C   UNL     1       7.176   4.938   2.133  1.00  0.00     0.123 A 
ATOM      9  C   UNL     1       6.109   5.339   2.933  1.00  0.00     0.094 A 
ATOM     10  C   UNL     1       5.226   6.328   2.493  1.00  0.00     0.146 A 
ATOM     11  O   UNL     1       4.229   6.688   3.292  1.00  0.00    -0.452 OA
ENDROOT
BRANCH   1  12
ATOM     12  C   UNL     1       2.266   7.922   3.951  1.00  0.00     0.021 A 
ATOM     13  C   UNL     1       0.966   7.414   3.771  1.00  0.00     0.016 A 
ATOM     14  C   UNL     1      -0.034   7.681   4.712  1.00  0.00     0.047 A 
ATOM     15  C   UNL     1       0.253   8.444   5.848  1.00  0.00     0.115 A 
ATOM     16  C   UNL     1       2.552   8.671   5.105  1.00  0.00     0.016 A 
ATOM     17  C   UNL     1       1.550   8.936   6.043  1.00  0.00     0.047 A 
BRANCH  15  18
ATOM     18  O   UNL     1      -0.754   8.702   6.775  1.00  0.00    -0.508 OA
ATOM     19  H   UNL     1      -1.224   9.599   6.809  1.00  0.00     0.293 HD
ENDBRANCH  15  18
ENDBRANCH   1  12
BRANCH   2  20
ATOM     20  O   UNL     1       2.616   9.399   1.482  1.00  0.00    -0.502 OA
ATOM     21  H   UNL     1       2.560  10.232   2.054  1.00  0.00     0.293 HD
ENDBRANCH   2  20
BRANCH   6  22
ATOM     22  O   UNL     1       6.663   6.913  -0.926  1.00  0.00    -0.507 OA
ATOM     23  H   UNL     1       6.130   6.604  -1.724  1.00  0.00     0.293 HD
ENDBRANCH   6  22
BRANCH   8  24
ATOM     24  O   UNL     1       8.057   3.964   2.599  1.00  0.00    -0.508 OA
ATOM     25  H   UNL     1       7.858   2.976   2.494  1.00  0.00     0.293 HD
ENDBRANCH   8  24
TORSDOF 5
ENDMDL
MODEL 5
REMARK VINA RESULT:    -4.627      1.762      6.781
REMARK INTER + INTRA:          -5.709
REMARK INTER:                  -5.493
REMARK INTRA:                  -0.217
REMARK UNBOUND:                -0.271
REMARK SMILES O=c1c(O)c(-c2ccc(O)cc2)oc2cc(O)cc(O)c12
REMARK SMILES IDX 5 1 3 2 2 3 1 4 21 5 19 6 18 7 16 8 15 9 14 10 13 11 6 12
REMARK SMILES IDX 7 13 8 14 9 15 12 16 11 17 10 18 4 20 20 22 17 24
REMARK H PARENT 10 19 4 21 20 23 17 25
REMARK Flexibility Score: inf
ROOT
ATOM      1  C   UNL     1       4.197   6.707   2.557  1.00  0.00     0.180 A 
ATOM      2  C   UNL     1       3.054   6.542   1.755  1.00  0.00     0.208 A 
ATOM      3  C   UNL     1       1.822   7.034   2.216  1.00  0.00     0.238 A 
ATOM      4  O   UNL     1       0.794   6.837   1.519  1.00  0.00    -0.285 OA
ATOM      5  C   UNL     1       1.752   7.698   3.465  1.00  0.00     0.111 A 
ATOM      6  C   UNL     1       0.565   8.272   4.011  1.00  0.00     0.134 A 
ATOM      7  C   UNL     1       0.584   8.789   5.313  1.00  0.00     0.093 A 
ATOM      8  C   UNL     1       1.763   8.811   6.061  1.00  0.00     0.123 A 
ATOM      9  C   UNL     1       2.940   8.308   5.514  1.00  0.00     0.094 A 
ATOM     10  C   UNL     1       2.945   7.753   4.232  1.00  0.00     0.146 A 
ATOM     11  O   UNL     1       4.086   7.275   3.752  1.00  0.00    -0.452 OA
ENDROOT
BRANCH   1  12
ATOM     12  C   UNL     1       5.534   6.236   2.128  1.00  0.00     0.021 A 
ATOM     13  C   UNL     1       6.238   6.877   1.092  1.00  0.00     0.016 A 
ATOM     14  C   UNL     1       7.511   6.430   0.720  1.00  0.00     0.047 A 
ATOM     15  C   UNL     1       8.100   5.351   1.386  1.00  0.00     0.115 A 
ATOM     16  C   UNL     1       6.141   5.166   2.805  1.00  0.00     0.016 A 
ATOM     17  C   UNL     1       7.413   4.721   2.431  1.00  0.00     0.047 A 
BRANCH  15  18
ATOM     18  O   UNL     1       9.368   4.917   1.004  1.00  0.00    -0.508 OA
ATOM     19  H   UNL     1       9.982   5.501   0.448  1.00  0.00     0.293 HD
ENDBRANCH  15  18
ENDBRANCH   1  12
BRANCH   2  20
ATOM     20  O   UNL     1       3.142   5.864   0.535  1.00  0.00    -0.502 OA
ATOM     21  H   UNL     1       3.593   4.963   0.445  1.00  0.00     0.293 HD
ENDBRANCH   2  20
BRANCH   6  22
ATOM     22  O   UNL     1      -0.641   8.383   3.313  1.00  0.00    -0.507 OA
ATOM     23  H   UNL     1      -0.746   8.240   2.320  1.00  0.00     0.293 HD
ENDBRANCH   6  22
BRANCH   8  24
ATOM     24  O   UNL     1       1.776   9.341   7.350  1.00  0.00    -0.508 OA
ATOM     25  H   UNL     1       2.349   8.939   8.082  1.00  0.00     0.293 HD
ENDBRANCH   8  24
TORSDOF 5
ENDMDL
MODEL 6
REMARK VINA RESULT:    -4.254      2.240      2.868
REMARK INTER + INTRA:          -5.271
REMARK INTER:                  -5.078
REMARK INTRA:                  -0.193
REMARK UNBOUND:                -0.271
REMARK SMILES O=c1c(O)c(-c2ccc(O)cc2)oc2cc(O)cc(O)c12
REMARK SMILES IDX 5 1 3 2 2 3 1 4 21 5 19 6 18 7 16 8 15 9 14 10 13 11 6 12
REMARK SMILES IDX 7 13 8 14 9 15 12 16 11 17 10 18 4 20 20 22 17 24
REMARK H PARENT 10 19 4 21 20 23 17 25
REMARK Flexibility Score: inf
ROOT
ATOM      1  C   UNL     1       5.173   7.346   0.740  1.00  0.00     0.180 A 
ATOM      2  C   UNL     1       5.611   8.649   0.449  1.00  0.00     0.208 A 
ATOM      3  C   UNL     1       6.819   8.822  -0.245  1.00  0.00     0.238 A 
ATOM      4  O   UNL     1       7.233   9.991  -0.456  1.00  0.00    -0.285 OA
ATOM      5  C   UNL     1       7.565   7.689  -0.653  1.00  0.00     0.111 A 
ATOM      6  C   UNL     1       8.782   7.746  -1.396  1.00  0.00     0.134 A 
ATOM      7  C   UNL     1       9.503   6.568  -1.632  1.00  0.00     0.093 A 
ATOM      8  C   UNL     1       9.017   5.330  -1.206  1.00  0.00     0.123 A 
ATOM      9  C   UNL     1       7.801   5.258  -0.532  1.00  0.00     0.094 A 
ATOM     10  C   UNL     1       7.077   6.419  -0.251  1.00  0.00     0.146 A 
ATOM     11  O   UNL     1       5.928   6.307   0.403  1.00  0.00    -0.452 OA
ENDROOT
BRANCH   1  12
ATOM     12  C   UNL     1       3.898   7.084   1.447  1.00  0.00     0.021 A 
ATOM     13  C   UNL     1       3.744   7.377   2.814  1.00  0.00     0.016 A 
ATOM     14  C   UNL     1       2.522   7.144   3.454  1.00  0.00     0.047 A 
ATOM     15  C   UNL     1       1.438   6.629   2.737  1.00  0.00     0.115 A 
ATOM     16  C   UNL     1       2.798   6.586   0.728  1.00  0.00     0.016 A 
ATOM     17  C   UNL     1       1.579   6.354   1.371  1.00  0.00     0.047 A 
BRANCH  15  18
ATOM     18  O   UNL     1       0.228   6.401   3.388  1.00  0.00    -0.508 OA
ATOM     19  H   UNL     1      -0.290   5.540   3.255  1.00  0.00     0.293 HD
ENDBRANCH  15  18
ENDBRANCH   1  12
BRANCH   2  20
ATOM     20  O   UNL     1       4.870   9.754   0.879  1.00  0.00    -0.502 OA
ATOM     21  H   UNL     1       3.875   9.839   0.714  1.00  0.00     0.293 HD
ENDBRANCH   2  20
BRANCH   6  22
ATOM     22  O   UNL     1       9.307   8.920  -1.946  1.00  0.00    -0.507 OA
ATOM     23  H   UNL     1      10.260   9.230  -1.835  1.00  0.00     0.293 HD
ENDBRANCH   6  22
BRANCH   8  24
ATOM     24  O   UNL     1       9.734   4.161  -1.458  1.00  0.00    -0.508 OA
ATOM     25  H   UNL     1      10.333   3.746  -0.755  1.00  0.00     0.293 HD
ENDBRANCH   8  24
TORSDOF 5
ENDMDL
MODEL 7
REMARK VINA RESULT:    -4.198      2.246      6.428
REMARK INTER + INTRA:          -5.206
REMARK INTER:                  -4.917
REMARK INTRA:                  -0.289
REMARK UNBOUND:                -0.271
REMARK SMILES O=c1c(O)c(-c2ccc(O)cc2)oc2cc(O)cc(O)c12
REMARK SMILES IDX 5 1 3 2 2 3 1 4 21 5 19 6 18 7 16 8 15 9 14 10 13 11 6 12
REMARK SMILES IDX 7 13 8 14 9 15 12 16 11 17 10 18 4 20 20 22 17 24
REMARK H PARENT 10 19 4 21 20 23 17 25
REMARK Flexibility Score: inf
ROOT
ATOM      1  C   UNL     1       5.846   5.860   3.494  1.00  0.00     0.180 A 
ATOM      2  C   UNL     1       5.510   5.549   2.165  1.00  0.00     0.208 A 
ATOM      3  C   UNL     1       4.470   6.258   1.543  1.00  0.00     0.238 A 
ATOM      4  O   UNL     1       4.138   5.939   0.372  1.00  0.00    -0.285 OA
ATOM      5  C   UNL     1       3.790   7.278   2.252  1.00  0.00     0.111 A 
ATOM      6  C   UNL     1       2.748   8.086   1.707  1.00  0.00     0.134 A 
ATOM      7  C   UNL     1       2.057   8.976   2.539  1.00  0.00     0.093 A 
ATOM      8  C   UNL     1       2.415   9.132   3.880  1.00  0.00     0.123 A 
ATOM      9  C   UNL     1       3.470   8.391   4.406  1.00  0.00     0.094 A 
ATOM     10  C   UNL     1       4.155   7.469   3.610  1.00  0.00     0.146 A 
ATOM     11  O   UNL     1       5.146   6.775   4.154  1.00  0.00    -0.452 OA
ENDROOT
BRANCH   1  12
ATOM     12  C   UNL     1       6.947   5.173   4.209  1.00  0.00     0.021 A 
ATOM     13  C   UNL     1       6.719   4.004   4.957  1.00  0.00     0.016 A 
ATOM     14  C   UNL     1       7.778   3.359   5.603  1.00  0.00     0.047 A 
ATOM     15  C   UNL     1       9.078   3.863   5.499  1.00  0.00     0.115 A 
ATOM     16  C   UNL     1       8.259   5.663   4.092  1.00  0.00     0.016 A 
ATOM     17  C   UNL     1       9.316   5.016   4.740  1.00  0.00     0.047 A 
BRANCH  15  18
ATOM     18  O   UNL     1      10.123   3.211   6.149  1.00  0.00    -0.508 OA
ATOM     19  H   UNL     1      11.072   3.564   6.111  1.00  0.00     0.293 HD
ENDBRANCH  15  18
ENDBRANCH   1  12
BRANCH   2  20
ATOM     20  O   UNL     1       6.180   4.524   1.491  1.00  0.00    -0.502 OA
ATOM     21  H   UNL     1       7.078   4.169   1.795  1.00  0.00     0.293 HD
ENDBRANCH   2  20
BRANCH   6  22
ATOM     22  O   UNL     1       2.375   8.075   0.359  1.00  0.00    -0.507 OA
ATOM     23  H   UNL     1       2.563   8.817  -0.296  1.00  0.00     0.293 HD
ENDBRANCH   6  22
BRANCH   8  24
ATOM     24  O   UNL     1       1.732  10.031   4.698  1.00  0.00    -0.508 OA
ATOM     25  H   UNL     1       0.784  10.320   4.491  1.00  0.00     0.293 HD
ENDBRANCH   8  24
TORSDOF 5
ENDMDL
MODEL 8
REMARK VINA RESULT:    -4.179      4.676      7.242
REMARK INTER + INTRA:          -5.183
REMARK INTER:                  -4.890
REMARK INTRA:                  -0.293
REMARK UNBOUND:                -0.271
REMARK SMILES O=c1c(O)c(-c2ccc(O)cc2)oc2cc(O)cc(O)c12
REMARK SMILES IDX 5 1 3 2 2 3 1 4 21 5 19 6 18 7 16 8 15 9 14 10 13 11 6 12
REMARK SMILES IDX 7 13 8 14 9 15 12 16 11 17 10 18 4 20 20 22 17 24
REMARK H PARENT 10 19 4 21 20 23 17 25
REMARK Flexibility Score: inf
ROOT
ATOM      1  C   UNL     1       7.925   5.551  -2.055  1.00  0.00     0.180 A 
ATOM      2  C   UNL     1       8.977   4.627  -2.186  1.00  0.00     0.208 A 
ATOM      3  C   UNL     1       9.216   4.041  -3.439  1.00  0.00     0.238 A 
ATOM      4  O   UNL     1      10.125   3.176  -3.538  1.00  0.00    -0.285 OA
ATOM      5  C   UNL     1       8.411   4.397  -4.548  1.00  0.00     0.111 A 
ATOM      6  C   UNL     1       8.590   3.896  -5.873  1.00  0.00     0.134 A 
ATOM      7  C   UNL     1       7.654   4.216  -6.864  1.00  0.00     0.093 A 
ATOM      8  C   UNL     1       6.583   5.071  -6.594  1.00  0.00     0.123 A 
ATOM      9  C   UNL     1       6.434   5.613  -5.320  1.00  0.00     0.094 A 
ATOM     10  C   UNL     1       7.331   5.284  -4.301  1.00  0.00     0.146 A 
ATOM     11  O   UNL     1       7.146   5.813  -3.098  1.00  0.00    -0.452 OA
ENDROOT
BRANCH   1  12
ATOM     12  C   UNL     1       7.627   6.228  -0.772  1.00  0.00     0.021 A 
ATOM     13  C   UNL     1       8.188   7.478  -0.456  1.00  0.00     0.016 A 
ATOM     14  C   UNL     1       7.873   8.111   0.751  1.00  0.00     0.047 A 
ATOM     15  C   UNL     1       6.984   7.511   1.649  1.00  0.00     0.115 A 
ATOM     16  C   UNL     1       6.719   5.641   0.125  1.00  0.00     0.016 A 
ATOM     17  C   UNL     1       6.406   6.275   1.331  1.00  0.00     0.047 A 
BRANCH  15  18
ATOM     18  O   UNL     1       6.681   8.152   2.848  1.00  0.00    -0.508 OA
ATOM     19  H   UNL     1       6.654   7.647   3.726  1.00  0.00     0.293 HD
ENDBRANCH  15  18
ENDBRANCH   1  12
BRANCH   2  20
ATOM     20  O   UNL     1       9.746   4.274  -1.073  1.00  0.00    -0.502 OA
ATOM     21  H   UNL     1       9.451   4.469  -0.124  1.00  0.00     0.293 HD
ENDBRANCH   2  20
BRANCH   6  22
ATOM     22  O   UNL     1       9.676   3.110  -6.270  1.00  0.00    -0.507 OA
ATOM     23  H   UNL     1      10.293   3.327  -7.038  1.00  0.00     0.293 HD
ENDBRANCH   6  22
BRANCH   8  24
ATOM     24  O   UNL     1       5.665   5.396  -7.591  1.00  0.00    -0.508 OA
ATOM     25  H   UNL     1       4.902   4.775  -7.831  1.00  0.00     0.293 HD
ENDBRANCH   8  24
TORSDOF 5
ENDMDL
