MODEL 1
REMARK VINA RESULT:    -4.072      0.000      0.000
REMARK INTER + INTRA:         -10.277
REMARK INTER:                  -7.880
REMARK INTRA:                  -2.397
REMARK UNBOUND:                -2.397
REMARK SMILES CCCCCCCCCCCCCCCCCC(=O)[O-]
REMARK SMILES IDX 10 1 11 2 12 3 13 4 14 5 15 6 16 7 17 8 18 9 19 10 20 11
REMARK SMILES IDX 9 12 8 13 7 14 6 15 5 16 4 17 3 18 2 19 1 20
REMARK H PARENT
REMARK Flexibility Score: inf
ROOT
ATOM      1  C   UNL     1       0.592   7.144  -1.513  1.00  0.00     0.000 C 
ENDROOT
BRANCH   1   2
ATOM      2  C   UNL     1       1.368   6.535  -2.692  1.00  0.00     0.000 C 
BRANCH   2   3
ATOM      3  C   UNL     1       1.721   7.578  -3.767  1.00  0.00     0.000 C 
BRANCH   3   4
ATOM      4  C   UNL     1       1.613   9.019  -3.246  1.00  0.00     0.000 C 
BRANCH   4   5
ATOM      5  C   UNL     1       2.986   9.694  -3.086  1.00  0.00     0.000 C 
BRANCH   5   6
ATOM      6  C   UNL     1       3.520   9.629  -1.645  1.00  0.00     0.000 C 
BRANCH   6   7
ATOM      7  C   UNL     1       4.361   8.377  -1.319  1.00  0.00     0.006 C 
BRANCH   7   8
ATOM      8  C   UNL     1       5.240   7.878  -2.478  1.00  0.00     0.053 C 
BRANCH   8   9
ATOM      9  C   UNL     1       5.040   6.419  -2.746  1.00  0.00     0.041 C 
ATOM     10  O   UNL     1       4.943   6.001  -3.931  1.00  0.00    -0.550 OA
ATOM     11  O   UNL     1       4.994   5.516  -1.691  1.00  0.00    -0.550 OA
ENDBRANCH   8   9
ENDBRANCH   7   8
ENDBRANCH   6   7
ENDBRANCH   5   6
ENDBRANCH   4   5
ENDBRANCH   3   4
ENDBRANCH   2   3
ENDBRANCH   1   2
BRANCH   1  12
ATOM     12  C   UNL     1       1.202   6.769  -0.151  1.00  0.00     0.000 C 
BRANCH  12  13
ATOM     13  C   UNL     1       1.269   7.964   0.814  1.00  0.00    -0.000 C 
BRANCH  13  14
ATOM     14  C   UNL     1      -0.087   8.678   0.962  1.00  0.00    -0.000 C 
BRANCH  14  15
ATOM     15  C   UNL     1      -0.531   8.806   2.429  1.00  0.00    -0.000 C 
BRANCH  15  16
ATOM     16  C   UNL     1      -1.010   7.470   3.020  1.00  0.00    -0.000 C 
BRANCH  16  17
ATOM     17  C   UNL     1      -0.117   6.971   4.170  1.00  0.00    -0.000 C 
BRANCH  17  18
ATOM     18  C   UNL     1       0.219   5.466   4.137  1.00  0.00    -0.000 C 
BRANCH  18  19
ATOM     19  C   UNL     1       0.052   4.792   2.764  1.00  0.00    -0.003 C 
ATOM     20  C   UNL     1      -0.815   3.534   2.819  1.00  0.00     0.004 C 
ENDBRANCH  18  19
ENDBRANCH  17  18
ENDBRANCH  16  17
ENDBRANCH  15  16
ENDBRANCH  14  15
ENDBRANCH  13  14
ENDBRANCH  12  13
ENDBRANCH   1  12
TORSDOF 16
ENDMDL
MODEL 2
REMARK VINA RESULT:    -3.970      2.555      6.256
REMARK INTER + INTRA:         -10.079
REMARK INTER:                  -7.511
REMARK INTRA:                  -2.569
REMARK UNBOUND:                -2.397
REMARK SMILES CCCCCCCCCCCCCCCCCC(=O)[O-]
REMARK SMILES IDX 10 1 11 2 12 3 13 4 14 5 15 6 16 7 17 8 18 9 19 10 20 11
REMARK SMILES IDX 9 12 8 13 7 14 6 15 5 16 4 17 3 18 2 19 1 20
REMARK H PARENT
REMARK Flexibility Score: inf
ROOT
ATOM      1  C   UNL     1      -0.014   9.401  -2.508  1.00  0.00     0.000 C 
ENDROOT
BRANCH   1   2
ATOM      2  C   UNL     1      -0.999   8.901  -1.438  1.00  0.00     0.000 C 
BRANCH   2   3
ATOM      3  C   UNL     1      -0.969   9.762  -0.162  1.00  0.00     0.000 C 
BRANCH   3   4
ATOM      4  C   UNL     1      -0.476   8.979   1.064  1.00  0.00     0.000 C 
BRANCH   4   5
ATOM      5  C   UNL     1       1.057   8.986   1.192  1.00  0.00     0.000 C 
BRANCH   5   6
ATOM      6  C   UNL     1       1.620   7.651   1.708  1.00  0.00     0.000 C 
BRANCH   6   7
ATOM      7  C   UNL     1       0.750   6.415   1.398  1.00  0.00     0.006 C 
BRANCH   7   8
ATOM      8  C   UNL     1       0.107   5.761   2.632  1.00  0.00     0.053 C 
BRANCH   8   9
ATOM      9  C   UNL     1       0.371   4.288   2.688  1.00  0.00     0.041 C 
ATOM     10  O   UNL     1      -0.556   3.469   2.452  1.00  0.00    -0.550 OA
ATOM     11  O   UNL     1       1.649   3.819   2.967  1.00  0.00    -0.550 OA
ENDBRANCH   8   9
ENDBRANCH   7   8
ENDBRANCH   6   7
ENDBRANCH   5   6
ENDBRANCH   4   5
ENDBRANCH   3   4
ENDBRANCH   2   3
ENDBRANCH   1   2
BRANCH   1  12
ATOM     12  C   UNL     1       1.233   8.507  -2.622  1.00  0.00     0.000 C 
BRANCH  12  13
ATOM     13  C   UNL     1       0.968   7.064  -2.164  1.00  0.00    -0.000 C 
BRANCH  13  14
ATOM     14  C   UNL     1       1.733   6.028  -3.008  1.00  0.00    -0.000 C 
BRANCH  14  15
ATOM     15  C   UNL     1       2.803   6.670  -3.907  1.00  0.00    -0.000 C 
BRANCH  15  16
ATOM     16  C   UNL     1       4.197   6.058  -3.696  1.00  0.00    -0.000 C 
BRANCH  16  17
ATOM     17  C   UNL     1       5.204   7.057  -3.098  1.00  0.00    -0.000 C 
BRANCH  17  18
ATOM     18  C   UNL     1       5.572   6.816  -1.620  1.00  0.00    -0.000 C 
BRANCH  18  19
ATOM     19  C   UNL     1       4.537   7.324  -0.601  1.00  0.00    -0.003 C 
ATOM     20  C   UNL     1       4.267   8.823  -0.723  1.00  0.00     0.004 C 
ENDBRANCH  18  19
ENDBRANCH  17  18
ENDBRANCH  16  17
ENDBRANCH  15  16
ENDBRANCH  14  15
ENDBRANCH  13  14
ENDBRANCH  12  13
ENDBRANCH   1  12
TORSDOF 16
ENDMDL
MODEL 3
REMARK VINA RESULT:    -3.929      1.660      2.530
REMARK INTER + INTRA:         -10.001
REMARK INTER:                  -7.918
REMARK INTRA:                  -2.083
REMARK UNBOUND:                -2.397
REMARK SMILES CCCCCCCCCCCCCCCCCC(=O)[O-]
REMARK SMILES IDX 10 1 11 2 12 3 13 4 14 5 15 6 16 7 17 8 18 9 19 10 20 11
REMARK SMILES IDX 9 12 8 13 7 14 6 15 5 16 4 17 3 18 2 19 1 20
REMARK H PARENT
REMARK Flexibility Score: inf
ROOT
ATOM      1  C   UNL     1       1.290   8.439  -2.705  1.00  0.00     0.000 C 
ENDROOT
BRANCH   1   2
ATOM      2  C   UNL     1       1.137   6.975  -2.262  1.00  0.00     0.000 C 
BRANCH   2   3
ATOM      3  C   UNL     1       1.690   5.984  -3.301  1.00  0.00     0.000 C 
BRANCH   3   4
ATOM      4  C   UNL     1       2.889   6.551  -4.074  1.00  0.00     0.000 C 
BRANCH   4   5
ATOM      5  C   UNL     1       4.233   6.236  -3.395  1.00  0.00     0.000 C 
BRANCH   5   6
ATOM      6  C   UNL     1       4.917   7.486  -2.813  1.00  0.00     0.000 C 
BRANCH   6   7
ATOM      7  C   UNL     1       4.846   7.609  -1.277  1.00  0.00     0.006 C 
BRANCH   7   8
ATOM      8  C   UNL     1       4.391   6.331  -0.554  1.00  0.00     0.053 C 
BRANCH   8   9
ATOM      9  C   UNL     1       5.497   5.716   0.247  1.00  0.00     0.041 C 
ATOM     10  O   UNL     1       6.691   5.816  -0.142  1.00  0.00    -0.550 OA
ATOM     11  O   UNL     1       5.214   5.062   1.439  1.00  0.00    -0.550 OA
ENDBRANCH   8   9
ENDBRANCH   7   8
ENDBRANCH   6   7
ENDBRANCH   5   6
ENDBRANCH   4   5
ENDBRANCH   3   4
ENDBRANCH   2   3
ENDBRANCH   1   2
BRANCH   1  12
ATOM     12  C   UNL     1       0.100   9.313  -2.270  1.00  0.00     0.000 C 
BRANCH  12  13
ATOM     13  C   UNL     1      -0.986   8.508  -1.539  1.00  0.00    -0.000 C 
BRANCH  13  14
ATOM     14  C   UNL     1      -1.246   9.029  -0.114  1.00  0.00    -0.000 C 
BRANCH  14  15
ATOM     15  C   UNL     1       0.037   9.118   0.728  1.00  0.00    -0.000 C 
BRANCH  15  16
ATOM     16  C   UNL     1       0.138   7.992   1.771  1.00  0.00    -0.000 C 
BRANCH  16  17
ATOM     17  C   UNL     1       0.976   6.798   1.282  1.00  0.00    -0.000 C 
BRANCH  17  18
ATOM     18  C   UNL     1       0.995   5.577   2.225  1.00  0.00    -0.000 C 
BRANCH  18  19
ATOM     19  C   UNL     1      -0.331   5.298   2.955  1.00  0.00    -0.003 C 
ATOM     20  C   UNL     1      -0.717   3.820   2.945  1.00  0.00     0.004 C 
ENDBRANCH  18  19
ENDBRANCH  17  18
ENDBRANCH  16  17
ENDBRANCH  15  16
ENDBRANCH  14  15
ENDBRANCH  13  14
ENDBRANCH  12  13
ENDBRANCH   1  12
TORSDOF 16
ENDMDL
MODEL 4
REMARK VINA RESULT:    -3.874      2.751      6.383
REMARK INTER + INTRA:          -9.895
REMARK INTER:                  -7.182
REMARK INTRA:                  -2.713
REMARK UNBOUND:                -2.397
REMARK SMILES CCCCCCCCCCCCCCCCCC(=O)[O-]
REMARK SMILES IDX 10 1 11 2 12 3 13 4 14 5 15 6 16 7 17 8 18 9 19 10 20 11
REMARK SMILES IDX 9 12 8 13 7 14 6 15 5 16 4 17 3 18 2 19 1 20
REMARK H PARENT
REMARK Flexibility Score: inf
ROOT
ATOM      1  C   UNL     1       1.617   8.338  -1.853  1.00  0.00     0.000 C 
ENDROOT
BRANCH   1   2
ATOM      2  C   UNL     1       0.958   9.229  -0.788  1.00  0.00     0.000 C 
BRANCH   2   3
ATOM      3  C   UNL     1       0.077   8.429   0.187  1.00  0.00     0.000 C 
BRANCH   3   4
ATOM      4  C   UNL     1       0.509   8.604   1.651  1.00  0.00     0.000 C 
BRANCH   4   5
ATOM      5  C   UNL     1       0.211   7.362   2.508  1.00  0.00     0.000 C 
BRANCH   5   6
ATOM      6  C   UNL     1       0.760   6.064   1.891  1.00  0.00     0.000 C 
BRANCH   6   7
ATOM      7  C   UNL     1       0.585   4.805   2.766  1.00  0.00     0.006 C 
BRANCH   7   8
ATOM      8  C   UNL     1       1.901   4.176   3.250  1.00  0.00     0.053 C 
BRANCH   8   9
ATOM      9  C   UNL     1       2.389   4.801   4.520  1.00  0.00     0.041 C 
ATOM     10  O   UNL     1       1.828   4.532   5.615  1.00  0.00    -0.550 OA
ATOM     11  O   UNL     1       3.485   5.656   4.499  1.00  0.00    -0.550 OA
ENDBRANCH   8   9
ENDBRANCH   7   8
ENDBRANCH   6   7
ENDBRANCH   5   6
ENDBRANCH   4   5
ENDBRANCH   3   4
ENDBRANCH   2   3
ENDBRANCH   1   2
BRANCH   1  12
ATOM     12  C   UNL     1       1.161   6.872  -1.758  1.00  0.00     0.000 C 
BRANCH  12  13
ATOM     13  C   UNL     1       1.720   6.006  -2.898  1.00  0.00    -0.000 C 
BRANCH  13  14
ATOM     14  C   UNL     1       2.768   6.751  -3.744  1.00  0.00    -0.000 C 
BRANCH  14  15
ATOM     15  C   UNL     1       4.208   6.317  -3.420  1.00  0.00    -0.000 C 
BRANCH  15  16
ATOM     16  C   UNL     1       5.082   7.487  -2.940  1.00  0.00    -0.000 C 
BRANCH  16  17
ATOM     17  C   UNL     1       5.531   7.335  -1.475  1.00  0.00    -0.000 C 
BRANCH  17  18
ATOM     18  C   UNL     1       5.004   6.078  -0.753  1.00  0.00    -0.000 C 
BRANCH  18  19
ATOM     19  C   UNL     1       4.201   6.353   0.530  1.00  0.00    -0.003 C 
ATOM     20  C   UNL     1       4.099   7.842   0.862  1.00  0.00     0.004 C 
ENDBRANCH  18  19
ENDBRANCH  17  18
ENDBRANCH  16  17
ENDBRANCH  15  16
ENDBRANCH  14  15
ENDBRANCH  13  14
ENDBRANCH  12  13
ENDBRANCH   1  12
TORSDOF 16
ENDMDL
MODEL 5
REMARK VINA RESULT:    -3.805      2.950      5.878
REMARK INTER + INTRA:          -9.761
REMARK INTER:                  -7.388
REMARK INTRA:                  -2.373
REMARK UNBOUND:                -2.397
REMARK SMILES CCCCCCCCCCCCCCCCCC(=O)[O-]
REMARK SMILES IDX 10 1 11 2 12 3 13 4 14 5 15 6 16 7 17 8 18 9 19 10 20 11
REMARK SMILES IDX 9 12 8 13 7 14 6 15 5 16 4 17 3 18 2 19 1 20
REMARK H PARENT
REMARK Flexibility Score: inf
ROOT
ATOM      1  C   UNL     1       1.153   7.036  -1.639  1.00  0.00     0.000 C 
ENDROOT
BRANCH   1   2
ATOM      2  C   UNL     1      -0.097   7.896  -1.890  1.00  0.00     0.000 C 
BRANCH   2   3
ATOM      3  C   UNL     1      -0.497   8.728  -0.659  1.00  0.00     0.000 C 
BRANCH   3   4
ATOM      4  C   UNL     1       0.653   8.878   0.348  1.00  0.00     0.000 C 
BRANCH   4   5
ATOM      5  C   UNL     1       0.153   9.097   1.787  1.00  0.00     0.000 C 
BRANCH   5   6
ATOM      6  C   UNL     1       0.672   8.032   2.769  1.00  0.00     0.000 C 
BRANCH   6   7
ATOM      7  C   UNL     1      -0.167   6.739   2.828  1.00  0.00     0.006 C 
BRANCH   7   8
ATOM      8  C   UNL     1       0.523   5.501   2.233  1.00  0.00     0.053 C 
BRANCH   8   9
ATOM      9  C   UNL     1       0.179   4.251   2.982  1.00  0.00     0.041 C 
ATOM     10  O   UNL     1       0.955   3.811   3.870  1.00  0.00    -0.550 OA
ATOM     11  O   UNL     1      -1.017   3.592   2.723  1.00  0.00    -0.550 OA
ENDBRANCH   8   9
ENDBRANCH   7   8
ENDBRANCH   6   7
ENDBRANCH   5   6
ENDBRANCH   4   5
ENDBRANCH   3   4
ENDBRANCH   2   3
ENDBRANCH   1   2
BRANCH   1  12
ATOM     12  C   UNL     1       1.450   6.076  -2.804  1.00  0.00     0.000 C 
BRANCH  12  13
ATOM     13  C   UNL     1       2.562   6.597  -3.729  1.00  0.00    -0.000 C 
BRANCH  13  14
ATOM     14  C   UNL     1       3.768   7.148  -2.947  1.00  0.00    -0.000 C 
BRANCH  14  15
ATOM     15  C   UNL     1       4.818   6.067  -2.639  1.00  0.00    -0.000 C 
BRANCH  15  16
ATOM     16  C   UNL     1       5.120   5.949  -1.136  1.00  0.00    -0.000 C 
BRANCH  16  17
ATOM     17  C   UNL     1       4.673   7.186  -0.337  1.00  0.00    -0.000 C 
BRANCH  17  18
ATOM     18  C   UNL     1       3.736   6.898   0.854  1.00  0.00    -0.000 C 
BRANCH  18  19
ATOM     19  C   UNL     1       4.231   5.811   1.823  1.00  0.00    -0.003 C 
ATOM     20  C   UNL     1       4.014   6.176   3.291  1.00  0.00     0.004 C 
ENDBRANCH  18  19
ENDBRANCH  17  18
ENDBRANCH  16  17
ENDBRANCH  15  16
ENDBRANCH  14  15
ENDBRANCH  13  14
ENDBRANCH  12  13
ENDBRANCH   1  12
TORSDOF 16
ENDMDL
MODEL 6
REMARK VINA RESULT:    -3.784      3.551      7.195
REMARK INTER + INTRA:          -9.721
REMARK INTER:                  -8.149
REMARK INTRA:                  -1.571
REMARK UNBOUND:                -2.397
REMARK SMILES CCCCCCCCCCCCCCCCCC(=O)[O-]
REMARK SMILES IDX 10 1 11 2 12 3 13 4 14 5 15 6 16 7 17 8 18 9 19 10 20 11
REMARK SMILES IDX 9 12 8 13 7 14 6 15 5 16 4 17 3 18 2 19 1 20
REMARK H PARENT
REMARK Flexibility Score: inf
ROOT
ATOM      1  C   UNL     1       3.881   7.369  -0.005  1.00  0.00     0.000 C 
ENDROOT
BRANCH   1   2
ATOM      2  C   UNL     1       3.127   6.737   1.177  1.00  0.00     0.000 C 
BRANCH   2   3
ATOM      3  C   UNL     1       1.600   6.770   0.987  1.00  0.00     0.000 C 
BRANCH   3   4
ATOM      4  C   UNL     1       0.881   7.493   2.135  1.00  0.00     0.000 C 
BRANCH   4   5
ATOM      5  C   UNL     1      -0.019   6.552   2.954  1.00  0.00     0.000 C 
BRANCH   5   6
ATOM      6  C   UNL     1       0.052   5.091   2.477  1.00  0.00     0.000 C 
BRANCH   6   7
ATOM      7  C   UNL     1      -0.208   4.036   3.572  1.00  0.00     0.006 C 
BRANCH   7   8
ATOM      8  C   UNL     1       0.960   3.829   4.550  1.00  0.00     0.053 C 
BRANCH   8   9
ATOM      9  C   UNL     1       0.599   4.228   5.947  1.00  0.00     0.041 C 
ATOM     10  O   UNL     1      -0.447   3.777   6.485  1.00  0.00    -0.550 OA
ATOM     11  O   UNL     1       1.437   5.069   6.669  1.00  0.00    -0.550 OA
ENDBRANCH   8   9
ENDBRANCH   7   8
ENDBRANCH   6   7
ENDBRANCH   5   6
ENDBRANCH   4   5
ENDBRANCH   3   4
ENDBRANCH   2   3
ENDBRANCH   1   2
BRANCH   1  12
ATOM     12  C   UNL     1       5.025   6.477  -0.517  1.00  0.00     0.000 C 
BRANCH  12  13
ATOM     13  C   UNL     1       4.700   5.820  -1.868  1.00  0.00    -0.000 C 
BRANCH  13  14
ATOM     14  C   UNL     1       4.271   6.845  -2.934  1.00  0.00    -0.000 C 
BRANCH  14  15
ATOM     15  C   UNL     1       3.065   6.369  -3.762  1.00  0.00    -0.000 C 
BRANCH  15  16
ATOM     16  C   UNL     1       1.940   7.415  -3.820  1.00  0.00    -0.000 C 
BRANCH  16  17
ATOM     17  C   UNL     1       1.009   7.360  -2.596  1.00  0.00    -0.000 C 
BRANCH  17  18
ATOM     18  C   UNL     1       0.227   8.657  -2.305  1.00  0.00    -0.000 C 
BRANCH  18  19
ATOM     19  C   UNL     1      -0.823   8.548  -1.186  1.00  0.00    -0.003 C 
ATOM     20  C   UNL     1      -2.150   9.214  -1.545  1.00  0.00     0.004 C 
ENDBRANCH  18  19
ENDBRANCH  17  18
ENDBRANCH  16  17
ENDBRANCH  15  16
ENDBRANCH  14  15
ENDBRANCH  13  14
ENDBRANCH  12  13
ENDBRANCH   1  12
TORSDOF 16
ENDMDL
MODEL 7
REMARK VINA RESULT:    -3.735      2.527      6.010
REMARK INTER + INTRA:          -9.625
REMARK INTER:                  -7.275
REMARK INTRA:                  -2.350
REMARK UNBOUND:                -2.397
REMARK SMILES CCCCCCCCCCCCCCCCCC(=O)[O-]
REMARK SMILES IDX 10 1 11 2 12 3 13 4 14 5 15 6 16 7 17 8 18 9 19 10 20 11
REMARK SMILES IDX 9 12 8 13 7 14 6 15 5 16 4 17 3 18 2 19 1 20
REMARK H PARENT
REMARK Flexibility Score: inf
ROOT
ATOM      1  C   UNL     1       1.837   7.446  -3.821  1.00  0.00     0.000 C 
ENDROOT
BRANCH   1   2
ATOM      2  C   UNL     1       1.600   6.472  -2.656  1.00  0.00     0.000 C 
BRANCH   2   3
ATOM      3  C   UNL     1       0.622   7.033  -1.608  1.00  0.00     0.000 C 
BRANCH   3   4
ATOM      4  C   UNL     1       1.100   6.790  -0.168  1.00  0.00     0.000 C 
BRANCH   4   5
ATOM      5  C   UNL     1       0.932   8.030   0.727  1.00  0.00     0.000 C 
BRANCH   5   6
ATOM      6  C   UNL     1       0.031   7.769   1.946  1.00  0.00     0.000 C 
BRANCH   6   7
ATOM      7  C   UNL     1       0.645   6.851   3.024  1.00  0.00     0.006 C 
BRANCH   7   8
ATOM      8  C   UNL     1      -0.299   5.755   3.544  1.00  0.00     0.053 C 
BRANCH   8   9
ATOM      9  C   UNL     1      -0.026   4.430   2.903  1.00  0.00     0.041 C 
ATOM     10  O   UNL     1       1.155   4.089   2.630  1.00  0.00    -0.550 OA
ATOM     11  O   UNL     1      -1.073   3.555   2.640  1.00  0.00    -0.550 OA
ENDBRANCH   8   9
ENDBRANCH   7   8
ENDBRANCH   6   7
ENDBRANCH   5   6
ENDBRANCH   4   5
ENDBRANCH   3   4
ENDBRANCH   2   3
ENDBRANCH   1   2
BRANCH   1  12
ATOM     12  C   UNL     1       1.494   8.900  -3.452  1.00  0.00     0.000 C 
BRANCH  12  13
ATOM     13  C   UNL     1       2.746   9.752  -3.192  1.00  0.00    -0.000 C 
BRANCH  13  14
ATOM     14  C   UNL     1       3.322   9.538  -1.780  1.00  0.00    -0.000 C 
BRANCH  14  15
ATOM     15  C   UNL     1       4.828   9.225  -1.796  1.00  0.00    -0.000 C 
BRANCH  15  16
ATOM     16  C   UNL     1       5.157   7.950  -2.589  1.00  0.00    -0.000 C 
BRANCH  16  17
ATOM     17  C   UNL     1       5.880   6.888  -1.741  1.00  0.00    -0.000 C 
BRANCH  17  18
ATOM     18  C   UNL     1       4.980   6.104  -0.763  1.00  0.00    -0.000 C 
BRANCH  18  19
ATOM     19  C   UNL     1       5.233   6.393   0.727  1.00  0.00    -0.003 C 
ATOM     20  C   UNL     1       4.061   5.988   1.620  1.00  0.00     0.004 C 
ENDBRANCH  18  19
ENDBRANCH  17  18
ENDBRANCH  16  17
ENDBRANCH  15  16
ENDBRANCH  14  15
ENDBRANCH  13  14
ENDBRANCH  12  13
ENDBRANCH   1  12
TORSDOF 16
ENDMDL
MODEL 8
REMARK VINA RESULT:    -3.684      3.278      7.171
REMARK INTER + INTRA:          -9.527
REMARK INTER:                  -7.356
REMARK INTRA:                  -2.171
REMARK UNBOUND:                -2.397
REMARK SMILES CCCCCCCCCCCCCCCCCC(=O)[O-]
REMARK SMILES IDX 10 1 11 2 12 3 13 4 14 5 15 6 16 7 17 8 18 9 19 10 20 11
REMARK SMILES IDX 9 12 8 13 7 14 6 15 5 16 4 17 3 18 2 19 1 20
REMARK H PARENT
REMARK Flexibility Score: inf
ROOT
ATOM      1  C   UNL     1       1.709   8.811  -0.300  1.00  0.00     0.000 C 
ENDROOT
BRANCH   1   2
ATOM      2  C   UNL     1       2.648   8.199   0.752  1.00  0.00     0.000 C 
BRANCH   2   3
ATOM      3  C   UNL     1       2.363   6.706   0.998  1.00  0.00     0.000 C 
BRANCH   3   4
ATOM      4  C   UNL     1       2.145   6.387   2.485  1.00  0.00     0.000 C 
BRANCH   4   5
ATOM      5  C   UNL     1       0.800   6.916   3.012  1.00  0.00     0.000 C 
BRANCH   5   6
ATOM      6  C   UNL     1      -0.307   5.849   3.004  1.00  0.00     0.000 C 
BRANCH   6   7
ATOM      7  C   UNL     1       0.195   4.391   2.961  1.00  0.00     0.006 C 
BRANCH   7   8
ATOM      8  C   UNL     1      -0.107   3.573   4.227  1.00  0.00     0.053 C 
BRANCH   8   9
ATOM      9  C   UNL     1       0.441   4.224   5.459  1.00  0.00     0.041 C 
ATOM     10  O   UNL     1      -0.331   4.553   6.398  1.00  0.00    -0.550 OA
ATOM     11  O   UNL     1       1.808   4.436   5.586  1.00  0.00    -0.550 OA
ENDBRANCH   8   9
ENDBRANCH   7   8
ENDBRANCH   6   7
ENDBRANCH   5   6
ENDBRANCH   4   5
ENDBRANCH   3   4
ENDBRANCH   2   3
ENDBRANCH   1   2
BRANCH   1  12
ATOM     12  C   UNL     1       0.599   7.839  -0.736  1.00  0.00     0.000 C 
BRANCH  12  13
ATOM     13  C   UNL     1       0.600   7.584  -2.252  1.00  0.00    -0.000 C 
BRANCH  13  14
ATOM     14  C   UNL     1       1.351   6.295  -2.632  1.00  0.00    -0.000 C 
BRANCH  14  15
ATOM     15  C   UNL     1       2.483   6.545  -3.643  1.00  0.00    -0.000 C 
BRANCH  15  16
ATOM     16  C   UNL     1       3.658   7.325  -3.031  1.00  0.00    -0.000 C 
BRANCH  16  17
ATOM     17  C   UNL     1       4.933   6.473  -2.893  1.00  0.00    -0.000 C 
BRANCH  17  18
ATOM     18  C   UNL     1       5.004   5.595  -1.627  1.00  0.00    -0.000 C 
BRANCH  18  19
ATOM     19  C   UNL     1       5.731   6.236  -0.432  1.00  0.00    -0.003 C 
ATOM     20  C   UNL     1       7.031   6.934  -0.829  1.00  0.00     0.004 C 
ENDBRANCH  18  19
ENDBRANCH  17  18
ENDBRANCH  16  17
ENDBRANCH  15  16
ENDBRANCH  14  15
ENDBRANCH  13  14
ENDBRANCH  12  13
ENDBRANCH   1  12
TORSDOF 16
ENDMDL
