MODEL 1
REMARK VINA RESULT:    -5.308      0.000      0.000
REMARK INTER + INTRA:          -6.518
REMARK INTER:                  -6.239
REMARK INTRA:                  -0.280
REMARK UNBOUND:                -0.280
REMARK SMILES O=c1c(O)c(-c2ccc(O)cc2)oc2cc(O)cc(O)c12
REMARK SMILES IDX 5 1 3 2 2 3 1 4 21 5 19 6 18 7 16 8 15 9 14 10 13 11 6 12
REMARK SMILES IDX 7 13 8 14 9 15 12 16 11 17 10 18 4 20 20 22 17 24
REMARK H PARENT 10 19 4 21 20 23 17 25
REMARK Flexibility Score: inf
ROOT
ATOM      1  C   UNL     1      42.960  18.595  -2.917  1.00  0.00     0.180 A 
ATOM      2  C   UNL     1      43.374  19.110  -4.158  1.00  0.00     0.208 A 
ATOM      3  C   UNL     1      44.366  18.428  -4.881  1.00  0.00     0.238 A 
ATOM      4  O   UNL     1      44.694  18.863  -6.015  1.00  0.00    -0.285 OA
ATOM      5  C   UNL     1      44.943  17.250  -4.347  1.00  0.00     0.111 A 
ATOM      6  C   UNL     1      45.984  16.501  -4.974  1.00  0.00     0.134 A 
ATOM      7  C   UNL     1      46.387  15.280  -4.419  1.00  0.00     0.093 A 
ATOM      8  C   UNL     1      45.835  14.814  -3.226  1.00  0.00     0.123 A 
ATOM      9  C   UNL     1      44.858  15.567  -2.573  1.00  0.00     0.094 A 
ATOM     10  C   UNL     1      44.410  16.771  -3.122  1.00  0.00     0.146 A 
ATOM     11  O   UNL     1      43.473  17.453  -2.474  1.00  0.00    -0.452 OA
ENDROOT
BRANCH   1  12
ATOM     12  C   UNL     1      41.938  19.271  -2.086  1.00  0.00     0.021 A 
ATOM     13  C   UNL     1      40.579  18.914  -2.161  1.00  0.00     0.016 A 
ATOM     14  C   UNL     1      39.629  19.583  -1.382  1.00  0.00     0.047 A 
ATOM     15  C   UNL     1      40.022  20.625  -0.532  1.00  0.00     0.115 A 
ATOM     16  C   UNL     1      42.321  20.330  -1.245  1.00  0.00     0.016 A 
ATOM     17  C   UNL     1      41.368  20.996  -0.468  1.00  0.00     0.047 A 
BRANCH  15  18
ATOM     18  O   UNL     1      39.085  21.297   0.250  1.00  0.00    -0.508 OA
ATOM     19  H   UNL     1      39.285  22.204   0.654  1.00  0.00     0.293 HD
ENDBRANCH  15  18
ENDBRANCH   1  12
BRANCH   2  20
ATOM     20  O   UNL     1      42.776  20.262  -4.677  1.00  0.00    -0.502 OA
ATOM     21  H   UNL     1      42.335  20.282  -5.588  1.00  0.00     0.293 HD
ENDBRANCH   2  20
BRANCH   6  22
ATOM     22  O   UNL     1      46.666  16.921  -6.119  1.00  0.00    -0.507 OA
ATOM     23  H   UNL     1      47.653  16.787  -6.281  1.00  0.00     0.293 HD
ENDBRANCH   6  22
BRANCH   8  24
ATOM     24  O   UNL     1      46.271  13.602  -2.694  1.00  0.00    -0.508 OA
ATOM     25  H   UNL     1      45.976  12.715  -3.084  1.00  0.00     0.293 HD
ENDBRANCH   8  24
TORSDOF 5
ENDMDL
MODEL 2
REMARK VINA RESULT:    -5.080      2.449      4.748
REMARK INTER + INTRA:          -6.250
REMARK INTER:                  -6.284
REMARK INTRA:                   0.034
REMARK UNBOUND:                -0.280
REMARK SMILES O=c1c(O)c(-c2ccc(O)cc2)oc2cc(O)cc(O)c12
REMARK SMILES IDX 5 1 3 2 2 3 1 4 21 5 19 6 18 7 16 8 15 9 14 10 13 11 6 12
REMARK SMILES IDX 7 13 8 14 9 15 12 16 11 17 10 18 4 20 20 22 17 24
REMARK H PARENT 10 19 4 21 20 23 17 25
REMARK Flexibility Score: inf
ROOT
ATOM      1  C   UNL     1      45.179  15.861  -3.474  1.00  0.00     0.180 A 
ATOM      2  C   UNL     1      44.564  14.676  -3.034  1.00  0.00     0.208 A 
ATOM      3  C   UNL     1      45.341  13.513  -2.906  1.00  0.00     0.238 A 
ATOM      4  O   UNL     1      44.797  12.469  -2.459  1.00  0.00    -0.285 OA
ATOM      5  C   UNL     1      46.717  13.545  -3.237  1.00  0.00     0.111 A 
ATOM      6  C   UNL     1      47.590  12.417  -3.184  1.00  0.00     0.134 A 
ATOM      7  C   UNL     1      48.961  12.593  -3.406  1.00  0.00     0.093 A 
ATOM      8  C   UNL     1      49.481  13.842  -3.745  1.00  0.00     0.123 A 
ATOM      9  C   UNL     1      48.628  14.941  -3.857  1.00  0.00     0.094 A 
ATOM     10  C   UNL     1      47.261  14.803  -3.605  1.00  0.00     0.146 A 
ATOM     11  O   UNL     1      46.485  15.875  -3.713  1.00  0.00    -0.452 OA
ENDROOT
BRANCH   1  12
ATOM     12  C   UNL     1      44.422  17.120  -3.657  1.00  0.00     0.021 A 
ATOM     13  C   UNL     1      44.494  17.851  -4.858  1.00  0.00     0.016 A 
ATOM     14  C   UNL     1      43.788  19.050  -4.999  1.00  0.00     0.047 A 
ATOM     15  C   UNL     1      43.014  19.540  -3.939  1.00  0.00     0.115 A 
ATOM     16  C   UNL     1      43.659  17.630  -2.593  1.00  0.00     0.016 A 
ATOM     17  C   UNL     1      42.954  18.829  -2.738  1.00  0.00     0.047 A 
BRANCH  15  18
ATOM     18  O   UNL     1      42.306  20.733  -4.069  1.00  0.00    -0.508 OA
ATOM     19  H   UNL     1      42.195  21.371  -3.290  1.00  0.00     0.293 HD
ENDBRANCH  15  18
ENDBRANCH   1  12
BRANCH   2  20
ATOM     20  O   UNL     1      43.209  14.671  -2.691  1.00  0.00    -0.502 OA
ATOM     21  H   UNL     1      42.503  14.237  -3.272  1.00  0.00     0.293 HD
ENDBRANCH   2  20
BRANCH   6  22
ATOM     22  O   UNL     1      47.160  11.108  -2.945  1.00  0.00    -0.507 OA
ATOM     23  H   UNL     1      46.323  10.861  -2.439  1.00  0.00     0.293 HD
ENDBRANCH   6  22
BRANCH   8  24
ATOM     24  O   UNL     1      50.849  13.978  -3.975  1.00  0.00    -0.508 OA
ATOM     25  H   UNL     1      51.346  14.825  -3.729  1.00  0.00     0.293 HD
ENDBRANCH   8  24
TORSDOF 5
ENDMDL
MODEL 3
REMARK VINA RESULT:    -4.959      2.526      5.082
REMARK INTER + INTRA:          -6.108
REMARK INTER:                  -6.202
REMARK INTRA:                   0.094
REMARK UNBOUND:                -0.280
REMARK SMILES O=c1c(O)c(-c2ccc(O)cc2)oc2cc(O)cc(O)c12
REMARK SMILES IDX 5 1 3 2 2 3 1 4 21 5 19 6 18 7 16 8 15 9 14 10 13 11 6 12
REMARK SMILES IDX 7 13 8 14 9 15 12 16 11 17 10 18 4 20 20 22 17 24
REMARK H PARENT 10 19 4 21 20 23 17 25
REMARK Flexibility Score: inf
ROOT
ATOM      1  C   UNL     1      45.968  16.010  -3.780  1.00  0.00     0.180 A 
ATOM      2  C   UNL     1      45.725  14.701  -3.327  1.00  0.00     0.208 A 
ATOM      3  C   UNL     1      46.784  13.780  -3.308  1.00  0.00     0.238 A 
ATOM      4  O   UNL     1      46.573  12.627  -2.851  1.00  0.00    -0.285 OA
ATOM      5  C   UNL     1      48.068  14.173  -3.758  1.00  0.00     0.111 A 
ATOM      6  C   UNL     1      49.203  13.310  -3.820  1.00  0.00     0.134 A 
ATOM      7  C   UNL     1      50.455  13.839  -4.157  1.00  0.00     0.093 A 
ATOM      8  C   UNL     1      50.601  15.184  -4.497  1.00  0.00     0.123 A 
ATOM      9  C   UNL     1      49.486  16.024  -4.497  1.00  0.00     0.094 A 
ATOM     10  C   UNL     1      48.231  15.532  -4.130  1.00  0.00     0.146 A 
ATOM     11  O   UNL     1      47.198  16.366  -4.133  1.00  0.00    -0.452 OA
ENDROOT
BRANCH   1  12
ATOM     12  C   UNL     1      44.897  17.030  -3.853  1.00  0.00     0.021 A 
ATOM     13  C   UNL     1      44.723  17.830  -4.998  1.00  0.00     0.016 A 
ATOM     14  C   UNL     1      43.720  18.803  -5.034  1.00  0.00     0.047 A 
ATOM     15  C   UNL     1      42.888  19.000  -3.923  1.00  0.00     0.115 A 
ATOM     16  C   UNL     1      44.072  17.248  -2.736  1.00  0.00     0.016 A 
ATOM     17  C   UNL     1      43.070  18.222  -2.776  1.00  0.00     0.047 A 
BRANCH  15  18
ATOM     18  O   UNL     1      41.884  19.965  -3.949  1.00  0.00    -0.508 OA
ATOM     19  H   UNL     1      42.102  20.954  -3.989  1.00  0.00     0.293 HD
ENDBRANCH  15  18
ENDBRANCH   1  12
BRANCH   2  20
ATOM     20  O   UNL     1      44.455  14.341  -2.867  1.00  0.00    -0.502 OA
ATOM     21  H   UNL     1      44.184  14.428  -1.895  1.00  0.00     0.293 HD
ENDBRANCH   2  20
BRANCH   6  22
ATOM     22  O   UNL     1      49.151  11.932  -3.589  1.00  0.00    -0.507 OA
ATOM     23  H   UNL     1      48.320  11.426  -3.321  1.00  0.00     0.293 HD
ENDBRANCH   6  22
BRANCH   8  24
ATOM     24  O   UNL     1      51.858  15.673  -4.843  1.00  0.00    -0.508 OA
ATOM     25  H   UNL     1      52.064  16.665  -4.826  1.00  0.00     0.293 HD
ENDBRANCH   8  24
TORSDOF 5
ENDMDL
MODEL 4
REMARK VINA RESULT:    -4.878      2.129      7.090
REMARK INTER + INTRA:          -6.014
REMARK INTER:                  -5.919
REMARK INTRA:                  -0.094
REMARK UNBOUND:                -0.280
REMARK SMILES O=c1c(O)c(-c2ccc(O)cc2)oc2cc(O)cc(O)c12
REMARK SMILES IDX 5 1 3 2 2 3 1 4 21 5 19 6 18 7 16 8 15 9 14 10 13 11 6 12
REMARK SMILES IDX 7 13 8 14 9 15 12 16 11 17 10 18 4 20 20 22 17 24
REMARK H PARENT 10 19 4 21 20 23 17 25
REMARK Flexibility Score: inf
ROOT
ATOM      1  C   UNL     1      45.292  16.540  -3.706  1.00  0.00     0.180 A 
ATOM      2  C   UNL     1      44.569  15.357  -3.476  1.00  0.00     0.208 A 
ATOM      3  C   UNL     1      43.312  15.437  -2.855  1.00  0.00     0.238 A 
ATOM      4  O   UNL     1      42.646  14.380  -2.701  1.00  0.00    -0.285 OA
ATOM      5  C   UNL     1      42.801  16.696  -2.457  1.00  0.00     0.111 A 
ATOM      6  C   UNL     1      41.557  16.890  -1.785  1.00  0.00     0.134 A 
ATOM      7  C   UNL     1      41.091  18.191  -1.557  1.00  0.00     0.093 A 
ATOM      8  C   UNL     1      41.852  19.302  -1.917  1.00  0.00     0.123 A 
ATOM      9  C   UNL     1      43.097  19.123  -2.522  1.00  0.00     0.094 A 
ATOM     10  C   UNL     1      43.572  17.838  -2.795  1.00  0.00     0.146 A 
ATOM     11  O   UNL     1      44.757  17.712  -3.381  1.00  0.00    -0.452 OA
ENDROOT
BRANCH   1  12
ATOM     12  C   UNL     1      46.634  16.535  -4.331  1.00  0.00     0.021 A 
ATOM     13  C   UNL     1      47.705  15.820  -3.764  1.00  0.00     0.016 A 
ATOM     14  C   UNL     1      48.969  15.849  -4.360  1.00  0.00     0.047 A 
ATOM     15  C   UNL     1      49.183  16.604  -5.521  1.00  0.00     0.115 A 
ATOM     16  C   UNL     1      46.863  17.305  -5.484  1.00  0.00     0.016 A 
ATOM     17  C   UNL     1      48.128  17.332  -6.078  1.00  0.00     0.047 A 
BRANCH  15  18
ATOM     18  O   UNL     1      50.438  16.639  -6.125  1.00  0.00    -0.508 OA
ATOM     19  H   UNL     1      51.195  16.044  -5.807  1.00  0.00     0.293 HD
ENDBRANCH  15  18
ENDBRANCH   1  12
BRANCH   2  20
ATOM     20  O   UNL     1      45.082  14.127  -3.896  1.00  0.00    -0.502 OA
ATOM     21  H   UNL     1      46.001  14.034  -4.310  1.00  0.00     0.293 HD
ENDBRANCH   2  20
BRANCH   6  22
ATOM     22  O   UNL     1      40.761  15.848  -1.301  1.00  0.00    -0.507 OA
ATOM     23  H   UNL     1      41.115  14.997  -0.891  1.00  0.00     0.293 HD
ENDBRANCH   6  22
BRANCH   8  24
ATOM     24  O   UNL     1      41.364  20.582  -1.661  1.00  0.00    -0.508 OA
ATOM     25  H   UNL     1      40.997  21.167  -2.401  1.00  0.00     0.293 HD
ENDBRANCH   8  24
TORSDOF 5
ENDMDL
MODEL 5
REMARK VINA RESULT:    -4.830      2.154      3.495
REMARK INTER + INTRA:          -5.956
REMARK INTER:                  -6.016
REMARK INTRA:                   0.059
REMARK UNBOUND:                -0.280
REMARK SMILES O=c1c(O)c(-c2ccc(O)cc2)oc2cc(O)cc(O)c12
REMARK SMILES IDX 5 1 3 2 2 3 1 4 21 5 19 6 18 7 16 8 15 9 14 10 13 11 6 12
REMARK SMILES IDX 7 13 8 14 9 15 12 16 11 17 10 18 4 20 20 22 17 24
REMARK H PARENT 10 19 4 21 20 23 17 25
REMARK Flexibility Score: inf
ROOT
ATOM      1  C   UNL     1      45.064  16.367  -3.490  1.00  0.00     0.180 A 
ATOM      2  C   UNL     1      45.765  17.101  -4.462  1.00  0.00     0.208 A 
ATOM      3  C   UNL     1      47.062  16.699  -4.816  1.00  0.00     0.238 A 
ATOM      4  O   UNL     1      47.663  17.327  -5.726  1.00  0.00    -0.285 OA
ATOM      5  C   UNL     1      47.650  15.577  -4.181  1.00  0.00     0.111 A 
ATOM      6  C   UNL     1      48.973  15.105  -4.433  1.00  0.00     0.134 A 
ATOM      7  C   UNL     1      49.403  13.909  -3.845  1.00  0.00     0.093 A 
ATOM      8  C   UNL     1      48.584  13.205  -2.964  1.00  0.00     0.123 A 
ATOM      9  C   UNL     1      47.309  13.689  -2.664  1.00  0.00     0.094 A 
ATOM     10  C   UNL     1      46.839  14.860  -3.265  1.00  0.00     0.146 A 
ATOM     11  O   UNL     1      45.617  15.281  -2.960  1.00  0.00    -0.452 OA
ENDROOT
BRANCH   1  12
ATOM     12  C   UNL     1      43.704  16.744  -3.046  1.00  0.00     0.021 A 
ATOM     13  C   UNL     1      43.378  18.076  -2.731  1.00  0.00     0.016 A 
ATOM     14  C   UNL     1      42.092  18.405  -2.291  1.00  0.00     0.047 A 
ATOM     15  C   UNL     1      41.120  17.405  -2.145  1.00  0.00     0.115 A 
ATOM     16  C   UNL     1      42.729  15.745  -2.878  1.00  0.00     0.016 A 
ATOM     17  C   UNL     1      41.444  16.077  -2.438  1.00  0.00     0.047 A 
BRANCH  15  18
ATOM     18  O   UNL     1      39.835  17.721  -1.710  1.00  0.00    -0.508 OA
ATOM     19  H   UNL     1      39.051  17.103  -1.883  1.00  0.00     0.293 HD
ENDBRANCH  15  18
ENDBRANCH   1  12
BRANCH   2  20
ATOM     20  O   UNL     1      45.157  18.192  -5.092  1.00  0.00    -0.502 OA
ATOM     21  H   UNL     1      45.146  18.301  -6.098  1.00  0.00     0.293 HD
ENDBRANCH   2  20
BRANCH   6  22
ATOM     22  O   UNL     1      49.906  15.781  -5.226  1.00  0.00    -0.507 OA
ATOM     23  H   UNL     1      50.818  15.426  -5.468  1.00  0.00     0.293 HD
ENDBRANCH   6  22
BRANCH   8  24
ATOM     24  O   UNL     1      49.050  12.027  -2.384  1.00  0.00    -0.508 OA
ATOM     25  H   UNL     1      49.639  11.381  -2.896  1.00  0.00     0.293 HD
ENDBRANCH   8  24
TORSDOF 5
ENDMDL
MODEL 6
REMARK VINA RESULT:    -4.828      2.370      6.888
REMARK INTER + INTRA:          -5.955
REMARK INTER:                  -6.261
REMARK INTRA:                   0.307
REMARK UNBOUND:                -0.280
REMARK SMILES O=c1c(O)c(-c2ccc(O)cc2)oc2cc(O)cc(O)c12
REMARK SMILES IDX 5 1 3 2 2 3 1 4 21 5 19 6 18 7 16 8 15 9 14 10 13 11 6 12
REMARK SMILES IDX 7 13 8 14 9 15 12 16 11 17 10 18 4 20 20 22 17 24
REMARK H PARENT 10 19 4 21 20 23 17 25
REMARK Flexibility Score: inf
ROOT
ATOM      1  C   UNL     1      46.132  16.439  -4.227  1.00  0.00     0.180 A 
ATOM      2  C   UNL     1      45.828  17.457  -5.148  1.00  0.00     0.208 A 
ATOM      3  C   UNL     1      44.565  18.067  -5.096  1.00  0.00     0.238 A 
ATOM      4  O   UNL     1      44.319  19.015  -5.888  1.00  0.00    -0.285 OA
ATOM      5  C   UNL     1      43.615  17.642  -4.136  1.00  0.00     0.111 A 
ATOM      6  C   UNL     1      42.292  18.163  -4.020  1.00  0.00     0.134 A 
ATOM      7  C   UNL     1      41.483  17.761  -2.949  1.00  0.00     0.093 A 
ATOM      8  C   UNL     1      41.925  16.810  -2.030  1.00  0.00     0.123 A 
ATOM      9  C   UNL     1      43.196  16.250  -2.169  1.00  0.00     0.094 A 
ATOM     10  C   UNL     1      44.039  16.658  -3.205  1.00  0.00     0.146 A 
ATOM     11  O   UNL     1      45.244  16.108  -3.296  1.00  0.00    -0.452 OA
ENDROOT
BRANCH   1  12
ATOM     12  C   UNL     1      47.432  15.731  -4.235  1.00  0.00     0.021 A 
ATOM     13  C   UNL     1      47.533  14.380  -3.854  1.00  0.00     0.016 A 
ATOM     14  C   UNL     1      48.776  13.739  -3.847  1.00  0.00     0.047 A 
ATOM     15  C   UNL     1      49.934  14.443  -4.206  1.00  0.00     0.115 A 
ATOM     16  C   UNL     1      48.601  16.434  -4.573  1.00  0.00     0.016 A 
ATOM     17  C   UNL     1      49.842  15.790  -4.566  1.00  0.00     0.047 A 
BRANCH  15  18
ATOM     18  O   UNL     1      51.177  13.814  -4.204  1.00  0.00    -0.508 OA
ATOM     19  H   UNL     1      51.371  13.023  -4.808  1.00  0.00     0.293 HD
ENDBRANCH  15  18
ENDBRANCH   1  12
BRANCH   2  20
ATOM     20  O   UNL     1      46.788  17.876  -6.074  1.00  0.00    -0.502 OA
ATOM     21  H   UNL     1      46.850  17.489  -7.007  1.00  0.00     0.293 HD
ENDBRANCH   2  20
BRANCH   6  22
ATOM     22  O   UNL     1      41.718  19.050  -4.936  1.00  0.00    -0.507 OA
ATOM     23  H   UNL     1      42.121  19.294  -5.828  1.00  0.00     0.293 HD
ENDBRANCH   6  22
BRANCH   8  24
ATOM     24  O   UNL     1      41.088  16.421  -0.987  1.00  0.00    -0.508 OA
ATOM     25  H   UNL     1      40.399  15.688  -1.105  1.00  0.00     0.293 HD
ENDBRANCH   8  24
TORSDOF 5
ENDMDL
MODEL 7
REMARK VINA RESULT:    -4.822      2.154      7.083
REMARK INTER + INTRA:          -5.948
REMARK INTER:                  -5.934
REMARK INTRA:                  -0.014
REMARK UNBOUND:                -0.280
REMARK SMILES O=c1c(O)c(-c2ccc(O)cc2)oc2cc(O)cc(O)c12
REMARK SMILES IDX 5 1 3 2 2 3 1 4 21 5 19 6 18 7 16 8 15 9 14 10 13 11 6 12
REMARK SMILES IDX 7 13 8 14 9 15 12 16 11 17 10 18 4 20 20 22 17 24
REMARK H PARENT 10 19 4 21 20 23 17 25
REMARK Flexibility Score: inf
ROOT
ATOM      1  C   UNL     1      44.273  15.892  -2.868  1.00  0.00     0.180 A 
ATOM      2  C   UNL     1      43.096  15.126  -2.820  1.00  0.00     0.208 A 
ATOM      3  C   UNL     1      41.863  15.780  -2.663  1.00  0.00     0.238 A 
ATOM      4  O   UNL     1      40.809  15.093  -2.676  1.00  0.00    -0.285 OA
ATOM      5  C   UNL     1      41.825  17.190  -2.540  1.00  0.00     0.111 A 
ATOM      6  C   UNL     1      40.636  17.953  -2.337  1.00  0.00     0.134 A 
ATOM      7  C   UNL     1      40.700  19.352  -2.361  1.00  0.00     0.093 A 
ATOM      8  C   UNL     1      41.918  20.014  -2.513  1.00  0.00     0.123 A 
ATOM      9  C   UNL     1      43.096  19.277  -2.653  1.00  0.00     0.094 A 
ATOM     10  C   UNL     1      43.057  17.881  -2.670  1.00  0.00     0.146 A 
ATOM     11  O   UNL     1      44.198  17.217  -2.816  1.00  0.00    -0.452 OA
ENDROOT
BRANCH   1  12
ATOM     12  C   UNL     1      45.611  15.274  -3.006  1.00  0.00     0.021 A 
ATOM     13  C   UNL     1      46.033  14.241  -2.148  1.00  0.00     0.016 A 
ATOM     14  C   UNL     1      47.310  13.688  -2.283  1.00  0.00     0.047 A 
ATOM     15  C   UNL     1      48.187  14.170  -3.265  1.00  0.00     0.115 A 
ATOM     16  C   UNL     1      46.503  15.764  -3.974  1.00  0.00     0.016 A 
ATOM     17  C   UNL     1      47.780  15.208  -4.106  1.00  0.00     0.047 A 
BRANCH  15  18
ATOM     18  O   UNL     1      49.461  13.625  -3.409  1.00  0.00    -0.508 OA
ATOM     19  H   UNL     1      49.617  12.776  -3.939  1.00  0.00     0.293 HD
ENDBRANCH  15  18
ENDBRANCH   1  12
BRANCH   2  20
ATOM     20  O   UNL     1      43.154  13.737  -2.966  1.00  0.00    -0.502 OA
ATOM     21  H   UNL     1      43.752  13.155  -2.392  1.00  0.00     0.293 HD
ENDBRANCH   2  20
BRANCH   6  22
ATOM     22  O   UNL     1      39.381  17.392  -2.084  1.00  0.00    -0.507 OA
ATOM     23  H   UNL     1      39.157  16.823  -1.281  1.00  0.00     0.293 HD
ENDBRANCH   6  22
BRANCH   8  24
ATOM     24  O   UNL     1      41.948  21.407  -2.516  1.00  0.00    -0.508 OA
ATOM     25  H   UNL     1      42.556  21.923  -3.141  1.00  0.00     0.293 HD
ENDBRANCH   8  24
TORSDOF 5
ENDMDL
MODEL 8
REMARK VINA RESULT:    -4.781      2.306      3.840
REMARK INTER + INTRA:          -5.899
REMARK INTER:                  -5.728
REMARK INTRA:                  -0.171
REMARK UNBOUND:                -0.280
REMARK SMILES O=c1c(O)c(-c2ccc(O)cc2)oc2cc(O)cc(O)c12
REMARK SMILES IDX 5 1 3 2 2 3 1 4 21 5 19 6 18 7 16 8 15 9 14 10 13 11 6 12
REMARK SMILES IDX 7 13 8 14 9 15 12 16 11 17 10 18 4 20 20 22 17 24
REMARK H PARENT 10 19 4 21 20 23 17 25
REMARK Flexibility Score: inf
ROOT
ATOM      1  C   UNL     1      44.848  15.629  -3.266  1.00  0.00     0.180 A 
ATOM      2  C   UNL     1      45.317  15.646  -4.591  1.00  0.00     0.208 A 
ATOM      3  C   UNL     1      46.442  14.874  -4.925  1.00  0.00     0.238 A 
ATOM      4  O   UNL     1      46.824  14.849  -6.124  1.00  0.00    -0.285 OA
ATOM      5  C   UNL     1      47.092  14.109  -3.926  1.00  0.00     0.111 A 
ATOM      6  C   UNL     1      48.263  13.322  -4.144  1.00  0.00     0.134 A 
ATOM      7  C   UNL     1      48.745  12.502  -3.115  1.00  0.00     0.093 A 
ATOM      8  C   UNL     1      48.139  12.491  -1.860  1.00  0.00     0.123 A 
ATOM      9  C   UNL     1      47.028  13.301  -1.618  1.00  0.00     0.094 A 
ATOM     10  C   UNL     1      46.503  14.102  -2.636  1.00  0.00     0.146 A 
ATOM     11  O   UNL     1      45.440  14.851  -2.368  1.00  0.00    -0.452 OA
ENDROOT
BRANCH   1  12
ATOM     12  C   UNL     1      43.685  16.436  -2.833  1.00  0.00     0.021 A 
ATOM     13  C   UNL     1      43.725  17.842  -2.836  1.00  0.00     0.016 A 
ATOM     14  C   UNL     1      42.622  18.583  -2.399  1.00  0.00     0.047 A 
ATOM     15  C   UNL     1      41.471  17.928  -1.940  1.00  0.00     0.115 A 
ATOM     16  C   UNL     1      42.534  15.788  -2.352  1.00  0.00     0.016 A 
ATOM     17  C   UNL     1      41.432  16.531  -1.916  1.00  0.00     0.047 A 
BRANCH  15  18
ATOM     18  O   UNL     1      40.366  18.655  -1.505  1.00  0.00    -0.508 OA
ATOM     19  H   UNL     1      39.456  18.222  -1.399  1.00  0.00     0.293 HD
ENDBRANCH  15  18
ENDBRANCH   1  12
BRANCH   2  20
ATOM     20  O   UNL     1      44.647  16.390  -5.566  1.00  0.00    -0.502 OA
ATOM     21  H   UNL     1      44.493  17.387  -5.478  1.00  0.00     0.293 HD
ENDBRANCH   2  20
BRANCH   6  22
ATOM     22  O   UNL     1      48.999  13.329  -5.332  1.00  0.00    -0.507 OA
ATOM     23  H   UNL     1      48.814  13.932  -6.119  1.00  0.00     0.293 HD
ENDBRANCH   6  22
BRANCH   8  24
ATOM     24  O   UNL     1      48.655  11.675  -0.855  1.00  0.00    -0.508 OA
ATOM     25  H   UNL     1      48.173  10.836  -0.554  1.00  0.00     0.293 HD
ENDBRANCH   8  24
TORSDOF 5
ENDMDL
MODEL 9
REMARK VINA RESULT:    -4.745      3.015      7.733
REMARK INTER + INTRA:          -5.857
REMARK INTER:                  -5.722
REMARK INTRA:                  -0.135
REMARK UNBOUND:                -0.280
REMARK SMILES O=c1c(O)c(-c2ccc(O)cc2)oc2cc(O)cc(O)c12
REMARK SMILES IDX 5 1 3 2 2 3 1 4 21 5 19 6 18 7 16 8 15 9 14 10 13 11 6 12
REMARK SMILES IDX 7 13 8 14 9 15 12 16 11 17 10 18 4 20 20 22 17 24
REMARK H PARENT 10 19 4 21 20 23 17 25
REMARK Flexibility Score: inf
ROOT
ATOM      1  C   UNL     1      47.002  15.327  -4.430  1.00  0.00     0.180 A 
ATOM      2  C   UNL     1      46.431  14.076  -4.723  1.00  0.00     0.208 A 
ATOM      3  C   UNL     1      45.113  13.817  -4.314  1.00  0.00     0.238 A 
ATOM      4  O   UNL     1      44.589  12.717  -4.628  1.00  0.00    -0.285 OA
ATOM      5  C   UNL     1      44.389  14.804  -3.602  1.00  0.00     0.111 A 
ATOM      6  C   UNL     1      43.062  14.635  -3.105  1.00  0.00     0.134 A 
ATOM      7  C   UNL     1      42.395  15.724  -2.530  1.00  0.00     0.093 A 
ATOM      8  C   UNL     1      43.029  16.956  -2.376  1.00  0.00     0.123 A 
ATOM      9  C   UNL     1      44.348  17.117  -2.805  1.00  0.00     0.094 A 
ATOM     10  C   UNL     1      45.026  16.058  -3.415  1.00  0.00     0.146 A 
ATOM     11  O   UNL     1      46.275  16.256  -3.819  1.00  0.00    -0.452 OA
ENDROOT
BRANCH   1  12
ATOM     12  C   UNL     1      48.394  15.665  -4.806  1.00  0.00     0.021 A 
ATOM     13  C   UNL     1      48.674  16.652  -5.769  1.00  0.00     0.016 A 
ATOM     14  C   UNL     1      49.996  16.937  -6.125  1.00  0.00     0.047 A 
ATOM     15  C   UNL     1      51.053  16.231  -5.534  1.00  0.00     0.115 A 
ATOM     16  C   UNL     1      49.458  14.948  -4.233  1.00  0.00     0.016 A 
ATOM     17  C   UNL     1      50.779  15.237  -4.591  1.00  0.00     0.047 A 
BRANCH  15  18
ATOM     18  O   UNL     1      52.374  16.509  -5.879  1.00  0.00    -0.508 OA
ATOM     19  H   UNL     1      53.136  16.336  -5.235  1.00  0.00     0.293 HD
ENDBRANCH  15  18
ENDBRANCH   1  12
BRANCH   2  20
ATOM     20  O   UNL     1      47.156  13.124  -5.446  1.00  0.00    -0.502 OA
ATOM     21  H   UNL     1      48.130  13.253  -5.690  1.00  0.00     0.293 HD
ENDBRANCH   2  20
BRANCH   6  22
ATOM     22  O   UNL     1      42.370  13.420  -3.126  1.00  0.00    -0.507 OA
ATOM     23  H   UNL     1      41.470  13.264  -2.696  1.00  0.00     0.293 HD
ENDBRANCH   6  22
BRANCH   8  24
ATOM     24  O   UNL     1      42.341  18.014  -1.785  1.00  0.00    -0.508 OA
ATOM     25  H   UNL     1      41.604  17.855  -1.108  1.00  0.00     0.293 HD
ENDBRANCH   8  24
TORSDOF 5
ENDMDL
