MODEL 1
REMARK VINA RESULT:    -0.748      0.000      0.000
REMARK INTER + INTRA:          -0.382
REMARK INTER:                  -0.879
REMARK INTRA:                   0.497
REMARK UNBOUND:                 0.497
REMARK SMILES O=c1c(O)c(-c2ccc(O)cc2)oc2cc(O)cc(O)c12
REMARK SMILES IDX 5 1 3 2 2 3 1 4 21 5 19 6 18 7 16 8 15 9 14 10 13 11 6 12
REMARK SMILES IDX 7 13 8 14 9 15 12 16 11 17 10 18 4 20 20 22 17 24
REMARK H PARENT 10 19 4 21 20 23 17 25
REMARK Flexibility Score: inf
ROOT
ATOM      1  C   UNL     1      18.969   0.788  12.046  1.00  0.00     0.180 A 
ATOM      2  C   UNL     1      18.418   0.054  10.982  1.00  0.00     0.208 A 
ATOM      3  C   UNL     1      18.437  -1.349  11.040  1.00  0.00     0.238 A 
ATOM      4  O   UNL     1      17.875  -1.998  10.120  1.00  0.00    -0.285 OA
ATOM      5  C   UNL     1      19.056  -2.001  12.134  1.00  0.00     0.111 A 
ATOM      6  C   UNL     1      19.173  -3.417  12.275  1.00  0.00     0.134 A 
ATOM      7  C   UNL     1      19.712  -3.952  13.452  1.00  0.00     0.093 A 
ATOM      8  C   UNL     1      20.197  -3.121  14.464  1.00  0.00     0.123 A 
ATOM      9  C   UNL     1      20.137  -1.739  14.313  1.00  0.00     0.094 A 
ATOM     10  C   UNL     1      19.570  -1.175  13.167  1.00  0.00     0.146 A 
ATOM     11  O   UNL     1      19.514   0.149  13.074  1.00  0.00    -0.452 OA
ENDROOT
BRANCH   1  12
ATOM     12  C   UNL     1      18.975   2.269  12.065  1.00  0.00     0.021 A 
ATOM     13  C   UNL     1      19.231   2.986  13.248  1.00  0.00     0.016 A 
ATOM     14  C   UNL     1      19.256   4.384  13.235  1.00  0.00     0.047 A 
ATOM     15  C   UNL     1      19.038   5.081  12.039  1.00  0.00     0.115 A 
ATOM     16  C   UNL     1      18.779   2.975  10.866  1.00  0.00     0.016 A 
ATOM     17  C   UNL     1      18.804   4.373  10.857  1.00  0.00     0.047 A 
BRANCH  15  18
ATOM     18  O   UNL     1      19.058   6.474  12.016  1.00  0.00    -0.508 OA
ATOM     19  H   UNL     1      18.274   7.021  12.349  1.00  0.00     0.293 HD
ENDBRANCH  15  18
ENDBRANCH   1  12
BRANCH   2  20
ATOM     20  O   UNL     1      17.880   0.717   9.875  1.00  0.00    -0.502 OA
ATOM     21  H   UNL     1      16.893   0.931   9.797  1.00  0.00     0.293 HD
ENDBRANCH   2  20
BRANCH   6  22
ATOM     22  O   UNL     1      18.803  -4.336  11.288  1.00  0.00    -0.507 OA
ATOM     23  H   UNL     1      19.012  -5.323  11.309  1.00  0.00     0.293 HD
ENDBRANCH   6  22
BRANCH   8  24
ATOM     24  O   UNL     1      20.747  -3.662  15.625  1.00  0.00    -0.508 OA
ATOM     25  H   UNL     1      20.219  -3.708  16.490  1.00  0.00     0.293 HD
ENDBRANCH   8  24
TORSDOF 5
ENDMDL
MODEL 2
REMARK VINA RESULT:    -0.451      2.902      6.437
REMARK INTER + INTRA:          -0.033
REMARK INTER:                  -0.060
REMARK INTRA:                   0.027
REMARK UNBOUND:                 0.497
REMARK SMILES O=c1c(O)c(-c2ccc(O)cc2)oc2cc(O)cc(O)c12
REMARK SMILES IDX 5 1 3 2 2 3 1 4 21 5 19 6 18 7 16 8 15 9 14 10 13 11 6 12
REMARK SMILES IDX 7 13 8 14 9 15 12 16 11 17 10 18 4 20 20 22 17 24
REMARK H PARENT 10 19 4 21 20 23 17 25
REMARK Flexibility Score: inf
ROOT
ATOM      1  C   UNL     1      20.120  -2.827  14.530  1.00  0.00     0.180 A 
ATOM      2  C   UNL     1      19.441  -3.929  13.984  1.00  0.00     0.208 A 
ATOM      3  C   UNL     1      18.976  -3.856  12.661  1.00  0.00     0.238 A 
ATOM      4  O   UNL     1      18.435  -4.874  12.155  1.00  0.00    -0.285 OA
ATOM      5  C   UNL     1      19.146  -2.663  11.919  1.00  0.00     0.111 A 
ATOM      6  C   UNL     1      18.676  -2.460  10.586  1.00  0.00     0.134 A 
ATOM      7  C   UNL     1      18.995  -1.274   9.914  1.00  0.00     0.093 A 
ATOM      8  C   UNL     1      19.712  -0.257  10.547  1.00  0.00     0.123 A 
ATOM      9  C   UNL     1      20.128  -0.422  11.865  1.00  0.00     0.094 A 
ATOM     10  C   UNL     1      19.858  -1.610  12.551  1.00  0.00     0.146 A 
ATOM     11  O   UNL     1      20.293  -1.733  13.799  1.00  0.00    -0.452 OA
ENDROOT
BRANCH   1  12
ATOM     12  C   UNL     1      20.652  -2.834  15.912  1.00  0.00     0.021 A 
ATOM     13  C   UNL     1      21.986  -2.476  16.186  1.00  0.00     0.016 A 
ATOM     14  C   UNL     1      22.458  -2.465  17.502  1.00  0.00     0.047 A 
ATOM     15  C   UNL     1      21.602  -2.798  18.560  1.00  0.00     0.115 A 
ATOM     16  C   UNL     1      19.796  -3.145  16.981  1.00  0.00     0.016 A 
ATOM     17  C   UNL     1      20.272  -3.134  18.296  1.00  0.00     0.047 A 
BRANCH  15  18
ATOM     18  O   UNL     1      22.063  -2.792  19.875  1.00  0.00    -0.508 OA
ATOM     19  H   UNL     1      21.747  -3.478  20.550  1.00  0.00     0.293 HD
ENDBRANCH  15  18
ENDBRANCH   1  12
BRANCH   2  20
ATOM     20  O   UNL     1      19.216  -5.071  14.759  1.00  0.00    -0.502 OA
ATOM     21  H   UNL     1      19.797  -5.899  14.689  1.00  0.00     0.293 HD
ENDBRANCH   2  20
BRANCH   6  22
ATOM     22  O   UNL     1      17.876  -3.373   9.891  1.00  0.00    -0.507 OA
ATOM     23  H   UNL     1      17.864  -3.485   8.888  1.00  0.00     0.293 HD
ENDBRANCH   6  22
BRANCH   8  24
ATOM     24  O   UNL     1      20.011   0.927   9.876  1.00  0.00    -0.508 OA
ATOM     25  H   UNL     1      20.968   1.194   9.673  1.00  0.00     0.293 HD
ENDBRANCH   8  24
TORSDOF 5
ENDMDL
MODEL 3
REMARK VINA RESULT:    -0.348      3.058      6.480
REMARK INTER + INTRA:           0.088
REMARK INTER:                   0.036
REMARK INTRA:                   0.051
REMARK UNBOUND:                 0.497
REMARK SMILES O=c1c(O)c(-c2ccc(O)cc2)oc2cc(O)cc(O)c12
REMARK SMILES IDX 5 1 3 2 2 3 1 4 21 5 19 6 18 7 16 8 15 9 14 10 13 11 6 12
REMARK SMILES IDX 7 13 8 14 9 15 12 16 11 17 10 18 4 20 20 22 17 24
REMARK H PARENT 10 19 4 21 20 23 17 25
REMARK Flexibility Score: inf
ROOT
ATOM      1  C   UNL     1      20.085  -2.910  14.706  1.00  0.00     0.180 A 
ATOM      2  C   UNL     1      19.398  -4.030  14.207  1.00  0.00     0.208 A 
ATOM      3  C   UNL     1      18.946  -4.016  12.878  1.00  0.00     0.238 A 
ATOM      4  O   UNL     1      18.398  -5.051  12.416  1.00  0.00    -0.285 OA
ATOM      5  C   UNL     1      19.136  -2.862  12.081  1.00  0.00     0.111 A 
ATOM      6  C   UNL     1      18.679  -2.719  10.736  1.00  0.00     0.134 A 
ATOM      7  C   UNL     1      19.017  -1.570  10.010  1.00  0.00     0.093 A 
ATOM      8  C   UNL     1      19.740  -0.532  10.600  1.00  0.00     0.123 A 
ATOM      9  C   UNL     1      20.143  -0.637  11.928  1.00  0.00     0.094 A 
ATOM     10  C   UNL     1      19.854  -1.787  12.668  1.00  0.00     0.146 A 
ATOM     11  O   UNL     1      20.276  -1.854  13.925  1.00  0.00    -0.452 OA
ENDROOT
BRANCH   1  12
ATOM     12  C   UNL     1      20.605  -2.855  16.091  1.00  0.00     0.021 A 
ATOM     13  C   UNL     1      19.793  -3.189  17.193  1.00  0.00     0.016 A 
ATOM     14  C   UNL     1      20.314  -3.153  18.489  1.00  0.00     0.047 A 
ATOM     15  C   UNL     1      21.652  -2.798  18.701  1.00  0.00     0.115 A 
ATOM     16  C   UNL     1      21.951  -2.522  16.312  1.00  0.00     0.016 A 
ATOM     17  C   UNL     1      22.468  -2.487  17.611  1.00  0.00     0.047 A 
BRANCH  15  18
ATOM     18  O   UNL     1      22.181  -2.758  19.990  1.00  0.00    -0.508 OA
ATOM     19  H   UNL     1      21.960  -3.470  20.676  1.00  0.00     0.293 HD
ENDBRANCH  15  18
ENDBRANCH   1  12
BRANCH   2  20
ATOM     20  O   UNL     1      19.154  -5.131  15.034  1.00  0.00    -0.502 OA
ATOM     21  H   UNL     1      19.421  -5.146  16.012  1.00  0.00     0.293 HD
ENDBRANCH   2  20
BRANCH   6  22
ATOM     22  O   UNL     1      17.875  -3.655  10.078  1.00  0.00    -0.507 OA
ATOM     23  H   UNL     1      16.868  -3.625  10.037  1.00  0.00     0.293 HD
ENDBRANCH   6  22
BRANCH   8  24
ATOM     24  O   UNL     1      20.058   0.616   9.875  1.00  0.00    -0.508 OA
ATOM     25  H   UNL     1      20.086   0.611   8.861  1.00  0.00     0.293 HD
ENDBRANCH   8  24
TORSDOF 5
ENDMDL
