MODEL 1
REMARK VINA RESULT:    -4.628      0.000      0.000
REMARK INTER + INTRA:         -11.875
REMARK INTER:                  -8.956
REMARK INTRA:                  -2.919
REMARK UNBOUND:                -2.919
REMARK SMILES CCCCCCCCCCCCCCCCCC(=O)[O-]
REMARK SMILES IDX 10 1 11 2 12 3 13 4 14 5 15 6 16 7 17 8 18 9 19 10 20 11
REMARK SMILES IDX 9 12 8 13 7 14 6 15 5 16 4 17 3 18 2 19 1 20
REMARK H PARENT
REMARK Flexibility Score: inf
ROOT
ATOM      1  C   UNL     1       8.238  22.597  31.400  1.00  0.00     0.000 C 
ENDROOT
BRANCH   1   2
ATOM      2  C   UNL     1       8.134  21.081  31.613  1.00  0.00     0.000 C 
BRANCH   2   3
ATOM      3  C   UNL     1       8.481  20.320  30.324  1.00  0.00     0.000 C 
BRANCH   3   4
ATOM      4  C   UNL     1       8.954  18.883  30.593  1.00  0.00     0.000 C 
BRANCH   4   5
ATOM      5  C   UNL     1       8.852  18.493  32.074  1.00  0.00     0.000 C 
BRANCH   5   6
ATOM      6  C   UNL     1      10.085  17.694  32.518  1.00  0.00     0.000 C 
BRANCH   6   7
ATOM      7  C   UNL     1       9.888  17.112  33.922  1.00  0.00     0.006 C 
BRANCH   7   8
ATOM      8  C   UNL     1      11.147  17.295  34.775  1.00  0.00     0.053 C 
BRANCH   8   9
ATOM      9  C   UNL     1      10.852  17.009  36.213  1.00  0.00     0.041 C 
ATOM     10  O   UNL     1       9.739  16.527  36.548  1.00  0.00    -0.550 OA
ATOM     11  O   UNL     1      11.789  17.322  37.190  1.00  0.00    -0.550 OA
ENDBRANCH   8   9
ENDBRANCH   7   8
ENDBRANCH   6   7
ENDBRANCH   5   6
ENDBRANCH   4   5
ENDBRANCH   3   4
ENDBRANCH   2   3
ENDBRANCH   1   2
BRANCH   1  12
ATOM     12  C   UNL     1       8.555  23.364  32.697  1.00  0.00     0.000 C 
BRANCH  12  13
ATOM     13  C   UNL     1       9.792  24.282  32.631  1.00  0.00    -0.000 C 
BRANCH  13  14
ATOM     14  C   UNL     1      10.990  23.707  31.852  1.00  0.00    -0.000 C 
BRANCH  14  15
ATOM     15  C   UNL     1      11.932  22.877  32.736  1.00  0.00    -0.000 C 
BRANCH  15  16
ATOM     16  C   UNL     1      11.561  21.387  32.683  1.00  0.00    -0.000 C 
BRANCH  16  17
ATOM     17  C   UNL     1      11.579  20.722  34.069  1.00  0.00    -0.000 C 
BRANCH  17  18
ATOM     18  C   UNL     1      10.581  21.361  35.046  1.00  0.00    -0.000 C 
BRANCH  18  19
ATOM     19  C   UNL     1       9.265  20.576  35.076  1.00  0.00    -0.003 C 
ATOM     20  C   UNL     1       8.903  20.160  36.499  1.00  0.00     0.004 C 
ENDBRANCH  18  19
ENDBRANCH  17  18
ENDBRANCH  16  17
ENDBRANCH  15  16
ENDBRANCH  14  15
ENDBRANCH  13  14
ENDBRANCH  12  13
ENDBRANCH   1  12
TORSDOF 16
ENDMDL
MODEL 2
REMARK VINA RESULT:    -4.623      2.575      5.157
REMARK INTER + INTRA:         -11.865
REMARK INTER:                  -9.097
REMARK INTRA:                  -2.768
REMARK UNBOUND:                -2.919
REMARK SMILES CCCCCCCCCCCCCCCCCC(=O)[O-]
REMARK SMILES IDX 10 1 11 2 12 3 13 4 14 5 15 6 16 7 17 8 18 9 19 10 20 11
REMARK SMILES IDX 9 12 8 13 7 14 6 15 5 16 4 17 3 18 2 19 1 20
REMARK H PARENT
REMARK Flexibility Score: inf
ROOT
ATOM      1  C   UNL     1       9.890  17.783  32.855  1.00  0.00     0.000 C 
ENDROOT
BRANCH   1   2
ATOM      2  C   UNL     1       9.338  17.473  34.254  1.00  0.00     0.000 C 
BRANCH   2   3
ATOM      3  C   UNL     1       8.013  18.211  34.497  1.00  0.00     0.000 C 
BRANCH   3   4
ATOM      4  C   UNL     1       7.985  18.954  35.842  1.00  0.00     0.000 C 
BRANCH   4   5
ATOM      5  C   UNL     1       9.207  18.640  36.718  1.00  0.00     0.000 C 
BRANCH   5   6
ATOM      6  C   UNL     1       9.874  19.929  37.212  1.00  0.00     0.000 C 
BRANCH   6   7
ATOM      7  C   UNL     1       8.838  20.900  37.790  1.00  0.00     0.006 C 
BRANCH   7   8
ATOM      8  C   UNL     1       9.080  22.326  37.287  1.00  0.00     0.053 C 
BRANCH   8   9
ATOM      9  C   UNL     1       9.743  23.149  38.344  1.00  0.00     0.041 C 
ATOM     10  O   UNL     1      10.923  22.894  38.699  1.00  0.00    -0.550 OA
ATOM     11  O   UNL     1       9.039  24.169  38.975  1.00  0.00    -0.550 OA
ENDBRANCH   8   9
ENDBRANCH   7   8
ENDBRANCH   6   7
ENDBRANCH   5   6
ENDBRANCH   4   5
ENDBRANCH   3   4
ENDBRANCH   2   3
ENDBRANCH   1   2
BRANCH   1  12
ATOM     12  C   UNL     1       8.791  18.178  31.853  1.00  0.00     0.000 C 
BRANCH  12  13
ATOM     13  C   UNL     1       9.297  18.626  30.466  1.00  0.00    -0.000 C 
BRANCH  13  14
ATOM     14  C   UNL     1       8.586  19.859  29.880  1.00  0.00    -0.000 C 
BRANCH  14  15
ATOM     15  C   UNL     1       7.985  20.770  30.959  1.00  0.00    -0.000 C 
BRANCH  15  16
ATOM     16  C   UNL     1       8.591  22.180  30.885  1.00  0.00    -0.000 C 
BRANCH  16  17
ATOM     17  C   UNL     1       9.040  22.707  32.257  1.00  0.00    -0.000 C 
BRANCH  17  18
ATOM     18  C   UNL     1       9.012  21.624  33.345  1.00  0.00    -0.000 C 
BRANCH  18  19
ATOM     19  C   UNL     1      10.424  21.336  33.869  1.00  0.00    -0.003 C 
ATOM     20  C   UNL     1      11.415  21.169  32.720  1.00  0.00     0.004 C 
ENDBRANCH  18  19
ENDBRANCH  17  18
ENDBRANCH  16  17
ENDBRANCH  15  16
ENDBRANCH  14  15
ENDBRANCH  13  14
ENDBRANCH  12  13
ENDBRANCH   1  12
TORSDOF 16
ENDMDL
MODEL 3
REMARK VINA RESULT:    -4.618      2.180      4.869
REMARK INTER + INTRA:         -11.856
REMARK INTER:                  -9.626
REMARK INTRA:                  -2.230
REMARK UNBOUND:                -2.919
REMARK SMILES CCCCCCCCCCCCCCCCCC(=O)[O-]
REMARK SMILES IDX 10 1 11 2 12 3 13 4 14 5 15 6 16 7 17 8 18 9 19 10 20 11
REMARK SMILES IDX 9 12 8 13 7 14 6 15 5 16 4 17 3 18 2 19 1 20
REMARK H PARENT
REMARK Flexibility Score: inf
ROOT
ATOM      1  C   UNL     1       9.364  18.298  30.094  1.00  0.00     0.000 C 
ENDROOT
BRANCH   1   2
ATOM      2  C   UNL     1       8.565  19.489  30.642  1.00  0.00     0.000 C 
BRANCH   2   3
ATOM      3  C   UNL     1       8.138  20.432  29.506  1.00  0.00     0.000 C 
BRANCH   3   4
ATOM      4  C   UNL     1       7.931  21.878  29.983  1.00  0.00     0.000 C 
BRANCH   4   5
ATOM      5  C   UNL     1       8.048  22.023  31.507  1.00  0.00     0.000 C 
BRANCH   5   6
ATOM      6  C   UNL     1       8.811  23.299  31.881  1.00  0.00     0.000 C 
BRANCH   6   7
ATOM      7  C   UNL     1      10.326  23.066  31.847  1.00  0.00     0.006 C 
BRANCH   7   8
ATOM      8  C   UNL     1      10.712  21.840  32.681  1.00  0.00     0.053 C 
BRANCH   8   9
ATOM      9  C   UNL     1      11.534  22.248  33.861  1.00  0.00     0.041 C 
ATOM     10  O   UNL     1      11.712  23.467  34.120  1.00  0.00    -0.550 OA
ATOM     11  O   UNL     1      12.147  21.281  34.649  1.00  0.00    -0.550 OA
ENDBRANCH   8   9
ENDBRANCH   7   8
ENDBRANCH   6   7
ENDBRANCH   5   6
ENDBRANCH   4   5
ENDBRANCH   3   4
ENDBRANCH   2   3
ENDBRANCH   1   2
BRANCH   1  12
ATOM     12  C   UNL     1       9.921  17.390  31.205  1.00  0.00     0.000 C 
BRANCH  12  13
ATOM     13  C   UNL     1      10.291  18.110  32.518  1.00  0.00    -0.000 C 
BRANCH  13  14
ATOM     14  C   UNL     1       9.700  17.483  33.794  1.00  0.00    -0.000 C 
BRANCH  14  15
ATOM     15  C   UNL     1       8.251  17.917  34.056  1.00  0.00    -0.000 C 
BRANCH  15  16
ATOM     16  C   UNL     1       8.171  19.429  34.314  1.00  0.00    -0.000 C 
BRANCH  16  17
ATOM     17  C   UNL     1       9.059  19.880  35.484  1.00  0.00    -0.000 C 
BRANCH  17  18
ATOM     18  C   UNL     1       8.391  19.667  36.851  1.00  0.00    -0.000 C 
BRANCH  18  19
ATOM     19  C   UNL     1       8.740  20.806  37.816  1.00  0.00    -0.003 C 
ATOM     20  C   UNL     1       9.105  22.079  37.058  1.00  0.00     0.004 C 
ENDBRANCH  18  19
ENDBRANCH  17  18
ENDBRANCH  16  17
ENDBRANCH  15  16
ENDBRANCH  14  15
ENDBRANCH  13  14
ENDBRANCH  12  13
ENDBRANCH   1  12
TORSDOF 16
ENDMDL
MODEL 4
REMARK VINA RESULT:    -4.584      2.626      5.060
REMARK INTER + INTRA:         -11.790
REMARK INTER:                  -8.943
REMARK INTRA:                  -2.847
REMARK UNBOUND:                -2.919
REMARK SMILES CCCCCCCCCCCCCCCCCC(=O)[O-]
REMARK SMILES IDX 10 1 11 2 12 3 13 4 14 5 15 6 16 7 17 8 18 9 19 10 20 11
REMARK SMILES IDX 9 12 8 13 7 14 6 15 5 16 4 17 3 18 2 19 1 20
REMARK H PARENT
REMARK Flexibility Score: inf
ROOT
ATOM      1  C   UNL     1      10.126  18.384  31.960  1.00  0.00     0.000 C 
ENDROOT
BRANCH   1   2
ATOM      2  C   UNL     1       9.799  17.744  30.604  1.00  0.00     0.000 C 
BRANCH   2   3
ATOM      3  C   UNL     1       9.033  18.726  29.704  1.00  0.00     0.000 C 
BRANCH   3   4
ATOM      4  C   UNL     1       8.226  19.759  30.506  1.00  0.00     0.000 C 
BRANCH   4   5
ATOM      5  C   UNL     1       8.190  21.137  29.829  1.00  0.00     0.000 C 
BRANCH   5   6
ATOM      6  C   UNL     1       8.362  22.260  30.860  1.00  0.00     0.000 C 
BRANCH   6   7
ATOM      7  C   UNL     1       8.540  21.689  32.272  1.00  0.00     0.006 C 
BRANCH   7   8
ATOM      8  C   UNL     1       9.912  22.056  32.844  1.00  0.00     0.053 C 
BRANCH   8   9
ATOM      9  C   UNL     1       9.771  23.066  33.937  1.00  0.00     0.041 C 
ATOM     10  O   UNL     1       8.630  23.392  34.356  1.00  0.00    -0.550 OA
ATOM     11  O   UNL     1      10.899  23.687  34.460  1.00  0.00    -0.550 OA
ENDBRANCH   8   9
ENDBRANCH   7   8
ENDBRANCH   6   7
ENDBRANCH   5   6
ENDBRANCH   4   5
ENDBRANCH   3   4
ENDBRANCH   2   3
ENDBRANCH   1   2
BRANCH   1  12
ATOM     12  C   UNL     1       9.545  17.598  33.149  1.00  0.00     0.000 C 
BRANCH  12  13
ATOM     13  C   UNL     1       8.316  18.241  33.824  1.00  0.00    -0.000 C 
BRANCH  13  14
ATOM     14  C   UNL     1       8.021  17.743  35.250  1.00  0.00    -0.000 C 
BRANCH  14  15
ATOM     15  C   UNL     1       7.953  18.882  36.277  1.00  0.00    -0.000 C 
BRANCH  15  16
ATOM     16  C   UNL     1       8.950  19.997  35.926  1.00  0.00    -0.000 C 
BRANCH  16  17
ATOM     17  C   UNL     1      10.347  19.751  36.517  1.00  0.00    -0.000 C 
BRANCH  17  18
ATOM     18  C   UNL     1      11.464  19.881  35.470  1.00  0.00    -0.000 C 
BRANCH  18  19
ATOM     19  C   UNL     1      12.243  18.569  35.334  1.00  0.00    -0.003 C 
ATOM     20  C   UNL     1      11.720  17.512  36.303  1.00  0.00     0.004 C 
ENDBRANCH  18  19
ENDBRANCH  17  18
ENDBRANCH  16  17
ENDBRANCH  15  16
ENDBRANCH  14  15
ENDBRANCH  13  14
ENDBRANCH  12  13
ENDBRANCH   1  12
TORSDOF 16
ENDMDL
MODEL 5
REMARK VINA RESULT:    -4.572      1.666      4.012
REMARK INTER + INTRA:         -11.767
REMARK INTER:                  -9.141
REMARK INTRA:                  -2.627
REMARK UNBOUND:                -2.919
REMARK SMILES CCCCCCCCCCCCCCCCCC(=O)[O-]
REMARK SMILES IDX 10 1 11 2 12 3 13 4 14 5 15 6 16 7 17 8 18 9 19 10 20 11
REMARK SMILES IDX 9 12 8 13 7 14 6 15 5 16 4 17 3 18 2 19 1 20
REMARK H PARENT
REMARK Flexibility Score: inf
ROOT
ATOM      1  C   UNL     1       9.761  18.285  33.015  1.00  0.00     0.000 C 
ENDROOT
BRANCH   1   2
ATOM      2  C   UNL     1       8.249  18.202  33.267  1.00  0.00     0.000 C 
BRANCH   2   3
ATOM      3  C   UNL     1       7.875  18.888  34.589  1.00  0.00     0.000 C 
BRANCH   3   4
ATOM      4  C   UNL     1       8.118  17.991  35.813  1.00  0.00     0.000 C 
BRANCH   4   5
ATOM      5  C   UNL     1       8.934  18.692  36.909  1.00  0.00     0.000 C 
BRANCH   5   6
ATOM      6  C   UNL     1      10.438  18.567  36.640  1.00  0.00     0.000 C 
BRANCH   6   7
ATOM      7  C   UNL     1      10.850  17.098  36.485  1.00  0.00     0.006 C 
BRANCH   7   8
ATOM      8  C   UNL     1      12.095  16.967  35.603  1.00  0.00     0.053 C 
BRANCH   8   9
ATOM      9  C   UNL     1      13.326  16.870  36.446  1.00  0.00     0.041 C 
ATOM     10  O   UNL     1      14.466  16.951  35.916  1.00  0.00    -0.550 OA
ATOM     11  O   UNL     1      13.218  16.638  37.812  1.00  0.00    -0.550 OA
ENDBRANCH   8   9
ENDBRANCH   7   8
ENDBRANCH   6   7
ENDBRANCH   5   6
ENDBRANCH   4   5
ENDBRANCH   3   4
ENDBRANCH   2   3
ENDBRANCH   1   2
BRANCH   1  12
ATOM     12  C   UNL     1      10.108  18.952  31.671  1.00  0.00     0.000 C 
BRANCH  12  13
ATOM     13  C   UNL     1       9.160  18.608  30.504  1.00  0.00    -0.000 C 
BRANCH  13  14
ATOM     14  C   UNL     1       8.525  19.822  29.801  1.00  0.00    -0.000 C 
BRANCH  14  15
ATOM     15  C   UNL     1       7.969  20.859  30.787  1.00  0.00    -0.000 C 
BRANCH  15  16
ATOM     16  C   UNL     1       8.545  22.254  30.497  1.00  0.00    -0.000 C 
BRANCH  16  17
ATOM     17  C   UNL     1       9.416  22.787  31.646  1.00  0.00    -0.000 C 
BRANCH  17  18
ATOM     18  C   UNL     1       8.822  22.483  33.030  1.00  0.00    -0.000 C 
BRANCH  18  19
ATOM     19  C   UNL     1       9.896  21.947  33.982  1.00  0.00    -0.003 C 
ATOM     20  C   UNL     1       9.461  22.080  35.438  1.00  0.00     0.004 C 
ENDBRANCH  18  19
ENDBRANCH  17  18
ENDBRANCH  16  17
ENDBRANCH  15  16
ENDBRANCH  14  15
ENDBRANCH  13  14
ENDBRANCH  12  13
ENDBRANCH   1  12
TORSDOF 16
ENDMDL
MODEL 6
REMARK VINA RESULT:    -4.561      1.395      2.733
REMARK INTER + INTRA:         -11.747
REMARK INTER:                  -9.343
REMARK INTRA:                  -2.403
REMARK UNBOUND:                -2.919
REMARK SMILES CCCCCCCCCCCCCCCCCC(=O)[O-]
REMARK SMILES IDX 10 1 11 2 12 3 13 4 14 5 15 6 16 7 17 8 18 9 19 10 20 11
REMARK SMILES IDX 9 12 8 13 7 14 6 15 5 16 4 17 3 18 2 19 1 20
REMARK H PARENT
REMARK Flexibility Score: inf
ROOT
ATOM      1  C   UNL     1       8.268  19.456  30.580  1.00  0.00     0.000 C 
ENDROOT
BRANCH   1   2
ATOM      2  C   UNL     1       9.462  18.499  30.458  1.00  0.00     0.000 C 
BRANCH   2   3
ATOM      3  C   UNL     1       9.758  17.816  31.802  1.00  0.00     0.000 C 
BRANCH   3   4
ATOM      4  C   UNL     1       8.771  18.228  32.906  1.00  0.00     0.000 C 
BRANCH   4   5
ATOM      5  C   UNL     1       9.089  17.574  34.258  1.00  0.00     0.000 C 
BRANCH   5   6
ATOM      6  C   UNL     1      10.603  17.476  34.479  1.00  0.00     0.000 C 
BRANCH   6   7
ATOM      7  C   UNL     1      10.923  17.003  35.903  1.00  0.00     0.006 C 
BRANCH   7   8
ATOM      8  C   UNL     1      12.185  17.687  36.438  1.00  0.00     0.053 C 
BRANCH   8   9
ATOM      9  C   UNL     1      13.113  16.678  37.037  1.00  0.00     0.041 C 
ATOM     10  O   UNL     1      13.478  15.677  36.367  1.00  0.00    -0.550 OA
ATOM     11  O   UNL     1      13.536  16.818  38.353  1.00  0.00    -0.550 OA
ENDBRANCH   8   9
ENDBRANCH   7   8
ENDBRANCH   6   7
ENDBRANCH   5   6
ENDBRANCH   4   5
ENDBRANCH   3   4
ENDBRANCH   2   3
ENDBRANCH   1   2
BRANCH   1  12
ATOM     12  C   UNL     1       8.178  20.454  29.411  1.00  0.00     0.000 C 
BRANCH  12  13
ATOM     13  C   UNL     1       8.195  21.942  29.815  1.00  0.00    -0.000 C 
BRANCH  13  14
ATOM     14  C   UNL     1       8.335  22.206  31.325  1.00  0.00    -0.000 C 
BRANCH  14  15
ATOM     15  C   UNL     1       9.289  23.366  31.642  1.00  0.00    -0.000 C 
BRANCH  15  16
ATOM     16  C   UNL     1      10.665  22.841  32.078  1.00  0.00    -0.000 C 
BRANCH  16  17
ATOM     17  C   UNL     1      10.606  21.408  32.630  1.00  0.00    -0.000 C 
BRANCH  17  18
ATOM     18  C   UNL     1      10.984  21.329  34.116  1.00  0.00    -0.000 C 
BRANCH  18  19
ATOM     19  C   UNL     1       9.733  21.225  34.995  1.00  0.00    -0.003 C 
ATOM     20  C   UNL     1       9.248  22.605  35.431  1.00  0.00     0.004 C 
ENDBRANCH  18  19
ENDBRANCH  17  18
ENDBRANCH  16  17
ENDBRANCH  15  16
ENDBRANCH  14  15
ENDBRANCH  13  14
ENDBRANCH  12  13
ENDBRANCH   1  12
TORSDOF 16
ENDMDL
MODEL 7
REMARK VINA RESULT:    -4.550      3.226      5.593
REMARK INTER + INTRA:         -11.724
REMARK INTER:                  -9.471
REMARK INTRA:                  -2.253
REMARK UNBOUND:                -2.919
REMARK SMILES CCCCCCCCCCCCCCCCCC(=O)[O-]
REMARK SMILES IDX 10 1 11 2 12 3 13 4 14 5 15 6 16 7 17 8 18 9 19 10 20 11
REMARK SMILES IDX 9 12 8 13 7 14 6 15 5 16 4 17 3 18 2 19 1 20
REMARK H PARENT
REMARK Flexibility Score: inf
ROOT
ATOM      1  C   UNL     1      10.138  18.582  31.997  1.00  0.00     0.000 C 
ENDROOT
BRANCH   1   2
ATOM      2  C   UNL     1       9.775  17.904  30.667  1.00  0.00     0.000 C 
BRANCH   2   3
ATOM      3  C   UNL     1       8.993  18.863  29.758  1.00  0.00     0.000 C 
BRANCH   3   4
ATOM      4  C   UNL     1       8.244  19.950  30.546  1.00  0.00     0.000 C 
BRANCH   4   5
ATOM      5  C   UNL     1       8.062  21.245  29.742  1.00  0.00     0.000 C 
BRANCH   5   6
ATOM      6  C   UNL     1       8.351  22.476  30.611  1.00  0.00     0.000 C 
BRANCH   6   7
ATOM      7  C   UNL     1       8.894  22.065  31.985  1.00  0.00     0.006 C 
BRANCH   7   8
ATOM      8  C   UNL     1      10.299  22.630  32.212  1.00  0.00     0.053 C 
BRANCH   8   9
ATOM      9  C   UNL     1      10.306  24.112  32.014  1.00  0.00     0.041 C 
ATOM     10  O   UNL     1      11.087  24.637  31.177  1.00  0.00    -0.550 OA
ATOM     11  O   UNL     1       9.485  24.922  32.790  1.00  0.00    -0.550 OA
ENDBRANCH   8   9
ENDBRANCH   7   8
ENDBRANCH   6   7
ENDBRANCH   5   6
ENDBRANCH   4   5
ENDBRANCH   3   4
ENDBRANCH   2   3
ENDBRANCH   1   2
BRANCH   1  12
ATOM     12  C   UNL     1       9.676  17.776  33.225  1.00  0.00     0.000 C 
BRANCH  12  13
ATOM     13  C   UNL     1       8.246  18.087  33.713  1.00  0.00    -0.000 C 
BRANCH  13  14
ATOM     14  C   UNL     1       7.951  17.674  35.167  1.00  0.00    -0.000 C 
BRANCH  14  15
ATOM     15  C   UNL     1       7.887  18.871  36.126  1.00  0.00    -0.000 C 
BRANCH  15  16
ATOM     16  C   UNL     1       9.157  18.950  36.987  1.00  0.00    -0.000 C 
BRANCH  16  17
ATOM     17  C   UNL     1      10.204  19.917  36.412  1.00  0.00    -0.000 C 
BRANCH  17  18
ATOM     18  C   UNL     1       9.578  21.029  35.557  1.00  0.00    -0.000 C 
BRANCH  18  19
ATOM     19  C   UNL     1       9.256  22.261  36.409  1.00  0.00    -0.003 C 
ATOM     20  C   UNL     1      10.071  23.471  35.960  1.00  0.00     0.004 C 
ENDBRANCH  18  19
ENDBRANCH  17  18
ENDBRANCH  16  17
ENDBRANCH  15  16
ENDBRANCH  14  15
ENDBRANCH  13  14
ENDBRANCH  12  13
ENDBRANCH   1  12
TORSDOF 16
ENDMDL
MODEL 8
REMARK VINA RESULT:    -4.527      2.001      2.801
REMARK INTER + INTRA:         -11.680
REMARK INTER:                  -9.517
REMARK INTRA:                  -2.163
REMARK UNBOUND:                -2.919
REMARK SMILES CCCCCCCCCCCCCCCCCC(=O)[O-]
REMARK SMILES IDX 10 1 11 2 12 3 13 4 14 5 15 6 16 7 17 8 18 9 19 10 20 11
REMARK SMILES IDX 9 12 8 13 7 14 6 15 5 16 4 17 3 18 2 19 1 20
REMARK H PARENT
REMARK Flexibility Score: inf
ROOT
ATOM      1  C   UNL     1       7.945  21.051  29.721  1.00  0.00     0.000 C 
ENDROOT
BRANCH   1   2
ATOM      2  C   UNL     1       8.192  19.818  30.603  1.00  0.00     0.000 C 
BRANCH   2   3
ATOM      3  C   UNL     1       9.058  18.784  29.869  1.00  0.00     0.000 C 
BRANCH   3   4
ATOM      4  C   UNL     1       9.750  17.802  30.828  1.00  0.00     0.000 C 
BRANCH   4   5
ATOM      5  C   UNL     1       9.281  17.962  32.281  1.00  0.00     0.000 C 
BRANCH   5   6
ATOM      6  C   UNL     1      10.419  18.473  33.173  1.00  0.00     0.000 C 
BRANCH   6   7
ATOM      7  C   UNL     1       9.896  19.463  34.221  1.00  0.00     0.006 C 
BRANCH   7   8
ATOM      8  C   UNL     1       8.400  19.255  34.475  1.00  0.00     0.053 C 
BRANCH   8   9
ATOM      9  C   UNL     1       8.188  18.421  35.698  1.00  0.00     0.041 C 
ATOM     10  O   UNL     1       7.875  18.964  36.790  1.00  0.00    -0.550 OA
ATOM     11  O   UNL     1       8.384  17.046  35.645  1.00  0.00    -0.550 OA
ENDBRANCH   8   9
ENDBRANCH   7   8
ENDBRANCH   6   7
ENDBRANCH   5   6
ENDBRANCH   4   5
ENDBRANCH   3   4
ENDBRANCH   2   3
ENDBRANCH   1   2
BRANCH   1  12
ATOM     12  C   UNL     1       8.295  22.373  30.428  1.00  0.00     0.000 C 
BRANCH  12  13
ATOM     13  C   UNL     1       8.663  22.241  31.920  1.00  0.00    -0.000 C 
BRANCH  13  14
ATOM     14  C   UNL     1      10.141  22.513  32.253  1.00  0.00    -0.000 C 
BRANCH  14  15
ATOM     15  C   UNL     1      10.324  23.624  33.296  1.00  0.00    -0.000 C 
BRANCH  15  16
ATOM     16  C   UNL     1       9.103  23.710  34.225  1.00  0.00    -0.000 C 
BRANCH  16  17
ATOM     17  C   UNL     1       9.304  22.943  35.542  1.00  0.00    -0.000 C 
BRANCH  17  18
ATOM     18  C   UNL     1      10.620  23.308  36.245  1.00  0.00    -0.000 C 
BRANCH  18  19
ATOM     19  C   UNL     1      10.469  24.601  37.054  1.00  0.00    -0.003 C 
ATOM     20  C   UNL     1       9.768  24.340  38.385  1.00  0.00     0.004 C 
ENDBRANCH  18  19
ENDBRANCH  17  18
ENDBRANCH  16  17
ENDBRANCH  15  16
ENDBRANCH  14  15
ENDBRANCH  13  14
ENDBRANCH  12  13
ENDBRANCH   1  12
TORSDOF 16
ENDMDL
MODEL 9
REMARK VINA RESULT:    -4.492      1.418      3.892
REMARK INTER + INTRA:         -11.613
REMARK INTER:                  -9.178
REMARK INTRA:                  -2.435
REMARK UNBOUND:                -2.919
REMARK SMILES CCCCCCCCCCCCCCCCCC(=O)[O-]
REMARK SMILES IDX 10 1 11 2 12 3 13 4 14 5 15 6 16 7 17 8 18 9 19 10 20 11
REMARK SMILES IDX 9 12 8 13 7 14 6 15 5 16 4 17 3 18 2 19 1 20
REMARK H PARENT
REMARK Flexibility Score: inf
ROOT
ATOM      1  C   UNL     1      10.127  18.686  31.786  1.00  0.00     0.000 C 
ENDROOT
BRANCH   1   2
ATOM      2  C   UNL     1       9.737  17.758  32.945  1.00  0.00     0.000 C 
BRANCH   2   3
ATOM      3  C   UNL     1       8.359  18.134  33.509  1.00  0.00     0.000 C 
BRANCH   3   4
ATOM      4  C   UNL     1       8.397  19.408  34.368  1.00  0.00     0.000 C 
BRANCH   4   5
ATOM      5  C   UNL     1       9.574  19.423  35.354  1.00  0.00     0.000 C 
BRANCH   5   6
ATOM      6  C   UNL     1       9.086  19.222  36.795  1.00  0.00     0.000 C 
BRANCH   6   7
ATOM      7  C   UNL     1       9.841  18.075  37.477  1.00  0.00     0.006 C 
BRANCH   7   8
ATOM      8  C   UNL     1      10.784  17.376  36.494  1.00  0.00     0.053 C 
BRANCH   8   9
ATOM      9  C   UNL     1      12.169  17.311  37.054  1.00  0.00     0.041 C 
ATOM     10  O   UNL     1      12.606  18.244  37.778  1.00  0.00    -0.550 OA
ATOM     11  O   UNL     1      12.998  16.241  36.737  1.00  0.00    -0.550 OA
ENDBRANCH   8   9
ENDBRANCH   7   8
ENDBRANCH   6   7
ENDBRANCH   5   6
ENDBRANCH   4   5
ENDBRANCH   3   4
ENDBRANCH   2   3
ENDBRANCH   1   2
BRANCH   1  12
ATOM     12  C   UNL     1       9.339  18.396  30.495  1.00  0.00     0.000 C 
BRANCH  12  13
ATOM     13  C   UNL     1       8.619  19.612  29.878  1.00  0.00    -0.000 C 
BRANCH  13  14
ATOM     14  C   UNL     1       8.168  20.684  30.887  1.00  0.00    -0.000 C 
BRANCH  14  15
ATOM     15  C   UNL     1       8.277  22.110  30.331  1.00  0.00    -0.000 C 
BRANCH  15  16
ATOM     16  C   UNL     1       9.118  22.998  31.262  1.00  0.00    -0.000 C 
BRANCH  16  17
ATOM     17  C   UNL     1       8.788  22.781  32.747  1.00  0.00    -0.000 C 
BRANCH  17  18
ATOM     18  C   UNL     1      10.045  22.667  33.623  1.00  0.00    -0.000 C 
BRANCH  18  19
ATOM     19  C   UNL     1      11.189  21.995  32.855  1.00  0.00    -0.003 C 
ATOM     20  C   UNL     1      12.465  22.828  32.926  1.00  0.00     0.004 C 
ENDBRANCH  18  19
ENDBRANCH  17  18
ENDBRANCH  16  17
ENDBRANCH  15  16
ENDBRANCH  14  15
ENDBRANCH  13  14
ENDBRANCH  12  13
ENDBRANCH   1  12
TORSDOF 16
ENDMDL
