MODEL 1
REMARK VINA RESULT:    -3.537      0.000      0.000
REMARK INTER + INTRA:         -14.494
REMARK INTER:                  -8.913
REMARK INTRA:                  -5.581
REMARK UNBOUND:                -5.581
REMARK SMILES CCCCCCCCCCCCCCCCCCCCCCCCCCCC(=O)[O-]
REMARK SMILES IDX 15 1 16 2 17 3 18 4 19 5 20 6 21 7 22 8 23 9 24 10 25 11
REMARK SMILES IDX 26 12 27 13 28 14 29 15 30 16 14 17 13 18 12 19 11 20 10 21
REMARK SMILES IDX 9 22 8 23 7 24 6 25 5 26 4 27 3 28 2 29 1 30
REMARK H PARENT
REMARK Flexibility Score: inf
ROOT
ATOM      1  C   UNL     1      24.628   9.637  25.834  1.00  0.00     0.000 C 
ENDROOT
BRANCH   1   2
ATOM      2  C   UNL     1      24.747  10.942  26.644  1.00  0.00     0.000 C 
BRANCH   2   3
ATOM      3  C   UNL     1      25.919  11.825  26.184  1.00  0.00     0.000 C 
BRANCH   3   4
ATOM      4  C   UNL     1      26.693  12.451  27.365  1.00  0.00     0.000 C 
BRANCH   4   5
ATOM      5  C   UNL     1      27.331  11.416  28.313  1.00  0.00     0.000 C 
BRANCH   5   6
ATOM      6  C   UNL     1      28.759  11.749  28.786  1.00  0.00     0.000 C 
BRANCH   6   7
ATOM      7  C   UNL     1      29.753  10.575  28.726  1.00  0.00     0.000 C 
BRANCH   7   8
ATOM      8  C   UNL     1      29.054   9.207  28.626  1.00  0.00     0.000 C 
BRANCH   8   9
ATOM      9  C   UNL     1      29.433   8.449  27.343  1.00  0.00     0.000 C 
BRANCH   9  10
ATOM     10  C   UNL     1      28.451   8.722  26.194  1.00  0.00     0.000 C 
BRANCH  10  11
ATOM     11  C   UNL     1      29.191   9.176  24.929  1.00  0.00     0.000 C 
BRANCH  11  12
ATOM     12  C   UNL     1      28.843  10.616  24.513  1.00  0.00     0.006 C 
BRANCH  12  13
ATOM     13  C   UNL     1      29.677  11.694  25.227  1.00  0.00     0.053 C 
BRANCH  13  14
ATOM     14  C   UNL     1      31.151  11.532  25.002  1.00  0.00     0.041 C 
ATOM     15  O   UNL     1      31.685  11.953  23.942  1.00  0.00    -0.550 OA
ATOM     16  O   UNL     1      31.943  10.953  25.987  1.00  0.00    -0.550 OA
ENDBRANCH  13  14
ENDBRANCH  12  13
ENDBRANCH  11  12
ENDBRANCH  10  11
ENDBRANCH   9  10
ENDBRANCH   8   9
ENDBRANCH   7   8
ENDBRANCH   6   7
ENDBRANCH   5   6
ENDBRANCH   4   5
ENDBRANCH   3   4
ENDBRANCH   2   3
ENDBRANCH   1   2
BRANCH   1  17
ATOM     17  C   UNL     1      24.882   8.347  26.639  1.00  0.00     0.000 C 
BRANCH  17  18
ATOM     18  C   UNL     1      25.189   8.554  28.136  1.00  0.00     0.000 C 
BRANCH  18  19
ATOM     19  C   UNL     1      25.613   7.285  28.897  1.00  0.00     0.000 C 
BRANCH  19  20
ATOM     20  C   UNL     1      24.783   6.052  28.503  1.00  0.00     0.000 C 
BRANCH  20  21
ATOM     21  C   UNL     1      24.872   4.921  29.542  1.00  0.00     0.000 C 
BRANCH  21  22
ATOM     22  C   UNL     1      25.402   3.607  28.941  1.00  0.00    -0.000 C 
BRANCH  22  23
ATOM     23  C   UNL     1      26.938   3.553  28.904  1.00  0.00    -0.000 C 
BRANCH  23  24
ATOM     24  C   UNL     1      27.499   3.580  27.470  1.00  0.00    -0.000 C 
BRANCH  24  25
ATOM     25  C   UNL     1      27.896   5.006  27.029  1.00  0.00    -0.000 C 
BRANCH  25  26
ATOM     26  C   UNL     1      27.883   5.202  25.503  1.00  0.00    -0.000 C 
BRANCH  26  27
ATOM     27  C   UNL     1      26.482   5.511  24.950  1.00  0.00    -0.000 C 
BRANCH  27  28
ATOM     28  C   UNL     1      26.524   6.501  23.767  1.00  0.00    -0.000 C 
BRANCH  28  29
ATOM     29  C   UNL     1      25.134   6.855  23.210  1.00  0.00    -0.003 C 
ATOM     30  C   UNL     1      25.127   8.147  22.395  1.00  0.00     0.004 C 
ENDBRANCH  28  29
ENDBRANCH  27  28
ENDBRANCH  26  27
ENDBRANCH  25  26
ENDBRANCH  24  25
ENDBRANCH  23  24
ENDBRANCH  22  23
ENDBRANCH  21  22
ENDBRANCH  20  21
ENDBRANCH  19  20
ENDBRANCH  18  19
ENDBRANCH  17  18
ENDBRANCH   1  17
TORSDOF 26
ENDMDL
MODEL 2
REMARK VINA RESULT:    -3.427      2.616      5.374
REMARK INTER + INTRA:         -14.217
REMARK INTER:                  -8.413
REMARK INTRA:                  -5.804
REMARK UNBOUND:                -5.581
REMARK SMILES CCCCCCCCCCCCCCCCCCCCCCCCCCCC(=O)[O-]
REMARK SMILES IDX 15 1 16 2 17 3 18 4 19 5 20 6 21 7 22 8 23 9 24 10 25 11
REMARK SMILES IDX 26 12 27 13 28 14 29 15 30 16 14 17 13 18 12 19 11 20 10 21
REMARK SMILES IDX 9 22 8 23 7 24 6 25 5 26 4 27 3 28 2 29 1 30
REMARK H PARENT
REMARK Flexibility Score: inf
ROOT
ATOM      1  C   UNL     1      29.449  11.610  22.843  1.00  0.00     0.000 C 
ENDROOT
BRANCH   1   2
ATOM      2  C   UNL     1      30.885  11.355  23.337  1.00  0.00     0.000 C 
BRANCH   2   3
ATOM      3  C   UNL     1      31.129  11.887  24.760  1.00  0.00     0.000 C 
BRANCH   3   4
ATOM      4  C   UNL     1      31.622  10.791  25.730  1.00  0.00     0.000 C 
BRANCH   4   5
ATOM      5  C   UNL     1      31.222   9.362  25.313  1.00  0.00     0.000 C 
BRANCH   5   6
ATOM      6  C   UNL     1      30.424   8.568  26.365  1.00  0.00     0.000 C 
BRANCH   6   7
ATOM      7  C   UNL     1      29.372   9.388  27.136  1.00  0.00     0.000 C 
BRANCH   7   8
ATOM      8  C   UNL     1      29.336   9.048  28.636  1.00  0.00     0.000 C 
BRANCH   8   9
ATOM      9  C   UNL     1      30.051  10.106  29.493  1.00  0.00     0.000 C 
BRANCH   9  10
ATOM     10  C   UNL     1      30.012  11.499  28.848  1.00  0.00     0.000 C 
BRANCH  10  11
ATOM     11  C   UNL     1      28.797  12.301  29.335  1.00  0.00     0.000 C 
BRANCH  11  12
ATOM     12  C   UNL     1      27.768  12.567  28.223  1.00  0.00     0.006 C 
BRANCH  12  13
ATOM     13  C   UNL     1      26.586  11.581  28.212  1.00  0.00     0.053 C 
BRANCH  13  14
ATOM     14  C   UNL     1      25.255  12.271  28.200  1.00  0.00     0.041 C 
ATOM     15  O   UNL     1      25.167  13.494  28.488  1.00  0.00    -0.550 OA
ATOM     16  O   UNL     1      24.114  11.569  27.827  1.00  0.00    -0.550 OA
ENDBRANCH  13  14
ENDBRANCH  12  13
ENDBRANCH  11  12
ENDBRANCH  10  11
ENDBRANCH   9  10
ENDBRANCH   8   9
ENDBRANCH   7   8
ENDBRANCH   6   7
ENDBRANCH   5   6
ENDBRANCH   4   5
ENDBRANCH   3   4
ENDBRANCH   2   3
ENDBRANCH   1   2
BRANCH   1  17
ATOM     17  C   UNL     1      28.389  10.633  23.390  1.00  0.00     0.000 C 
BRANCH  17  18
ATOM     18  C   UNL     1      27.531  11.175  24.551  1.00  0.00     0.000 C 
BRANCH  18  19
ATOM     19  C   UNL     1      26.075  10.677  24.574  1.00  0.00     0.000 C 
BRANCH  19  20
ATOM     20  C   UNL     1      25.613  10.130  23.213  1.00  0.00     0.000 C 
BRANCH  20  21
ATOM     21  C   UNL     1      24.484   9.095  23.343  1.00  0.00     0.000 C 
BRANCH  21  22
ATOM     22  C   UNL     1      24.931   7.679  22.939  1.00  0.00    -0.000 C 
BRANCH  22  23
ATOM     23  C   UNL     1      26.359   7.650  22.372  1.00  0.00    -0.000 C 
BRANCH  23  24
ATOM     24  C   UNL     1      27.305   6.748  23.188  1.00  0.00    -0.000 C 
BRANCH  24  25
ATOM     25  C   UNL     1      27.495   7.261  24.631  1.00  0.00    -0.000 C 
BRANCH  25  26
ATOM     26  C   UNL     1      27.600   6.135  25.674  1.00  0.00    -0.000 C 
BRANCH  26  27
ATOM     27  C   UNL     1      26.344   6.013  26.553  1.00  0.00    -0.000 C 
BRANCH  27  28
ATOM     28  C   UNL     1      26.505   6.735  27.908  1.00  0.00    -0.000 C 
BRANCH  28  29
ATOM     29  C   UNL     1      25.712   8.050  28.003  1.00  0.00    -0.003 C 
ATOM     30  C   UNL     1      24.622   8.170  26.940  1.00  0.00     0.004 C 
ENDBRANCH  28  29
ENDBRANCH  27  28
ENDBRANCH  26  27
ENDBRANCH  25  26
ENDBRANCH  24  25
ENDBRANCH  23  24
ENDBRANCH  22  23
ENDBRANCH  21  22
ENDBRANCH  20  21
ENDBRANCH  19  20
ENDBRANCH  18  19
ENDBRANCH  17  18
ENDBRANCH   1  17
TORSDOF 26
ENDMDL
MODEL 3
REMARK VINA RESULT:    -3.418      2.847      6.933
REMARK INTER + INTRA:         -14.194
REMARK INTER:                  -9.181
REMARK INTRA:                  -5.013
REMARK UNBOUND:                -5.581
REMARK SMILES CCCCCCCCCCCCCCCCCCCCCCCCCCCC(=O)[O-]
REMARK SMILES IDX 15 1 16 2 17 3 18 4 19 5 20 6 21 7 22 8 23 9 24 10 25 11
REMARK SMILES IDX 26 12 27 13 28 14 29 15 30 16 14 17 13 18 12 19 11 20 10 21
REMARK SMILES IDX 9 22 8 23 7 24 6 25 5 26 4 27 3 28 2 29 1 30
REMARK H PARENT
REMARK Flexibility Score: inf
ROOT
ATOM      1  C   UNL     1      26.947   7.833  25.132  1.00  0.00     0.000 C 
ENDROOT
BRANCH   1   2
ATOM      2  C   UNL     1      26.400   7.203  26.427  1.00  0.00     0.000 C 
BRANCH   2   3
ATOM      3  C   UNL     1      24.993   6.607  26.253  1.00  0.00     0.000 C 
BRANCH   3   4
ATOM      4  C   UNL     1      24.226   6.489  27.588  1.00  0.00     0.000 C 
BRANCH   4   5
ATOM      5  C   UNL     1      25.127   6.581  28.836  1.00  0.00     0.000 C 
BRANCH   5   6
ATOM      6  C   UNL     1      24.904   5.481  29.891  1.00  0.00     0.000 C 
BRANCH   6   7
ATOM      7  C   UNL     1      24.200   4.215  29.370  1.00  0.00     0.000 C 
BRANCH   7   8
ATOM      8  C   UNL     1      25.187   3.088  29.015  1.00  0.00     0.000 C 
BRANCH   8   9
ATOM      9  C   UNL     1      26.523   3.225  29.763  1.00  0.00     0.000 C 
BRANCH   9  10
ATOM     10  C   UNL     1      27.731   3.025  28.835  1.00  0.00     0.000 C 
BRANCH  10  11
ATOM     11  C   UNL     1      27.923   4.233  27.907  1.00  0.00     0.000 C 
BRANCH  11  12
ATOM     12  C   UNL     1      27.813   3.867  26.416  1.00  0.00     0.006 C 
BRANCH  12  13
ATOM     13  C   UNL     1      28.024   2.372  26.119  1.00  0.00     0.053 C 
BRANCH  13  14
ATOM     14  C   UNL     1      28.790   2.134  24.853  1.00  0.00     0.041 C 
ATOM     15  O   UNL     1      28.241   1.565  23.872  1.00  0.00    -0.550 OA
ATOM     16  O   UNL     1      30.101   2.581  24.741  1.00  0.00    -0.550 OA
ENDBRANCH  13  14
ENDBRANCH  12  13
ENDBRANCH  11  12
ENDBRANCH  10  11
ENDBRANCH   9  10
ENDBRANCH   8   9
ENDBRANCH   7   8
ENDBRANCH   6   7
ENDBRANCH   5   6
ENDBRANCH   4   5
ENDBRANCH   3   4
ENDBRANCH   2   3
ENDBRANCH   1   2
BRANCH   1  17
ATOM     17  C   UNL     1      27.752   6.874  24.232  1.00  0.00     0.000 C 
BRANCH  17  18
ATOM     18  C   UNL     1      29.269   6.832  24.505  1.00  0.00     0.000 C 
BRANCH  18  19
ATOM     19  C   UNL     1      29.990   8.187  24.389  1.00  0.00     0.000 C 
BRANCH  19  20
ATOM     20  C   UNL     1      30.857   8.506  25.618  1.00  0.00     0.000 C 
BRANCH  20  21
ATOM     21  C   UNL     1      30.180   9.493  26.582  1.00  0.00     0.000 C 
BRANCH  21  22
ATOM     22  C   UNL     1      29.617   8.802  27.836  1.00  0.00    -0.000 C 
BRANCH  22  23
ATOM     23  C   UNL     1      29.667   9.705  29.079  1.00  0.00    -0.000 C 
BRANCH  23  24
ATOM     24  C   UNL     1      29.708  11.203  28.724  1.00  0.00    -0.000 C 
BRANCH  24  25
ATOM     25  C   UNL     1      28.313  11.859  28.811  1.00  0.00    -0.000 C 
BRANCH  25  26
ATOM     26  C   UNL     1      27.715  12.212  27.438  1.00  0.00    -0.000 C 
BRANCH  26  27
ATOM     27  C   UNL     1      26.759  11.131  26.904  1.00  0.00    -0.000 C 
BRANCH  27  28
ATOM     28  C   UNL     1      26.106  10.314  28.039  1.00  0.00    -0.000 C 
BRANCH  28  29
ATOM     29  C   UNL     1      24.602  10.591  28.210  1.00  0.00    -0.003 C 
ATOM     30  C   UNL     1      23.767  10.112  27.025  1.00  0.00     0.004 C 
ENDBRANCH  28  29
ENDBRANCH  27  28
ENDBRANCH  26  27
ENDBRANCH  25  26
ENDBRANCH  24  25
ENDBRANCH  23  24
ENDBRANCH  22  23
ENDBRANCH  21  22
ENDBRANCH  20  21
ENDBRANCH  19  20
ENDBRANCH  18  19
ENDBRANCH  17  18
ENDBRANCH   1  17
TORSDOF 26
ENDMDL
MODEL 4
REMARK VINA RESULT:    -3.394      2.398      6.237
REMARK INTER + INTRA:         -14.135
REMARK INTER:                  -8.732
REMARK INTRA:                  -5.403
REMARK UNBOUND:                -5.581
REMARK SMILES CCCCCCCCCCCCCCCCCCCCCCCCCCCC(=O)[O-]
REMARK SMILES IDX 15 1 16 2 17 3 18 4 19 5 20 6 21 7 22 8 23 9 24 10 25 11
REMARK SMILES IDX 26 12 27 13 28 14 29 15 30 16 14 17 13 18 12 19 11 20 10 21
REMARK SMILES IDX 9 22 8 23 7 24 6 25 5 26 4 27 3 28 2 29 1 30
REMARK H PARENT
REMARK Flexibility Score: inf
ROOT
ATOM      1  C   UNL     1      29.433   9.048  26.750  1.00  0.00     0.000 C 
ENDROOT
BRANCH   1   2
ATOM      2  C   UNL     1      30.623   8.449  25.978  1.00  0.00     0.000 C 
BRANCH   2   3
ATOM      3  C   UNL     1      31.199   9.412  24.926  1.00  0.00     0.000 C 
BRANCH   3   4
ATOM      4  C   UNL     1      31.509  10.810  25.504  1.00  0.00     0.000 C 
BRANCH   4   5
ATOM      5  C   UNL     1      31.008  11.975  24.627  1.00  0.00     0.000 C 
BRANCH   5   6
ATOM      6  C   UNL     1      29.559  12.426  24.896  1.00  0.00     0.000 C 
BRANCH   6   7
ATOM      7  C   UNL     1      28.501  11.801  23.969  1.00  0.00     0.000 C 
BRANCH   7   8
ATOM      8  C   UNL     1      27.302  11.222  24.740  1.00  0.00     0.000 C 
BRANCH   8   9
ATOM      9  C   UNL     1      26.599  10.094  23.967  1.00  0.00     0.000 C 
BRANCH   9  10
ATOM     10  C   UNL     1      27.514   8.880  23.749  1.00  0.00     0.000 C 
BRANCH  10  11
ATOM     11  C   UNL     1      26.857   7.591  24.262  1.00  0.00     0.000 C 
BRANCH  11  12
ATOM     12  C   UNL     1      27.857   6.435  24.437  1.00  0.00     0.006 C 
BRANCH  12  13
ATOM     13  C   UNL     1      27.201   5.079  24.749  1.00  0.00     0.053 C 
BRANCH  13  14
ATOM     14  C   UNL     1      27.647   4.506  26.061  1.00  0.00     0.041 C 
ATOM     15  O   UNL     1      27.563   3.268  26.278  1.00  0.00    -0.550 OA
ATOM     16  O   UNL     1      28.198   5.337  27.029  1.00  0.00    -0.550 OA
ENDBRANCH  13  14
ENDBRANCH  12  13
ENDBRANCH  11  12
ENDBRANCH  10  11
ENDBRANCH   9  10
ENDBRANCH   8   9
ENDBRANCH   7   8
ENDBRANCH   6   7
ENDBRANCH   5   6
ENDBRANCH   4   5
ENDBRANCH   3   4
ENDBRANCH   2   3
ENDBRANCH   1   2
BRANCH   1  17
ATOM     17  C   UNL     1      29.323   8.605  28.223  1.00  0.00     0.000 C 
BRANCH  17  18
ATOM     18  C   UNL     1      29.870   9.611  29.255  1.00  0.00     0.000 C 
BRANCH  18  19
ATOM     19  C   UNL     1      30.025  11.054  28.742  1.00  0.00     0.000 C 
BRANCH  19  20
ATOM     20  C   UNL     1      29.592  12.103  29.779  1.00  0.00     0.000 C 
BRANCH  20  21
ATOM     21  C   UNL     1      28.416  12.967  29.294  1.00  0.00     0.000 C 
BRANCH  21  22
ATOM     22  C   UNL     1      27.559  12.255  28.231  1.00  0.00    -0.000 C 
BRANCH  22  23
ATOM     23  C   UNL     1      26.069  12.612  28.340  1.00  0.00    -0.000 C 
BRANCH  23  24
ATOM     24  C   UNL     1      25.149  11.393  28.141  1.00  0.00    -0.000 C 
BRANCH  24  25
ATOM     25  C   UNL     1      25.946  10.075  28.040  1.00  0.00    -0.000 C 
BRANCH  25  26
ATOM     26  C   UNL     1      25.179   8.947  27.328  1.00  0.00    -0.000 C 
BRANCH  26  27
ATOM     27  C   UNL     1      25.771   7.554  27.602  1.00  0.00    -0.000 C 
BRANCH  27  28
ATOM     28  C   UNL     1      24.678   6.490  27.839  1.00  0.00    -0.000 C 
BRANCH  28  29
ATOM     29  C   UNL     1      24.801   5.772  29.194  1.00  0.00    -0.003 C 
ATOM     30  C   UNL     1      25.450   4.394  29.084  1.00  0.00     0.004 C 
ENDBRANCH  28  29
ENDBRANCH  27  28
ENDBRANCH  26  27
ENDBRANCH  25  26
ENDBRANCH  24  25
ENDBRANCH  23  24
ENDBRANCH  22  23
ENDBRANCH  21  22
ENDBRANCH  20  21
ENDBRANCH  19  20
ENDBRANCH  18  19
ENDBRANCH  17  18
ENDBRANCH   1  17
TORSDOF 26
ENDMDL
MODEL 5
REMARK VINA RESULT:    -3.371      2.403      5.295
REMARK INTER + INTRA:         -14.075
REMARK INTER:                  -8.004
REMARK INTRA:                  -6.071
REMARK UNBOUND:                -5.581
REMARK SMILES CCCCCCCCCCCCCCCCCCCCCCCCCCCC(=O)[O-]
REMARK SMILES IDX 15 1 16 2 17 3 18 4 19 5 20 6 21 7 22 8 23 9 24 10 25 11
REMARK SMILES IDX 26 12 27 13 28 14 29 15 30 16 14 17 13 18 12 19 11 20 10 21
REMARK SMILES IDX 9 22 8 23 7 24 6 25 5 26 4 27 3 28 2 29 1 30
REMARK H PARENT
REMARK Flexibility Score: inf
ROOT
ATOM      1  C   UNL     1      30.481  11.118  28.224  1.00  0.00     0.000 C 
ENDROOT
BRANCH   1   2
ATOM      2  C   UNL     1      29.172  10.350  28.485  1.00  0.00     0.000 C 
BRANCH   2   3
ATOM      3  C   UNL     1      29.395   8.842  28.692  1.00  0.00     0.000 C 
BRANCH   3   4
ATOM      4  C   UNL     1      28.651   7.981  27.648  1.00  0.00     0.000 C 
BRANCH   4   5
ATOM      5  C   UNL     1      27.323   8.596  27.163  1.00  0.00     0.000 C 
BRANCH   5   6
ATOM      6  C   UNL     1      26.074   8.179  27.964  1.00  0.00     0.000 C 
BRANCH   6   7
ATOM      7  C   UNL     1      24.996   9.271  28.100  1.00  0.00     0.000 C 
BRANCH   7   8
ATOM      8  C   UNL     1      23.847   9.101  27.090  1.00  0.00     0.000 C 
BRANCH   8   9
ATOM      9  C   UNL     1      23.647  10.350  26.216  1.00  0.00     0.000 C 
BRANCH   9  10
ATOM     10  C   UNL     1      24.128  11.631  26.914  1.00  0.00     0.000 C 
BRANCH  10  11
ATOM     11  C   UNL     1      24.966  12.498  25.964  1.00  0.00     0.000 C 
BRANCH  11  12
ATOM     12  C   UNL     1      26.432  12.636  26.412  1.00  0.00     0.006 C 
BRANCH  12  13
ATOM     13  C   UNL     1      26.629  12.588  27.937  1.00  0.00     0.053 C 
BRANCH  13  14
ATOM     14  C   UNL     1      27.454  13.729  28.452  1.00  0.00     0.041 C 
ATOM     15  O   UNL     1      28.041  13.643  29.564  1.00  0.00    -0.550 OA
ATOM     16  O   UNL     1      27.611  14.875  27.681  1.00  0.00    -0.550 OA
ENDBRANCH  13  14
ENDBRANCH  12  13
ENDBRANCH  11  12
ENDBRANCH  10  11
ENDBRANCH   9  10
ENDBRANCH   8   9
ENDBRANCH   7   8
ENDBRANCH   6   7
ENDBRANCH   5   6
ENDBRANCH   4   5
ENDBRANCH   3   4
ENDBRANCH   2   3
ENDBRANCH   1   2
BRANCH   1  17
ATOM     17  C   UNL     1      30.937  11.144  26.752  1.00  0.00     0.000 C 
BRANCH  17  18
ATOM     18  C   UNL     1      29.800  11.133  25.710  1.00  0.00     0.000 C 
BRANCH  18  19
ATOM     19  C   UNL     1      29.916  10.043  24.629  1.00  0.00     0.000 C 
BRANCH  19  20
ATOM     20  C   UNL     1      30.941   8.955  24.990  1.00  0.00     0.000 C 
BRANCH  20  21
ATOM     21  C   UNL     1      30.610   7.595  24.355  1.00  0.00     0.000 C 
BRANCH  21  22
ATOM     22  C   UNL     1      29.389   7.661  23.420  1.00  0.00    -0.000 C 
BRANCH  22  23
ATOM     23  C   UNL     1      28.588   6.350  23.404  1.00  0.00    -0.000 C 
BRANCH  23  24
ATOM     24  C   UNL     1      28.423   5.737  24.807  1.00  0.00    -0.000 C 
BRANCH  24  25
ATOM     25  C   UNL     1      26.942   5.476  25.156  1.00  0.00    -0.000 C 
BRANCH  25  26
ATOM     26  C   UNL     1      25.967   5.875  24.035  1.00  0.00    -0.000 C 
BRANCH  26  27
ATOM     27  C   UNL     1      25.302   7.241  24.275  1.00  0.00    -0.000 C 
BRANCH  27  28
ATOM     28  C   UNL     1      24.811   7.892  22.965  1.00  0.00    -0.000 C 
BRANCH  28  29
ATOM     29  C   UNL     1      25.297   9.340  22.777  1.00  0.00    -0.003 C 
ATOM     30  C   UNL     1      26.325   9.767  23.823  1.00  0.00     0.004 C 
ENDBRANCH  28  29
ENDBRANCH  27  28
ENDBRANCH  26  27
ENDBRANCH  25  26
ENDBRANCH  24  25
ENDBRANCH  23  24
ENDBRANCH  22  23
ENDBRANCH  21  22
ENDBRANCH  20  21
ENDBRANCH  19  20
ENDBRANCH  18  19
ENDBRANCH  17  18
ENDBRANCH   1  17
TORSDOF 26
ENDMDL
MODEL 6
REMARK VINA RESULT:    -3.367      1.409      3.977
REMARK INTER + INTRA:         -14.066
REMARK INTER:                  -8.237
REMARK INTRA:                  -5.829
REMARK UNBOUND:                -5.581
REMARK SMILES CCCCCCCCCCCCCCCCCCCCCCCCCCCC(=O)[O-]
REMARK SMILES IDX 15 1 16 2 17 3 18 4 19 5 20 6 21 7 22 8 23 9 24 10 25 11
REMARK SMILES IDX 26 12 27 13 28 14 29 15 30 16 14 17 13 18 12 19 11 20 10 21
REMARK SMILES IDX 9 22 8 23 7 24 6 25 5 26 4 27 3 28 2 29 1 30
REMARK H PARENT
REMARK Flexibility Score: inf
ROOT
ATOM      1  C   UNL     1      29.735  10.944  28.503  1.00  0.00     0.000 C 
ENDROOT
BRANCH   1   2
ATOM      2  C   UNL     1      29.698   9.466  28.936  1.00  0.00     0.000 C 
BRANCH   2   3
ATOM      3  C   UNL     1      29.535   8.500  27.750  1.00  0.00     0.000 C 
BRANCH   3   4
ATOM      4  C   UNL     1      30.067   9.088  26.424  1.00  0.00     0.000 C 
BRANCH   4   5
ATOM      5  C   UNL     1      30.210   8.050  25.293  1.00  0.00     0.000 C 
BRANCH   5   6
ATOM      6  C   UNL     1      31.164   8.449  24.151  1.00  0.00     0.000 C 
BRANCH   6   7
ATOM      7  C   UNL     1      30.474   8.786  22.816  1.00  0.00     0.000 C 
BRANCH   7   8
ATOM      8  C   UNL     1      28.945   8.624  22.879  1.00  0.00     0.000 C 
BRANCH   8   9
ATOM      9  C   UNL     1      28.204   9.910  22.478  1.00  0.00     0.000 C 
BRANCH   9  10
ATOM     10  C   UNL     1      27.423  10.521  23.651  1.00  0.00     0.000 C 
BRANCH  10  11
ATOM     11  C   UNL     1      27.484  12.054  23.619  1.00  0.00     0.000 C 
BRANCH  11  12
ATOM     12  C   UNL     1      28.894  12.593  23.320  1.00  0.00     0.006 C 
BRANCH  12  13
ATOM     13  C   UNL     1      29.844  12.571  24.530  1.00  0.00     0.053 C 
BRANCH  13  14
ATOM     14  C   UNL     1      31.227  12.115  24.175  1.00  0.00     0.041 C 
ATOM     15  O   UNL     1      31.614  12.124  22.976  1.00  0.00    -0.550 OA
ATOM     16  O   UNL     1      32.106  11.720  25.177  1.00  0.00    -0.550 OA
ENDBRANCH  13  14
ENDBRANCH  12  13
ENDBRANCH  11  12
ENDBRANCH  10  11
ENDBRANCH   9  10
ENDBRANCH   8   9
ENDBRANCH   7   8
ENDBRANCH   6   7
ENDBRANCH   5   6
ENDBRANCH   4   5
ENDBRANCH   3   4
ENDBRANCH   2   3
ENDBRANCH   1   2
BRANCH   1  17
ATOM     17  C   UNL     1      28.385  11.683  28.601  1.00  0.00     0.000 C 
BRANCH  17  18
ATOM     18  C   UNL     1      27.702  11.988  27.252  1.00  0.00     0.000 C 
BRANCH  18  19
ATOM     19  C   UNL     1      26.275  11.429  27.103  1.00  0.00     0.000 C 
BRANCH  19  20
ATOM     20  C   UNL     1      26.240   9.892  27.068  1.00  0.00     0.000 C 
BRANCH  20  21
ATOM     21  C   UNL     1      25.482   9.290  28.263  1.00  0.00     0.000 C 
BRANCH  21  22
ATOM     22  C   UNL     1      26.172   8.037  28.830  1.00  0.00    -0.000 C 
BRANCH  22  23
ATOM     23  C   UNL     1      25.202   6.859  29.008  1.00  0.00    -0.000 C 
BRANCH  23  24
ATOM     24  C   UNL     1      25.515   5.683  28.064  1.00  0.00    -0.000 C 
BRANCH  24  25
ATOM     25  C   UNL     1      27.020   5.585  27.738  1.00  0.00    -0.000 C 
BRANCH  25  26
ATOM     26  C   UNL     1      27.316   5.459  26.233  1.00  0.00    -0.000 C 
BRANCH  26  27
ATOM     27  C   UNL     1      26.919   6.713  25.437  1.00  0.00    -0.000 C 
BRANCH  27  28
ATOM     28  C   UNL     1      25.607   6.516  24.649  1.00  0.00    -0.000 C 
BRANCH  28  29
ATOM     29  C   UNL     1      25.128   7.786  23.923  1.00  0.00    -0.003 C 
ATOM     30  C   UNL     1      24.954   7.586  22.419  1.00  0.00     0.004 C 
ENDBRANCH  28  29
ENDBRANCH  27  28
ENDBRANCH  26  27
ENDBRANCH  25  26
ENDBRANCH  24  25
ENDBRANCH  23  24
ENDBRANCH  22  23
ENDBRANCH  21  22
ENDBRANCH  20  21
ENDBRANCH  19  20
ENDBRANCH  18  19
ENDBRANCH  17  18
ENDBRANCH   1  17
TORSDOF 26
ENDMDL
MODEL 7
REMARK VINA RESULT:    -3.365      2.121      4.919
REMARK INTER + INTRA:         -14.061
REMARK INTER:                  -8.858
REMARK INTRA:                  -5.203
REMARK UNBOUND:                -5.581
REMARK SMILES CCCCCCCCCCCCCCCCCCCCCCCCCCCC(=O)[O-]
REMARK SMILES IDX 15 1 16 2 17 3 18 4 19 5 20 6 21 7 22 8 23 9 24 10 25 11
REMARK SMILES IDX 26 12 27 13 28 14 29 15 30 16 14 17 13 18 12 19 11 20 10 21
REMARK SMILES IDX 9 22 8 23 7 24 6 25 5 26 4 27 3 28 2 29 1 30
REMARK H PARENT
REMARK Flexibility Score: inf
ROOT
ATOM      1  C   UNL     1      31.245   9.634  25.379  1.00  0.00     0.000 C 
ENDROOT
BRANCH   1   2
ATOM      2  C   UNL     1      31.498  11.097  25.790  1.00  0.00     0.000 C 
BRANCH   2   3
ATOM      3  C   UNL     1      31.995  11.967  24.623  1.00  0.00     0.000 C 
BRANCH   3   4
ATOM      4  C   UNL     1      30.841  12.649  23.855  1.00  0.00     0.000 C 
BRANCH   4   5
ATOM      5  C   UNL     1      30.742  12.227  22.375  1.00  0.00     0.000 C 
BRANCH   5   6
ATOM      6  C   UNL     1      30.026  10.886  22.120  1.00  0.00     0.000 C 
BRANCH   6   7
ATOM      7  C   UNL     1      28.532  10.867  22.491  1.00  0.00     0.000 C 
BRANCH   7   8
ATOM      8  C   UNL     1      28.135   9.617  23.296  1.00  0.00     0.000 C 
BRANCH   8   9
ATOM      9  C   UNL     1      27.518   9.970  24.659  1.00  0.00     0.000 C 
BRANCH   9  10
ATOM     10  C   UNL     1      27.346  11.485  24.844  1.00  0.00     0.000 C 
BRANCH  10  11
ATOM     11  C   UNL     1      28.025  11.967  26.133  1.00  0.00     0.000 C 
BRANCH  11  12
ATOM     12  C   UNL     1      27.034  12.568  27.145  1.00  0.00     0.006 C 
BRANCH  12  13
ATOM     13  C   UNL     1      27.273  12.123  28.599  1.00  0.00     0.053 C 
BRANCH  13  14
ATOM     14  C   UNL     1      28.199  13.039  29.342  1.00  0.00     0.041 C 
ATOM     15  O   UNL     1      29.347  12.649  29.682  1.00  0.00    -0.550 OA
ATOM     16  O   UNL     1      27.806  14.343  29.623  1.00  0.00    -0.550 OA
ENDBRANCH  13  14
ENDBRANCH  12  13
ENDBRANCH  11  12
ENDBRANCH  10  11
ENDBRANCH   9  10
ENDBRANCH   8   9
ENDBRANCH   7   8
ENDBRANCH   6   7
ENDBRANCH   5   6
ENDBRANCH   4   5
ENDBRANCH   3   4
ENDBRANCH   2   3
ENDBRANCH   1   2
BRANCH   1  17
ATOM     17  C   UNL     1      30.394   8.818  26.372  1.00  0.00     0.000 C 
BRANCH  17  18
ATOM     18  C   UNL     1      30.044   9.540  27.689  1.00  0.00     0.000 C 
BRANCH  18  19
ATOM     19  C   UNL     1      29.112   8.760  28.634  1.00  0.00     0.000 C 
BRANCH  19  20
ATOM     20  C   UNL     1      28.041   7.955  27.880  1.00  0.00     0.000 C 
BRANCH  20  21
ATOM     21  C   UNL     1      26.650   8.605  27.955  1.00  0.00     0.000 C 
BRANCH  21  22
ATOM     22  C   UNL     1      25.670   7.806  28.833  1.00  0.00    -0.000 C 
BRANCH  22  23
ATOM     23  C   UNL     1      24.584   7.097  28.009  1.00  0.00    -0.000 C 
BRANCH  23  24
ATOM     24  C   UNL     1      24.789   5.572  27.941  1.00  0.00    -0.000 C 
BRANCH  24  25
ATOM     25  C   UNL     1      25.774   5.070  29.019  1.00  0.00    -0.000 C 
BRANCH  25  26
ATOM     26  C   UNL     1      26.598   3.849  28.576  1.00  0.00    -0.000 C 
BRANCH  26  27
ATOM     27  C   UNL     1      27.822   4.229  27.725  1.00  0.00    -0.000 C 
BRANCH  27  28
ATOM     28  C   UNL     1      27.513   4.211  26.213  1.00  0.00    -0.000 C 
BRANCH  28  29
ATOM     29  C   UNL     1      28.154   5.376  25.439  1.00  0.00    -0.003 C 
ATOM     30  C   UNL     1      27.230   5.969  24.378  1.00  0.00     0.004 C 
ENDBRANCH  28  29
ENDBRANCH  27  28
ENDBRANCH  26  27
ENDBRANCH  25  26
ENDBRANCH  24  25
ENDBRANCH  23  24
ENDBRANCH  22  23
ENDBRANCH  21  22
ENDBRANCH  20  21
ENDBRANCH  19  20
ENDBRANCH  18  19
ENDBRANCH  17  18
ENDBRANCH   1  17
TORSDOF 26
ENDMDL
MODEL 8
REMARK VINA RESULT:    -3.321      2.444      6.248
REMARK INTER + INTRA:         -13.951
REMARK INTER:                  -8.418
REMARK INTRA:                  -5.533
REMARK UNBOUND:                -5.581
REMARK SMILES CCCCCCCCCCCCCCCCCCCCCCCCCCCC(=O)[O-]
REMARK SMILES IDX 15 1 16 2 17 3 18 4 19 5 20 6 21 7 22 8 23 9 24 10 25 11
REMARK SMILES IDX 26 12 27 13 28 14 29 15 30 16 14 17 13 18 12 19 11 20 10 21
REMARK SMILES IDX 9 22 8 23 7 24 6 25 5 26 4 27 3 28 2 29 1 30
REMARK H PARENT
REMARK Flexibility Score: inf
ROOT
ATOM      1  C   UNL     1      25.830   8.963  28.206  1.00  0.00     0.000 C 
ENDROOT
BRANCH   1   2
ATOM      2  C   UNL     1      24.547   8.422  27.549  1.00  0.00     0.000 C 
BRANCH   2   3
ATOM      3  C   UNL     1      24.680   6.957  27.098  1.00  0.00     0.000 C 
BRANCH   3   4
ATOM      4  C   UNL     1      24.474   5.955  28.256  1.00  0.00     0.000 C 
BRANCH   4   5
ATOM      5  C   UNL     1      25.786   5.386  28.830  1.00  0.00     0.000 C 
BRANCH   5   6
ATOM      6  C   UNL     1      25.888   3.848  28.840  1.00  0.00     0.000 C 
BRANCH   6   7
ATOM      7  C   UNL     1      27.082   3.271  28.059  1.00  0.00     0.000 C 
BRANCH   7   8
ATOM      8  C   UNL     1      28.062   4.357  27.582  1.00  0.00     0.000 C 
BRANCH   8   9
ATOM      9  C   UNL     1      28.360   4.257  26.077  1.00  0.00     0.000 C 
BRANCH   9  10
ATOM     10  C   UNL     1      27.180   4.734  25.218  1.00  0.00     0.000 C 
BRANCH  10  11
ATOM     11  C   UNL     1      27.385   6.182  24.750  1.00  0.00     0.000 C 
BRANCH  11  12
ATOM     12  C   UNL     1      28.848   6.645  24.854  1.00  0.00     0.006 C 
BRANCH  12  13
ATOM     13  C   UNL     1      29.453   7.119  23.521  1.00  0.00     0.053 C 
BRANCH  13  14
ATOM     14  C   UNL     1      29.354   6.086  22.438  1.00  0.00     0.041 C 
ATOM     15  O   UNL     1      29.862   4.945  22.597  1.00  0.00    -0.550 OA
ATOM     16  O   UNL     1      28.661   6.373  21.268  1.00  0.00    -0.550 OA
ENDBRANCH  13  14
ENDBRANCH  12  13
ENDBRANCH  11  12
ENDBRANCH  10  11
ENDBRANCH   9  10
ENDBRANCH   8   9
ENDBRANCH   7   8
ENDBRANCH   6   7
ENDBRANCH   5   6
ENDBRANCH   4   5
ENDBRANCH   3   4
ENDBRANCH   2   3
ENDBRANCH   1   2
BRANCH   1  17
ATOM     17  C   UNL     1      27.129   8.682  27.425  1.00  0.00     0.000 C 
BRANCH  17  18
ATOM     18  C   UNL     1      28.298   8.134  28.268  1.00  0.00     0.000 C 
BRANCH  18  19
ATOM     19  C   UNL     1      29.373   9.169  28.643  1.00  0.00     0.000 C 
BRANCH  19  20
ATOM     20  C   UNL     1      29.248  10.474  27.839  1.00  0.00     0.000 C 
BRANCH  20  21
ATOM     21  C   UNL     1      30.504  10.782  27.008  1.00  0.00     0.000 C 
BRANCH  21  22
ATOM     22  C   UNL     1      30.868   9.640  26.043  1.00  0.00    -0.000 C 
BRANCH  22  23
ATOM     23  C   UNL     1      31.304  10.152  24.661  1.00  0.00    -0.000 C 
BRANCH  23  24
ATOM     24  C   UNL     1      31.574  11.668  24.647  1.00  0.00    -0.000 C 
BRANCH  24  25
ATOM     25  C   UNL     1      30.660  12.411  23.650  1.00  0.00    -0.000 C 
BRANCH  25  26
ATOM     26  C   UNL     1      29.701  13.409  24.322  1.00  0.00    -0.000 C 
BRANCH  26  27
ATOM     27  C   UNL     1      28.351  12.780  24.703  1.00  0.00    -0.000 C 
BRANCH  27  28
ATOM     28  C   UNL     1      27.935  11.654  23.734  1.00  0.00    -0.000 C 
BRANCH  28  29
ATOM     29  C   UNL     1      27.598  10.328  24.438  1.00  0.00    -0.003 C 
ATOM     30  C   UNL     1      26.358   9.644  23.866  1.00  0.00     0.004 C 
ENDBRANCH  28  29
ENDBRANCH  27  28
ENDBRANCH  26  27
ENDBRANCH  25  26
ENDBRANCH  24  25
ENDBRANCH  23  24
ENDBRANCH  22  23
ENDBRANCH  21  22
ENDBRANCH  20  21
ENDBRANCH  19  20
ENDBRANCH  18  19
ENDBRANCH  17  18
ENDBRANCH   1  17
TORSDOF 26
ENDMDL
MODEL 9
REMARK VINA RESULT:    -3.305      2.223      5.337
REMARK INTER + INTRA:         -13.909
REMARK INTER:                  -8.242
REMARK INTRA:                  -5.667
REMARK UNBOUND:                -5.581
REMARK SMILES CCCCCCCCCCCCCCCCCCCCCCCCCCCC(=O)[O-]
REMARK SMILES IDX 15 1 16 2 17 3 18 4 19 5 20 6 21 7 22 8 23 9 24 10 25 11
REMARK SMILES IDX 26 12 27 13 28 14 29 15 30 16 14 17 13 18 12 19 11 20 10 21
REMARK SMILES IDX 9 22 8 23 7 24 6 25 5 26 4 27 3 28 2 29 1 30
REMARK H PARENT
REMARK Flexibility Score: inf
ROOT
ATOM      1  C   UNL     1      24.797   6.757  28.191  1.00  0.00     0.000 C 
ENDROOT
BRANCH   1   2
ATOM      2  C   UNL     1      25.503   7.994  28.777  1.00  0.00     0.000 C 
BRANCH   2   3
ATOM      3  C   UNL     1      24.910   9.318  28.264  1.00  0.00     0.000 C 
BRANCH   3   4
ATOM      4  C   UNL     1      23.879   9.111  27.133  1.00  0.00     0.000 C 
BRANCH   4   5
ATOM      5  C   UNL     1      23.472  10.413  26.414  1.00  0.00     0.000 C 
BRANCH   5   6
ATOM      6  C   UNL     1      23.604  10.385  24.879  1.00  0.00     0.000 C 
BRANCH   6   7
ATOM      7  C   UNL     1      24.691  11.310  24.303  1.00  0.00     0.000 C 
BRANCH   7   8
ATOM      8  C   UNL     1      25.770  11.675  25.338  1.00  0.00     0.000 C 
BRANCH   8   9
ATOM      9  C   UNL     1      27.144  11.081  24.985  1.00  0.00     0.000 C 
BRANCH   9  10
ATOM     10  C   UNL     1      27.409   9.755  25.712  1.00  0.00     0.000 C 
BRANCH  10  11
ATOM     11  C   UNL     1      28.707   9.819  26.528  1.00  0.00     0.000 C 
BRANCH  11  12
ATOM     12  C   UNL     1      28.470  10.161  28.009  1.00  0.00     0.006 C 
BRANCH  12  13
ATOM     13  C   UNL     1      29.069  11.510  28.445  1.00  0.00     0.053 C 
BRANCH  13  14
ATOM     14  C   UNL     1      28.030  12.483  28.916  1.00  0.00     0.041 C 
ATOM     15  O   UNL     1      26.812  12.287  28.664  1.00  0.00    -0.550 OA
ATOM     16  O   UNL     1      28.406  13.587  29.672  1.00  0.00    -0.550 OA
ENDBRANCH  13  14
ENDBRANCH  12  13
ENDBRANCH  11  12
ENDBRANCH  10  11
ENDBRANCH   9  10
ENDBRANCH   8   9
ENDBRANCH   7   8
ENDBRANCH   6   7
ENDBRANCH   5   6
ENDBRANCH   4   5
ENDBRANCH   3   4
ENDBRANCH   2   3
ENDBRANCH   1   2
BRANCH   1  17
ATOM     17  C   UNL     1      25.733   5.729  27.525  1.00  0.00     0.000 C 
BRANCH  17  18
ATOM     18  C   UNL     1      26.905   6.329  26.721  1.00  0.00     0.000 C 
BRANCH  18  19
ATOM     19  C   UNL     1      26.720   6.319  25.193  1.00  0.00     0.000 C 
BRANCH  19  20
ATOM     20  C   UNL     1      25.276   6.632  24.767  1.00  0.00     0.000 C 
BRANCH  20  21
ATOM     21  C   UNL     1      25.123   6.766  23.244  1.00  0.00     0.000 C 
BRANCH  21  22
ATOM     22  C   UNL     1      25.547   8.152  22.726  1.00  0.00    -0.000 C 
BRANCH  22  23
ATOM     23  C   UNL     1      26.488   8.066  21.514  1.00  0.00    -0.000 C 
BRANCH  23  24
ATOM     24  C   UNL     1      27.866   7.478  21.871  1.00  0.00    -0.000 C 
BRANCH  24  25
ATOM     25  C   UNL     1      28.806   8.535  22.491  1.00  0.00    -0.000 C 
BRANCH  25  26
ATOM     26  C   UNL     1      29.861   7.938  23.437  1.00  0.00    -0.000 C 
BRANCH  26  27
ATOM     27  C   UNL     1      30.873   8.980  23.942  1.00  0.00    -0.000 C 
BRANCH  27  28
ATOM     28  C   UNL     1      30.815  10.293  23.132  1.00  0.00    -0.000 C 
BRANCH  28  29
ATOM     29  C   UNL     1      30.930  11.558  24.001  1.00  0.00    -0.003 C 
ATOM     30  C   UNL     1      31.829  11.367  25.221  1.00  0.00     0.004 C 
ENDBRANCH  28  29
ENDBRANCH  27  28
ENDBRANCH  26  27
ENDBRANCH  25  26
ENDBRANCH  24  25
ENDBRANCH  23  24
ENDBRANCH  22  23
ENDBRANCH  21  22
ENDBRANCH  20  21
ENDBRANCH  19  20
ENDBRANCH  18  19
ENDBRANCH  17  18
ENDBRANCH   1  17
TORSDOF 26
ENDMDL
