MODEL 1
REMARK VINA RESULT:    19.559      0.000      0.000
REMARK INTER + INTRA:          51.969
REMARK INTER:                  49.287
REMARK INTRA:                   2.682
REMARK UNBOUND:                 2.682
REMARK SMILES CCCCCCCCCCCCCCCCCCCCCCCCCCCC(=O)[O-]
REMARK SMILES IDX 15 1 16 2 17 3 18 4 19 5 20 6 21 7 22 8 23 9 24 10 25 11
REMARK SMILES IDX 26 12 27 13 28 14 29 15 30 16 14 17 13 18 12 19 11 20 10 21
REMARK SMILES IDX 9 22 8 23 7 24 6 25 5 26 4 27 3 28 2 29 1 30
REMARK H PARENT
REMARK Flexibility Score: inf
ROOT
ATOM      1  C   UNL     1     102.062  96.659  10.753  1.00  0.00     0.000 C 
ENDROOT
BRANCH   1   2
ATOM      2  C   UNL     1     101.326  97.962  10.376  1.00  0.00     0.000 C 
BRANCH   2   3
ATOM      3  C   UNL     1     102.234  98.982   9.665  1.00  0.00     0.000 C 
BRANCH   3   4
ATOM      4  C   UNL     1     101.977 100.422  10.154  1.00  0.00     0.000 C 
BRANCH   4   5
ATOM      5  C   UNL     1     100.481 100.734  10.347  1.00  0.00     0.000 C 
BRANCH   5   6
ATOM      6  C   UNL     1      99.701  99.508  10.860  1.00  0.00     0.000 C 
BRANCH   6   7
ATOM      7  C   UNL     1      98.391  99.892  11.566  1.00  0.00     0.000 C 
BRANCH   7   8
ATOM      8  C   UNL     1      97.145  99.431  10.789  1.00  0.00     0.000 C 
BRANCH   8   9
ATOM      9  C   UNL     1      97.320  99.552   9.264  1.00  0.00     0.000 C 
BRANCH   9  10
ATOM     10  C   UNL     1      96.035  99.903   8.488  1.00  0.00     0.000 C 
BRANCH  10  11
ATOM     11  C   UNL     1      95.416  98.742   7.692  1.00  0.00     0.000 C 
BRANCH  11  12
ATOM     12  C   UNL     1      93.888  98.850   7.568  1.00  0.00     0.006 C 
BRANCH  12  13
ATOM     13  C   UNL     1      93.461  99.586   6.293  1.00  0.00     0.053 C 
BRANCH  13  14
ATOM     14  C   UNL     1      92.123 100.239   6.449  1.00  0.00     0.041 C 
ATOM     15  O   UNL     1      91.747 101.123   5.635  1.00  0.00    -0.550 OA
ATOM     16  O   UNL     1      91.273  99.841   7.471  1.00  0.00    -0.550 OA
ENDBRANCH  13  14
ENDBRANCH  12  13
ENDBRANCH  11  12
ENDBRANCH  10  11
ENDBRANCH   9  10
ENDBRANCH   8   9
ENDBRANCH   7   8
ENDBRANCH   6   7
ENDBRANCH   5   6
ENDBRANCH   4   5
ENDBRANCH   3   4
ENDBRANCH   2   3
ENDBRANCH   1   2
BRANCH   1  17
ATOM     17  C   UNL     1     101.702  95.449   9.868  1.00  0.00     0.000 C 
BRANCH  17  18
ATOM     18  C   UNL     1     100.954  94.303  10.575  1.00  0.00     0.000 C 
BRANCH  18  19
ATOM     19  C   UNL     1      99.469  94.583  10.875  1.00  0.00     0.000 C 
BRANCH  19  20
ATOM     20  C   UNL     1      99.106  96.072  10.742  1.00  0.00     0.000 C 
BRANCH  20  21
ATOM     21  C   UNL     1      98.321  96.597  11.961  1.00  0.00     0.000 C 
BRANCH  21  22
ATOM     22  C   UNL     1      97.719  95.491  12.845  1.00  0.00    -0.000 C 
BRANCH  22  23
ATOM     23  C   UNL     1      98.746  94.424  13.254  1.00  0.00    -0.000 C 
BRANCH  23  24
ATOM     24  C   UNL     1      98.481  93.844  14.665  1.00  0.00    -0.000 C 
BRANCH  24  25
ATOM     25  C   UNL     1      99.529  94.266  15.713  1.00  0.00    -0.000 C 
BRANCH  25  26
ATOM     26  C   UNL     1      99.320  95.686  16.268  1.00  0.00    -0.000 C 
BRANCH  26  27
ATOM     27  C   UNL     1     100.023  95.916  17.627  1.00  0.00    -0.000 C 
BRANCH  27  28
ATOM     28  C   UNL     1     100.688  97.299  17.710  1.00  0.00    -0.000 C 
BRANCH  28  29
ATOM     29  C   UNL     1      99.673  98.452  17.678  1.00  0.00    -0.003 C 
ATOM     30  C   UNL     1      98.292  98.041  18.184  1.00  0.00     0.004 C 
ENDBRANCH  28  29
ENDBRANCH  27  28
ENDBRANCH  26  27
ENDBRANCH  25  26
ENDBRANCH  24  25
ENDBRANCH  23  24
ENDBRANCH  22  23
ENDBRANCH  21  22
ENDBRANCH  20  21
ENDBRANCH  19  20
ENDBRANCH  18  19
ENDBRANCH  17  18
ENDBRANCH   1  17
TORSDOF 26
ENDMDL
MODEL 2
REMARK VINA RESULT:    19.812      3.778      8.697
REMARK INTER + INTRA:          52.609
REMARK INTER:                  52.467
REMARK INTRA:                   0.141
REMARK UNBOUND:                 2.682
REMARK SMILES CCCCCCCCCCCCCCCCCCCCCCCCCCCC(=O)[O-]
REMARK SMILES IDX 15 1 16 2 17 3 18 4 19 5 20 6 21 7 22 8 23 9 24 10 25 11
REMARK SMILES IDX 26 12 27 13 28 14 29 15 30 16 14 17 13 18 12 19 11 20 10 21
REMARK SMILES IDX 9 22 8 23 7 24 6 25 5 26 4 27 3 28 2 29 1 30
REMARK H PARENT
REMARK Flexibility Score: inf
ROOT
ATOM      1  C   UNL     1     102.362  99.893   9.251  1.00  0.00     0.000 C 
ENDROOT
BRANCH   1   2
ATOM      2  C   UNL     1     102.511  98.389   9.565  1.00  0.00     0.000 C 
BRANCH   2   3
ATOM      3  C   UNL     1     101.557  97.908  10.672  1.00  0.00     0.000 C 
BRANCH   3   4
ATOM      4  C   UNL     1     101.734  96.407  10.975  1.00  0.00     0.000 C 
BRANCH   4   5
ATOM      5  C   UNL     1     100.876  95.505  10.068  1.00  0.00     0.000 C 
BRANCH   5   6
ATOM      6  C   UNL     1     100.796  94.062  10.602  1.00  0.00     0.000 C 
BRANCH   6   7
ATOM      7  C   UNL     1      99.379  93.675  11.055  1.00  0.00     0.000 C 
BRANCH   7   8
ATOM      8  C   UNL     1      98.473  94.900  11.271  1.00  0.00     0.000 C 
BRANCH   8   9
ATOM      9  C   UNL     1      98.253  95.219  12.760  1.00  0.00     0.000 C 
BRANCH   9  10
ATOM     10  C   UNL     1      99.159  94.439  13.734  1.00  0.00     0.000 C 
BRANCH  10  11
ATOM     11  C   UNL     1      98.606  94.290  15.161  1.00  0.00     0.000 C 
BRANCH  11  12
ATOM     12  C   UNL     1      98.707  95.588  15.979  1.00  0.00     0.006 C 
BRANCH  12  13
ATOM     13  C   UNL     1      99.784  95.505  17.066  1.00  0.00     0.053 C 
BRANCH  13  14
ATOM     14  C   UNL     1     100.168  96.860  17.573  1.00  0.00     0.041 C 
ATOM     15  O   UNL     1     101.378  97.150  17.764  1.00  0.00    -0.550 OA
ATOM     16  O   UNL     1      99.188  97.818  17.798  1.00  0.00    -0.550 OA
ENDBRANCH  13  14
ENDBRANCH  12  13
ENDBRANCH  11  12
ENDBRANCH  10  11
ENDBRANCH   9  10
ENDBRANCH   8   9
ENDBRANCH   7   8
ENDBRANCH   6   7
ENDBRANCH   5   6
ENDBRANCH   4   5
ENDBRANCH   3   4
ENDBRANCH   2   3
ENDBRANCH   1   2
BRANCH   1  17
ATOM     17  C   UNL     1     101.924 100.750  10.455  1.00  0.00     0.000 C 
BRANCH  17  18
ATOM     18  C   UNL     1     100.407 100.807  10.718  1.00  0.00     0.000 C 
BRANCH  18  19
ATOM     19  C   UNL     1      99.709  99.436  10.796  1.00  0.00     0.000 C 
BRANCH  19  20
ATOM     20  C   UNL     1      98.175  99.550  10.820  1.00  0.00     0.000 C 
BRANCH  20  21
ATOM     21  C   UNL     1      97.527  98.574  11.823  1.00  0.00     0.000 C 
BRANCH  21  22
ATOM     22  C   UNL     1      96.825  99.264  13.006  1.00  0.00    -0.000 C 
BRANCH  22  23
ATOM     23  C   UNL     1      96.645 100.775  12.799  1.00  0.00    -0.000 C 
BRANCH  23  24
ATOM     24  C   UNL     1      95.374 101.125  11.987  1.00  0.00    -0.000 C 
BRANCH  24  25
ATOM     25  C   UNL     1      94.914  99.996  11.045  1.00  0.00    -0.000 C 
BRANCH  25  26
ATOM     26  C   UNL     1      94.491 100.483   9.648  1.00  0.00    -0.000 C 
BRANCH  26  27
ATOM     27  C   UNL     1      94.878  99.498   8.519  1.00  0.00    -0.000 C 
BRANCH  27  28
ATOM     28  C   UNL     1      93.647  98.852   7.864  1.00  0.00    -0.000 C 
BRANCH  28  29
ATOM     29  C   UNL     1      93.201  99.577   6.585  1.00  0.00    -0.003 C 
ATOM     30  C   UNL     1      91.877 100.317   6.753  1.00  0.00     0.004 C 
ENDBRANCH  28  29
ENDBRANCH  27  28
ENDBRANCH  26  27
ENDBRANCH  25  26
ENDBRANCH  24  25
ENDBRANCH  23  24
ENDBRANCH  22  23
ENDBRANCH  21  22
ENDBRANCH  20  21
ENDBRANCH  19  20
ENDBRANCH  18  19
ENDBRANCH  17  18
ENDBRANCH   1  17
TORSDOF 26
ENDMDL
MODEL 3
REMARK VINA RESULT:    20.935      6.325     10.932
REMARK INTER + INTRA:          55.437
REMARK INTER:                  55.606
REMARK INTRA:                  -0.168
REMARK UNBOUND:                 2.682
REMARK SMILES CCCCCCCCCCCCCCCCCCCCCCCCCCCC(=O)[O-]
REMARK SMILES IDX 15 1 16 2 17 3 18 4 19 5 20 6 21 7 22 8 23 9 24 10 25 11
REMARK SMILES IDX 26 12 27 13 28 14 29 15 30 16 14 17 13 18 12 19 11 20 10 21
REMARK SMILES IDX 9 22 8 23 7 24 6 25 5 26 4 27 3 28 2 29 1 30
REMARK H PARENT
REMARK Flexibility Score: inf
ROOT
ATOM      1  C   UNL     1     100.982  95.254  10.517  1.00  0.00     0.000 C 
ENDROOT
BRANCH   1   2
ATOM      2  C   UNL     1      99.506  95.707  10.502  1.00  0.00     0.000 C 
BRANCH   2   3
ATOM      3  C   UNL     1      98.652  95.009  11.575  1.00  0.00     0.000 C 
BRANCH   3   4
ATOM      4  C   UNL     1      99.237  93.640  11.978  1.00  0.00     0.000 C 
BRANCH   4   5
ATOM      5  C   UNL     1     100.048  92.977  10.850  1.00  0.00     0.000 C 
BRANCH   5   6
ATOM      6  C   UNL     1      99.917  91.442  10.873  1.00  0.00     0.000 C 
BRANCH   6   7
ATOM      7  C   UNL     1     101.278  90.731  10.949  1.00  0.00     0.000 C 
BRANCH   7   8
ATOM      8  C   UNL     1     101.162  89.212  10.731  1.00  0.00     0.000 C 
BRANCH   8   9
ATOM      9  C   UNL     1     101.186  88.824   9.242  1.00  0.00     0.000 C 
BRANCH   9  10
ATOM     10  C   UNL     1     100.279  87.636   8.865  1.00  0.00     0.000 C 
BRANCH  10  11
ATOM     11  C   UNL     1     100.951  86.548   8.009  1.00  0.00     0.000 C 
BRANCH  11  12
ATOM     12  C   UNL     1     101.178  85.237   8.779  1.00  0.00     0.006 C 
BRANCH  12  13
ATOM     13  C   UNL     1     101.121  84.011   7.862  1.00  0.00     0.053 C 
BRANCH  13  14
ATOM     14  C   UNL     1      99.712  83.595   7.574  1.00  0.00     0.041 C 
ATOM     15  O   UNL     1      99.161  83.920   6.491  1.00  0.00    -0.550 OA
ATOM     16  O   UNL     1      99.021  82.812   8.489  1.00  0.00    -0.550 OA
ENDBRANCH  13  14
ENDBRANCH  12  13
ENDBRANCH  11  12
ENDBRANCH  10  11
ENDBRANCH   9  10
ENDBRANCH   8   9
ENDBRANCH   7   8
ENDBRANCH   6   7
ENDBRANCH   5   6
ENDBRANCH   4   5
ENDBRANCH   3   4
ENDBRANCH   2   3
ENDBRANCH   1   2
BRANCH   1  17
ATOM     17  C   UNL     1     101.997  96.409  10.641  1.00  0.00     0.000 C 
BRANCH  17  18
ATOM     18  C   UNL     1     101.611  97.716   9.923  1.00  0.00     0.000 C 
BRANCH  18  19
ATOM     19  C   UNL     1     101.828  98.999  10.748  1.00  0.00     0.000 C 
BRANCH  19  20
ATOM     20  C   UNL     1     101.257 100.251  10.060  1.00  0.00     0.000 C 
BRANCH  20  21
ATOM     21  C   UNL     1      99.772 100.486  10.403  1.00  0.00     0.000 C 
BRANCH  21  22
ATOM     22  C   UNL     1      99.088  99.288  11.087  1.00  0.00    -0.000 C 
BRANCH  22  23
ATOM     23  C   UNL     1      97.796  98.851  10.381  1.00  0.00    -0.000 C 
BRANCH  23  24
ATOM     24  C   UNL     1      97.569  99.583   9.035  1.00  0.00    -0.000 C 
BRANCH  24  25
ATOM     25  C   UNL     1      96.087  99.893   8.744  1.00  0.00    -0.000 C 
BRANCH  25  26
ATOM     26  C   UNL     1      95.346  98.762   8.009  1.00  0.00    -0.000 C 
BRANCH  26  27
ATOM     27  C   UNL     1      93.843  99.059   7.796  1.00  0.00    -0.000 C 
BRANCH  27  28
ATOM     28  C   UNL     1      93.539  99.510   6.359  1.00  0.00    -0.000 C 
BRANCH  28  29
ATOM     29  C   UNL     1      92.257 100.350   6.255  1.00  0.00    -0.003 C 
ATOM     30  C   UNL     1      91.017  99.605   6.743  1.00  0.00     0.004 C 
ENDBRANCH  28  29
ENDBRANCH  27  28
ENDBRANCH  26  27
ENDBRANCH  25  26
ENDBRANCH  24  25
ENDBRANCH  23  24
ENDBRANCH  22  23
ENDBRANCH  21  22
ENDBRANCH  20  21
ENDBRANCH  19  20
ENDBRANCH  18  19
ENDBRANCH  17  18
ENDBRANCH   1  17
TORSDOF 26
ENDMDL
MODEL 4
REMARK VINA RESULT:    20.963      3.711      8.371
REMARK INTER + INTRA:          55.509
REMARK INTER:                  57.250
REMARK INTRA:                  -1.740
REMARK UNBOUND:                 2.682
REMARK SMILES CCCCCCCCCCCCCCCCCCCCCCCCCCCC(=O)[O-]
REMARK SMILES IDX 15 1 16 2 17 3 18 4 19 5 20 6 21 7 22 8 23 9 24 10 25 11
REMARK SMILES IDX 26 12 27 13 28 14 29 15 30 16 14 17 13 18 12 19 11 20 10 21
REMARK SMILES IDX 9 22 8 23 7 24 6 25 5 26 4 27 3 28 2 29 1 30
REMARK H PARENT
REMARK Flexibility Score: inf
ROOT
ATOM      1  C   UNL     1     102.542  96.673  10.674  1.00  0.00     0.000 C 
ENDROOT
BRANCH   1   2
ATOM      2  C   UNL     1     101.965  95.512   9.835  1.00  0.00     0.000 C 
BRANCH   2   3
ATOM      3  C   UNL     1     100.883  94.711  10.581  1.00  0.00     0.000 C 
BRANCH   3   4
ATOM      4  C   UNL     1      99.465  95.235  10.279  1.00  0.00     0.000 C 
BRANCH   4   5
ATOM      5  C   UNL     1      98.359  94.398  10.949  1.00  0.00     0.000 C 
BRANCH   5   6
ATOM      6  C   UNL     1      98.763  93.942  12.365  1.00  0.00     0.000 C 
BRANCH   6   7
ATOM      7  C   UNL     1      98.253  94.890  13.462  1.00  0.00     0.000 C 
BRANCH   7   8
ATOM      8  C   UNL     1      98.226  94.225  14.850  1.00  0.00     0.000 C 
BRANCH   8   9
ATOM      9  C   UNL     1      99.552  94.393  15.613  1.00  0.00     0.000 C 
BRANCH   9  10
ATOM     10  C   UNL     1      99.842  95.825  16.105  1.00  0.00     0.000 C 
BRANCH  10  11
ATOM     11  C   UNL     1      99.864  95.997  17.633  1.00  0.00     0.000 C 
BRANCH  11  12
ATOM     12  C   UNL     1      99.770  97.468  18.071  1.00  0.00     0.006 C 
BRANCH  12  13
ATOM     13  C   UNL     1      98.367  98.047  17.857  1.00  0.00     0.053 C 
BRANCH  13  14
ATOM     14  C   UNL     1      98.065  99.147  18.826  1.00  0.00     0.041 C 
ATOM     15  O   UNL     1      96.879  99.528  19.009  1.00  0.00    -0.550 OA
ATOM     16  O   UNL     1      99.093  99.726  19.558  1.00  0.00    -0.550 OA
ENDBRANCH  13  14
ENDBRANCH  12  13
ENDBRANCH  11  12
ENDBRANCH  10  11
ENDBRANCH   9  10
ENDBRANCH   8   9
ENDBRANCH   7   8
ENDBRANCH   6   7
ENDBRANCH   5   6
ENDBRANCH   4   5
ENDBRANCH   3   4
ENDBRANCH   2   3
ENDBRANCH   1   2
BRANCH   1  17
ATOM     17  C   UNL     1     101.665  97.941  10.687  1.00  0.00     0.000 C 
BRANCH  17  18
ATOM     18  C   UNL     1     102.050  99.030   9.667  1.00  0.00     0.000 C 
BRANCH  18  19
ATOM     19  C   UNL     1     101.447 100.421   9.942  1.00  0.00     0.000 C 
BRANCH  19  20
ATOM     20  C   UNL     1     100.626 100.467  11.242  1.00  0.00     0.000 C 
BRANCH  20  21
ATOM     21  C   UNL     1      99.148 100.087  11.021  1.00  0.00     0.000 C 
BRANCH  21  22
ATOM     22  C   UNL     1      98.892  98.570  10.965  1.00  0.00    -0.000 C 
BRANCH  22  23
ATOM     23  C   UNL     1      97.960  98.078  12.082  1.00  0.00    -0.000 C 
BRANCH  23  24
ATOM     24  C   UNL     1      97.603  99.188  13.101  1.00  0.00    -0.000 C 
BRANCH  24  25
ATOM     25  C   UNL     1      96.114  99.585  13.085  1.00  0.00    -0.000 C 
BRANCH  25  26
ATOM     26  C   UNL     1      95.790 100.750  12.134  1.00  0.00    -0.000 C 
BRANCH  26  27
ATOM     27  C   UNL     1      94.637 100.429  11.153  1.00  0.00    -0.000 C 
BRANCH  27  28
ATOM     28  C   UNL     1      94.902 100.983   9.745  1.00  0.00    -0.000 C 
BRANCH  28  29
ATOM     29  C   UNL     1      95.386  99.907   8.761  1.00  0.00    -0.003 C 
ATOM     30  C   UNL     1      94.241  99.110   8.142  1.00  0.00     0.004 C 
ENDBRANCH  28  29
ENDBRANCH  27  28
ENDBRANCH  26  27
ENDBRANCH  25  26
ENDBRANCH  24  25
ENDBRANCH  23  24
ENDBRANCH  22  23
ENDBRANCH  21  22
ENDBRANCH  20  21
ENDBRANCH  19  20
ENDBRANCH  18  19
ENDBRANCH  17  18
ENDBRANCH   1  17
TORSDOF 26
ENDMDL
MODEL 5
REMARK VINA RESULT:    21.032      4.847      7.049
REMARK INTER + INTRA:          55.681
REMARK INTER:                  55.479
REMARK INTRA:                   0.201
REMARK UNBOUND:                 2.682
REMARK SMILES CCCCCCCCCCCCCCCCCCCCCCCCCCCC(=O)[O-]
REMARK SMILES IDX 15 1 16 2 17 3 18 4 19 5 20 6 21 7 22 8 23 9 24 10 25 11
REMARK SMILES IDX 26 12 27 13 28 14 29 15 30 16 14 17 13 18 12 19 11 20 10 21
REMARK SMILES IDX 9 22 8 23 7 24 6 25 5 26 4 27 3 28 2 29 1 30
REMARK H PARENT
REMARK Flexibility Score: inf
ROOT
ATOM      1  C   UNL     1      98.923  93.892  11.211  1.00  0.00     0.000 C 
ENDROOT
BRANCH   1   2
ATOM      2  C   UNL     1     100.326  94.088  10.597  1.00  0.00     0.000 C 
BRANCH   2   3
ATOM      3  C   UNL     1     100.642  95.560  10.278  1.00  0.00     0.000 C 
BRANCH   3   4
ATOM      4  C   UNL     1     102.161  95.827  10.232  1.00  0.00     0.000 C 
BRANCH   4   5
ATOM      5  C   UNL     1     102.552  97.177  10.862  1.00  0.00     0.000 C 
BRANCH   5   6
ATOM      6  C   UNL     1     101.762  98.349  10.248  1.00  0.00     0.000 C 
BRANCH   6   7
ATOM      7  C   UNL     1     102.674  99.463   9.713  1.00  0.00     0.000 C 
BRANCH   7   8
ATOM      8  C   UNL     1     102.252 100.859  10.207  1.00  0.00     0.000 C 
BRANCH   8   9
ATOM      9  C   UNL     1     100.748 101.125  10.016  1.00  0.00     0.000 C 
BRANCH   9  10
ATOM     10  C   UNL     1      99.934  99.921   9.502  1.00  0.00     0.000 C 
BRANCH  10  11
ATOM     11  C   UNL     1      99.272  99.067  10.596  1.00  0.00     0.000 C 
BRANCH  11  12
ATOM     12  C   UNL     1      98.787  99.900  11.794  1.00  0.00     0.006 C 
BRANCH  12  13
ATOM     13  C   UNL     1      98.192  99.026  12.903  1.00  0.00     0.053 C 
BRANCH  13  14
ATOM     14  C   UNL     1      96.753  99.355  13.159  1.00  0.00     0.041 C 
ATOM     15  O   UNL     1      96.108  98.742  14.049  1.00  0.00    -0.550 OA
ATOM     16  O   UNL     1      96.137 100.369  12.439  1.00  0.00    -0.550 OA
ENDBRANCH  13  14
ENDBRANCH  12  13
ENDBRANCH  11  12
ENDBRANCH  10  11
ENDBRANCH   9  10
ENDBRANCH   8   9
ENDBRANCH   7   8
ENDBRANCH   6   7
ENDBRANCH   5   6
ENDBRANCH   4   5
ENDBRANCH   3   4
ENDBRANCH   2   3
ENDBRANCH   1   2
BRANCH   1  17
ATOM     17  C   UNL     1      98.446  95.068  12.086  1.00  0.00     0.000 C 
BRANCH  17  18
ATOM     18  C   UNL     1      98.310  94.769  13.591  1.00  0.00     0.000 C 
BRANCH  18  19
ATOM     19  C   UNL     1      98.590  93.308  13.992  1.00  0.00     0.000 C 
BRANCH  19  20
ATOM     20  C   UNL     1      97.703  92.830  15.155  1.00  0.00     0.000 C 
BRANCH  20  21
ATOM     21  C   UNL     1      96.948  91.527  14.822  1.00  0.00     0.000 C 
BRANCH  21  22
ATOM     22  C   UNL     1      95.469  91.531  15.247  1.00  0.00    -0.000 C 
BRANCH  22  23
ATOM     23  C   UNL     1      94.663  90.379  14.628  1.00  0.00    -0.000 C 
BRANCH  23  24
ATOM     24  C   UNL     1      93.432  89.981  15.479  1.00  0.00    -0.000 C 
BRANCH  24  25
ATOM     25  C   UNL     1      93.229  88.458  15.596  1.00  0.00    -0.000 C 
BRANCH  25  26
ATOM     26  C   UNL     1      91.806  88.048  16.012  1.00  0.00    -0.000 C 
BRANCH  26  27
ATOM     27  C   UNL     1      91.782  87.062  17.204  1.00  0.00    -0.000 C 
BRANCH  27  28
ATOM     28  C   UNL     1      93.047  87.168  18.070  1.00  0.00    -0.000 C 
BRANCH  28  29
ATOM     29  C   UNL     1      92.827  87.983  19.353  1.00  0.00    -0.003 C 
ATOM     30  C   UNL     1      92.916  89.490  19.122  1.00  0.00     0.004 C 
ENDBRANCH  28  29
ENDBRANCH  27  28
ENDBRANCH  26  27
ENDBRANCH  25  26
ENDBRANCH  24  25
ENDBRANCH  23  24
ENDBRANCH  22  23
ENDBRANCH  21  22
ENDBRANCH  20  21
ENDBRANCH  19  20
ENDBRANCH  18  19
ENDBRANCH  17  18
ENDBRANCH   1  17
TORSDOF 26
ENDMDL
MODEL 6
REMARK VINA RESULT:    21.087      3.389      8.889
REMARK INTER + INTRA:          55.821
REMARK INTER:                  56.360
REMARK INTRA:                  -0.538
REMARK UNBOUND:                 2.682
REMARK SMILES CCCCCCCCCCCCCCCCCCCCCCCCCCCC(=O)[O-]
REMARK SMILES IDX 15 1 16 2 17 3 18 4 19 5 20 6 21 7 22 8 23 9 24 10 25 11
REMARK SMILES IDX 26 12 27 13 28 14 29 15 30 16 14 17 13 18 12 19 11 20 10 21
REMARK SMILES IDX 9 22 8 23 7 24 6 25 5 26 4 27 3 28 2 29 1 30
REMARK H PARENT
REMARK Flexibility Score: inf
ROOT
ATOM      1  C   UNL     1     101.443  97.117   9.850  1.00  0.00     0.000 C 
ENDROOT
BRANCH   1   2
ATOM      2  C   UNL     1     100.902  96.161  10.936  1.00  0.00     0.000 C 
BRANCH   2   3
ATOM      3  C   UNL     1     101.114  94.677  10.590  1.00  0.00     0.000 C 
BRANCH   3   4
ATOM      4  C   UNL     1      99.822  93.853  10.765  1.00  0.00     0.000 C 
BRANCH   4   5
ATOM      5  C   UNL     1      98.547  94.715  10.710  1.00  0.00     0.000 C 
BRANCH   5   6
ATOM      6  C   UNL     1      98.601  95.885  11.711  1.00  0.00     0.000 C 
BRANCH   6   7
ATOM      7  C   UNL     1      98.164  95.475  13.126  1.00  0.00     0.000 C 
BRANCH   7   8
ATOM      8  C   UNL     1      98.832  94.170  13.595  1.00  0.00     0.000 C 
BRANCH   8   9
ATOM      9  C   UNL     1      98.716  93.958  15.115  1.00  0.00     0.000 C 
BRANCH   9  10
ATOM     10  C   UNL     1      98.830  95.241  15.962  1.00  0.00     0.000 C 
BRANCH  10  11
ATOM     11  C   UNL     1     100.084  95.327  16.849  1.00  0.00     0.000 C 
BRANCH  11  12
ATOM     12  C   UNL     1     100.406  96.763  17.291  1.00  0.00     0.006 C 
BRANCH  12  13
ATOM     13  C   UNL     1      99.461  97.255  18.393  1.00  0.00     0.053 C 
BRANCH  13  14
ATOM     14  C   UNL     1      98.600  98.387  17.923  1.00  0.00     0.041 C 
ATOM     15  O   UNL     1      98.073  99.173  18.753  1.00  0.00    -0.550 OA
ATOM     16  O   UNL     1      98.412  98.595  16.563  1.00  0.00    -0.550 OA
ENDBRANCH  13  14
ENDBRANCH  12  13
ENDBRANCH  11  12
ENDBRANCH  10  11
ENDBRANCH   9  10
ENDBRANCH   8   9
ENDBRANCH   7   8
ENDBRANCH   6   7
ENDBRANCH   5   6
ENDBRANCH   4   5
ENDBRANCH   3   4
ENDBRANCH   2   3
ENDBRANCH   1   2
BRANCH   1  17
ATOM     17  C   UNL     1     102.032  98.431  10.401  1.00  0.00     0.000 C 
BRANCH  17  18
ATOM     18  C   UNL     1     101.422  99.726   9.832  1.00  0.00     0.000 C 
BRANCH  18  19
ATOM     19  C   UNL     1     100.534 100.513  10.814  1.00  0.00     0.000 C 
BRANCH  19  20
ATOM     20  C   UNL     1      99.331  99.694  11.315  1.00  0.00     0.000 C 
BRANCH  20  21
ATOM     21  C   UNL     1      98.481 100.466  12.344  1.00  0.00     0.000 C 
BRANCH  21  22
ATOM     22  C   UNL     1      97.301  99.660  12.916  1.00  0.00    -0.000 C 
BRANCH  22  23
ATOM     23  C   UNL     1      96.147  99.493  11.916  1.00  0.00    -0.000 C 
BRANCH  23  24
ATOM     24  C   UNL     1      95.654 100.841  11.337  1.00  0.00    -0.000 C 
BRANCH  24  25
ATOM     25  C   UNL     1      95.079 100.727   9.911  1.00  0.00    -0.000 C 
BRANCH  25  26
ATOM     26  C   UNL     1      93.734  99.982   9.839  1.00  0.00    -0.000 C 
BRANCH  26  27
ATOM     27  C   UNL     1      93.678  98.942   8.694  1.00  0.00    -0.000 C 
BRANCH  27  28
ATOM     28  C   UNL     1      94.112  99.539   7.346  1.00  0.00    -0.000 C 
BRANCH  28  29
ATOM     29  C   UNL     1      93.026  99.426   6.265  1.00  0.00    -0.003 C 
ATOM     30  C   UNL     1      91.834 100.343   6.525  1.00  0.00     0.004 C 
ENDBRANCH  28  29
ENDBRANCH  27  28
ENDBRANCH  26  27
ENDBRANCH  25  26
ENDBRANCH  24  25
ENDBRANCH  23  24
ENDBRANCH  22  23
ENDBRANCH  21  22
ENDBRANCH  20  21
ENDBRANCH  19  20
ENDBRANCH  18  19
ENDBRANCH  17  18
ENDBRANCH   1  17
TORSDOF 26
ENDMDL
MODEL 7
REMARK VINA RESULT:    21.165      4.018      5.620
REMARK INTER + INTRA:          56.017
REMARK INTER:                  55.935
REMARK INTRA:                   0.082
REMARK UNBOUND:                 2.682
REMARK SMILES CCCCCCCCCCCCCCCCCCCCCCCCCCCC(=O)[O-]
REMARK SMILES IDX 15 1 16 2 17 3 18 4 19 5 20 6 21 7 22 8 23 9 24 10 25 11
REMARK SMILES IDX 26 12 27 13 28 14 29 15 30 16 14 17 13 18 12 19 11 20 10 21
REMARK SMILES IDX 9 22 8 23 7 24 6 25 5 26 4 27 3 28 2 29 1 30
REMARK H PARENT
REMARK Flexibility Score: inf
ROOT
ATOM      1  C   UNL     1     100.055  95.750  10.736  1.00  0.00     0.000 C 
ENDROOT
BRANCH   1   2
ATOM      2  C   UNL     1     101.599  95.756  10.723  1.00  0.00     0.000 C 
BRANCH   2   3
ATOM      3  C   UNL     1     102.190  96.990  10.018  1.00  0.00     0.000 C 
BRANCH   3   4
ATOM      4  C   UNL     1     101.605  98.306  10.571  1.00  0.00     0.000 C 
BRANCH   4   5
ATOM      5  C   UNL     1     101.870  99.514   9.654  1.00  0.00     0.000 C 
BRANCH   5   6
ATOM      6  C   UNL     1     101.130 100.776  10.137  1.00  0.00     0.000 C 
BRANCH   6   7
ATOM      7  C   UNL     1      99.801 100.453  10.838  1.00  0.00     0.000 C 
BRANCH   7   8
ATOM      8  C   UNL     1      99.334  99.009  10.578  1.00  0.00     0.000 C 
BRANCH   8   9
ATOM      9  C   UNL     1      97.825  98.918  10.288  1.00  0.00     0.000 C 
BRANCH   9  10
ATOM     10  C   UNL     1      97.290  99.962   9.288  1.00  0.00     0.000 C 
BRANCH  10  11
ATOM     11  C   UNL     1      95.786  99.860   8.981  1.00  0.00     0.000 C 
BRANCH  11  12
ATOM     12  C   UNL     1      95.482  98.950   7.780  1.00  0.00     0.006 C 
BRANCH  12  13
ATOM     13  C   UNL     1      94.016  98.503   7.750  1.00  0.00     0.053 C 
BRANCH  13  14
ATOM     14  C   UNL     1      93.176  99.405   6.901  1.00  0.00     0.041 C 
ATOM     15  O   UNL     1      93.282  99.379   5.646  1.00  0.00    -0.550 OA
ATOM     16  O   UNL     1      92.245 100.246   7.494  1.00  0.00    -0.550 OA
ENDBRANCH  13  14
ENDBRANCH  12  13
ENDBRANCH  11  12
ENDBRANCH  10  11
ENDBRANCH   9  10
ENDBRANCH   8   9
ENDBRANCH   7   8
ENDBRANCH   6   7
ENDBRANCH   5   6
ENDBRANCH   4   5
ENDBRANCH   3   4
ENDBRANCH   2   3
ENDBRANCH   1   2
BRANCH   1  17
ATOM     17  C   UNL     1      99.428  94.343  10.680  1.00  0.00     0.000 C 
BRANCH  17  18
ATOM     18  C   UNL     1      98.521  93.968  11.867  1.00  0.00     0.000 C 
BRANCH  18  19
ATOM     19  C   UNL     1      98.460  95.016  12.995  1.00  0.00     0.000 C 
BRANCH  19  20
ATOM     20  C   UNL     1      98.141  94.396  14.367  1.00  0.00     0.000 C 
BRANCH  20  21
ATOM     21  C   UNL     1      98.309  92.862  14.373  1.00  0.00     0.000 C 
BRANCH  21  22
ATOM     22  C   UNL     1      97.330  92.127  15.306  1.00  0.00    -0.000 C 
BRANCH  22  23
ATOM     23  C   UNL     1      96.441  91.116  14.567  1.00  0.00    -0.000 C 
BRANCH  23  24
ATOM     24  C   UNL     1      94.930  91.371  14.787  1.00  0.00    -0.000 C 
BRANCH  24  25
ATOM     25  C   UNL     1      94.335  90.577  15.966  1.00  0.00    -0.000 C 
BRANCH  25  26
ATOM     26  C   UNL     1      93.343  89.480  15.543  1.00  0.00    -0.000 C 
BRANCH  26  27
ATOM     27  C   UNL     1      93.017  88.485  16.683  1.00  0.00    -0.000 C 
BRANCH  27  28
ATOM     28  C   UNL     1      92.502  87.139  16.148  1.00  0.00    -0.000 C 
BRANCH  28  29
ATOM     29  C   UNL     1      90.976  86.999  16.253  1.00  0.00    -0.003 C 
ATOM     30  C   UNL     1      90.229  87.848  15.227  1.00  0.00     0.004 C 
ENDBRANCH  28  29
ENDBRANCH  27  28
ENDBRANCH  26  27
ENDBRANCH  25  26
ENDBRANCH  24  25
ENDBRANCH  23  24
ENDBRANCH  22  23
ENDBRANCH  21  22
ENDBRANCH  20  21
ENDBRANCH  19  20
ENDBRANCH  18  19
ENDBRANCH  17  18
ENDBRANCH   1  17
TORSDOF 26
ENDMDL
MODEL 8
REMARK VINA RESULT:    21.229      5.085      9.940
REMARK INTER + INTRA:          56.179
REMARK INTER:                  57.520
REMARK INTRA:                  -1.342
REMARK UNBOUND:                 2.682
REMARK SMILES CCCCCCCCCCCCCCCCCCCCCCCCCCCC(=O)[O-]
REMARK SMILES IDX 15 1 16 2 17 3 18 4 19 5 20 6 21 7 22 8 23 9 24 10 25 11
REMARK SMILES IDX 26 12 27 13 28 14 29 15 30 16 14 17 13 18 12 19 11 20 10 21
REMARK SMILES IDX 9 22 8 23 7 24 6 25 5 26 4 27 3 28 2 29 1 30
REMARK H PARENT
REMARK Flexibility Score: inf
ROOT
ATOM      1  C   UNL     1     101.481  95.377  10.598  1.00  0.00     0.000 C 
ENDROOT
BRANCH   1   2
ATOM      2  C   UNL     1     100.373  94.377  10.204  1.00  0.00     0.000 C 
BRANCH   2   3
ATOM      3  C   UNL     1      99.606  93.820  11.416  1.00  0.00     0.000 C 
BRANCH   3   4
ATOM      4  C   UNL     1      98.851  94.928  12.180  1.00  0.00     0.000 C 
BRANCH   4   5
ATOM      5  C   UNL     1      98.236  94.435  13.502  1.00  0.00     0.000 C 
BRANCH   5   6
ATOM      6  C   UNL     1      98.239  92.897  13.599  1.00  0.00     0.000 C 
BRANCH   6   7
ATOM      7  C   UNL     1      97.581  92.382  14.888  1.00  0.00     0.000 C 
BRANCH   7   8
ATOM      8  C   UNL     1      96.546  91.274  14.621  1.00  0.00     0.000 C 
BRANCH   8   9
ATOM      9  C   UNL     1      95.233  91.491  15.394  1.00  0.00     0.000 C 
BRANCH   9  10
ATOM     10  C   UNL     1      94.057  90.603  14.940  1.00  0.00     0.000 C 
BRANCH  10  11
ATOM     11  C   UNL     1      94.029  89.194  15.557  1.00  0.00     0.000 C 
BRANCH  11  12
ATOM     12  C   UNL     1      93.039  89.073  16.726  1.00  0.00     0.006 C 
BRANCH  12  13
ATOM     13  C   UNL     1      92.397  87.683  16.799  1.00  0.00     0.053 C 
BRANCH  13  14
ATOM     14  C   UNL     1      91.409  87.468  15.695  1.00  0.00     0.041 C 
ATOM     15  O   UNL     1      91.456  86.424  14.993  1.00  0.00    -0.550 OA
ATOM     16  O   UNL     1      90.409  88.404  15.468  1.00  0.00    -0.550 OA
ENDBRANCH  13  14
ENDBRANCH  12  13
ENDBRANCH  11  12
ENDBRANCH  10  11
ENDBRANCH   9  10
ENDBRANCH   8   9
ENDBRANCH   7   8
ENDBRANCH   6   7
ENDBRANCH   5   6
ENDBRANCH   4   5
ENDBRANCH   3   4
ENDBRANCH   2   3
ENDBRANCH   1   2
BRANCH   1  17
ATOM     17  C   UNL     1     101.090  96.858  10.417  1.00  0.00     0.000 C 
BRANCH  17  18
ATOM     18  C   UNL     1     102.259  97.861  10.412  1.00  0.00     0.000 C 
BRANCH  18  19
ATOM     19  C   UNL     1     102.143  98.990   9.371  1.00  0.00     0.000 C 
BRANCH  19  20
ATOM     20  C   UNL     1     101.951 100.375  10.013  1.00  0.00     0.000 C 
BRANCH  20  21
ATOM     21  C   UNL     1     100.889 100.364  11.132  1.00  0.00     0.000 C 
BRANCH  21  22
ATOM     22  C   UNL     1      99.440 100.465  10.623  1.00  0.00    -0.000 C 
BRANCH  22  23
ATOM     23  C   UNL     1      98.632  99.179  10.852  1.00  0.00    -0.000 C 
BRANCH  23  24
ATOM     24  C   UNL     1      97.179  99.280  10.327  1.00  0.00    -0.000 C 
BRANCH  24  25
ATOM     25  C   UNL     1      97.035  98.919   8.836  1.00  0.00    -0.000 C 
BRANCH  25  26
ATOM     26  C   UNL     1      95.818  99.567   8.152  1.00  0.00    -0.000 C 
BRANCH  26  27
ATOM     27  C   UNL     1      94.791  98.532   7.634  1.00  0.00    -0.000 C 
BRANCH  27  28
ATOM     28  C   UNL     1      93.360  99.092   7.622  1.00  0.00    -0.000 C 
BRANCH  28  29
ATOM     29  C   UNL     1      92.959  99.676   6.259  1.00  0.00    -0.003 C 
ATOM     30  C   UNL     1      91.673 100.498   6.321  1.00  0.00     0.004 C 
ENDBRANCH  28  29
ENDBRANCH  27  28
ENDBRANCH  26  27
ENDBRANCH  25  26
ENDBRANCH  24  25
ENDBRANCH  23  24
ENDBRANCH  22  23
ENDBRANCH  21  22
ENDBRANCH  20  21
ENDBRANCH  19  20
ENDBRANCH  18  19
ENDBRANCH  17  18
ENDBRANCH   1  17
TORSDOF 26
ENDMDL
MODEL 9
REMARK VINA RESULT:    21.320      3.577      9.331
REMARK INTER + INTRA:          56.407
REMARK INTER:                  57.491
REMARK INTRA:                  -1.084
REMARK UNBOUND:                 2.682
REMARK SMILES CCCCCCCCCCCCCCCCCCCCCCCCCCCC(=O)[O-]
REMARK SMILES IDX 15 1 16 2 17 3 18 4 19 5 20 6 21 7 22 8 23 9 24 10 25 11
REMARK SMILES IDX 26 12 27 13 28 14 29 15 30 16 14 17 13 18 12 19 11 20 10 21
REMARK SMILES IDX 9 22 8 23 7 24 6 25 5 26 4 27 3 28 2 29 1 30
REMARK H PARENT
REMARK Flexibility Score: inf
ROOT
ATOM      1  C   UNL     1     102.415  99.064   9.614  1.00  0.00     0.000 C 
ENDROOT
BRANCH   1   2
ATOM      2  C   UNL     1     101.631  98.005  10.419  1.00  0.00     0.000 C 
BRANCH   2   3
ATOM      3  C   UNL     1     102.378  96.665  10.539  1.00  0.00     0.000 C 
BRANCH   3   4
ATOM      4  C   UNL     1     101.657  95.533   9.780  1.00  0.00     0.000 C 
BRANCH   4   5
ATOM      5  C   UNL     1     100.697  94.726  10.674  1.00  0.00     0.000 C 
BRANCH   5   6
ATOM      6  C   UNL     1      99.223  94.964  10.294  1.00  0.00     0.000 C 
BRANCH   6   7
ATOM      7  C   UNL     1      98.244  94.440  11.356  1.00  0.00     0.000 C 
BRANCH   7   8
ATOM      8  C   UNL     1      98.477  95.077  12.738  1.00  0.00     0.000 C 
BRANCH   8   9
ATOM      9  C   UNL     1      98.086  94.140  13.895  1.00  0.00     0.000 C 
BRANCH   9  10
ATOM     10  C   UNL     1      99.062  94.138  15.088  1.00  0.00     0.000 C 
BRANCH  10  11
ATOM     11  C   UNL     1      99.103  95.444  15.900  1.00  0.00     0.000 C 
BRANCH  11  12
ATOM     12  C   UNL     1     100.200  95.446  16.976  1.00  0.00     0.006 C 
BRANCH  12  13
ATOM     13  C   UNL     1      99.816  96.292  18.194  1.00  0.00     0.053 C 
BRANCH  13  14
ATOM     14  C   UNL     1      99.575  97.723  17.824  1.00  0.00     0.041 C 
ATOM     15  O   UNL     1     100.505  98.422  17.343  1.00  0.00    -0.550 OA
ATOM     16  O   UNL     1      98.309  98.273  17.972  1.00  0.00    -0.550 OA
ENDBRANCH  13  14
ENDBRANCH  12  13
ENDBRANCH  11  12
ENDBRANCH  10  11
ENDBRANCH   9  10
ENDBRANCH   8   9
ENDBRANCH   7   8
ENDBRANCH   6   7
ENDBRANCH   5   6
ENDBRANCH   4   5
ENDBRANCH   3   4
ENDBRANCH   2   3
ENDBRANCH   1   2
BRANCH   1  17
ATOM     17  C   UNL     1     102.045 100.521   9.956  1.00  0.00     0.000 C 
BRANCH  17  18
ATOM     18  C   UNL     1     100.544 100.795  10.172  1.00  0.00     0.000 C 
BRANCH  18  19
ATOM     19  C   UNL     1      99.935 100.130  11.420  1.00  0.00     0.000 C 
BRANCH  19  20
ATOM     20  C   UNL     1      98.833  99.113  11.074  1.00  0.00     0.000 C 
BRANCH  20  21
ATOM     21  C   UNL     1      97.449  99.541  11.602  1.00  0.00     0.000 C 
BRANCH  21  22
ATOM     22  C   UNL     1      96.423  99.847  10.497  1.00  0.00    -0.000 C 
BRANCH  22  23
ATOM     23  C   UNL     1      96.893  99.407   9.102  1.00  0.00    -0.000 C 
BRANCH  23  24
ATOM     24  C   UNL     1      95.851  99.703   7.995  1.00  0.00    -0.000 C 
BRANCH  24  25
ATOM     25  C   UNL     1      95.004  98.477   7.603  1.00  0.00    -0.000 C 
BRANCH  25  26
ATOM     26  C   UNL     1      93.639  98.833   6.987  1.00  0.00    -0.000 C 
BRANCH  26  27
ATOM     27  C   UNL     1      92.924  99.990   7.726  1.00  0.00    -0.000 C 
BRANCH  27  28
ATOM     28  C   UNL     1      91.705 100.509   6.948  1.00  0.00    -0.000 C 
BRANCH  28  29
ATOM     29  C   UNL     1      91.618  99.939   5.524  1.00  0.00    -0.003 C 
ATOM     30  C   UNL     1      90.330  99.157   5.275  1.00  0.00     0.004 C 
ENDBRANCH  28  29
ENDBRANCH  27  28
ENDBRANCH  26  27
ENDBRANCH  25  26
ENDBRANCH  24  25
ENDBRANCH  23  24
ENDBRANCH  22  23
ENDBRANCH  21  22
ENDBRANCH  20  21
ENDBRANCH  19  20
ENDBRANCH  18  19
ENDBRANCH  17  18
ENDBRANCH   1  17
TORSDOF 26
ENDMDL
