MODEL 1
REMARK VINA RESULT:    -8.530      0.000      0.000
REMARK INTER + INTRA:         -10.295
REMARK INTER:                 -10.026
REMARK INTRA:                  -0.270
REMARK UNBOUND:                -0.270
REMARK SMILES O=c1c(O)c(-c2ccc(O)cc2)oc2cc(O)cc(O)c12
REMARK SMILES IDX 5 1 3 2 2 3 1 4 21 5 19 6 18 7 16 8 15 9 14 10 13 11 6 12
REMARK SMILES IDX 7 13 8 14 9 15 12 16 11 17 10 18 4 20 20 22 17 24
REMARK H PARENT 10 19 4 21 20 23 17 25
REMARK Flexibility Score: inf
ROOT
ATOM      1  C   UNL     1     137.367 -17.971  79.502  1.00  0.00     0.180 A 
ATOM      2  C   UNL     1     138.523 -18.431  78.843  1.00  0.00     0.208 A 
ATOM      3  C   UNL     1     139.714 -17.698  78.972  1.00  0.00     0.238 A 
ATOM      4  O   UNL     1     140.753 -18.093  78.377  1.00  0.00    -0.285 OA
ATOM      5  C   UNL     1     139.735 -16.536  79.772  1.00  0.00     0.111 A 
ATOM      6  C   UNL     1     140.894 -15.745  79.957  1.00  0.00     0.134 A 
ATOM      7  C   UNL     1     140.836 -14.607  80.776  1.00  0.00     0.093 A 
ATOM      8  C   UNL     1     139.646 -14.247  81.411  1.00  0.00     0.123 A 
ATOM      9  C   UNL     1     138.497 -15.025  81.231  1.00  0.00     0.094 A 
ATOM     10  C   UNL     1     138.533 -16.161  80.418  1.00  0.00     0.146 A 
ATOM     11  O   UNL     1     137.428 -16.879  80.259  1.00  0.00    -0.452 OA
ENDROOT
BRANCH   1  12
ATOM     12  C   UNL     1     136.070 -18.676  79.398  1.00  0.00     0.021 A 
ATOM     13  C   UNL     1     135.621 -19.461  80.474  1.00  0.00     0.016 A 
ATOM     14  C   UNL     1     134.389 -20.118  80.407  1.00  0.00     0.047 A 
ATOM     15  C   UNL     1     133.583 -19.986  79.269  1.00  0.00     0.115 A 
ATOM     16  C   UNL     1     135.244 -18.532  78.268  1.00  0.00     0.016 A 
ATOM     17  C   UNL     1     134.012 -19.190  78.204  1.00  0.00     0.047 A 
BRANCH  15  18
ATOM     18  O   UNL     1     132.352 -20.636  79.191  1.00  0.00    -0.508 OA
ATOM     19  H   UNL     1     131.900 -20.808  78.300  1.00  0.00     0.293 HD
ENDBRANCH  15  18
ENDBRANCH   1  12
BRANCH   2  20
ATOM     20  O   UNL     1     138.488 -19.611  78.097  1.00  0.00    -0.502 OA
ATOM     21  H   UNL     1     139.063 -20.413  78.325  1.00  0.00     0.293 HD
ENDBRANCH   2  20
BRANCH   6  22
ATOM     22  O   UNL     1     142.099 -16.079  79.337  1.00  0.00    -0.507 OA
ATOM     23  H   UNL     1     142.285 -15.841  78.370  1.00  0.00     0.293 HD
ENDBRANCH   6  22
BRANCH   8  24
ATOM     24  O   UNL     1     139.615 -13.113  82.220  1.00  0.00    -0.508 OA
ATOM     25  H   UNL     1     138.840 -12.930  82.846  1.00  0.00     0.293 HD
ENDBRANCH   8  24
TORSDOF 5
ENDMDL
MODEL 2
REMARK VINA RESULT:    -8.110      2.915      5.822
REMARK INTER + INTRA:          -9.802
REMARK INTER:                  -9.523
REMARK INTRA:                  -0.279
REMARK UNBOUND:                -0.270
REMARK SMILES O=c1c(O)c(-c2ccc(O)cc2)oc2cc(O)cc(O)c12
REMARK SMILES IDX 5 1 3 2 2 3 1 4 21 5 19 6 18 7 16 8 15 9 14 10 13 11 6 12
REMARK SMILES IDX 7 13 8 14 9 15 12 16 11 17 10 18 4 20 20 22 17 24
REMARK H PARENT 10 19 4 21 20 23 17 25
REMARK Flexibility Score: inf
ROOT
ATOM      1  C   UNL     1     139.075 -19.648  78.767  1.00  0.00     0.180 A 
ATOM      2  C   UNL     1     137.823 -20.079  78.289  1.00  0.00     0.208 A 
ATOM      3  C   UNL     1     136.659 -19.607  78.916  1.00  0.00     0.238 A 
ATOM      4  O   UNL     1     135.531 -19.995  78.505  1.00  0.00    -0.285 OA
ATOM      5  C   UNL     1     136.765 -18.701  79.992  1.00  0.00     0.111 A 
ATOM      6  C   UNL     1     135.641 -18.176  80.674  1.00  0.00     0.134 A 
ATOM      7  C   UNL     1     135.830 -17.270  81.730  1.00  0.00     0.093 A 
ATOM      8  C   UNL     1     137.114 -16.882  82.114  1.00  0.00     0.123 A 
ATOM      9  C   UNL     1     138.228 -17.398  81.443  1.00  0.00     0.094 A 
ATOM     10  C   UNL     1     138.062 -18.302  80.390  1.00  0.00     0.146 A 
ATOM     11  O   UNL     1     139.135 -18.781  79.774  1.00  0.00    -0.452 OA
ENDROOT
BRANCH   1  12
ATOM     12  C   UNL     1     140.347 -20.116  78.172  1.00  0.00     0.021 A 
ATOM     13  C   UNL     1     140.885 -21.351  78.571  1.00  0.00     0.016 A 
ATOM     14  C   UNL     1     142.074 -21.822  78.006  1.00  0.00     0.047 A 
ATOM     15  C   UNL     1     142.732 -21.071  77.024  1.00  0.00     0.115 A 
ATOM     16  C   UNL     1     141.005 -19.377  77.170  1.00  0.00     0.016 A 
ATOM     17  C   UNL     1     142.193 -19.851  76.607  1.00  0.00     0.047 A 
BRANCH  15  18
ATOM     18  O   UNL     1     143.918 -21.530  76.454  1.00  0.00    -0.508 OA
ATOM     19  H   UNL     1     144.797 -21.044  76.596  1.00  0.00     0.293 HD
ENDBRANCH  15  18
ENDBRANCH   1  12
BRANCH   2  20
ATOM     20  O   UNL     1     137.744 -20.939  77.190  1.00  0.00    -0.502 OA
ATOM     21  H   UNL     1     138.559 -21.391  76.796  1.00  0.00     0.293 HD
ENDBRANCH   2  20
BRANCH   6  22
ATOM     22  O   UNL     1     134.344 -18.543  80.314  1.00  0.00    -0.507 OA
ATOM     23  H   UNL     1     134.164 -19.186  79.551  1.00  0.00     0.293 HD
ENDBRANCH   6  22
BRANCH   8  24
ATOM     24  O   UNL     1     137.274 -15.981  83.165  1.00  0.00    -0.508 OA
ATOM     25  H   UNL     1     137.524 -15.013  83.000  1.00  0.00     0.293 HD
ENDBRANCH   8  24
TORSDOF 5
ENDMDL
MODEL 3
REMARK VINA RESULT:    -7.384      2.585      6.478
REMARK INTER + INTRA:          -8.948
REMARK INTER:                  -8.978
REMARK INTRA:                   0.030
REMARK UNBOUND:                -0.270
REMARK SMILES O=c1c(O)c(-c2ccc(O)cc2)oc2cc(O)cc(O)c12
REMARK SMILES IDX 5 1 3 2 2 3 1 4 21 5 19 6 18 7 16 8 15 9 14 10 13 11 6 12
REMARK SMILES IDX 7 13 8 14 9 15 12 16 11 17 10 18 4 20 20 22 17 24
REMARK H PARENT 10 19 4 21 20 23 17 25
REMARK Flexibility Score: inf
ROOT
ATOM      1  C   UNL     1     139.266 -19.271  78.641  1.00  0.00     0.180 A 
ATOM      2  C   UNL     1     139.331 -17.977  79.192  1.00  0.00     0.208 A 
ATOM      3  C   UNL     1     138.163 -17.409  79.726  1.00  0.00     0.238 A 
ATOM      4  O   UNL     1     138.205 -16.246  80.213  1.00  0.00    -0.285 OA
ATOM      5  C   UNL     1     136.962 -18.148  79.720  1.00  0.00     0.111 A 
ATOM      6  C   UNL     1     135.744 -17.649  80.242  1.00  0.00     0.134 A 
ATOM      7  C   UNL     1     134.592 -18.451  80.206  1.00  0.00     0.093 A 
ATOM      8  C   UNL     1     134.635 -19.735  79.661  1.00  0.00     0.123 A 
ATOM      9  C   UNL     1     135.836 -20.233  79.143  1.00  0.00     0.094 A 
ATOM     10  C   UNL     1     136.994 -19.450  79.168  1.00  0.00     0.146 A 
ATOM     11  O   UNL     1     138.119 -19.943  78.665  1.00  0.00    -0.452 OA
ENDROOT
BRANCH   1  12
ATOM     12  C   UNL     1     140.448 -19.930  78.041  1.00  0.00     0.021 A 
ATOM     13  C   UNL     1     141.203 -19.248  77.072  1.00  0.00     0.016 A 
ATOM     14  C   UNL     1     142.336 -19.843  76.508  1.00  0.00     0.047 A 
ATOM     15  C   UNL     1     142.737 -21.122  76.918  1.00  0.00     0.115 A 
ATOM     16  C   UNL     1     140.870 -21.205  78.461  1.00  0.00     0.016 A 
ATOM     17  C   UNL     1     142.003 -21.798  77.896  1.00  0.00     0.047 A 
BRANCH  15  18
ATOM     18  O   UNL     1     143.864 -21.725  76.363  1.00  0.00    -0.508 OA
ATOM     19  H   UNL     1     144.795 -21.528  76.711  1.00  0.00     0.293 HD
ENDBRANCH  15  18
ENDBRANCH   1  12
BRANCH   2  20
ATOM     20  O   UNL     1     140.544 -17.285  79.232  1.00  0.00    -0.502 OA
ATOM     21  H   UNL     1     140.696 -16.492  79.842  1.00  0.00     0.293 HD
ENDBRANCH   2  20
BRANCH   6  22
ATOM     22  O   UNL     1     135.668 -16.370  80.794  1.00  0.00    -0.507 OA
ATOM     23  H   UNL     1     135.662 -16.221  81.797  1.00  0.00     0.293 HD
ENDBRANCH   6  22
BRANCH   8  24
ATOM     24  O   UNL     1     133.478 -20.511  79.639  1.00  0.00    -0.508 OA
ATOM     25  H   UNL     1     133.501 -21.490  79.379  1.00  0.00     0.293 HD
ENDBRANCH   8  24
TORSDOF 5
ENDMDL
MODEL 4
REMARK VINA RESULT:    -7.356      2.699      5.543
REMARK INTER + INTRA:          -8.916
REMARK INTER:                  -8.802
REMARK INTRA:                  -0.114
REMARK UNBOUND:                -0.270
REMARK SMILES O=c1c(O)c(-c2ccc(O)cc2)oc2cc(O)cc(O)c12
REMARK SMILES IDX 5 1 3 2 2 3 1 4 21 5 19 6 18 7 16 8 15 9 14 10 13 11 6 12
REMARK SMILES IDX 7 13 8 14 9 15 12 16 11 17 10 18 4 20 20 22 17 24
REMARK H PARENT 10 19 4 21 20 23 17 25
REMARK Flexibility Score: inf
ROOT
ATOM      1  C   UNL     1     139.378 -19.088  78.674  1.00  0.00     0.180 A 
ATOM      2  C   UNL     1     138.063 -19.589  78.631  1.00  0.00     0.208 A 
ATOM      3  C   UNL     1     137.040 -18.860  79.258  1.00  0.00     0.238 A 
ATOM      4  O   UNL     1     135.859 -19.303  79.237  1.00  0.00    -0.285 OA
ATOM      5  C   UNL     1     137.343 -17.638  79.895  1.00  0.00     0.111 A 
ATOM      6  C   UNL     1     136.369 -16.842  80.545  1.00  0.00     0.134 A 
ATOM      7  C   UNL     1     136.750 -15.633  81.148  1.00  0.00     0.093 A 
ATOM      8  C   UNL     1     138.078 -15.207  81.114  1.00  0.00     0.123 A 
ATOM      9  C   UNL     1     139.045 -15.990  80.473  1.00  0.00     0.094 A 
ATOM     10  C   UNL     1     138.687 -17.198  79.867  1.00  0.00     0.146 A 
ATOM     11  O   UNL     1     139.624 -17.925  79.271  1.00  0.00    -0.452 OA
ENDROOT
BRANCH   1  12
ATOM     12  C   UNL     1     140.514 -19.808  78.054  1.00  0.00     0.021 A 
ATOM     13  C   UNL     1     141.290 -19.163  77.076  1.00  0.00     0.016 A 
ATOM     14  C   UNL     1     142.381 -19.816  76.493  1.00  0.00     0.047 A 
ATOM     15  C   UNL     1     142.718 -21.115  76.893  1.00  0.00     0.115 A 
ATOM     16  C   UNL     1     140.873 -21.105  78.464  1.00  0.00     0.016 A 
ATOM     17  C   UNL     1     141.964 -21.755  77.881  1.00  0.00     0.047 A 
BRANCH  15  18
ATOM     18  O   UNL     1     143.803 -21.776  76.320  1.00  0.00    -0.508 OA
ATOM     19  H   UNL     1     144.652 -21.282  76.070  1.00  0.00     0.293 HD
ENDBRANCH  15  18
ENDBRANCH   1  12
BRANCH   2  20
ATOM     20  O   UNL     1     137.781 -20.776  77.952  1.00  0.00    -0.502 OA
ATOM     21  H   UNL     1     138.450 -21.220  77.335  1.00  0.00     0.293 HD
ENDBRANCH   2  20
BRANCH   6  22
ATOM     22  O   UNL     1     135.033 -17.240  80.596  1.00  0.00    -0.507 OA
ATOM     23  H   UNL     1     134.394 -16.875  81.293  1.00  0.00     0.293 HD
ENDBRANCH   6  22
BRANCH   8  24
ATOM     24  O   UNL     1     138.430 -14.003  81.719  1.00  0.00    -0.508 OA
ATOM     25  H   UNL     1     138.503 -13.917  82.726  1.00  0.00     0.293 HD
ENDBRANCH   8  24
TORSDOF 5
ENDMDL
MODEL 5
REMARK VINA RESULT:    -6.870      3.744      6.165
REMARK INTER + INTRA:          -8.344
REMARK INTER:                  -8.409
REMARK INTRA:                   0.065
REMARK UNBOUND:                -0.270
REMARK SMILES O=c1c(O)c(-c2ccc(O)cc2)oc2cc(O)cc(O)c12
REMARK SMILES IDX 5 1 3 2 2 3 1 4 21 5 19 6 18 7 16 8 15 9 14 10 13 11 6 12
REMARK SMILES IDX 7 13 8 14 9 15 12 16 11 17 10 18 4 20 20 22 17 24
REMARK H PARENT 10 19 4 21 20 23 17 25
REMARK Flexibility Score: inf
ROOT
ATOM      1  C   UNL     1     134.092 -19.053  76.900  1.00  0.00     0.180 A 
ATOM      2  C   UNL     1     133.389 -19.454  78.052  1.00  0.00     0.208 A 
ATOM      3  C   UNL     1     134.113 -19.919  79.161  1.00  0.00     0.238 A 
ATOM      4  O   UNL     1     133.493 -20.292  80.195  1.00  0.00    -0.285 OA
ATOM      5  C   UNL     1     135.522 -19.955  79.109  1.00  0.00     0.111 A 
ATOM      6  C   UNL     1     136.324 -20.405  80.185  1.00  0.00     0.134 A 
ATOM      7  C   UNL     1     137.722 -20.402  80.059  1.00  0.00     0.093 A 
ATOM      8  C   UNL     1     138.330 -19.958  78.883  1.00  0.00     0.123 A 
ATOM      9  C   UNL     1     137.541 -19.513  77.816  1.00  0.00     0.094 A 
ATOM     10  C   UNL     1     136.148 -19.509  77.921  1.00  0.00     0.146 A 
ATOM     11  O   UNL     1     135.422 -19.087  76.893  1.00  0.00    -0.452 OA
ENDROOT
BRANCH   1  12
ATOM     12  C   UNL     1     133.401 -18.570  75.684  1.00  0.00     0.021 A 
ATOM     13  C   UNL     1     132.439 -17.552  75.793  1.00  0.00     0.016 A 
ATOM     14  C   UNL     1     131.789 -17.065  74.655  1.00  0.00     0.047 A 
ATOM     15  C   UNL     1     132.104 -17.581  73.391  1.00  0.00     0.115 A 
ATOM     16  C   UNL     1     133.725 -19.068  74.408  1.00  0.00     0.016 A 
ATOM     17  C   UNL     1     133.075 -18.579  73.272  1.00  0.00     0.047 A 
BRANCH  15  18
ATOM     18  O   UNL     1     131.463 -17.104  72.249  1.00  0.00    -0.508 OA
ATOM     19  H   UNL     1     130.503 -17.352  72.039  1.00  0.00     0.293 HD
ENDBRANCH  15  18
ENDBRANCH   1  12
BRANCH   2  20
ATOM     20  O   UNL     1     131.995 -19.363  78.096  1.00  0.00    -0.502 OA
ATOM     21  H   UNL     1     131.516 -18.502  78.328  1.00  0.00     0.293 HD
ENDBRANCH   2  20
BRANCH   6  22
ATOM     22  O   UNL     1     135.748 -20.854  81.374  1.00  0.00    -0.507 OA
ATOM     23  H   UNL     1     135.543 -20.222  82.140  1.00  0.00     0.293 HD
ENDBRANCH   6  22
BRANCH   8  24
ATOM     24  O   UNL     1     139.720 -19.964  78.783  1.00  0.00    -0.508 OA
ATOM     25  H   UNL     1     140.243 -20.828  78.720  1.00  0.00     0.293 HD
ENDBRANCH   8  24
TORSDOF 5
ENDMDL
MODEL 6
REMARK VINA RESULT:    -6.694      1.694      6.928
REMARK INTER + INTRA:          -8.138
REMARK INTER:                  -7.958
REMARK INTRA:                  -0.180
REMARK UNBOUND:                -0.270
REMARK SMILES O=c1c(O)c(-c2ccc(O)cc2)oc2cc(O)cc(O)c12
REMARK SMILES IDX 5 1 3 2 2 3 1 4 21 5 19 6 18 7 16 8 15 9 14 10 13 11 6 12
REMARK SMILES IDX 7 13 8 14 9 15 12 16 11 17 10 18 4 20 20 22 17 24
REMARK H PARENT 10 19 4 21 20 23 17 25
REMARK Flexibility Score: inf
ROOT
ATOM      1  C   UNL     1     137.500 -17.946  79.567  1.00  0.00     0.180 A 
ATOM      2  C   UNL     1     136.988 -18.782  80.577  1.00  0.00     0.208 A 
ATOM      3  C   UNL     1     135.723 -19.364  80.399  1.00  0.00     0.238 A 
ATOM      4  O   UNL     1     135.248 -20.105  81.303  1.00  0.00    -0.285 OA
ATOM      5  C   UNL     1     135.004 -19.120  79.211  1.00  0.00     0.111 A 
ATOM      6  C   UNL     1     133.726 -19.672  78.952  1.00  0.00     0.134 A 
ATOM      7  C   UNL     1     133.078 -19.388  77.740  1.00  0.00     0.093 A 
ATOM      8  C   UNL     1     133.681 -18.568  76.785  1.00  0.00     0.123 A 
ATOM      9  C   UNL     1     134.944 -18.019  77.036  1.00  0.00     0.094 A 
ATOM     10  C   UNL     1     135.605 -18.288  78.237  1.00  0.00     0.146 A 
ATOM     11  O   UNL     1     136.800 -17.750  78.453  1.00  0.00    -0.452 OA
ENDROOT
BRANCH   1  12
ATOM     12  C   UNL     1     138.816 -17.279  79.689  1.00  0.00     0.021 A 
ATOM     13  C   UNL     1     139.845 -17.611  78.791  1.00  0.00     0.016 A 
ATOM     14  C   UNL     1     141.089 -16.978  78.874  1.00  0.00     0.047 A 
ATOM     15  C   UNL     1     141.315 -15.995  79.846  1.00  0.00     0.115 A 
ATOM     16  C   UNL     1     139.045 -16.277  80.649  1.00  0.00     0.016 A 
ATOM     17  C   UNL     1     140.290 -15.645  80.729  1.00  0.00     0.047 A 
BRANCH  15  18
ATOM     18  O   UNL     1     142.551 -15.358  79.938  1.00  0.00    -0.508 OA
ATOM     19  H   UNL     1     143.320 -15.767  80.456  1.00  0.00     0.293 HD
ENDBRANCH  15  18
ENDBRANCH   1  12
BRANCH   2  20
ATOM     20  O   UNL     1     137.741 -19.047  81.724  1.00  0.00    -0.502 OA
ATOM     21  H   UNL     1     137.323 -19.384  82.581  1.00  0.00     0.293 HD
ENDBRANCH   2  20
BRANCH   6  22
ATOM     22  O   UNL     1     133.097 -20.497  79.885  1.00  0.00    -0.507 OA
ATOM     23  H   UNL     1     132.123 -20.373  80.137  1.00  0.00     0.293 HD
ENDBRANCH   6  22
BRANCH   8  24
ATOM     24  O   UNL     1     133.018 -18.302  75.589  1.00  0.00    -0.508 OA
ATOM     25  H   UNL     1     132.210 -17.692  75.555  1.00  0.00     0.293 HD
ENDBRANCH   8  24
TORSDOF 5
ENDMDL
MODEL 7
REMARK VINA RESULT:    -5.955      7.894     10.040
REMARK INTER + INTRA:          -7.269
REMARK INTER:                  -7.721
REMARK INTRA:                   0.452
REMARK UNBOUND:                -0.270
REMARK SMILES O=c1c(O)c(-c2ccc(O)cc2)oc2cc(O)cc(O)c12
REMARK SMILES IDX 5 1 3 2 2 3 1 4 21 5 19 6 18 7 16 8 15 9 14 10 13 11 6 12
REMARK SMILES IDX 7 13 8 14 9 15 12 16 11 17 10 18 4 20 20 22 17 24
REMARK H PARENT 10 19 4 21 20 23 17 25
REMARK Flexibility Score: inf
ROOT
ATOM      1  C   UNL     1     144.549 -22.104  77.051  1.00  0.00     0.180 A 
ATOM      2  C   UNL     1     145.193 -22.878  78.035  1.00  0.00     0.208 A 
ATOM      3  C   UNL     1     146.476 -23.383  77.768  1.00  0.00     0.238 A 
ATOM      4  O   UNL     1     147.058 -24.087  78.637  1.00  0.00    -0.285 OA
ATOM      5  C   UNL     1     147.099 -23.088  76.538  1.00  0.00     0.111 A 
ATOM      6  C   UNL     1     148.391 -23.554  76.194  1.00  0.00     0.134 A 
ATOM      7  C   UNL     1     148.947 -23.209  74.952  1.00  0.00     0.093 A 
ATOM      8  C   UNL     1     148.239 -22.411  74.052  1.00  0.00     0.123 A 
ATOM      9  C   UNL     1     146.961 -21.949  74.386  1.00  0.00     0.094 A 
ATOM     10  C   UNL     1     146.389 -22.281  75.617  1.00  0.00     0.146 A 
ATOM     11  O   UNL     1     145.174 -21.834  75.908  1.00  0.00    -0.452 OA
ENDROOT
BRANCH   1  12
ATOM     12  C   UNL     1     143.189 -21.554  77.249  1.00  0.00     0.021 A 
ATOM     13  C   UNL     1     142.343 -22.129  78.212  1.00  0.00     0.016 A 
ATOM     14  C   UNL     1     141.062 -21.612  78.430  1.00  0.00     0.047 A 
ATOM     15  C   UNL     1     140.618 -20.502  77.699  1.00  0.00     0.115 A 
ATOM     16  C   UNL     1     142.742 -20.427  76.534  1.00  0.00     0.016 A 
ATOM     17  C   UNL     1     141.461 -19.911  76.755  1.00  0.00     0.047 A 
BRANCH  15  18
ATOM     18  O   UNL     1     139.344 -19.978  77.908  1.00  0.00    -0.508 OA
ATOM     19  H   UNL     1     139.053 -19.107  77.480  1.00  0.00     0.293 HD
ENDBRANCH  15  18
ENDBRANCH   1  12
BRANCH   2  20
ATOM     20  O   UNL     1     144.574 -23.115  79.265  1.00  0.00    -0.502 OA
ATOM     21  H   UNL     1     143.824 -23.785  79.374  1.00  0.00     0.293 HD
ENDBRANCH   2  20
BRANCH   6  22
ATOM     22  O   UNL     1     149.125 -24.352  77.072  1.00  0.00    -0.507 OA
ATOM     23  H   UNL     1     149.797 -23.956  77.719  1.00  0.00     0.293 HD
ENDBRANCH   6  22
BRANCH   8  24
ATOM     24  O   UNL     1     148.813 -22.083  72.826  1.00  0.00    -0.508 OA
ATOM     25  H   UNL     1     148.484 -21.296  72.280  1.00  0.00     0.293 HD
ENDBRANCH   8  24
TORSDOF 5
ENDMDL
MODEL 8
REMARK VINA RESULT:    -5.928      1.658      2.041
REMARK INTER + INTRA:          -7.237
REMARK INTER:                  -6.988
REMARK INTRA:                  -0.250
REMARK UNBOUND:                -0.270
REMARK SMILES O=c1c(O)c(-c2ccc(O)cc2)oc2cc(O)cc(O)c12
REMARK SMILES IDX 5 1 3 2 2 3 1 4 21 5 19 6 18 7 16 8 15 9 14 10 13 11 6 12
REMARK SMILES IDX 7 13 8 14 9 15 12 16 11 17 10 18 4 20 20 22 17 24
REMARK H PARENT 10 19 4 21 20 23 17 25
REMARK Flexibility Score: inf
ROOT
ATOM      1  C   UNL     1     136.774 -17.286  80.016  1.00  0.00     0.180 A 
ATOM      2  C   UNL     1     138.102 -17.579  80.378  1.00  0.00     0.208 A 
ATOM      3  C   UNL     1     138.977 -16.518  80.662  1.00  0.00     0.238 A 
ATOM      4  O   UNL     1     140.173 -16.767  80.976  1.00  0.00    -0.285 OA
ATOM      5  C   UNL     1     138.505 -15.190  80.601  1.00  0.00     0.111 A 
ATOM      6  C   UNL     1     139.321 -14.066  80.877  1.00  0.00     0.134 A 
ATOM      7  C   UNL     1     138.774 -12.775  80.803  1.00  0.00     0.093 A 
ATOM      8  C   UNL     1     137.434 -12.588  80.462  1.00  0.00     0.123 A 
ATOM      9  C   UNL     1     136.624 -13.695  80.187  1.00  0.00     0.094 A 
ATOM     10  C   UNL     1     137.149 -14.989  80.253  1.00  0.00     0.146 A 
ATOM     11  O   UNL     1     136.361 -16.022  79.983  1.00  0.00    -0.452 OA
ENDROOT
BRANCH   1  12
ATOM     12  C   UNL     1     135.797 -18.347  79.682  1.00  0.00     0.021 A 
ATOM     13  C   UNL     1     135.172 -19.063  80.718  1.00  0.00     0.016 A 
ATOM     14  C   UNL     1     134.231 -20.055  80.427  1.00  0.00     0.047 A 
ATOM     15  C   UNL     1     133.891 -20.332  79.096  1.00  0.00     0.115 A 
ATOM     16  C   UNL     1     135.434 -18.619  78.350  1.00  0.00     0.016 A 
ATOM     17  C   UNL     1     134.492 -19.610  78.062  1.00  0.00     0.047 A 
BRANCH  15  18
ATOM     18  O   UNL     1     132.954 -21.318  78.793  1.00  0.00    -0.508 OA
ATOM     19  H   UNL     1     133.103 -21.976  78.037  1.00  0.00     0.293 HD
ENDBRANCH  15  18
ENDBRANCH   1  12
BRANCH   2  20
ATOM     20  O   UNL     1     138.531 -18.905  80.478  1.00  0.00    -0.502 OA
ATOM     21  H   UNL     1     139.508 -19.152  80.582  1.00  0.00     0.293 HD
ENDBRANCH   2  20
BRANCH   6  22
ATOM     22  O   UNL     1     140.664 -14.220  81.223  1.00  0.00    -0.507 OA
ATOM     23  H   UNL     1     141.240 -13.430  81.492  1.00  0.00     0.293 HD
ENDBRANCH   6  22
BRANCH   8  24
ATOM     24  O   UNL     1     136.915 -11.297  80.397  1.00  0.00    -0.508 OA
ATOM     25  H   UNL     1     137.499 -10.502  80.168  1.00  0.00     0.293 HD
ENDBRANCH   8  24
TORSDOF 5
ENDMDL
MODEL 9
REMARK VINA RESULT:    -5.832      2.715      4.549
REMARK INTER + INTRA:          -7.124
REMARK INTER:                  -7.036
REMARK INTRA:                  -0.088
REMARK UNBOUND:                -0.270
REMARK SMILES O=c1c(O)c(-c2ccc(O)cc2)oc2cc(O)cc(O)c12
REMARK SMILES IDX 5 1 3 2 2 3 1 4 21 5 19 6 18 7 16 8 15 9 14 10 13 11 6 12
REMARK SMILES IDX 7 13 8 14 9 15 12 16 11 17 10 18 4 20 20 22 17 24
REMARK H PARENT 10 19 4 21 20 23 17 25
REMARK Flexibility Score: inf
ROOT
ATOM      1  C   UNL     1     134.666 -18.757  77.520  1.00  0.00     0.180 A 
ATOM      2  C   UNL     1     134.736 -19.894  78.348  1.00  0.00     0.208 A 
ATOM      3  C   UNL     1     135.898 -20.109  79.106  1.00  0.00     0.238 A 
ATOM      4  O   UNL     1     135.977 -21.129  79.843  1.00  0.00    -0.285 OA
ATOM      5  C   UNL     1     136.956 -19.179  79.041  1.00  0.00     0.111 A 
ATOM      6  C   UNL     1     138.157 -19.321  79.777  1.00  0.00     0.134 A 
ATOM      7  C   UNL     1     139.160 -18.346  79.664  1.00  0.00     0.093 A 
ATOM      8  C   UNL     1     138.986 -17.237  78.834  1.00  0.00     0.123 A 
ATOM      9  C   UNL     1     137.801 -17.092  78.105  1.00  0.00     0.094 A 
ATOM     10  C   UNL     1     136.790 -18.052  78.201  1.00  0.00     0.146 A 
ATOM     11  O   UNL     1     135.677 -17.894  77.495  1.00  0.00    -0.452 OA
ENDROOT
BRANCH   1  12
ATOM     12  C   UNL     1     133.484 -18.471  76.675  1.00  0.00     0.021 A 
ATOM     13  C   UNL     1     132.239 -18.236  77.284  1.00  0.00     0.016 A 
ATOM     14  C   UNL     1     131.114 -17.942  76.507  1.00  0.00     0.047 A 
ATOM     15  C   UNL     1     131.224 -17.864  75.112  1.00  0.00     0.115 A 
ATOM     16  C   UNL     1     133.589 -18.371  75.276  1.00  0.00     0.016 A 
ATOM     17  C   UNL     1     132.463 -18.076  74.501  1.00  0.00     0.047 A 
BRANCH  15  18
ATOM     18  O   UNL     1     130.110 -17.573  74.327  1.00  0.00    -0.508 OA
ATOM     19  H   UNL     1     129.251 -18.104  74.410  1.00  0.00     0.293 HD
ENDBRANCH  15  18
ENDBRANCH   1  12
BRANCH   2  20
ATOM     20  O   UNL     1     133.654 -20.774  78.433  1.00  0.00    -0.502 OA
ATOM     21  H   UNL     1     133.767 -21.748  78.684  1.00  0.00     0.293 HD
ENDBRANCH   2  20
BRANCH   6  22
ATOM     22  O   UNL     1     138.362 -20.417  80.615  1.00  0.00    -0.507 OA
ATOM     23  H   UNL     1     139.049 -21.131  80.402  1.00  0.00     0.293 HD
ENDBRANCH   6  22
BRANCH   8  24
ATOM     24  O   UNL     1     139.997 -16.282  78.741  1.00  0.00    -0.508 OA
ATOM     25  H   UNL     1     140.489 -16.115  77.872  1.00  0.00     0.293 HD
ENDBRANCH   8  24
TORSDOF 5
ENDMDL
