MODEL 1
REMARK VINA RESULT:    -3.414      0.000      0.000
REMARK INTER + INTRA:          -7.398
REMARK INTER:                  -5.809
REMARK INTRA:                  -1.589
REMARK UNBOUND:                -1.589
REMARK SMILES CCCCCCCCCCCCCC(=O)[O-]
REMARK SMILES IDX 8 1 9 2 10 3 11 4 12 5 13 6 14 7 15 8 16 9 7 10 6 11 5 12
REMARK SMILES IDX 4 13 3 14 2 15 1 16
REMARK H PARENT
REMARK Flexibility Score: inf
ROOT
ATOM      1  C   UNL     1      56.842  26.802  51.535  1.00  0.00     0.000 C 
ENDROOT
BRANCH   1   2
ATOM      2  C   UNL     1      57.528  28.177  51.547  1.00  0.00     0.000 C 
BRANCH   2   3
ATOM      3  C   UNL     1      57.720  28.752  50.132  1.00  0.00     0.000 C 
BRANCH   3   4
ATOM      4  C   UNL     1      59.205  29.022  49.814  1.00  0.00     0.000 C 
BRANCH   4   5
ATOM      5  C   UNL     1      59.912  27.835  49.135  1.00  0.00     0.006 C 
BRANCH   5   6
ATOM      6  C   UNL     1      61.232  27.458  49.817  1.00  0.00     0.053 C 
BRANCH   6   7
ATOM      7  C   UNL     1      61.105  26.136  50.506  1.00  0.00     0.041 C 
ATOM      8  O   UNL     1      61.756  25.141  50.094  1.00  0.00    -0.550 OA
ATOM      9  O   UNL     1      60.305  26.016  51.636  1.00  0.00    -0.550 OA
ENDBRANCH   6   7
ENDBRANCH   5   6
ENDBRANCH   4   5
ENDBRANCH   3   4
ENDBRANCH   2   3
ENDBRANCH   1   2
BRANCH   1  10
ATOM     10  C   UNL     1      56.812  26.177  50.132  1.00  0.00     0.000 C 
BRANCH  10  11
ATOM     11  C   UNL     1      55.368  25.919  49.674  1.00  0.00    -0.000 C 
BRANCH  11  12
ATOM     12  C   UNL     1      54.341  26.703  50.506  1.00  0.00    -0.000 C 
BRANCH  12  13
ATOM     13  C   UNL     1      53.251  27.354  49.638  1.00  0.00    -0.000 C 
BRANCH  13  14
ATOM     14  C   UNL     1      52.894  28.776  50.123  1.00  0.00    -0.000 C 
BRANCH  14  15
ATOM     15  C   UNL     1      54.123  29.622  50.496  1.00  0.00    -0.003 C 
ATOM     16  C   UNL     1      54.143  30.037  51.965  1.00  0.00     0.004 C 
ENDBRANCH  14  15
ENDBRANCH  13  14
ENDBRANCH  12  13
ENDBRANCH  11  12
ENDBRANCH  10  11
ENDBRANCH   1  10
TORSDOF 12
ENDMDL
MODEL 2
REMARK VINA RESULT:    -3.245     11.777     13.465
REMARK INTER + INTRA:          -7.110
REMARK INTER:                  -5.259
REMARK INTRA:                  -1.851
REMARK UNBOUND:                -1.589
REMARK SMILES CCCCCCCCCCCCCC(=O)[O-]
REMARK SMILES IDX 8 1 9 2 10 3 11 4 12 5 13 6 14 7 15 8 16 9 7 10 6 11 5 12
REMARK SMILES IDX 4 13 3 14 2 15 1 16
REMARK H PARENT
REMARK Flexibility Score: inf
ROOT
ATOM      1  C   UNL     1      62.395  33.214  58.149  1.00  0.00     0.000 C 
ENDROOT
BRANCH   1   2
ATOM      2  C   UNL     1      63.795  33.118  58.777  1.00  0.00     0.000 C 
BRANCH   2   3
ATOM      3  C   UNL     1      64.189  31.670  59.121  1.00  0.00     0.000 C 
BRANCH   3   4
ATOM      4  C   UNL     1      64.592  31.517  60.603  1.00  0.00     0.000 C 
BRANCH   4   5
ATOM      5  C   UNL     1      63.557  30.747  61.443  1.00  0.00     0.006 C 
BRANCH   5   6
ATOM      6  C   UNL     1      62.518  30.014  60.586  1.00  0.00     0.053 C 
BRANCH   6   7
ATOM      7  C   UNL     1      61.151  30.175  61.172  1.00  0.00     0.041 C 
ATOM      8  O   UNL     1      60.228  29.380  60.853  1.00  0.00    -0.550 OA
ATOM      9  O   UNL     1      60.909  31.172  62.109  1.00  0.00    -0.550 OA
ENDBRANCH   6   7
ENDBRANCH   5   6
ENDBRANCH   4   5
ENDBRANCH   3   4
ENDBRANCH   2   3
ENDBRANCH   1   2
BRANCH   1  10
ATOM     10  C   UNL     1      61.290  33.353  59.208  1.00  0.00     0.000 C 
BRANCH  10  11
ATOM     11  C   UNL     1      61.814  34.069  60.461  1.00  0.00    -0.000 C 
BRANCH  11  12
ATOM     12  C   UNL     1      61.386  35.545  60.514  1.00  0.00    -0.000 C 
BRANCH  12  13
ATOM     13  C   UNL     1      62.486  36.459  61.080  1.00  0.00    -0.000 C 
BRANCH  13  14
ATOM     14  C   UNL     1      63.595  36.743  60.044  1.00  0.00    -0.000 C 
BRANCH  14  15
ATOM     15  C   UNL     1      64.968  36.178  60.445  1.00  0.00    -0.003 C 
ATOM     16  C   UNL     1      64.971  35.538  61.832  1.00  0.00     0.004 C 
ENDBRANCH  14  15
ENDBRANCH  13  14
ENDBRANCH  12  13
ENDBRANCH  11  12
ENDBRANCH  10  11
ENDBRANCH   1  10
TORSDOF 12
ENDMDL
MODEL 3
REMARK VINA RESULT:    -3.214     11.406     12.992
REMARK INTER + INTRA:          -7.058
REMARK INTER:                  -5.233
REMARK INTRA:                  -1.825
REMARK UNBOUND:                -1.589
REMARK SMILES CCCCCCCCCCCCCC(=O)[O-]
REMARK SMILES IDX 8 1 9 2 10 3 11 4 12 5 13 6 14 7 15 8 16 9 7 10 6 11 5 12
REMARK SMILES IDX 4 13 3 14 2 15 1 16
REMARK H PARENT
REMARK Flexibility Score: inf
ROOT
ATOM      1  C   UNL     1      61.485  32.034  59.372  1.00  0.00     0.000 C 
ENDROOT
BRANCH   1   2
ATOM      2  C   UNL     1      61.150  32.294  60.850  1.00  0.00     0.000 C 
BRANCH   2   3
ATOM      3  C   UNL     1      61.021  30.993  61.663  1.00  0.00     0.000 C 
BRANCH   3   4
ATOM      4  C   UNL     1      61.452  29.756  60.848  1.00  0.00     0.000 C 
BRANCH   4   5
ATOM      5  C   UNL     1      62.687  29.041  61.426  1.00  0.00     0.006 C 
BRANCH   5   6
ATOM      6  C   UNL     1      63.918  29.950  61.512  1.00  0.00     0.053 C 
BRANCH   6   7
ATOM      7  C   UNL     1      65.005  29.443  60.618  1.00  0.00     0.041 C 
ATOM      8  O   UNL     1      65.354  30.105  59.606  1.00  0.00    -0.550 OA
ATOM      9  O   UNL     1      65.668  28.263  60.931  1.00  0.00    -0.550 OA
ENDBRANCH   6   7
ENDBRANCH   5   6
ENDBRANCH   4   5
ENDBRANCH   3   4
ENDBRANCH   2   3
ENDBRANCH   1   2
BRANCH   1  10
ATOM     10  C   UNL     1      62.866  32.584  58.982  1.00  0.00     0.000 C 
BRANCH  10  11
ATOM     11  C   UNL     1      63.515  33.327  60.159  1.00  0.00    -0.000 C 
BRANCH  11  12
ATOM     12  C   UNL     1      64.328  34.549  59.703  1.00  0.00    -0.000 C 
BRANCH  12  13
ATOM     13  C   UNL     1      63.635  35.880  60.043  1.00  0.00    -0.000 C 
BRANCH  13  14
ATOM     14  C   UNL     1      62.547  35.708  61.125  1.00  0.00    -0.000 C 
BRANCH  14  15
ATOM     15  C   UNL     1      61.156  36.186  60.675  1.00  0.00    -0.003 C 
ATOM     16  C   UNL     1      60.805  35.757  59.252  1.00  0.00     0.004 C 
ENDBRANCH  14  15
ENDBRANCH  13  14
ENDBRANCH  12  13
ENDBRANCH  11  12
ENDBRANCH  10  11
ENDBRANCH   1  10
TORSDOF 12
ENDMDL
MODEL 4
REMARK VINA RESULT:    -3.213      2.042      3.384
REMARK INTER + INTRA:          -7.057
REMARK INTER:                  -5.342
REMARK INTRA:                  -1.714
REMARK UNBOUND:                -1.589
REMARK SMILES CCCCCCCCCCCCCC(=O)[O-]
REMARK SMILES IDX 8 1 9 2 10 3 11 4 12 5 13 6 14 7 15 8 16 9 7 10 6 11 5 12
REMARK SMILES IDX 4 13 3 14 2 15 1 16
REMARK H PARENT
REMARK Flexibility Score: inf
ROOT
ATOM      1  C   UNL     1      57.369  26.712  53.505  1.00  0.00     0.000 C 
ENDROOT
BRANCH   1   2
ATOM      2  C   UNL     1      58.545  26.475  52.544  1.00  0.00     0.000 C 
BRANCH   2   3
ATOM      3  C   UNL     1      58.468  25.106  51.844  1.00  0.00     0.000 C 
BRANCH   3   4
ATOM      4  C   UNL     1      59.283  25.080  50.535  1.00  0.00     0.000 C 
BRANCH   4   5
ATOM      5  C   UNL     1      58.962  26.250  49.588  1.00  0.00     0.006 C 
BRANCH   5   6
ATOM      6  C   UNL     1      60.168  27.161  49.335  1.00  0.00     0.053 C 
BRANCH   6   7
ATOM      7  C   UNL     1      59.828  28.581  49.659  1.00  0.00     0.041 C 
ATOM      8  O   UNL     1      59.074  29.242  48.897  1.00  0.00    -0.550 OA
ATOM      9  O   UNL     1      60.303  29.160  50.829  1.00  0.00    -0.550 OA
ENDBRANCH   6   7
ENDBRANCH   5   6
ENDBRANCH   4   5
ENDBRANCH   3   4
ENDBRANCH   2   3
ENDBRANCH   1   2
BRANCH   1  10
ATOM     10  C   UNL     1      56.366  27.738  52.956  1.00  0.00     0.000 C 
BRANCH  10  11
ATOM     11  C   UNL     1      56.944  28.478  51.741  1.00  0.00    -0.000 C 
BRANCH  11  12
ATOM     12  C   UNL     1      56.016  28.411  50.518  1.00  0.00    -0.000 C 
BRANCH  12  13
ATOM     13  C   UNL     1      54.949  27.309  50.645  1.00  0.00    -0.000 C 
BRANCH  13  14
ATOM     14  C   UNL     1      55.306  26.057  49.816  1.00  0.00    -0.000 C 
BRANCH  14  15
ATOM     15  C   UNL     1      54.076  25.296  49.295  1.00  0.00    -0.003 C 
ATOM     16  C   UNL     1      52.876  26.204  49.032  1.00  0.00     0.004 C 
ENDBRANCH  14  15
ENDBRANCH  13  14
ENDBRANCH  12  13
ENDBRANCH  11  12
ENDBRANCH  10  11
ENDBRANCH   1  10
TORSDOF 12
ENDMDL
MODEL 5
REMARK VINA RESULT:    -3.201      1.201      1.997
REMARK INTER + INTRA:          -7.035
REMARK INTER:                  -5.190
REMARK INTRA:                  -1.846
REMARK UNBOUND:                -1.589
REMARK SMILES CCCCCCCCCCCCCC(=O)[O-]
REMARK SMILES IDX 8 1 9 2 10 3 11 4 12 5 13 6 14 7 15 8 16 9 7 10 6 11 5 12
REMARK SMILES IDX 4 13 3 14 2 15 1 16
REMARK H PARENT
REMARK Flexibility Score: inf
ROOT
ATOM      1  C   UNL     1      57.309  28.691  52.826  1.00  0.00     0.000 C 
ENDROOT
BRANCH   1   2
ATOM      2  C   UNL     1      57.779  29.521  51.620  1.00  0.00     0.000 C 
BRANCH   2   3
ATOM      3  C   UNL     1      57.846  28.694  50.324  1.00  0.00     0.000 C 
BRANCH   3   4
ATOM      4  C   UNL     1      59.121  28.995  49.511  1.00  0.00     0.000 C 
BRANCH   4   5
ATOM      5  C   UNL     1      59.975  27.747  49.223  1.00  0.00     0.006 C 
BRANCH   5   6
ATOM      6  C   UNL     1      59.186  26.440  49.363  1.00  0.00     0.053 C 
BRANCH   6   7
ATOM      7  C   UNL     1      59.908  25.488  50.263  1.00  0.00     0.041 C 
ATOM      8  O   UNL     1      59.563  24.278  50.314  1.00  0.00    -0.550 OA
ATOM      9  O   UNL     1      60.995  25.927  51.010  1.00  0.00    -0.550 OA
ENDBRANCH   6   7
ENDBRANCH   5   6
ENDBRANCH   4   5
ENDBRANCH   3   4
ENDBRANCH   2   3
ENDBRANCH   1   2
BRANCH   1  10
ATOM     10  C   UNL     1      57.654  27.201  52.678  1.00  0.00     0.000 C 
BRANCH  10  11
ATOM     11  C   UNL     1      56.385  26.336  52.717  1.00  0.00    -0.000 C 
BRANCH  11  12
ATOM     12  C   UNL     1      56.142  25.593  51.394  1.00  0.00    -0.000 C 
BRANCH  12  13
ATOM     13  C   UNL     1      54.730  25.831  50.833  1.00  0.00    -0.000 C 
BRANCH  13  14
ATOM     14  C   UNL     1      54.711  26.941  49.760  1.00  0.00    -0.000 C 
BRANCH  14  15
ATOM     15  C   UNL     1      53.610  27.992  49.986  1.00  0.00    -0.003 C 
ATOM     16  C   UNL     1      54.145  29.314  50.529  1.00  0.00     0.004 C 
ENDBRANCH  14  15
ENDBRANCH  13  14
ENDBRANCH  12  13
ENDBRANCH  11  12
ENDBRANCH  10  11
ENDBRANCH   1  10
TORSDOF 12
ENDMDL
MODEL 6
REMARK VINA RESULT:    -3.179     11.352     12.976
REMARK INTER + INTRA:          -6.997
REMARK INTER:                  -5.694
REMARK INTRA:                  -1.304
REMARK UNBOUND:                -1.589
REMARK SMILES CCCCCCCCCCCCCC(=O)[O-]
REMARK SMILES IDX 8 1 9 2 10 3 11 4 12 5 13 6 14 7 15 8 16 9 7 10 6 11 5 12
REMARK SMILES IDX 4 13 3 14 2 15 1 16
REMARK H PARENT
REMARK Flexibility Score: inf
ROOT
ATOM      1  C   UNL     1      61.361  33.038  58.374  1.00  0.00     0.000 C 
ENDROOT
BRANCH   1   2
ATOM      2  C   UNL     1      61.033  31.870  59.318  1.00  0.00     0.000 C 
BRANCH   2   3
ATOM      3  C   UNL     1      61.222  32.239  60.800  1.00  0.00     0.000 C 
BRANCH   3   4
ATOM      4  C   UNL     1      61.003  31.028  61.730  1.00  0.00     0.000 C 
BRANCH   4   5
ATOM      5  C   UNL     1      62.093  29.949  61.599  1.00  0.00     0.006 C 
BRANCH   5   6
ATOM      6  C   UNL     1      63.512  30.523  61.670  1.00  0.00     0.053 C 
BRANCH   6   7
ATOM      7  C   UNL     1      64.257  30.234  60.405  1.00  0.00     0.041 C 
ATOM      8  O   UNL     1      65.213  30.972  60.050  1.00  0.00    -0.550 OA
ATOM      9  O   UNL     1      63.927  29.119  59.644  1.00  0.00    -0.550 OA
ENDBRANCH   6   7
ENDBRANCH   5   6
ENDBRANCH   4   5
ENDBRANCH   3   4
ENDBRANCH   2   3
ENDBRANCH   1   2
BRANCH   1  10
ATOM     10  C   UNL     1      60.316  34.162  58.452  1.00  0.00     0.000 C 
BRANCH  10  11
ATOM     11  C   UNL     1      60.947  35.525  58.130  1.00  0.00    -0.000 C 
BRANCH  11  12
ATOM     12  C   UNL     1      60.754  36.543  59.265  1.00  0.00    -0.000 C 
BRANCH  12  13
ATOM     13  C   UNL     1      61.031  35.939  60.653  1.00  0.00    -0.000 C 
BRANCH  13  14
ATOM     14  C   UNL     1      62.466  36.235  61.139  1.00  0.00    -0.000 C 
BRANCH  14  15
ATOM     15  C   UNL     1      63.443  35.069  60.909  1.00  0.00    -0.003 C 
ATOM     16  C   UNL     1      64.739  35.206  61.705  1.00  0.00     0.004 C 
ENDBRANCH  14  15
ENDBRANCH  13  14
ENDBRANCH  12  13
ENDBRANCH  11  12
ENDBRANCH  10  11
ENDBRANCH   1  10
TORSDOF 12
ENDMDL
MODEL 7
REMARK VINA RESULT:    -3.154     11.769     13.613
REMARK INTER + INTRA:          -6.955
REMARK INTER:                  -5.031
REMARK INTRA:                  -1.924
REMARK UNBOUND:                -1.589
REMARK SMILES CCCCCCCCCCCCCC(=O)[O-]
REMARK SMILES IDX 8 1 9 2 10 3 11 4 12 5 13 6 14 7 15 8 16 9 7 10 6 11 5 12
REMARK SMILES IDX 4 13 3 14 2 15 1 16
REMARK H PARENT
REMARK Flexibility Score: inf
ROOT
ATOM      1  C   UNL     1      63.053  33.030  58.946  1.00  0.00     0.000 C 
ENDROOT
BRANCH   1   2
ATOM      2  C   UNL     1      64.003  33.336  60.115  1.00  0.00     0.000 C 
BRANCH   2   3
ATOM      3  C   UNL     1      64.392  34.824  60.187  1.00  0.00     0.000 C 
BRANCH   3   4
ATOM      4  C   UNL     1      63.745  35.534  61.394  1.00  0.00     0.000 C 
BRANCH   4   5
ATOM      5  C   UNL     1      62.663  36.555  60.997  1.00  0.00     0.006 C 
BRANCH   5   6
ATOM      6  C   UNL     1      61.299  35.907  60.737  1.00  0.00     0.053 C 
BRANCH   6   7
ATOM      7  C   UNL     1      60.773  36.317  59.398  1.00  0.00     0.041 C 
ATOM      8  O   UNL     1      59.649  36.876  59.302  1.00  0.00    -0.550 OA
ATOM      9  O   UNL     1      61.547  36.128  58.260  1.00  0.00    -0.550 OA
ENDBRANCH   6   7
ENDBRANCH   5   6
ENDBRANCH   4   5
ENDBRANCH   3   4
ENDBRANCH   2   3
ENDBRANCH   1   2
BRANCH   1  10
ATOM     10  C   UNL     1      61.737  32.391  59.416  1.00  0.00     0.000 C 
BRANCH  10  11
ATOM     11  C   UNL     1      61.656  32.362  60.949  1.00  0.00    -0.000 C 
BRANCH  11  12
ATOM     12  C   UNL     1      60.994  31.078  61.476  1.00  0.00    -0.000 C 
BRANCH  12  13
ATOM     13  C   UNL     1      61.773  29.810  61.088  1.00  0.00    -0.000 C 
BRANCH  13  14
ATOM     14  C   UNL     1      63.224  29.835  61.616  1.00  0.00    -0.000 C 
BRANCH  14  15
ATOM     15  C   UNL     1      64.282  29.704  60.508  1.00  0.00    -0.003 C 
ATOM     16  C   UNL     1      63.714  29.162  59.198  1.00  0.00     0.004 C 
ENDBRANCH  14  15
ENDBRANCH  13  14
ENDBRANCH  12  13
ENDBRANCH  11  12
ENDBRANCH  10  11
ENDBRANCH   1  10
TORSDOF 12
ENDMDL
MODEL 8
REMARK VINA RESULT:    -3.115      2.195      3.331
REMARK INTER + INTRA:          -6.889
REMARK INTER:                  -5.353
REMARK INTRA:                  -1.536
REMARK UNBOUND:                -1.589
REMARK SMILES CCCCCCCCCCCCCC(=O)[O-]
REMARK SMILES IDX 8 1 9 2 10 3 11 4 12 5 13 6 14 7 15 8 16 9 7 10 6 11 5 12
REMARK SMILES IDX 4 13 3 14 2 15 1 16
REMARK H PARENT
REMARK Flexibility Score: inf
ROOT
ATOM      1  C   UNL     1      58.426  25.600  50.772  1.00  0.00     0.000 C 
ENDROOT
BRANCH   1   2
ATOM      2  C   UNL     1      59.442  25.596  49.619  1.00  0.00     0.000 C 
BRANCH   2   3
ATOM      3  C   UNL     1      60.403  26.797  49.675  1.00  0.00     0.000 C 
BRANCH   3   4
ATOM      4  C   UNL     1      59.745  28.089  49.148  1.00  0.00     0.000 C 
BRANCH   4   5
ATOM      5  C   UNL     1      59.734  29.234  50.177  1.00  0.00     0.006 C 
BRANCH   5   6
ATOM      6  C   UNL     1      60.086  28.768  51.594  1.00  0.00     0.053 C 
BRANCH   6   7
ATOM      7  C   UNL     1      59.348  29.581  52.610  1.00  0.00     0.041 C 
ATOM      8  O   UNL     1      59.595  29.438  53.836  1.00  0.00    -0.550 OA
ATOM      9  O   UNL     1      58.423  30.533  52.200  1.00  0.00    -0.550 OA
ENDBRANCH   6   7
ENDBRANCH   5   6
ENDBRANCH   4   5
ENDBRANCH   3   4
ENDBRANCH   2   3
ENDBRANCH   1   2
BRANCH   1  10
ATOM     10  C   UNL     1      57.005  25.937  50.295  1.00  0.00     0.000 C 
BRANCH  10  11
ATOM     11  C   UNL     1      56.337  26.956  51.231  1.00  0.00    -0.000 C 
BRANCH  11  12
ATOM     12  C   UNL     1      56.156  28.330  50.566  1.00  0.00    -0.000 C 
BRANCH  12  13
ATOM     13  C   UNL     1      54.681  28.657  50.278  1.00  0.00    -0.000 C 
BRANCH  13  14
ATOM     14  C   UNL     1      53.740  27.501  50.681  1.00  0.00    -0.000 C 
BRANCH  14  15
ATOM     15  C   UNL     1      52.968  26.898  49.495  1.00  0.00    -0.003 C 
ATOM     16  C   UNL     1      53.574  25.593  48.985  1.00  0.00     0.004 C 
ENDBRANCH  14  15
ENDBRANCH  13  14
ENDBRANCH  12  13
ENDBRANCH  11  12
ENDBRANCH  10  11
ENDBRANCH   1  10
TORSDOF 12
ENDMDL
MODEL 9
REMARK VINA RESULT:    -3.088      2.850      5.367
REMARK INTER + INTRA:          -6.843
REMARK INTER:                  -4.727
REMARK INTRA:                  -2.116
REMARK UNBOUND:                -1.589
REMARK SMILES CCCCCCCCCCCCCC(=O)[O-]
REMARK SMILES IDX 8 1 9 2 10 3 11 4 12 5 13 6 14 7 15 8 16 9 7 10 6 11 5 12
REMARK SMILES IDX 4 13 3 14 2 15 1 16
REMARK H PARENT
REMARK Flexibility Score: inf
ROOT
ATOM      1  C   UNL     1      58.597  26.480  53.042  1.00  0.00     0.000 C 
ENDROOT
BRANCH   1   2
ATOM      2  C   UNL     1      58.027  27.875  52.739  1.00  0.00     0.000 C 
BRANCH   2   3
ATOM      3  C   UNL     1      56.513  27.846  52.459  1.00  0.00     0.000 C 
BRANCH   3   4
ATOM      4  C   UNL     1      56.159  28.530  51.123  1.00  0.00     0.000 C 
BRANCH   4   5
ATOM      5  C   UNL     1      54.960  27.886  50.403  1.00  0.00     0.006 C 
BRANCH   5   6
ATOM      6  C   UNL     1      55.302  26.535  49.765  1.00  0.00     0.053 C 
BRANCH   6   7
ATOM      7  C   UNL     1      54.387  25.469  50.278  1.00  0.00     0.041 C 
ATOM      8  O   UNL     1      54.259  25.285  51.517  1.00  0.00    -0.550 OA
ATOM      9  O   UNL     1      53.635  24.711  49.387  1.00  0.00    -0.550 OA
ENDBRANCH   6   7
ENDBRANCH   5   6
ENDBRANCH   4   5
ENDBRANCH   3   4
ENDBRANCH   2   3
ENDBRANCH   1   2
BRANCH   1  10
ATOM     10  C   UNL     1      57.887  25.374  52.246  1.00  0.00     0.000 C 
BRANCH  10  11
ATOM     11  C   UNL     1      58.509  25.213  50.851  1.00  0.00    -0.000 C 
BRANCH  11  12
ATOM     12  C   UNL     1      60.021  25.493  50.849  1.00  0.00    -0.000 C 
BRANCH  12  13
ATOM     13  C   UNL     1      60.413  26.611  49.867  1.00  0.00    -0.000 C 
BRANCH  13  14
ATOM     14  C   UNL     1      59.178  27.328  49.281  1.00  0.00    -0.000 C 
BRANCH  14  15
ATOM     15  C   UNL     1      59.279  28.862  49.330  1.00  0.00    -0.003 C 
ATOM     16  C   UNL     1      60.420  29.360  50.215  1.00  0.00     0.004 C 
ENDBRANCH  14  15
ENDBRANCH  13  14
ENDBRANCH  12  13
ENDBRANCH  11  12
ENDBRANCH  10  11
ENDBRANCH   1  10
TORSDOF 12
ENDMDL
