MODEL 1
REMARK VINA RESULT:    54.937      0.000      0.000
REMARK INTER + INTRA:          61.607
REMARK INTER:                  59.755
REMARK INTRA:                   1.852
REMARK UNBOUND:                 1.852
REMARK SMILES C[C@@H]1[C@@H](C)CC[C@@]2(C(=O)[O-])CC[C@]3(C)C(=CC[C@H]4[C@@]5(C)CC[C@@H](O)C(C)(C)[C@@H]5CC[C@]43C)[C@@H]12
REMARK SMILES IDX 7 1 6 2 11 3 33 4 5 5 12 6 15 7 2 8 3 9 13 10 16 11 1 12
REMARK SMILES IDX 4 13 14 14 31 15 17 16 18 17 30 18 32 19 19 20 29 21 28 22
REMARK SMILES IDX 21 23 20 24 25 25 22 26 23 27 26 28 27 29 8 30 9 31 10 32
REMARK SMILES IDX 24 33
REMARK H PARENT 24 34
REMARK Flexibility Score: inf
ROOT
ATOM      1  C   UNL     1      12.739  22.553  -2.931  1.00  0.00     0.017 C 
ATOM      2  C   UNL     1      11.344  21.875  -2.845  1.00  0.00     0.014 C 
ATOM      3  C   UNL     1      12.634  23.987  -2.331  1.00  0.00     0.014 C 
ATOM      4  C   UNL     1      13.795  21.646  -2.183  1.00  0.00     0.030 C 
ATOM      5  C   UNL     1      11.325  20.496  -3.515  1.00  0.00     0.004 C 
ATOM      6  C   UNL     1      12.665  24.071  -0.799  1.00  0.00     0.013 C 
ATOM      7  C   UNL     1      13.746  21.890  -0.643  1.00  0.00    -0.063 C 
ATOM      8  C   UNL     1      13.754  20.136  -2.681  1.00  0.00    -0.003 C 
ATOM      9  C   UNL     1      12.320  19.518  -2.872  1.00  0.00    -0.011 C 
ATOM     10  C   UNL     1      13.874  23.335  -0.135  1.00  0.00    -0.006 C 
ATOM     11  C   UNL     1      13.487  20.892   0.213  1.00  0.00    -0.027 C 
ATOM     12  C   UNL     1      14.560  19.946  -3.985  1.00  0.00     0.008 C 
ATOM     13  C   UNL     1      11.718  18.881  -1.611  1.00  0.00     0.008 C 
ATOM     14  C   UNL     1      15.218  23.921  -0.686  1.00  0.00     0.017 C 
ATOM     15  C   UNL     1      13.850  23.493   1.491  1.00  0.00    -0.020 C 
ATOM     16  C   UNL     1      13.023  21.046   1.615  1.00  0.00     0.032 C 
ATOM     17  C   UNL     1      12.813  22.490   2.151  1.00  0.00     0.006 C 
ATOM     18  C   UNL     1      15.246  23.198   2.138  1.00  0.00     0.008 C 
ATOM     19  C   UNL     1      13.493  24.985   1.812  1.00  0.00     0.012 C 
ATOM     20  C   UNL     1      12.781  22.493   3.761  1.00  0.00    -0.025 C 
ATOM     21  C   UNL     1      15.270  23.231   3.685  1.00  0.00     0.005 C 
ATOM     22  C   UNL     1      14.245  22.261   4.313  1.00  0.00     0.003 C 
ATOM     23  C   UNL     1      11.880  21.330   4.311  1.00  0.00     0.010 C 
ATOM     24  C   UNL     1      12.133  23.828   4.259  1.00  0.00     0.012 C 
ATOM     25  C   UNL     1      14.372  22.060   5.879  1.00  0.00    -0.006 C 
ATOM     26  C   UNL     1      11.951  21.146   5.840  1.00  0.00     0.033 C 
ATOM     27  C   UNL     1      13.394  20.925   6.331  1.00  0.00     0.120 C 
ATOM     28  C   UNL     1      15.816  21.611   6.243  1.00  0.00     0.014 C 
ATOM     29  C   UNL     1      14.102  23.348   6.702  1.00  0.00     0.014 C 
ENDROOT
BRANCH   1  30
ATOM     30  C   UNL     1      13.139  22.776  -4.388  1.00  0.00     0.048 C 
ATOM     31  O   UNL     1      13.095  23.928  -4.899  1.00  0.00    -0.550 OA
ATOM     32  O   UNL     1      13.711  21.744  -5.123  1.00  0.00    -0.550 OA
ENDBRANCH   1  30
BRANCH  27  33
ATOM     33  O   UNL     1      13.850  19.677   5.864  1.00  0.00    -0.393 OA
ATOM     34  H   UNL     1      14.594  19.397   6.458  1.00  0.00     0.210 HD
ENDBRANCH  27  33
TORSDOF 2
ENDMDL
