MODEL 1
REMARK VINA RESULT:    -6.616      0.000      0.000
REMARK INTER + INTRA:          -8.473
REMARK INTER:                  -8.164
REMARK INTRA:                  -0.309
REMARK UNBOUND:                -0.309
REMARK SMILES Oc1cc(O)c2cc(O)c(-c3cc(O)c(O)c(O)c3)[o+]c2c1
REMARK SMILES IDX 10 1 20 2 21 3 22 4 2 5 3 6 4 7 6 8 7 9 8 10 11 11 12 12
REMARK SMILES IDX 13 13 19 14 15 15 17 16 14 17 16 19 18 21 9 23 1 25 5 27
REMARK H PARENT 14 18 16 20 18 22 9 24 1 26 5 28
REMARK Flexibility Score: inf
ROOT
ATOM      1  C   UNL     1      -2.768  88.774  32.149  1.00  0.00     0.402 A 
ATOM      2  O   UNL     1      -3.110  87.847  31.258  1.00  0.00    -0.202 OA
ATOM      3  C   UNL     1      -2.538  86.650  31.195  1.00  0.00     0.368 A 
ATOM      4  C   UNL     1      -2.964  85.743  30.219  1.00  0.00     0.162 A 
ATOM      5  C   UNL     1      -2.377  84.477  30.129  1.00  0.00     0.128 A 
ATOM      6  C   UNL     1      -1.359  84.118  31.015  1.00  0.00     0.093 A 
ATOM      7  C   UNL     1      -0.914  85.008  32.000  1.00  0.00     0.136 A 
ATOM      8  C   UNL     1      -1.509  86.292  32.098  1.00  0.00     0.125 A 
ATOM      9  C   UNL     1      -1.135  87.244  33.062  1.00  0.00     0.078 A 
ATOM     10  C   UNL     1      -1.771  88.489  33.101  1.00  0.00     0.223 A 
ENDROOT
BRANCH   1  11
ATOM     11  C   UNL     1      -3.474  90.075  32.113  1.00  0.00     0.091 A 
ATOM     12  C   UNL     1      -2.826  91.247  31.692  1.00  0.00     0.068 A 
ATOM     13  C   UNL     1      -3.509  92.468  31.639  1.00  0.00     0.162 A 
ATOM     14  C   UNL     1      -4.834  90.131  32.449  1.00  0.00     0.068 A 
ATOM     15  C   UNL     1      -4.875  92.521  32.007  1.00  0.00     0.200 A 
ATOM     16  C   UNL     1      -5.529  91.346  32.405  1.00  0.00     0.162 A 
BRANCH  13  17
ATOM     17  O   UNL     1      -2.799  93.593  31.213  1.00  0.00    -0.504 OA
ATOM     18  H   UNL     1      -2.286  93.642  30.346  1.00  0.00     0.293 HD
ENDBRANCH  13  17
BRANCH  15  19
ATOM     19  O   UNL     1      -5.612  93.707  31.987  1.00  0.00    -0.502 OA
ATOM     20  H   UNL     1      -5.201  94.629  31.963  1.00  0.00     0.293 HD
ENDBRANCH  15  19
BRANCH  16  21
ATOM     21  O   UNL     1      -6.877  91.395  32.758  1.00  0.00    -0.504 OA
ATOM     22  H   UNL     1      -7.444  92.214  32.574  1.00  0.00     0.293 HD
ENDBRANCH  16  21
ENDBRANCH   1  11
BRANCH  10  23
ATOM     23  O   UNL     1      -1.437  89.416  34.088  1.00  0.00    -0.500 OA
ATOM     24  H   UNL     1      -0.704  90.101  33.948  1.00  0.00     0.294 HD
ENDBRANCH  10  23
BRANCH   5  25
ATOM     25  O   UNL     1      -2.797  83.569  29.160  1.00  0.00    -0.507 OA
ATOM     26  H   UNL     1      -2.716  82.569  29.300  1.00  0.00     0.293 HD
ENDBRANCH   5  25
BRANCH   7  27
ATOM     27  O   UNL     1       0.111  84.573  32.845  1.00  0.00    -0.507 OA
ATOM     28  H   UNL     1       0.301  83.605  33.060  1.00  0.00     0.293 HD
ENDBRANCH   7  27
TORSDOF 7
ENDMDL
MODEL 2
REMARK VINA RESULT:    -6.476      0.297      1.824
REMARK INTER + INTRA:          -8.299
REMARK INTER:                  -8.044
REMARK INTRA:                  -0.255
REMARK UNBOUND:                -0.309
REMARK SMILES Oc1cc(O)c2cc(O)c(-c3cc(O)c(O)c(O)c3)[o+]c2c1
REMARK SMILES IDX 10 1 20 2 21 3 22 4 2 5 3 6 4 7 6 8 7 9 8 10 11 11 12 12
REMARK SMILES IDX 13 13 19 14 15 15 17 16 14 17 16 19 18 21 9 23 1 25 5 27
REMARK H PARENT 14 18 16 20 18 22 9 24 1 26 5 28
REMARK Flexibility Score: inf
ROOT
ATOM      1  C   UNL     1      -2.841  89.009  32.241  1.00  0.00     0.402 A 
ATOM      2  O   UNL     1      -3.188  88.037  31.401  1.00  0.00    -0.202 OA
ATOM      3  C   UNL     1      -2.581  86.857  31.360  1.00  0.00     0.368 A 
ATOM      4  C   UNL     1      -3.016  85.900  30.438  1.00  0.00     0.162 A 
ATOM      5  C   UNL     1      -2.393  84.649  30.373  1.00  0.00     0.128 A 
ATOM      6  C   UNL     1      -1.330  84.356  31.230  1.00  0.00     0.093 A 
ATOM      7  C   UNL     1      -0.875  85.298  32.162  1.00  0.00     0.136 A 
ATOM      8  C   UNL     1      -1.506  86.566  32.235  1.00  0.00     0.125 A 
ATOM      9  C   UNL     1      -1.125  87.566  33.144  1.00  0.00     0.078 A 
ATOM     10  C   UNL     1      -1.799  88.792  33.162  1.00  0.00     0.223 A 
ENDROOT
BRANCH   1  11
ATOM     11  C   UNL     1      -3.588  90.286  32.184  1.00  0.00     0.091 A 
ATOM     12  C   UNL     1      -4.931  90.366  32.584  1.00  0.00     0.068 A 
ATOM     13  C   UNL     1      -5.621  91.584  32.548  1.00  0.00     0.162 A 
ATOM     14  C   UNL     1      -2.927  91.454  31.776  1.00  0.00     0.068 A 
ATOM     15  C   UNL     1      -4.954  92.753  32.110  1.00  0.00     0.200 A 
ATOM     16  C   UNL     1      -3.606  92.678  31.731  1.00  0.00     0.162 A 
BRANCH  13  17
ATOM     17  O   UNL     1      -6.956  91.587  32.960  1.00  0.00    -0.504 OA
ATOM     18  H   UNL     1      -7.587  92.364  32.829  1.00  0.00     0.293 HD
ENDBRANCH  13  17
BRANCH  15  19
ATOM     19  O   UNL     1      -5.587  93.996  32.040  1.00  0.00    -0.502 OA
ATOM     20  H   UNL     1      -5.594  94.583  31.218  1.00  0.00     0.293 HD
ENDBRANCH  15  19
BRANCH  16  21
ATOM     21  O   UNL     1      -2.946  93.830  31.309  1.00  0.00    -0.504 OA
ATOM     22  H   UNL     1      -3.083  94.721  31.771  1.00  0.00     0.293 HD
ENDBRANCH  16  21
ENDBRANCH   1  11
BRANCH  10  23
ATOM     23  O   UNL     1      -1.455  89.767  34.099  1.00  0.00    -0.500 OA
ATOM     24  H   UNL     1      -0.700  89.626  34.760  1.00  0.00     0.294 HD
ENDBRANCH  10  23
BRANCH   5  25
ATOM     25  O   UNL     1      -2.822  83.691  29.457  1.00  0.00    -0.507 OA
ATOM     26  H   UNL     1      -3.757  83.303  29.495  1.00  0.00     0.293 HD
ENDBRANCH   5  25
BRANCH   7  27
ATOM     27  O   UNL     1       0.195  84.928  32.980  1.00  0.00    -0.507 OA
ATOM     28  H   UNL     1       0.909  84.262  32.720  1.00  0.00     0.293 HD
ENDBRANCH   7  27
TORSDOF 7
ENDMDL
MODEL 3
REMARK VINA RESULT:    -6.326      4.179      7.727
REMARK INTER + INTRA:          -8.115
REMARK INTER:                  -7.743
REMARK INTRA:                  -0.371
REMARK UNBOUND:                -0.309
REMARK SMILES Oc1cc(O)c2cc(O)c(-c3cc(O)c(O)c(O)c3)[o+]c2c1
REMARK SMILES IDX 10 1 20 2 21 3 22 4 2 5 3 6 4 7 6 8 7 9 8 10 11 11 12 12
REMARK SMILES IDX 13 13 19 14 15 15 17 16 14 17 16 19 18 21 9 23 1 25 5 27
REMARK H PARENT 14 18 16 20 18 22 9 24 1 26 5 28
REMARK Flexibility Score: inf
ROOT
ATOM      1  C   UNL     1       0.234  90.607  33.736  1.00  0.00     0.402 A 
ATOM      2  O   UNL     1      -0.627  91.554  34.100  1.00  0.00    -0.202 OA
ATOM      3  C   UNL     1      -1.889  91.590  33.687  1.00  0.00     0.368 A 
ATOM      4  C   UNL     1      -2.716  92.630  34.122  1.00  0.00     0.162 A 
ATOM      5  C   UNL     1      -4.049  92.692  33.701  1.00  0.00     0.128 A 
ATOM      6  C   UNL     1      -4.554  91.715  32.841  1.00  0.00     0.093 A 
ATOM      7  C   UNL     1      -3.744  90.664  32.391  1.00  0.00     0.136 A 
ATOM      8  C   UNL     1      -2.393  90.594  32.818  1.00  0.00     0.125 A 
ATOM      9  C   UNL     1      -1.513  89.571  32.428  1.00  0.00     0.078 A 
ATOM     10  C   UNL     1      -0.195  89.564  32.894  1.00  0.00     0.223 A 
ENDROOT
BRANCH   1  11
ATOM     11  C   UNL     1       1.619  90.682  34.255  1.00  0.00     0.091 A 
ATOM     12  C   UNL     1       2.007  89.979  35.407  1.00  0.00     0.068 A 
ATOM     13  C   UNL     1       3.325  90.038  35.876  1.00  0.00     0.162 A 
ATOM     14  C   UNL     1       2.581  91.421  33.551  1.00  0.00     0.068 A 
ATOM     15  C   UNL     1       4.283  90.808  35.174  1.00  0.00     0.200 A 
ATOM     16  C   UNL     1       3.902  91.491  34.010  1.00  0.00     0.162 A 
BRANCH  13  17
ATOM     17  O   UNL     1       3.638  89.315  37.030  1.00  0.00    -0.504 OA
ATOM     18  H   UNL     1       3.965  88.361  37.028  1.00  0.00     0.293 HD
ENDBRANCH  13  17
BRANCH  15  19
ATOM     19  O   UNL     1       5.611  90.918  35.594  1.00  0.00    -0.502 OA
ATOM     20  H   UNL     1       5.898  91.354  36.458  1.00  0.00     0.293 HD
ENDBRANCH  15  19
BRANCH  16  21
ATOM     21  O   UNL     1       4.846  92.242  33.313  1.00  0.00    -0.504 OA
ATOM     22  H   UNL     1       5.833  92.015  33.344  1.00  0.00     0.293 HD
ENDBRANCH  16  21
ENDBRANCH   1  11
BRANCH  10  23
ATOM     23  O   UNL     1       0.666  88.522  32.548  1.00  0.00    -0.500 OA
ATOM     24  H   UNL     1       1.450  88.263  33.135  1.00  0.00     0.294 HD
ENDBRANCH  10  23
BRANCH   5  25
ATOM     25  O   UNL     1      -4.879  93.725  34.131  1.00  0.00    -0.507 OA
ATOM     26  H   UNL     1      -5.766  93.915  33.680  1.00  0.00     0.293 HD
ENDBRANCH   5  25
BRANCH   7  27
ATOM     27  O   UNL     1      -4.324  89.729  31.530  1.00  0.00    -0.507 OA
ATOM     28  H   UNL     1      -4.790  89.962  30.664  1.00  0.00     0.293 HD
ENDBRANCH   7  27
TORSDOF 7
ENDMDL
MODEL 4
REMARK VINA RESULT:    -6.293     10.403     12.433
REMARK INTER + INTRA:          -8.073
REMARK INTER:                  -7.764
REMARK INTRA:                  -0.310
REMARK UNBOUND:                -0.309
REMARK SMILES Oc1cc(O)c2cc(O)c(-c3cc(O)c(O)c(O)c3)[o+]c2c1
REMARK SMILES IDX 10 1 20 2 21 3 22 4 2 5 3 6 4 7 6 8 7 9 8 10 11 11 12 12
REMARK SMILES IDX 13 13 19 14 15 15 17 16 14 17 16 19 18 21 9 23 1 25 5 27
REMARK H PARENT 14 18 16 20 18 22 9 24 1 26 5 28
REMARK Flexibility Score: inf
ROOT
ATOM      1  C   UNL     1       8.014  85.939  28.036  1.00  0.00     0.402 A 
ATOM      2  O   UNL     1       8.135  85.107  27.005  1.00  0.00    -0.202 OA
ATOM      3  C   UNL     1       9.301  84.802  26.446  1.00  0.00     0.368 A 
ATOM      4  C   UNL     1       9.325  83.920  25.362  1.00  0.00     0.162 A 
ATOM      5  C   UNL     1      10.538  83.584  24.753  1.00  0.00     0.128 A 
ATOM      6  C   UNL     1      11.731  84.136  25.227  1.00  0.00     0.093 A 
ATOM      7  C   UNL     1      11.733  85.023  26.311  1.00  0.00     0.136 A 
ATOM      8  C   UNL     1      10.505  85.363  26.935  1.00  0.00     0.125 A 
ATOM      9  C   UNL     1      10.412  86.234  28.033  1.00  0.00     0.078 A 
ATOM     10  C   UNL     1       9.166  86.519  28.599  1.00  0.00     0.223 A 
ENDROOT
BRANCH   1  11
ATOM     11  C   UNL     1       6.658  86.206  28.566  1.00  0.00     0.091 A 
ATOM     12  C   UNL     1       6.224  85.652  29.782  1.00  0.00     0.068 A 
ATOM     13  C   UNL     1       4.948  85.931  30.285  1.00  0.00     0.162 A 
ATOM     14  C   UNL     1       5.806  87.077  27.872  1.00  0.00     0.068 A 
ATOM     15  C   UNL     1       4.085  86.790  29.564  1.00  0.00     0.200 A 
ATOM     16  C   UNL     1       4.525  87.362  28.362  1.00  0.00     0.162 A 
BRANCH  13  17
ATOM     17  O   UNL     1       4.586  85.343  31.499  1.00  0.00    -0.504 OA
ATOM     18  H   UNL     1       3.719  85.529  31.982  1.00  0.00     0.293 HD
ENDBRANCH  13  17
BRANCH  15  19
ATOM     19  O   UNL     1       2.796  87.100  30.005  1.00  0.00    -0.502 OA
ATOM     20  H   UNL     1       2.160  87.711  29.512  1.00  0.00     0.293 HD
ENDBRANCH  15  19
BRANCH  16  21
ATOM     21  O   UNL     1       3.679  88.216  27.656  1.00  0.00    -0.504 OA
ATOM     22  H   UNL     1       3.932  88.580  26.745  1.00  0.00     0.293 HD
ENDBRANCH  16  21
ENDBRANCH   1  11
BRANCH  10  23
ATOM     23  O   UNL     1       9.078  87.343  29.721  1.00  0.00    -0.500 OA
ATOM     24  H   UNL     1       9.615  87.158  30.561  1.00  0.00     0.294 HD
ENDBRANCH  10  23
BRANCH   5  25
ATOM     25  O   UNL     1      10.570  82.704  23.673  1.00  0.00    -0.507 OA
ATOM     26  H   UNL     1      10.440  83.028  22.723  1.00  0.00     0.293 HD
ENDBRANCH   5  25
BRANCH   7  27
ATOM     27  O   UNL     1      12.967  85.533  26.723  1.00  0.00    -0.507 OA
ATOM     28  H   UNL     1      13.270  86.484  26.573  1.00  0.00     0.293 HD
ENDBRANCH   7  27
TORSDOF 7
ENDMDL
MODEL 5
REMARK VINA RESULT:    -6.285      4.055      6.783
REMARK INTER + INTRA:          -8.064
REMARK INTER:                  -7.727
REMARK INTRA:                  -0.337
REMARK UNBOUND:                -0.309
REMARK SMILES Oc1cc(O)c2cc(O)c(-c3cc(O)c(O)c(O)c3)[o+]c2c1
REMARK SMILES IDX 10 1 20 2 21 3 22 4 2 5 3 6 4 7 6 8 7 9 8 10 11 11 12 12
REMARK SMILES IDX 13 13 19 14 15 15 17 16 14 17 16 19 18 21 9 23 1 25 5 27
REMARK H PARENT 14 18 16 20 18 22 9 24 1 26 5 28
REMARK Flexibility Score: inf
ROOT
ATOM      1  C   UNL     1      -1.651  92.380  33.544  1.00  0.00     0.402 A 
ATOM      2  O   UNL     1      -2.108  91.587  32.577  1.00  0.00    -0.202 OA
ATOM      3  C   UNL     1      -3.400  91.432  32.311  1.00  0.00     0.368 A 
ATOM      4  C   UNL     1      -3.782  90.573  31.277  1.00  0.00     0.162 A 
ATOM      5  C   UNL     1      -5.136  90.390  30.976  1.00  0.00     0.128 A 
ATOM      6  C   UNL     1      -6.110  91.065  31.714  1.00  0.00     0.093 A 
ATOM      7  C   UNL     1      -5.753  91.932  32.755  1.00  0.00     0.136 A 
ATOM      8  C   UNL     1      -4.381  92.124  33.062  1.00  0.00     0.125 A 
ATOM      9  C   UNL     1      -3.930  92.981  34.079  1.00  0.00     0.078 A 
ATOM     10  C   UNL     1      -2.560  93.124  34.319  1.00  0.00     0.223 A 
ENDROOT
BRANCH   1  11
ATOM     11  C   UNL     1      -0.187  92.462  33.750  1.00  0.00     0.091 A 
ATOM     12  C   UNL     1       0.559  93.552  33.277  1.00  0.00     0.068 A 
ATOM     13  C   UNL     1       1.939  93.631  33.498  1.00  0.00     0.162 A 
ATOM     14  C   UNL     1       0.462  91.459  34.485  1.00  0.00     0.068 A 
ATOM     15  C   UNL     1       2.591  92.601  34.218  1.00  0.00     0.200 A 
ATOM     16  C   UNL     1       1.843  91.523  34.711  1.00  0.00     0.162 A 
BRANCH  13  17
ATOM     17  O   UNL     1       2.616  94.745  32.996  1.00  0.00    -0.504 OA
ATOM     18  H   UNL     1       2.266  95.332  32.254  1.00  0.00     0.293 HD
ENDBRANCH  13  17
BRANCH  15  19
ATOM     19  O   UNL     1       3.966  92.612  34.464  1.00  0.00    -0.502 OA
ATOM     20  H   UNL     1       4.567  93.404  34.286  1.00  0.00     0.293 HD
ENDBRANCH  15  19
BRANCH  16  21
ATOM     21  O   UNL     1       2.482  90.512  35.427  1.00  0.00    -0.504 OA
ATOM     22  H   UNL     1       2.713  90.621  36.408  1.00  0.00     0.293 HD
ENDBRANCH  16  21
ENDBRANCH   1  11
BRANCH  10  23
ATOM     23  O   UNL     1      -2.109  94.013  35.296  1.00  0.00    -0.500 OA
ATOM     24  H   UNL     1      -1.787  94.944  35.060  1.00  0.00     0.294 HD
ENDBRANCH  10  23
BRANCH   5  25
ATOM     25  O   UNL     1      -5.524  89.535  29.946  1.00  0.00    -0.507 OA
ATOM     26  H   UNL     1      -5.688  89.877  29.008  1.00  0.00     0.293 HD
ENDBRANCH   5  25
BRANCH   7  27
ATOM     27  O   UNL     1      -6.787  92.567  33.447  1.00  0.00    -0.507 OA
ATOM     28  H   UNL     1      -7.650  92.877  33.024  1.00  0.00     0.293 HD
ENDBRANCH   7  27
TORSDOF 7
ENDMDL
MODEL 6
REMARK VINA RESULT:    -6.254      4.523      6.133
REMARK INTER + INTRA:          -8.026
REMARK INTER:                  -7.691
REMARK INTRA:                  -0.335
REMARK UNBOUND:                -0.309
REMARK SMILES Oc1cc(O)c2cc(O)c(-c3cc(O)c(O)c(O)c3)[o+]c2c1
REMARK SMILES IDX 10 1 20 2 21 3 22 4 2 5 3 6 4 7 6 8 7 9 8 10 11 11 12 12
REMARK SMILES IDX 13 13 19 14 15 15 17 16 14 17 16 19 18 21 9 23 1 25 5 27
REMARK H PARENT 14 18 16 20 18 22 9 24 1 26 5 28
REMARK Flexibility Score: inf
ROOT
ATOM      1  C   UNL     1       0.423  91.141  33.386  1.00  0.00     0.402 A 
ATOM      2  O   UNL     1       1.548  91.748  33.756  1.00  0.00    -0.202 OA
ATOM      3  C   UNL     1       2.748  91.192  33.644  1.00  0.00     0.368 A 
ATOM      4  C   UNL     1       3.872  91.909  34.065  1.00  0.00     0.162 A 
ATOM      5  C   UNL     1       5.148  91.345  33.959  1.00  0.00     0.128 A 
ATOM      6  C   UNL     1       5.300  90.060  33.435  1.00  0.00     0.093 A 
ATOM      7  C   UNL     1       4.190  89.321  33.006  1.00  0.00     0.136 A 
ATOM      8  C   UNL     1       2.894  89.890  33.108  1.00  0.00     0.125 A 
ATOM      9  C   UNL     1       1.726  89.228  32.693  1.00  0.00     0.078 A 
ATOM     10  C   UNL     1       0.483  89.855  32.819  1.00  0.00     0.223 A 
ENDROOT
BRANCH   1  11
ATOM     11  C   UNL     1      -0.857  91.862  33.571  1.00  0.00     0.091 A 
ATOM     12  C   UNL     1      -1.511  92.480  32.493  1.00  0.00     0.068 A 
ATOM     13  C   UNL     1      -2.733  93.139  32.675  1.00  0.00     0.162 A 
ATOM     14  C   UNL     1      -1.461  91.881  34.836  1.00  0.00     0.068 A 
ATOM     15  C   UNL     1      -3.322  93.176  33.961  1.00  0.00     0.200 A 
ATOM     16  C   UNL     1      -2.681  92.540  35.034  1.00  0.00     0.162 A 
BRANCH  13  17
ATOM     17  O   UNL     1      -3.324  93.732  31.557  1.00  0.00    -0.504 OA
ATOM     18  H   UNL     1      -2.947  94.535  31.077  1.00  0.00     0.293 HD
ENDBRANCH  13  17
BRANCH  15  19
ATOM     19  O   UNL     1      -4.533  93.825  34.213  1.00  0.00    -0.502 OA
ATOM     20  H   UNL     1      -5.173  94.130  33.494  1.00  0.00     0.293 HD
ENDBRANCH  15  19
BRANCH  16  21
ATOM     21  O   UNL     1      -3.265  92.568  36.299  1.00  0.00    -0.504 OA
ATOM     22  H   UNL     1      -3.391  93.435  36.806  1.00  0.00     0.293 HD
ENDBRANCH  16  21
ENDBRANCH   1  11
BRANCH  10  23
ATOM     23  O   UNL     1      -0.672  89.219  32.361  1.00  0.00    -0.500 OA
ATOM     24  H   UNL     1      -1.154  88.525  32.920  1.00  0.00     0.294 HD
ENDBRANCH  10  23
BRANCH   5  25
ATOM     25  O   UNL     1       6.272  92.055  34.376  1.00  0.00    -0.507 OA
ATOM     26  H   UNL     1       7.209  91.744  34.149  1.00  0.00     0.293 HD
ENDBRANCH   5  25
BRANCH   7  27
ATOM     27  O   UNL     1       4.426  88.042  32.496  1.00  0.00    -0.507 OA
ATOM     28  H   UNL     1       4.916  87.853  31.634  1.00  0.00     0.293 HD
ENDBRANCH   7  27
TORSDOF 7
ENDMDL
MODEL 7
REMARK VINA RESULT:    -6.201      4.119      7.612
REMARK INTER + INTRA:          -7.960
REMARK INTER:                  -7.589
REMARK INTRA:                  -0.371
REMARK UNBOUND:                -0.309
REMARK SMILES Oc1cc(O)c2cc(O)c(-c3cc(O)c(O)c(O)c3)[o+]c2c1
REMARK SMILES IDX 10 1 20 2 21 3 22 4 2 5 3 6 4 7 6 8 7 9 8 10 11 11 12 12
REMARK SMILES IDX 13 13 19 14 15 15 17 16 14 17 16 19 18 21 9 23 1 25 5 27
REMARK H PARENT 14 18 16 20 18 22 9 24 1 26 5 28
REMARK Flexibility Score: inf
ROOT
ATOM      1  C   UNL     1       0.081  90.717  33.756  1.00  0.00     0.402 A 
ATOM      2  O   UNL     1      -0.732  91.711  34.104  1.00  0.00    -0.202 OA
ATOM      3  C   UNL     1      -1.997  91.791  33.707  1.00  0.00     0.368 A 
ATOM      4  C   UNL     1      -2.773  92.878  34.122  1.00  0.00     0.162 A 
ATOM      5  C   UNL     1      -4.106  92.988  33.717  1.00  0.00     0.128 A 
ATOM      6  C   UNL     1      -4.665  92.011  32.890  1.00  0.00     0.093 A 
ATOM      7  C   UNL     1      -3.909  90.913  32.460  1.00  0.00     0.136 A 
ATOM      8  C   UNL     1      -2.557  90.795  32.872  1.00  0.00     0.125 A 
ATOM      9  C   UNL     1      -1.728  89.724  32.499  1.00  0.00     0.078 A 
ATOM     10  C   UNL     1      -0.405  89.672  32.949  1.00  0.00     0.223 A 
ENDROOT
BRANCH   1  11
ATOM     11  C   UNL     1       1.475  90.744  34.256  1.00  0.00     0.091 A 
ATOM     12  C   UNL     1       2.475  91.475  33.595  1.00  0.00     0.068 A 
ATOM     13  C   UNL     1       3.784  91.513  34.089  1.00  0.00     0.162 A 
ATOM     14  C   UNL     1       1.794  90.075  35.446  1.00  0.00     0.068 A 
ATOM     15  C   UNL     1       4.104  90.812  35.277  1.00  0.00     0.200 A 
ATOM     16  C   UNL     1       3.100  90.101  35.950  1.00  0.00     0.162 A 
BRANCH  13  17
ATOM     17  O   UNL     1       4.727  92.260  33.378  1.00  0.00    -0.504 OA
ATOM     18  H   UNL     1       5.715  92.263  33.580  1.00  0.00     0.293 HD
ENDBRANCH  13  17
BRANCH  15  19
ATOM     19  O   UNL     1       5.391  90.800  35.818  1.00  0.00    -0.502 OA
ATOM     20  H   UNL     1       5.667  91.321  36.638  1.00  0.00     0.293 HD
ENDBRANCH  15  19
BRANCH  16  21
ATOM     21  O   UNL     1       3.411  89.418  37.125  1.00  0.00    -0.504 OA
ATOM     22  H   UNL     1       3.794  88.480  37.108  1.00  0.00     0.293 HD
ENDBRANCH  16  21
ENDBRANCH   1  11
BRANCH  10  23
ATOM     23  O   UNL     1       0.404  88.583  32.622  1.00  0.00    -0.500 OA
ATOM     24  H   UNL     1       0.576  87.831  33.279  1.00  0.00     0.294 HD
ENDBRANCH  10  23
BRANCH   5  25
ATOM     25  O   UNL     1      -4.885  94.068  34.128  1.00  0.00    -0.507 OA
ATOM     26  H   UNL     1      -5.524  94.532  33.494  1.00  0.00     0.293 HD
ENDBRANCH   5  25
BRANCH   7  27
ATOM     27  O   UNL     1      -4.541  89.981  31.633  1.00  0.00    -0.507 OA
ATOM     28  H   UNL     1      -5.304  89.386  31.922  1.00  0.00     0.293 HD
ENDBRANCH   7  27
TORSDOF 7
ENDMDL
MODEL 8
REMARK VINA RESULT:    -6.141      4.186      6.166
REMARK INTER + INTRA:          -7.886
REMARK INTER:                  -7.560
REMARK INTRA:                  -0.326
REMARK UNBOUND:                -0.309
REMARK SMILES Oc1cc(O)c2cc(O)c(-c3cc(O)c(O)c(O)c3)[o+]c2c1
REMARK SMILES IDX 10 1 20 2 21 3 22 4 2 5 3 6 4 7 6 8 7 9 8 10 11 11 12 12
REMARK SMILES IDX 13 13 19 14 15 15 17 16 14 17 16 19 18 21 9 23 1 25 5 27
REMARK H PARENT 14 18 16 20 18 22 9 24 1 26 5 28
REMARK Flexibility Score: inf
ROOT
ATOM      1  C   UNL     1      -0.166  91.772  33.745  1.00  0.00     0.402 A 
ATOM      2  O   UNL     1       0.284  90.822  34.562  1.00  0.00    -0.202 OA
ATOM      3  C   UNL     1       1.566  90.680  34.878  1.00  0.00     0.368 A 
ATOM      4  C   UNL     1       1.943  89.648  35.742  1.00  0.00     0.162 A 
ATOM      5  C   UNL     1       3.286  89.474  36.090  1.00  0.00     0.128 A 
ATOM      6  C   UNL     1       4.256  90.333  35.570  1.00  0.00     0.093 A 
ATOM      7  C   UNL     1       3.905  91.375  34.702  1.00  0.00     0.136 A 
ATOM      8  C   UNL     1       2.543  91.557  34.349  1.00  0.00     0.125 A 
ATOM      9  C   UNL     1       2.097  92.580  33.495  1.00  0.00     0.078 A 
ATOM     10  C   UNL     1       0.737  92.702  33.197  1.00  0.00     0.223 A 
ENDROOT
BRANCH   1  11
ATOM     11  C   UNL     1      -1.619  91.822  33.461  1.00  0.00     0.091 A 
ATOM     12  C   UNL     1      -2.227  90.900  32.595  1.00  0.00     0.068 A 
ATOM     13  C   UNL     1      -3.605  90.941  32.352  1.00  0.00     0.162 A 
ATOM     14  C   UNL     1      -2.417  92.772  34.115  1.00  0.00     0.068 A 
ATOM     15  C   UNL     1      -4.399  91.921  32.995  1.00  0.00     0.200 A 
ATOM     16  C   UNL     1      -3.796  92.827  33.878  1.00  0.00     0.162 A 
BRANCH  13  17
ATOM     17  O   UNL     1      -4.140  89.993  31.476  1.00  0.00    -0.504 OA
ATOM     18  H   UNL     1      -4.519  89.105  31.768  1.00  0.00     0.293 HD
ENDBRANCH  13  17
BRANCH  15  19
ATOM     19  O   UNL     1      -5.776  92.024  32.788  1.00  0.00    -0.502 OA
ATOM     20  H   UNL     1      -6.260  92.894  32.617  1.00  0.00     0.293 HD
ENDBRANCH  15  19
BRANCH  16  21
ATOM     21  O   UNL     1      -4.578  93.786  34.519  1.00  0.00    -0.504 OA
ATOM     22  H   UNL     1      -5.170  93.549  35.307  1.00  0.00     0.293 HD
ENDBRANCH  16  21
ENDBRANCH   1  11
BRANCH  10  23
ATOM     23  O   UNL     1       0.287  93.748  32.390  1.00  0.00    -0.500 OA
ATOM     24  H   UNL     1      -0.466  93.620  31.725  1.00  0.00     0.294 HD
ENDBRANCH  10  23
BRANCH   5  25
ATOM     25  O   UNL     1       3.668  88.448  36.952  1.00  0.00    -0.507 OA
ATOM     26  H   UNL     1       3.578  87.474  36.688  1.00  0.00     0.293 HD
ENDBRANCH   5  25
BRANCH   7  27
ATOM     27  O   UNL     1       4.935  92.188  34.222  1.00  0.00    -0.507 OA
ATOM     28  H   UNL     1       5.890  92.152  34.549  1.00  0.00     0.293 HD
ENDBRANCH   7  27
TORSDOF 7
ENDMDL
MODEL 9
REMARK VINA RESULT:    -6.078      3.147      5.016
REMARK INTER + INTRA:          -7.808
REMARK INTER:                  -7.823
REMARK INTRA:                   0.014
REMARK UNBOUND:                -0.309
REMARK SMILES Oc1cc(O)c2cc(O)c(-c3cc(O)c(O)c(O)c3)[o+]c2c1
REMARK SMILES IDX 10 1 20 2 21 3 22 4 2 5 3 6 4 7 6 8 7 9 8 10 11 11 12 12
REMARK SMILES IDX 13 13 19 14 15 15 17 16 14 17 16 19 18 21 9 23 1 25 5 27
REMARK H PARENT 14 18 16 20 18 22 9 24 1 26 5 28
REMARK Flexibility Score: inf
ROOT
ATOM      1  C   UNL     1      -1.580  90.923  32.852  1.00  0.00     0.402 A 
ATOM      2  O   UNL     1      -0.458  91.627  32.972  1.00  0.00    -0.202 OA
ATOM      3  C   UNL     1       0.744  91.072  33.079  1.00  0.00     0.368 A 
ATOM      4  C   UNL     1       1.866  91.896  33.205  1.00  0.00     0.162 A 
ATOM      5  C   UNL     1       3.142  91.337  33.321  1.00  0.00     0.128 A 
ATOM      6  C   UNL     1       3.297  89.949  33.317  1.00  0.00     0.093 A 
ATOM      7  C   UNL     1       2.189  89.101  33.193  1.00  0.00     0.136 A 
ATOM      8  C   UNL     1       0.892  89.664  33.070  1.00  0.00     0.125 A 
ATOM      9  C   UNL     1      -0.273  88.893  32.930  1.00  0.00     0.078 A 
ATOM     10  C   UNL     1      -1.518  89.518  32.808  1.00  0.00     0.223 A 
ENDROOT
BRANCH   1  11
ATOM     11  C   UNL     1      -2.862  91.659  32.750  1.00  0.00     0.091 A 
ATOM     12  C   UNL     1      -3.826  91.317  31.789  1.00  0.00     0.068 A 
ATOM     13  C   UNL     1      -5.044  92.004  31.716  1.00  0.00     0.162 A 
ATOM     14  C   UNL     1      -3.146  92.680  33.668  1.00  0.00     0.068 A 
ATOM     15  C   UNL     1      -5.312  93.051  32.629  1.00  0.00     0.200 A 
ATOM     16  C   UNL     1      -4.358  93.377  33.605  1.00  0.00     0.162 A 
BRANCH  13  17
ATOM     17  O   UNL     1      -5.955  91.610  30.732  1.00  0.00    -0.504 OA
ATOM     18  H   UNL     1      -6.778  91.055  30.913  1.00  0.00     0.293 HD
ENDBRANCH  13  17
BRANCH  15  19
ATOM     19  O   UNL     1      -6.501  93.783  32.605  1.00  0.00    -0.502 OA
ATOM     20  H   UNL     1      -6.753  94.479  33.292  1.00  0.00     0.293 HD
ENDBRANCH  15  19
BRANCH  16  21
ATOM     21  O   UNL     1      -4.624  94.402  34.511  1.00  0.00    -0.504 OA
ATOM     22  H   UNL     1      -4.423  94.303  35.499  1.00  0.00     0.293 HD
ENDBRANCH  16  21
ENDBRANCH   1  11
BRANCH  10  23
ATOM     23  O   UNL     1      -2.670  88.755  32.618  1.00  0.00    -0.500 OA
ATOM     24  H   UNL     1      -3.573  89.186  32.459  1.00  0.00     0.294 HD
ENDBRANCH  10  23
BRANCH   5  25
ATOM     25  O   UNL     1       4.264  92.153  33.446  1.00  0.00    -0.507 OA
ATOM     26  H   UNL     1       4.552  92.526  34.343  1.00  0.00     0.293 HD
ENDBRANCH   5  25
BRANCH   7  27
ATOM     27  O   UNL     1       2.428  87.725  33.200  1.00  0.00    -0.507 OA
ATOM     28  H   UNL     1       3.247  87.290  33.600  1.00  0.00     0.293 HD
ENDBRANCH   7  27
TORSDOF 7
ENDMDL
