MODEL 1
REMARK VINA RESULT:    -5.614      0.000      0.000
REMARK INTER + INTRA:         -16.433
REMARK INTER:                 -12.834
REMARK INTRA:                  -3.598
REMARK UNBOUND:                -3.598
REMARK SMILES CCCCCCCCCCCCCCCCCCCCCCCC(=O)[O-]
REMARK SMILES IDX 13 1 14 2 15 3 16 4 17 5 18 6 19 7 20 8 21 9 22 10 23 11
REMARK SMILES IDX 24 12 25 13 26 14 12 15 11 16 10 17 9 18 8 19 7 20 6 21 5 22
REMARK SMILES IDX 4 23 3 24 2 25 1 26
REMARK H PARENT
REMARK Flexibility Score: inf
ROOT
ATOM      1  C   UNL     1      10.951 -13.361  28.836  1.00  0.00     0.000 C 
ENDROOT
BRANCH   1   2
ATOM      2  C   UNL     1      11.999 -13.720  29.902  1.00  0.00     0.000 C 
BRANCH   2   3
ATOM      3  C   UNL     1      13.443 -13.580  29.390  1.00  0.00     0.000 C 
BRANCH   3   4
ATOM      4  C   UNL     1      13.530 -13.605  27.854  1.00  0.00     0.000 C 
BRANCH   4   5
ATOM      5  C   UNL     1      14.614 -14.565  27.338  1.00  0.00     0.000 C 
BRANCH   5   6
ATOM      6  C   UNL     1      14.353 -15.031  25.894  1.00  0.00     0.000 C 
BRANCH   6   7
ATOM      7  C   UNL     1      15.645 -15.143  25.067  1.00  0.00     0.000 C 
BRANCH   7   8
ATOM      8  C   UNL     1      16.596 -13.955  25.298  1.00  0.00     0.000 C 
BRANCH   8   9
ATOM      9  C   UNL     1      16.468 -12.877  24.209  1.00  0.00     0.000 C 
BRANCH   9  10
ATOM     10  C   UNL     1      16.434 -11.451  24.785  1.00  0.00     0.006 C 
BRANCH  10  11
ATOM     11  C   UNL     1      16.045 -11.436  26.269  1.00  0.00     0.053 C 
BRANCH  11  12
ATOM     12  C   UNL     1      17.120 -10.830  27.119  1.00  0.00     0.041 C 
ATOM     13  O   UNL     1      18.291 -11.296  27.088  1.00  0.00    -0.550 OA
ATOM     14  O   UNL     1      16.821  -9.777  27.974  1.00  0.00    -0.550 OA
ENDBRANCH  11  12
ENDBRANCH  10  11
ENDBRANCH   9  10
ENDBRANCH   8   9
ENDBRANCH   7   8
ENDBRANCH   6   7
ENDBRANCH   5   6
ENDBRANCH   4   5
ENDBRANCH   3   4
ENDBRANCH   2   3
ENDBRANCH   1   2
BRANCH   1  15
ATOM     15  C   UNL     1       9.619 -12.886  29.459  1.00  0.00     0.000 C 
BRANCH  15  16
ATOM     16  C   UNL     1       8.597 -12.381  28.423  1.00  0.00     0.000 C 
BRANCH  16  17
ATOM     17  C   UNL     1       8.185 -13.417  27.361  1.00  0.00     0.000 C 
BRANCH  17  18
ATOM     18  C   UNL     1       8.520 -13.034  25.904  1.00  0.00    -0.000 C 
BRANCH  18  19
ATOM     19  C   UNL     1       8.743 -11.532  25.656  1.00  0.00    -0.000 C 
BRANCH  19  20
ATOM     20  C   UNL     1      10.076 -11.231  24.956  1.00  0.00    -0.000 C 
BRANCH  20  21
ATOM     21  C   UNL     1      11.131 -12.284  25.315  1.00  0.00    -0.000 C 
BRANCH  21  22
ATOM     22  C   UNL     1      12.523 -11.858  24.831  1.00  0.00    -0.000 C 
BRANCH  22  23
ATOM     23  C   UNL     1      12.886 -12.560  23.512  1.00  0.00    -0.000 C 
BRANCH  23  24
ATOM     24  C   UNL     1      11.778 -13.525  23.042  1.00  0.00    -0.000 C 
BRANCH  24  25
ATOM     25  C   UNL     1      11.367 -13.323  21.573  1.00  0.00    -0.003 C 
ATOM     26  C   UNL     1      10.165 -12.396  21.410  1.00  0.00     0.004 C 
ENDBRANCH  24  25
ENDBRANCH  23  24
ENDBRANCH  22  23
ENDBRANCH  21  22
ENDBRANCH  20  21
ENDBRANCH  19  20
ENDBRANCH  18  19
ENDBRANCH  17  18
ENDBRANCH  16  17
ENDBRANCH  15  16
ENDBRANCH   1  15
TORSDOF 22
ENDMDL
MODEL 2
REMARK VINA RESULT:    -5.466      2.250      3.336
REMARK INTER + INTRA:         -16.095
REMARK INTER:                 -13.626
REMARK INTRA:                  -2.469
REMARK UNBOUND:                -3.598
REMARK SMILES CCCCCCCCCCCCCCCCCCCCCCCC(=O)[O-]
REMARK SMILES IDX 13 1 14 2 15 3 16 4 17 5 18 6 19 7 20 8 21 9 22 10 23 11
REMARK SMILES IDX 24 12 25 13 26 14 12 15 11 16 10 17 9 18 8 19 7 20 6 21 5 22
REMARK SMILES IDX 4 23 3 24 2 25 1 26
REMARK H PARENT
REMARK Flexibility Score: inf
ROOT
ATOM      1  C   UNL     1      10.797 -13.359  29.067  1.00  0.00     0.000 C 
ENDROOT
BRANCH   1   2
ATOM      2  C   UNL     1      11.848 -13.596  30.163  1.00  0.00     0.000 C 
BRANCH   2   3
ATOM      3  C   UNL     1      13.290 -13.532  29.631  1.00  0.00     0.000 C 
BRANCH   3   4
ATOM      4  C   UNL     1      13.361 -13.663  28.099  1.00  0.00     0.000 C 
BRANCH   4   5
ATOM      5  C   UNL     1      14.626 -13.022  27.507  1.00  0.00     0.000 C 
BRANCH   5   6
ATOM      6  C   UNL     1      15.919 -13.602  28.106  1.00  0.00     0.000 C 
BRANCH   6   7
ATOM      7  C   UNL     1      16.530 -14.709  27.230  1.00  0.00     0.000 C 
BRANCH   7   8
ATOM      8  C   UNL     1      15.939 -14.729  25.809  1.00  0.00     0.000 C 
BRANCH   8   9
ATOM      9  C   UNL     1      17.019 -14.632  24.719  1.00  0.00     0.000 C 
BRANCH   9  10
ATOM     10  C   UNL     1      17.907 -15.887  24.648  1.00  0.00     0.006 C 
BRANCH  10  11
ATOM     11  C   UNL     1      19.341 -15.557  24.216  1.00  0.00     0.053 C 
BRANCH  11  12
ATOM     12  C   UNL     1      19.388 -15.009  22.822  1.00  0.00     0.041 C 
ATOM     13  O   UNL     1      19.782 -13.830  22.616  1.00  0.00    -0.550 OA
ATOM     14  O   UNL     1      18.963 -15.788  21.753  1.00  0.00    -0.550 OA
ENDBRANCH  11  12
ENDBRANCH  10  11
ENDBRANCH   9  10
ENDBRANCH   8   9
ENDBRANCH   7   8
ENDBRANCH   6   7
ENDBRANCH   5   6
ENDBRANCH   4   5
ENDBRANCH   3   4
ENDBRANCH   2   3
ENDBRANCH   1   2
BRANCH   1  15
ATOM     15  C   UNL     1       9.458 -12.843  29.639  1.00  0.00     0.000 C 
BRANCH  15  16
ATOM     16  C   UNL     1       8.466 -12.365  28.561  1.00  0.00     0.000 C 
BRANCH  16  17
ATOM     17  C   UNL     1       8.164 -13.396  27.458  1.00  0.00     0.000 C 
BRANCH  17  18
ATOM     18  C   UNL     1       8.497 -12.938  26.022  1.00  0.00    -0.000 C 
BRANCH  18  19
ATOM     19  C   UNL     1       8.841 -11.445  25.873  1.00  0.00    -0.000 C 
BRANCH  19  20
ATOM     20  C   UNL     1       9.677 -11.145  24.620  1.00  0.00    -0.000 C 
BRANCH  20  21
ATOM     21  C   UNL     1       9.657 -12.334  23.653  1.00  0.00    -0.000 C 
BRANCH  21  22
ATOM     22  C   UNL     1      11.081 -12.770  23.284  1.00  0.00    -0.000 C 
BRANCH  22  23
ATOM     23  C   UNL     1      11.951 -12.928  24.542  1.00  0.00    -0.000 C 
BRANCH  23  24
ATOM     24  C   UNL     1      13.169 -11.980  24.531  1.00  0.00    -0.000 C 
BRANCH  24  25
ATOM     25  C   UNL     1      14.019 -12.085  23.253  1.00  0.00    -0.003 C 
ATOM     26  C   UNL     1      15.458 -11.615  23.451  1.00  0.00     0.004 C 
ENDBRANCH  24  25
ENDBRANCH  23  24
ENDBRANCH  22  23
ENDBRANCH  21  22
ENDBRANCH  20  21
ENDBRANCH  19  20
ENDBRANCH  18  19
ENDBRANCH  17  18
ENDBRANCH  16  17
ENDBRANCH  15  16
ENDBRANCH   1  15
TORSDOF 22
ENDMDL
MODEL 3
REMARK VINA RESULT:    -5.417      2.646      5.965
REMARK INTER + INTRA:         -15.983
REMARK INTER:                 -13.410
REMARK INTRA:                  -2.572
REMARK UNBOUND:                -3.598
REMARK SMILES CCCCCCCCCCCCCCCCCCCCCCCC(=O)[O-]
REMARK SMILES IDX 13 1 14 2 15 3 16 4 17 5 18 6 19 7 20 8 21 9 22 10 23 11
REMARK SMILES IDX 24 12 25 13 26 14 12 15 11 16 10 17 9 18 8 19 7 20 6 21 5 22
REMARK SMILES IDX 4 23 3 24 2 25 1 26
REMARK H PARENT
REMARK Flexibility Score: inf
ROOT
ATOM      1  C   UNL     1      10.568 -13.727  29.483  1.00  0.00     0.000 C 
ENDROOT
BRANCH   1   2
ATOM      2  C   UNL     1       9.603 -12.625  29.952  1.00  0.00     0.000 C 
BRANCH   2   3
ATOM      3  C   UNL     1       8.566 -12.244  28.881  1.00  0.00     0.000 C 
BRANCH   3   4
ATOM      4  C   UNL     1       8.255 -13.406  27.921  1.00  0.00     0.000 C 
BRANCH   4   5
ATOM      5  C   UNL     1       8.380 -13.003  26.443  1.00  0.00     0.000 C 
BRANCH   5   6
ATOM      6  C   UNL     1       9.567 -12.058  26.185  1.00  0.00     0.000 C 
BRANCH   6   7
ATOM      7  C   UNL     1       9.885 -11.905  24.688  1.00  0.00     0.000 C 
BRANCH   7   8
ATOM      8  C   UNL     1      10.984 -12.875  24.218  1.00  0.00     0.000 C 
BRANCH   8   9
ATOM      9  C   UNL     1      12.194 -12.900  25.167  1.00  0.00     0.000 C 
BRANCH   9  10
ATOM     10  C   UNL     1      13.176 -11.744  24.909  1.00  0.00     0.006 C 
BRANCH  10  11
ATOM     11  C   UNL     1      14.438 -12.211  24.172  1.00  0.00     0.053 C 
BRANCH  11  12
ATOM     12  C   UNL     1      14.325 -12.003  22.692  1.00  0.00     0.041 C 
ATOM     13  O   UNL     1      13.734 -12.854  21.975  1.00  0.00    -0.550 OA
ATOM     14  O   UNL     1      14.906 -10.889  22.099  1.00  0.00    -0.550 OA
ENDBRANCH  11  12
ENDBRANCH  10  11
ENDBRANCH   9  10
ENDBRANCH   8   9
ENDBRANCH   7   8
ENDBRANCH   6   7
ENDBRANCH   5   6
ENDBRANCH   4   5
ENDBRANCH   3   4
ENDBRANCH   2   3
ENDBRANCH   1   2
BRANCH   1  15
ATOM     15  C   UNL     1      12.035 -13.421  29.859  1.00  0.00     0.000 C 
BRANCH  15  16
ATOM     16  C   UNL     1      13.043 -13.756  28.743  1.00  0.00     0.000 C 
BRANCH  16  17
ATOM     17  C   UNL     1      14.442 -13.141  28.931  1.00  0.00     0.000 C 
BRANCH  17  18
ATOM     18  C   UNL     1      15.346 -13.171  27.679  1.00  0.00    -0.000 C 
BRANCH  18  19
ATOM     19  C   UNL     1      15.882 -14.561  27.291  1.00  0.00    -0.000 C 
BRANCH  19  20
ATOM     20  C   UNL     1      15.054 -15.234  26.187  1.00  0.00    -0.000 C 
BRANCH  20  21
ATOM     21  C   UNL     1      15.865 -15.353  24.892  1.00  0.00    -0.000 C 
BRANCH  21  22
ATOM     22  C   UNL     1      17.354 -15.569  25.190  1.00  0.00    -0.000 C 
BRANCH  22  23
ATOM     23  C   UNL     1      18.228 -15.043  24.040  1.00  0.00    -0.000 C 
BRANCH  23  24
ATOM     24  C   UNL     1      18.030 -15.851  22.741  1.00  0.00    -0.000 C 
BRANCH  24  25
ATOM     25  C   UNL     1      19.053 -16.985  22.559  1.00  0.00    -0.003 C 
ATOM     26  C   UNL     1      19.522 -17.143  21.115  1.00  0.00     0.004 C 
ENDBRANCH  24  25
ENDBRANCH  23  24
ENDBRANCH  22  23
ENDBRANCH  21  22
ENDBRANCH  20  21
ENDBRANCH  19  20
ENDBRANCH  18  19
ENDBRANCH  17  18
ENDBRANCH  16  17
ENDBRANCH  15  16
ENDBRANCH   1  15
TORSDOF 22
ENDMDL
MODEL 4
REMARK VINA RESULT:    -5.399      2.754      5.513
REMARK INTER + INTRA:         -15.941
REMARK INTER:                 -13.532
REMARK INTRA:                  -2.409
REMARK UNBOUND:                -3.598
REMARK SMILES CCCCCCCCCCCCCCCCCCCCCCCC(=O)[O-]
REMARK SMILES IDX 13 1 14 2 15 3 16 4 17 5 18 6 19 7 20 8 21 9 22 10 23 11
REMARK SMILES IDX 24 12 25 13 26 14 12 15 11 16 10 17 9 18 8 19 7 20 6 21 5 22
REMARK SMILES IDX 4 23 3 24 2 25 1 26
REMARK H PARENT
REMARK Flexibility Score: inf
ROOT
ATOM      1  C   UNL     1      11.630 -13.586  24.157  1.00  0.00     0.000 C 
ENDROOT
BRANCH   1   2
ATOM      2  C   UNL     1      12.203 -12.819  25.360  1.00  0.00     0.000 C 
BRANCH   2   3
ATOM      3  C   UNL     1      13.446 -11.986  24.999  1.00  0.00     0.000 C 
BRANCH   3   4
ATOM      4  C   UNL     1      14.735 -12.547  25.625  1.00  0.00     0.000 C 
BRANCH   4   5
ATOM      5  C   UNL     1      14.459 -13.650  26.660  1.00  0.00     0.000 C 
BRANCH   5   6
ATOM      6  C   UNL     1      14.799 -15.055  26.132  1.00  0.00     0.000 C 
BRANCH   6   7
ATOM      7  C   UNL     1      15.861 -15.027  25.020  1.00  0.00     0.000 C 
BRANCH   7   8
ATOM      8  C   UNL     1      17.293 -15.145  25.571  1.00  0.00     0.000 C 
BRANCH   8   9
ATOM      9  C   UNL     1      18.051 -16.351  24.991  1.00  0.00     0.000 C 
BRANCH   9  10
ATOM     10  C   UNL     1      19.072 -15.948  23.913  1.00  0.00     0.006 C 
BRANCH  10  11
ATOM     11  C   UNL     1      19.026 -16.880  22.696  1.00  0.00     0.053 C 
BRANCH  11  12
ATOM     12  C   UNL     1      17.978 -16.457  21.712  1.00  0.00     0.041 C 
ATOM     13  O   UNL     1      17.595 -17.251  20.811  1.00  0.00    -0.550 OA
ATOM     14  O   UNL     1      17.451 -15.173  21.766  1.00  0.00    -0.550 OA
ENDBRANCH  11  12
ENDBRANCH  10  11
ENDBRANCH   9  10
ENDBRANCH   8   9
ENDBRANCH   7   8
ENDBRANCH   6   7
ENDBRANCH   5   6
ENDBRANCH   4   5
ENDBRANCH   3   4
ENDBRANCH   2   3
ENDBRANCH   1   2
BRANCH   1  15
ATOM     15  C   UNL     1      11.251 -12.649  22.989  1.00  0.00     0.000 C 
BRANCH  15  16
ATOM     16  C   UNL     1       9.753 -12.293  22.941  1.00  0.00     0.000 C 
BRANCH  16  17
ATOM     17  C   UNL     1       9.344 -11.100  23.826  1.00  0.00     0.000 C 
BRANCH  17  18
ATOM     18  C   UNL     1       8.933 -11.463  25.269  1.00  0.00    -0.000 C 
BRANCH  18  19
ATOM     19  C   UNL     1       8.310 -12.860  25.441  1.00  0.00    -0.000 C 
BRANCH  19  20
ATOM     20  C   UNL     1       8.146 -13.265  26.913  1.00  0.00    -0.000 C 
BRANCH  20  21
ATOM     21  C   UNL     1       8.737 -12.199  27.842  1.00  0.00    -0.000 C 
BRANCH  21  22
ATOM     22  C   UNL     1       8.570 -12.595  29.315  1.00  0.00    -0.000 C 
BRANCH  22  23
ATOM     23  C   UNL     1       9.935 -12.840  29.977  1.00  0.00    -0.000 C 
BRANCH  23  24
ATOM     24  C   UNL     1      10.986 -13.360  28.973  1.00  0.00    -0.000 C 
BRANCH  24  25
ATOM     25  C   UNL     1      12.317 -13.765  29.629  1.00  0.00    -0.003 C 
ATOM     26  C   UNL     1      12.198 -13.996  31.133  1.00  0.00     0.004 C 
ENDBRANCH  24  25
ENDBRANCH  23  24
ENDBRANCH  22  23
ENDBRANCH  21  22
ENDBRANCH  20  21
ENDBRANCH  19  20
ENDBRANCH  18  19
ENDBRANCH  17  18
ENDBRANCH  16  17
ENDBRANCH  15  16
ENDBRANCH   1  15
TORSDOF 22
ENDMDL
MODEL 5
REMARK VINA RESULT:    -5.367      3.789      6.332
REMARK INTER + INTRA:         -15.867
REMARK INTER:                 -13.125
REMARK INTRA:                  -2.742
REMARK UNBOUND:                -3.598
REMARK SMILES CCCCCCCCCCCCCCCCCCCCCCCC(=O)[O-]
REMARK SMILES IDX 13 1 14 2 15 3 16 4 17 5 18 6 19 7 20 8 21 9 22 10 23 11
REMARK SMILES IDX 24 12 25 13 26 14 12 15 11 16 10 17 9 18 8 19 7 20 6 21 5 22
REMARK SMILES IDX 4 23 3 24 2 25 1 26
REMARK H PARENT
REMARK Flexibility Score: inf
ROOT
ATOM      1  C   UNL     1      14.621 -15.725  25.108  1.00  0.00     0.000 C 
ENDROOT
BRANCH   1   2
ATOM      2  C   UNL     1      15.402 -14.799  24.161  1.00  0.00     0.000 C 
BRANCH   2   3
ATOM      3  C   UNL     1      16.607 -15.495  23.505  1.00  0.00     0.000 C 
BRANCH   3   4
ATOM      4  C   UNL     1      17.907 -15.305  24.307  1.00  0.00     0.000 C 
BRANCH   4   5
ATOM      5  C   UNL     1      19.161 -15.682  23.501  1.00  0.00     0.000 C 
BRANCH   5   6
ATOM      6  C   UNL     1      19.104 -17.121  22.958  1.00  0.00     0.000 C 
BRANCH   6   7
ATOM      7  C   UNL     1      19.425 -17.197  21.456  1.00  0.00     0.000 C 
BRANCH   7   8
ATOM      8  C   UNL     1      18.369 -17.991  20.667  1.00  0.00     0.000 C 
BRANCH   8   9
ATOM      9  C   UNL     1      17.159 -17.130  20.269  1.00  0.00     0.000 C 
BRANCH   9  10
ATOM     10  C   UNL     1      17.555 -15.901  19.431  1.00  0.00     0.006 C 
BRANCH  10  11
ATOM     11  C   UNL     1      17.096 -14.588  20.078  1.00  0.00     0.053 C 
BRANCH  11  12
ATOM     12  C   UNL     1      15.628 -14.356  19.884  1.00  0.00     0.041 C 
ATOM     13  O   UNL     1      14.954 -13.779  20.778  1.00  0.00    -0.550 OA
ATOM     14  O   UNL     1      14.999 -14.811  18.732  1.00  0.00    -0.550 OA
ENDBRANCH  11  12
ENDBRANCH  10  11
ENDBRANCH   9  10
ENDBRANCH   8   9
ENDBRANCH   7   8
ENDBRANCH   6   7
ENDBRANCH   5   6
ENDBRANCH   4   5
ENDBRANCH   3   4
ENDBRANCH   2   3
ENDBRANCH   1   2
BRANCH   1  15
ATOM     15  C   UNL     1      14.728 -15.281  26.584  1.00  0.00     0.000 C 
BRANCH  15  16
ATOM     16  C   UNL     1      15.294 -13.859  26.763  1.00  0.00     0.000 C 
BRANCH  16  17
ATOM     17  C   UNL     1      14.234 -12.764  26.980  1.00  0.00     0.000 C 
BRANCH  17  18
ATOM     18  C   UNL     1      13.982 -11.843  25.767  1.00  0.00    -0.000 C 
BRANCH  18  19
ATOM     19  C   UNL     1      12.868 -12.307  24.812  1.00  0.00    -0.000 C 
BRANCH  19  20
ATOM     20  C   UNL     1      11.530 -12.549  25.526  1.00  0.00    -0.000 C 
BRANCH  20  21
ATOM     21  C   UNL     1      10.395 -11.790  24.830  1.00  0.00    -0.000 C 
BRANCH  21  22
ATOM     22  C   UNL     1       9.191 -11.618  25.764  1.00  0.00    -0.000 C 
BRANCH  22  23
ATOM     23  C   UNL     1       8.460 -12.954  25.972  1.00  0.00    -0.000 C 
BRANCH  23  24
ATOM     24  C   UNL     1       8.244 -13.275  27.465  1.00  0.00    -0.000 C 
BRANCH  24  25
ATOM     25  C   UNL     1       9.069 -12.387  28.412  1.00  0.00    -0.003 C 
ATOM     26  C   UNL     1      10.190 -13.146  29.119  1.00  0.00     0.004 C 
ENDBRANCH  24  25
ENDBRANCH  23  24
ENDBRANCH  22  23
ENDBRANCH  21  22
ENDBRANCH  20  21
ENDBRANCH  19  20
ENDBRANCH  18  19
ENDBRANCH  17  18
ENDBRANCH  16  17
ENDBRANCH  15  16
ENDBRANCH   1  15
TORSDOF 22
ENDMDL
MODEL 6
REMARK VINA RESULT:    -5.331      1.914      3.231
REMARK INTER + INTRA:         -15.786
REMARK INTER:                 -12.946
REMARK INTRA:                  -2.839
REMARK UNBOUND:                -3.598
REMARK SMILES CCCCCCCCCCCCCCCCCCCCCCCC(=O)[O-]
REMARK SMILES IDX 13 1 14 2 15 3 16 4 17 5 18 6 19 7 20 8 21 9 22 10 23 11
REMARK SMILES IDX 24 12 25 13 26 14 12 15 11 16 10 17 9 18 8 19 7 20 6 21 5 22
REMARK SMILES IDX 4 23 3 24 2 25 1 26
REMARK H PARENT
REMARK Flexibility Score: inf
ROOT
ATOM      1  C   UNL     1      12.288 -13.729  29.712  1.00  0.00     0.000 C 
ENDROOT
BRANCH   1   2
ATOM      2  C   UNL     1      13.641 -13.415  29.052  1.00  0.00     0.000 C 
BRANCH   2   3
ATOM      3  C   UNL     1      13.724 -13.908  27.597  1.00  0.00     0.000 C 
BRANCH   3   4
ATOM      4  C   UNL     1      15.084 -14.549  27.267  1.00  0.00     0.000 C 
BRANCH   4   5
ATOM      5  C   UNL     1      16.266 -13.781  27.880  1.00  0.00     0.000 C 
BRANCH   5   6
ATOM      6  C   UNL     1      17.161 -13.124  26.814  1.00  0.00     0.000 C 
BRANCH   6   7
ATOM      7  C   UNL     1      16.573 -11.807  26.280  1.00  0.00     0.000 C 
BRANCH   7   8
ATOM      8  C   UNL     1      15.910 -10.967  27.385  1.00  0.00     0.000 C 
BRANCH   8   9
ATOM      9  C   UNL     1      16.936 -10.319  28.330  1.00  0.00     0.000 C 
BRANCH   9  10
ATOM     10  C   UNL     1      16.491 -10.350  29.803  1.00  0.00     0.006 C 
BRANCH  10  11
ATOM     11  C   UNL     1      16.251  -8.943  30.364  1.00  0.00     0.053 C 
BRANCH  11  12
ATOM     12  C   UNL     1      17.504  -8.351  30.935  1.00  0.00     0.041 C 
ATOM     13  O   UNL     1      17.634  -7.101  31.019  1.00  0.00    -0.550 OA
ATOM     14  O   UNL     1      18.543  -9.180  31.340  1.00  0.00    -0.550 OA
ENDBRANCH  11  12
ENDBRANCH  10  11
ENDBRANCH   9  10
ENDBRANCH   8   9
ENDBRANCH   7   8
ENDBRANCH   6   7
ENDBRANCH   5   6
ENDBRANCH   4   5
ENDBRANCH   3   4
ENDBRANCH   2   3
ENDBRANCH   1   2
BRANCH   1  15
ATOM     15  C   UNL     1      11.094 -13.391  28.791  1.00  0.00     0.000 C 
BRANCH  15  16
ATOM     16  C   UNL     1       9.855 -12.876  29.548  1.00  0.00     0.000 C 
BRANCH  16  17
ATOM     17  C   UNL     1       8.716 -12.362  28.649  1.00  0.00     0.000 C 
BRANCH  17  18
ATOM     18  C   UNL     1       8.172 -13.385  27.629  1.00  0.00    -0.000 C 
BRANCH  18  19
ATOM     19  C   UNL     1       8.232 -12.938  26.157  1.00  0.00    -0.000 C 
BRANCH  19  20
ATOM     20  C   UNL     1       9.011 -11.630  25.960  1.00  0.00    -0.000 C 
BRANCH  20  21
ATOM     21  C   UNL     1       9.380 -11.431  24.485  1.00  0.00    -0.000 C 
BRANCH  21  22
ATOM     22  C   UNL     1      10.481 -12.407  24.054  1.00  0.00    -0.000 C 
BRANCH  22  23
ATOM     23  C   UNL     1      11.549 -12.551  25.151  1.00  0.00    -0.000 C 
BRANCH  23  24
ATOM     24  C   UNL     1      12.847 -11.793  24.803  1.00  0.00    -0.000 C 
BRANCH  24  25
ATOM     25  C   UNL     1      13.846 -12.626  23.981  1.00  0.00    -0.003 C 
ATOM     26  C   UNL     1      14.573 -11.809  22.916  1.00  0.00     0.004 C 
ENDBRANCH  24  25
ENDBRANCH  23  24
ENDBRANCH  22  23
ENDBRANCH  21  22
ENDBRANCH  20  21
ENDBRANCH  19  20
ENDBRANCH  18  19
ENDBRANCH  17  18
ENDBRANCH  16  17
ENDBRANCH  15  16
ENDBRANCH   1  15
TORSDOF 22
ENDMDL
MODEL 7
REMARK VINA RESULT:    -5.230      1.807      2.962
REMARK INTER + INTRA:         -15.555
REMARK INTER:                 -12.747
REMARK INTRA:                  -2.808
REMARK UNBOUND:                -3.598
REMARK SMILES CCCCCCCCCCCCCCCCCCCCCCCC(=O)[O-]
REMARK SMILES IDX 13 1 14 2 15 3 16 4 17 5 18 6 19 7 20 8 21 9 22 10 23 11
REMARK SMILES IDX 24 12 25 13 26 14 12 15 11 16 10 17 9 18 8 19 7 20 6 21 5 22
REMARK SMILES IDX 4 23 3 24 2 25 1 26
REMARK H PARENT
REMARK Flexibility Score: inf
ROOT
ATOM      1  C   UNL     1      10.819 -13.686  29.272  1.00  0.00     0.000 C 
ENDROOT
BRANCH   1   2
ATOM      2  C   UNL     1      11.988 -13.693  30.271  1.00  0.00     0.000 C 
BRANCH   2   3
ATOM      3  C   UNL     1      13.337 -13.352  29.614  1.00  0.00     0.000 C 
BRANCH   3   4
ATOM      4  C   UNL     1      13.398 -13.778  28.136  1.00  0.00     0.000 C 
BRANCH   4   5
ATOM      5  C   UNL     1      14.838 -13.961  27.631  1.00  0.00     0.000 C 
BRANCH   5   6
ATOM      6  C   UNL     1      15.814 -12.941  28.244  1.00  0.00     0.000 C 
BRANCH   6   7
ATOM      7  C   UNL     1      15.936 -11.661  27.401  1.00  0.00     0.000 C 
BRANCH   7   8
ATOM      8  C   UNL     1      17.400 -11.273  27.128  1.00  0.00     0.000 C 
BRANCH   8   9
ATOM      9  C   UNL     1      17.720  -9.833  27.564  1.00  0.00     0.000 C 
BRANCH   9  10
ATOM     10  C   UNL     1      19.082  -9.714  28.269  1.00  0.00     0.006 C 
BRANCH  10  11
ATOM     11  C   UNL     1      18.934  -9.530  29.785  1.00  0.00     0.053 C 
BRANCH  11  12
ATOM     12  C   UNL     1      19.145 -10.817  30.524  1.00  0.00     0.041 C 
ATOM     13  O   UNL     1      20.283 -11.107  30.980  1.00  0.00    -0.550 OA
ATOM     14  O   UNL     1      18.094 -11.712  30.676  1.00  0.00    -0.550 OA
ENDBRANCH  11  12
ENDBRANCH  10  11
ENDBRANCH   9  10
ENDBRANCH   8   9
ENDBRANCH   7   8
ENDBRANCH   6   7
ENDBRANCH   5   6
ENDBRANCH   4   5
ENDBRANCH   3   4
ENDBRANCH   2   3
ENDBRANCH   1   2
BRANCH   1  15
ATOM     15  C   UNL     1       9.698 -12.708  29.688  1.00  0.00     0.000 C 
BRANCH  15  16
ATOM     16  C   UNL     1       8.809 -12.250  28.515  1.00  0.00     0.000 C 
BRANCH  16  17
ATOM     17  C   UNL     1       8.417 -13.365  27.527  1.00  0.00     0.000 C 
BRANCH  17  18
ATOM     18  C   UNL     1       8.200 -12.904  26.070  1.00  0.00    -0.000 C 
BRANCH  18  19
ATOM     19  C   UNL     1       9.102 -11.746  25.607  1.00  0.00    -0.000 C 
BRANCH  19  20
ATOM     20  C   UNL     1       9.589 -11.908  24.160  1.00  0.00    -0.000 C 
BRANCH  20  21
ATOM     21  C   UNL     1      10.946 -12.620  24.116  1.00  0.00    -0.000 C 
BRANCH  21  22
ATOM     22  C   UNL     1      11.746 -12.364  25.400  1.00  0.00    -0.000 C 
BRANCH  22  23
ATOM     23  C   UNL     1      13.114 -11.741  25.081  1.00  0.00    -0.000 C 
BRANCH  23  24
ATOM     24  C   UNL     1      13.659 -12.200  23.712  1.00  0.00    -0.000 C 
BRANCH  24  25
ATOM     25  C   UNL     1      15.156 -12.551  23.731  1.00  0.00    -0.003 C 
ATOM     26  C   UNL     1      15.420 -14.039  23.949  1.00  0.00     0.004 C 
ENDBRANCH  24  25
ENDBRANCH  23  24
ENDBRANCH  22  23
ENDBRANCH  21  22
ENDBRANCH  20  21
ENDBRANCH  19  20
ENDBRANCH  18  19
ENDBRANCH  17  18
ENDBRANCH  16  17
ENDBRANCH  15  16
ENDBRANCH   1  15
TORSDOF 22
ENDMDL
MODEL 8
REMARK VINA RESULT:    -5.221      2.100      3.199
REMARK INTER + INTRA:         -15.534
REMARK INTER:                 -12.636
REMARK INTRA:                  -2.897
REMARK UNBOUND:                -3.598
REMARK SMILES CCCCCCCCCCCCCCCCCCCCCCCC(=O)[O-]
REMARK SMILES IDX 13 1 14 2 15 3 16 4 17 5 18 6 19 7 20 8 21 9 22 10 23 11
REMARK SMILES IDX 24 12 25 13 26 14 12 15 11 16 10 17 9 18 8 19 7 20 6 21 5 22
REMARK SMILES IDX 4 23 3 24 2 25 1 26
REMARK H PARENT
REMARK Flexibility Score: inf
ROOT
ATOM      1  C   UNL     1      11.780 -13.752  30.268  1.00  0.00     0.000 C 
ENDROOT
BRANCH   1   2
ATOM      2  C   UNL     1      13.170 -13.392  29.717  1.00  0.00     0.000 C 
BRANCH   2   3
ATOM      3  C   UNL     1      13.356 -13.812  28.249  1.00  0.00     0.000 C 
BRANCH   3   4
ATOM      4  C   UNL     1      14.742 -13.431  27.697  1.00  0.00     0.000 C 
BRANCH   4   5
ATOM      5  C   UNL     1      15.464 -12.395  28.573  1.00  0.00     0.000 C 
BRANCH   5   6
ATOM      6  C   UNL     1      16.099 -11.262  27.749  1.00  0.00     0.000 C 
BRANCH   6   7
ATOM      7  C   UNL     1      16.620 -11.745  26.385  1.00  0.00     0.000 C 
BRANCH   7   8
ATOM      8  C   UNL     1      18.040 -12.331  26.472  1.00  0.00     0.000 C 
BRANCH   8   9
ATOM      9  C   UNL     1      18.816 -12.197  25.150  1.00  0.00     0.000 C 
BRANCH   9  10
ATOM     10  C   UNL     1      19.105 -13.556  24.490  1.00  0.00     0.006 C 
BRANCH  10  11
ATOM     11  C   UNL     1      17.841 -14.194  23.900  1.00  0.00     0.053 C 
BRANCH  11  12
ATOM     12  C   UNL     1      17.431 -15.419  24.660  1.00  0.00     0.041 C 
ATOM     13  O   UNL     1      16.319 -15.457  25.251  1.00  0.00    -0.550 OA
ATOM     14  O   UNL     1      18.292 -16.506  24.746  1.00  0.00    -0.550 OA
ENDBRANCH  11  12
ENDBRANCH  10  11
ENDBRANCH   9  10
ENDBRANCH   8   9
ENDBRANCH   7   8
ENDBRANCH   6   7
ENDBRANCH   5   6
ENDBRANCH   4   5
ENDBRANCH   3   4
ENDBRANCH   2   3
ENDBRANCH   1   2
BRANCH   1  15
ATOM     15  C   UNL     1      10.671 -13.613  29.201  1.00  0.00     0.000 C 
BRANCH  15  16
ATOM     16  C   UNL     1       9.527 -12.669  29.617  1.00  0.00     0.000 C 
BRANCH  16  17
ATOM     17  C   UNL     1       8.600 -12.231  28.468  1.00  0.00     0.000 C 
BRANCH  17  18
ATOM     18  C   UNL     1       8.212 -13.347  27.474  1.00  0.00    -0.000 C 
BRANCH  18  19
ATOM     19  C   UNL     1       8.562 -13.065  26.003  1.00  0.00    -0.000 C 
BRANCH  19  20
ATOM     20  C   UNL     1       8.961 -11.604  25.751  1.00  0.00    -0.000 C 
BRANCH  20  21
ATOM     21  C   UNL     1      10.222 -11.524  24.883  1.00  0.00    -0.000 C 
BRANCH  21  22
ATOM     22  C   UNL     1      11.341 -12.406  25.453  1.00  0.00    -0.000 C 
BRANCH  22  23
ATOM     23  C   UNL     1      12.149 -13.067  24.324  1.00  0.00    -0.000 C 
BRANCH  23  24
ATOM     24  C   UNL     1      13.657 -12.758  24.428  1.00  0.00    -0.000 C 
BRANCH  24  25
ATOM     25  C   UNL     1      14.377 -12.737  23.069  1.00  0.00    -0.003 C 
ATOM     26  C   UNL     1      15.308 -11.539  22.903  1.00  0.00     0.004 C 
ENDBRANCH  24  25
ENDBRANCH  23  24
ENDBRANCH  22  23
ENDBRANCH  21  22
ENDBRANCH  20  21
ENDBRANCH  19  20
ENDBRANCH  18  19
ENDBRANCH  17  18
ENDBRANCH  16  17
ENDBRANCH  15  16
ENDBRANCH   1  15
TORSDOF 22
ENDMDL
MODEL 9
REMARK VINA RESULT:    -5.209      2.615      7.742
REMARK INTER + INTRA:         -15.506
REMARK INTER:                 -12.915
REMARK INTRA:                  -2.592
REMARK UNBOUND:                -3.598
REMARK SMILES CCCCCCCCCCCCCCCCCCCCCCCC(=O)[O-]
REMARK SMILES IDX 13 1 14 2 15 3 16 4 17 5 18 6 19 7 20 8 21 9 22 10 23 11
REMARK SMILES IDX 24 12 25 13 26 14 12 15 11 16 10 17 9 18 8 19 7 20 6 21 5 22
REMARK SMILES IDX 4 23 3 24 2 25 1 26
REMARK H PARENT
REMARK Flexibility Score: inf
ROOT
ATOM      1  C   UNL     1      14.636 -13.120  23.730  1.00  0.00     0.000 C 
ENDROOT
BRANCH   1   2
ATOM      2  C   UNL     1      14.180 -11.885  24.523  1.00  0.00     0.000 C 
BRANCH   2   3
ATOM      3  C   UNL     1      12.683 -11.921  24.875  1.00  0.00     0.000 C 
BRANCH   3   4
ATOM      4  C   UNL     1      11.994 -13.210  24.393  1.00  0.00     0.000 C 
BRANCH   4   5
ATOM      5  C   UNL     1      10.490 -13.018  24.137  1.00  0.00     0.000 C 
BRANCH   5   6
ATOM      6  C   UNL     1      10.010 -11.595  24.472  1.00  0.00     0.000 C 
BRANCH   6   7
ATOM      7  C   UNL     1       8.872 -11.584  25.506  1.00  0.00     0.000 C 
BRANCH   7   8
ATOM      8  C   UNL     1       9.274 -12.259  26.830  1.00  0.00     0.000 C 
BRANCH   8   9
ATOM      9  C   UNL     1       8.243 -13.301  27.296  1.00  0.00     0.000 C 
BRANCH   9  10
ATOM     10  C   UNL     1       8.175 -13.425  28.828  1.00  0.00     0.006 C 
BRANCH  10  11
ATOM     11  C   UNL     1       9.038 -12.370  29.533  1.00  0.00     0.053 C 
BRANCH  11  12
ATOM     12  C   UNL     1      10.242 -12.981  30.183  1.00  0.00     0.041 C 
ATOM     13  O   UNL     1      10.913 -13.859  29.577  1.00  0.00    -0.550 OA
ATOM     14  O   UNL     1      10.603 -12.608  31.471  1.00  0.00    -0.550 OA
ENDBRANCH  11  12
ENDBRANCH  10  11
ENDBRANCH   9  10
ENDBRANCH   8   9
ENDBRANCH   7   8
ENDBRANCH   6   7
ENDBRANCH   5   6
ENDBRANCH   4   5
ENDBRANCH   3   4
ENDBRANCH   2   3
ENDBRANCH   1   2
BRANCH   1  15
ATOM     15  C   UNL     1      15.926 -13.745  24.305  1.00  0.00     0.000 C 
BRANCH  15  16
ATOM     16  C   UNL     1      15.737 -15.179  24.836  1.00  0.00     0.000 C 
BRANCH  16  17
ATOM     17  C   UNL     1      14.701 -15.319  25.966  1.00  0.00     0.000 C 
BRANCH  17  18
ATOM     18  C   UNL     1      14.908 -14.372  27.168  1.00  0.00    -0.000 C 
BRANCH  18  19
ATOM     19  C   UNL     1      16.367 -14.203  27.626  1.00  0.00    -0.000 C 
BRANCH  19  20
ATOM     20  C   UNL     1      16.536 -13.117  28.698  1.00  0.00    -0.000 C 
BRANCH  20  21
ATOM     21  C   UNL     1      15.860 -11.811  28.265  1.00  0.00    -0.000 C 
BRANCH  21  22
ATOM     22  C   UNL     1      16.755 -11.019  27.303  1.00  0.00    -0.000 C 
BRANCH  22  23
ATOM     23  C   UNL     1      17.149  -9.663  27.910  1.00  0.00    -0.000 C 
BRANCH  23  24
ATOM     24  C   UNL     1      18.669  -9.409  27.832  1.00  0.00    -0.000 C 
BRANCH  24  25
ATOM     25  C   UNL     1      19.417  -9.749  29.133  1.00  0.00    -0.003 C 
ATOM     26  C   UNL     1      20.515 -10.792  28.937  1.00  0.00     0.004 C 
ENDBRANCH  24  25
ENDBRANCH  23  24
ENDBRANCH  22  23
ENDBRANCH  21  22
ENDBRANCH  20  21
ENDBRANCH  19  20
ENDBRANCH  18  19
ENDBRANCH  17  18
ENDBRANCH  16  17
ENDBRANCH  15  16
ENDBRANCH   1  15
TORSDOF 22
ENDMDL
