MODEL 1
REMARK VINA RESULT:    -7.060      0.000      0.000
REMARK INTER + INTRA:         -14.569
REMARK INTER:                 -13.664
REMARK INTRA:                  -0.904
REMARK UNBOUND:                -0.904
REMARK SMILES CCCCCCCCCCCCCCCCCC(=O)[O-]
REMARK SMILES IDX 10 1 11 2 12 3 13 4 14 5 15 6 16 7 17 8 18 9 19 10 20 11
REMARK SMILES IDX 9 12 8 13 7 14 6 15 5 16 4 17 3 18 2 19 1 20
REMARK H PARENT
REMARK Flexibility Score: inf
ROOT
ATOM      1  C   UNL     1     -23.358 -23.191  31.767  1.00  0.00     0.000 C 
ENDROOT
BRANCH   1   2
ATOM      2  C   UNL     1     -22.358 -22.355  30.946  1.00  0.00     0.000 C 
BRANCH   2   3
ATOM      3  C   UNL     1     -21.287 -21.624  31.777  1.00  0.00     0.000 C 
BRANCH   3   4
ATOM      4  C   UNL     1     -20.929 -20.243  31.211  1.00  0.00     0.000 C 
BRANCH   4   5
ATOM      5  C   UNL     1     -21.795 -19.913  29.986  1.00  0.00     0.000 C 
BRANCH   5   6
ATOM      6  C   UNL     1     -20.971 -19.425  28.782  1.00  0.00     0.000 C 
BRANCH   6   7
ATOM      7  C   UNL     1     -20.532 -17.949  28.842  1.00  0.00     0.006 C 
BRANCH   7   8
ATOM      8  C   UNL     1     -19.030 -17.752  29.123  1.00  0.00     0.053 C 
BRANCH   8   9
ATOM      9  C   UNL     1     -18.779 -17.003  30.398  1.00  0.00     0.041 C 
ATOM     10  O   UNL     1     -18.093 -15.947  30.388  1.00  0.00    -0.550 OA
ATOM     11  O   UNL     1     -19.269 -17.492  31.602  1.00  0.00    -0.550 OA
ENDBRANCH   8   9
ENDBRANCH   7   8
ENDBRANCH   6   7
ENDBRANCH   5   6
ENDBRANCH   4   5
ENDBRANCH   3   4
ENDBRANCH   2   3
ENDBRANCH   1   2
BRANCH   1  12
ATOM     12  C   UNL     1     -23.474 -24.640  31.272  1.00  0.00     0.000 C 
BRANCH  12  13
ATOM     13  C   UNL     1     -22.827 -24.802  29.891  1.00  0.00    -0.000 C 
BRANCH  13  14
ATOM     14  C   UNL     1     -23.793 -25.471  28.906  1.00  0.00    -0.000 C 
BRANCH  14  15
ATOM     15  C   UNL     1     -25.150 -25.749  29.570  1.00  0.00    -0.000 C 
BRANCH  15  16
ATOM     16  C   UNL     1     -25.675 -27.163  29.276  1.00  0.00    -0.000 C 
BRANCH  16  17
ATOM     17  C   UNL     1     -25.399 -27.610  27.829  1.00  0.00    -0.000 C 
BRANCH  17  18
ATOM     18  C   UNL     1     -26.603 -28.351  27.210  1.00  0.00    -0.000 C 
BRANCH  18  19
ATOM     19  C   UNL     1     -26.437 -28.650  25.710  1.00  0.00    -0.003 C 
ATOM     20  C   UNL     1     -27.741 -29.070  25.036  1.00  0.00     0.004 C 
ENDBRANCH  18  19
ENDBRANCH  17  18
ENDBRANCH  16  17
ENDBRANCH  15  16
ENDBRANCH  14  15
ENDBRANCH  13  14
ENDBRANCH  12  13
ENDBRANCH   1  12
TORSDOF 16
ENDMDL
MODEL 2
REMARK VINA RESULT:    -7.034      1.249      1.667
REMARK INTER + INTRA:         -14.518
REMARK INTER:                 -13.723
REMARK INTRA:                  -0.795
REMARK UNBOUND:                -0.904
REMARK SMILES CCCCCCCCCCCCCCCCCC(=O)[O-]
REMARK SMILES IDX 10 1 11 2 12 3 13 4 14 5 15 6 16 7 17 8 18 9 19 10 20 11
REMARK SMILES IDX 9 12 8 13 7 14 6 15 5 16 4 17 3 18 2 19 1 20
REMARK H PARENT
REMARK Flexibility Score: inf
ROOT
ATOM      1  C   UNL     1     -22.011 -23.555  30.519  1.00  0.00     0.000 C 
ENDROOT
BRANCH   1   2
ATOM      2  C   UNL     1     -22.453 -22.299  31.292  1.00  0.00     0.000 C 
BRANCH   2   3
ATOM      3  C   UNL     1     -22.137 -20.963  30.596  1.00  0.00     0.000 C 
BRANCH   3   4
ATOM      4  C   UNL     1     -21.948 -21.107  29.079  1.00  0.00     0.000 C 
BRANCH   4   5
ATOM      5  C   UNL     1     -21.376 -19.816  28.474  1.00  0.00     0.000 C 
BRANCH   5   6
ATOM      6  C   UNL     1     -20.736 -18.893  29.525  1.00  0.00     0.000 C 
BRANCH   6   7
ATOM      7  C   UNL     1     -20.143 -17.581  28.974  1.00  0.00     0.006 C 
BRANCH   7   8
ATOM      8  C   UNL     1     -18.644 -17.665  28.633  1.00  0.00     0.053 C 
BRANCH   8   9
ATOM      9  C   UNL     1     -18.043 -16.319  28.355  1.00  0.00     0.041 C 
ATOM     10  O   UNL     1     -17.728 -15.557  29.307  1.00  0.00    -0.550 OA
ATOM     11  O   UNL     1     -17.869 -15.890  27.046  1.00  0.00    -0.550 OA
ENDBRANCH   8   9
ENDBRANCH   7   8
ENDBRANCH   6   7
ENDBRANCH   5   6
ENDBRANCH   4   5
ENDBRANCH   3   4
ENDBRANCH   2   3
ENDBRANCH   1   2
BRANCH   1  12
ATOM     12  C   UNL     1     -23.142 -24.579  30.343  1.00  0.00     0.000 C 
BRANCH  12  13
ATOM     13  C   UNL     1     -23.242 -25.042  28.884  1.00  0.00    -0.000 C 
BRANCH  13  14
ATOM     14  C   UNL     1     -23.876 -26.435  28.791  1.00  0.00    -0.000 C 
BRANCH  14  15
ATOM     15  C   UNL     1     -25.397 -26.361  28.992  1.00  0.00    -0.000 C 
BRANCH  15  16
ATOM     16  C   UNL     1     -25.989 -27.677  29.521  1.00  0.00    -0.000 C 
BRANCH  16  17
ATOM     17  C   UNL     1     -26.394 -28.642  28.392  1.00  0.00    -0.000 C 
BRANCH  17  18
ATOM     18  C   UNL     1     -26.710 -27.899  27.077  1.00  0.00    -0.000 C 
BRANCH  18  19
ATOM     19  C   UNL     1     -26.541 -28.771  25.821  1.00  0.00    -0.003 C 
ATOM     20  C   UNL     1     -27.803 -28.836  24.963  1.00  0.00     0.004 C 
ENDBRANCH  18  19
ENDBRANCH  17  18
ENDBRANCH  16  17
ENDBRANCH  15  16
ENDBRANCH  14  15
ENDBRANCH  13  14
ENDBRANCH  12  13
ENDBRANCH   1  12
TORSDOF 16
ENDMDL
MODEL 3
REMARK VINA RESULT:    -7.020      2.393      3.694
REMARK INTER + INTRA:         -14.491
REMARK INTER:                 -13.745
REMARK INTRA:                  -0.746
REMARK UNBOUND:                -0.904
REMARK SMILES CCCCCCCCCCCCCCCCCC(=O)[O-]
REMARK SMILES IDX 10 1 11 2 12 3 13 4 14 5 15 6 16 7 17 8 18 9 19 10 20 11
REMARK SMILES IDX 9 12 8 13 7 14 6 15 5 16 4 17 3 18 2 19 1 20
REMARK H PARENT
REMARK Flexibility Score: inf
ROOT
ATOM      1  C   UNL     1     -21.162 -20.948  31.518  1.00  0.00     0.000 C 
ENDROOT
BRANCH   1   2
ATOM      2  C   UNL     1     -21.014 -19.545  30.899  1.00  0.00     0.000 C 
BRANCH   2   3
ATOM      3  C   UNL     1     -21.194 -19.487  29.371  1.00  0.00     0.000 C 
BRANCH   3   4
ATOM      4  C   UNL     1     -20.556 -18.241  28.740  1.00  0.00     0.000 C 
BRANCH   4   5
ATOM      5  C   UNL     1     -19.096 -18.086  29.190  1.00  0.00     0.000 C 
BRANCH   5   6
ATOM      6  C   UNL     1     -18.521 -16.692  28.890  1.00  0.00     0.000 C 
BRANCH   6   7
ATOM      7  C   UNL     1     -18.502 -16.295  27.400  1.00  0.00     0.006 C 
BRANCH   7   8
ATOM      8  C   UNL     1     -17.158 -15.713  26.923  1.00  0.00     0.053 C 
BRANCH   8   9
ATOM      9  C   UNL     1     -17.178 -15.343  25.470  1.00  0.00     0.041 C 
ATOM     10  O   UNL     1     -16.105 -15.068  24.871  1.00  0.00    -0.550 OA
ATOM     11  O   UNL     1     -18.384 -15.262  24.787  1.00  0.00    -0.550 OA
ENDBRANCH   8   9
ENDBRANCH   7   8
ENDBRANCH   6   7
ENDBRANCH   5   6
ENDBRANCH   4   5
ENDBRANCH   3   4
ENDBRANCH   2   3
ENDBRANCH   1   2
BRANCH   1  12
ATOM     12  C   UNL     1     -21.997 -21.900  30.649  1.00  0.00     0.000 C 
BRANCH  12  13
ATOM     13  C   UNL     1     -22.818 -22.859  31.520  1.00  0.00    -0.000 C 
BRANCH  13  14
ATOM     14  C   UNL     1     -22.765 -24.288  30.966  1.00  0.00    -0.000 C 
BRANCH  14  15
ATOM     15  C   UNL     1     -22.844 -24.286  29.432  1.00  0.00    -0.000 C 
BRANCH  15  16
ATOM     16  C   UNL     1     -23.570 -25.519  28.874  1.00  0.00    -0.000 C 
BRANCH  16  17
ATOM     17  C   UNL     1     -24.920 -25.777  29.568  1.00  0.00    -0.000 C 
BRANCH  17  18
ATOM     18  C   UNL     1     -25.360 -27.252  29.455  1.00  0.00    -0.000 C 
BRANCH  18  19
ATOM     19  C   UNL     1     -25.920 -27.623  28.071  1.00  0.00    -0.003 C 
ATOM     20  C   UNL     1     -26.829 -28.850  28.103  1.00  0.00     0.004 C 
ENDBRANCH  18  19
ENDBRANCH  17  18
ENDBRANCH  16  17
ENDBRANCH  15  16
ENDBRANCH  14  15
ENDBRANCH  13  14
ENDBRANCH  12  13
ENDBRANCH   1  12
TORSDOF 16
ENDMDL
MODEL 4
REMARK VINA RESULT:    -7.009      4.810     10.707
REMARK INTER + INTRA:         -14.469
REMARK INTER:                 -13.616
REMARK INTRA:                  -0.853
REMARK UNBOUND:                -0.904
REMARK SMILES CCCCCCCCCCCCCCCCCC(=O)[O-]
REMARK SMILES IDX 10 1 11 2 12 3 13 4 14 5 15 6 16 7 17 8 18 9 19 10 20 11
REMARK SMILES IDX 9 12 8 13 7 14 6 15 5 16 4 17 3 18 2 19 1 20
REMARK H PARENT
REMARK Flexibility Score: inf
ROOT
ATOM      1  C   UNL     1     -22.354 -20.920  29.640  1.00  0.00     0.000 C 
ENDROOT
BRANCH   1   2
ATOM      2  C   UNL     1     -22.303 -21.886  30.838  1.00  0.00     0.000 C 
BRANCH   2   3
ATOM      3  C   UNL     1     -22.222 -23.378  30.466  1.00  0.00     0.000 C 
BRANCH   3   4
ATOM      4  C   UNL     1     -22.478 -23.639  28.975  1.00  0.00     0.000 C 
BRANCH   4   5
ATOM      5  C   UNL     1     -23.281 -24.933  28.776  1.00  0.00     0.000 C 
BRANCH   5   6
ATOM      6  C   UNL     1     -23.986 -25.405  30.058  1.00  0.00     0.000 C 
BRANCH   6   7
ATOM      7  C   UNL     1     -25.002 -26.549  29.866  1.00  0.00     0.006 C 
BRANCH   7   8
ATOM      8  C   UNL     1     -24.992 -27.166  28.455  1.00  0.00     0.053 C 
BRANCH   8   9
ATOM      9  C   UNL     1     -26.180 -28.049  28.209  1.00  0.00     0.041 C 
ATOM     10  O   UNL     1     -26.724 -28.076  27.073  1.00  0.00    -0.550 OA
ATOM     11  O   UNL     1     -26.710 -28.810  29.242  1.00  0.00    -0.550 OA
ENDBRANCH   8   9
ENDBRANCH   7   8
ENDBRANCH   6   7
ENDBRANCH   5   6
ENDBRANCH   4   5
ENDBRANCH   3   4
ENDBRANCH   2   3
ENDBRANCH   1   2
BRANCH   1  12
ATOM     12  C   UNL     1     -21.108 -20.027  29.539  1.00  0.00     0.000 C 
BRANCH  12  13
ATOM     13  C   UNL     1     -20.851 -19.292  30.860  1.00  0.00    -0.000 C 
BRANCH  13  14
ATOM     14  C   UNL     1     -19.846 -18.150  30.669  1.00  0.00    -0.000 C 
BRANCH  14  15
ATOM     15  C   UNL     1     -19.049 -18.332  29.369  1.00  0.00    -0.000 C 
BRANCH  15  16
ATOM     16  C   UNL     1     -19.204 -17.145  28.406  1.00  0.00    -0.000 C 
BRANCH  16  17
ATOM     17  C   UNL     1     -18.150 -16.048  28.640  1.00  0.00    -0.000 C 
BRANCH  17  18
ATOM     18  C   UNL     1     -17.155 -15.937  27.465  1.00  0.00    -0.000 C 
BRANCH  18  19
ATOM     19  C   UNL     1     -17.822 -15.582  26.125  1.00  0.00    -0.003 C 
ATOM     20  C   UNL     1     -16.818 -15.223  25.033  1.00  0.00     0.004 C 
ENDBRANCH  18  19
ENDBRANCH  17  18
ENDBRANCH  16  17
ENDBRANCH  15  16
ENDBRANCH  14  15
ENDBRANCH  13  14
ENDBRANCH  12  13
ENDBRANCH   1  12
TORSDOF 16
ENDMDL
MODEL 5
REMARK VINA RESULT:    -6.950      4.945     10.410
REMARK INTER + INTRA:         -14.354
REMARK INTER:                 -13.541
REMARK INTRA:                  -0.813
REMARK UNBOUND:                -0.904
REMARK SMILES CCCCCCCCCCCCCCCCCC(=O)[O-]
REMARK SMILES IDX 10 1 11 2 12 3 13 4 14 5 15 6 16 7 17 8 18 9 19 10 20 11
REMARK SMILES IDX 9 12 8 13 7 14 6 15 5 16 4 17 3 18 2 19 1 20
REMARK H PARENT
REMARK Flexibility Score: inf
ROOT
ATOM      1  C   UNL     1     -22.494 -22.324  31.389  1.00  0.00     0.000 C 
ENDROOT
BRANCH   1   2
ATOM      2  C   UNL     1     -22.283 -23.657  30.648  1.00  0.00     0.000 C 
BRANCH   2   3
ATOM      3  C   UNL     1     -22.296 -23.556  29.112  1.00  0.00     0.000 C 
BRANCH   3   4
ATOM      4  C   UNL     1     -23.010 -24.736  28.439  1.00  0.00     0.000 C 
BRANCH   4   5
ATOM      5  C   UNL     1     -23.397 -25.803  29.474  1.00  0.00     0.000 C 
BRANCH   5   6
ATOM      6  C   UNL     1     -24.873 -25.722  29.897  1.00  0.00     0.000 C 
BRANCH   6   7
ATOM      7  C   UNL     1     -25.716 -26.975  29.588  1.00  0.00     0.006 C 
BRANCH   7   8
ATOM      8  C   UNL     1     -25.537 -27.515  28.156  1.00  0.00     0.053 C 
BRANCH   8   9
ATOM      9  C   UNL     1     -26.580 -28.528  27.792  1.00  0.00     0.041 C 
ATOM     10  O   UNL     1     -27.100 -29.251  28.682  1.00  0.00    -0.550 OA
ATOM     11  O   UNL     1     -26.950 -28.702  26.465  1.00  0.00    -0.550 OA
ENDBRANCH   8   9
ENDBRANCH   7   8
ENDBRANCH   6   7
ENDBRANCH   5   6
ENDBRANCH   4   5
ENDBRANCH   3   4
ENDBRANCH   2   3
ENDBRANCH   1   2
BRANCH   1  12
ATOM     12  C   UNL     1     -21.243 -21.433  31.385  1.00  0.00     0.000 C 
BRANCH  12  13
ATOM     13  C   UNL     1     -21.557 -20.048  30.805  1.00  0.00    -0.000 C 
BRANCH  13  14
ATOM     14  C   UNL     1     -21.752 -20.119  29.286  1.00  0.00    -0.000 C 
BRANCH  14  15
ATOM     15  C   UNL     1     -20.819 -19.133  28.566  1.00  0.00    -0.000 C 
BRANCH  15  16
ATOM     16  C   UNL     1     -20.514 -17.884  29.407  1.00  0.00    -0.000 C 
BRANCH  16  17
ATOM     17  C   UNL     1     -19.006 -17.682  29.646  1.00  0.00    -0.000 C 
BRANCH  17  18
ATOM     18  C   UNL     1     -18.236 -17.442  28.330  1.00  0.00    -0.000 C 
BRANCH  18  19
ATOM     19  C   UNL     1     -18.058 -15.955  27.983  1.00  0.00    -0.003 C 
ATOM     20  C   UNL     1     -17.424 -15.731  26.612  1.00  0.00     0.004 C 
ENDBRANCH  18  19
ENDBRANCH  17  18
ENDBRANCH  16  17
ENDBRANCH  15  16
ENDBRANCH  14  15
ENDBRANCH  13  14
ENDBRANCH  12  13
ENDBRANCH   1  12
TORSDOF 16
ENDMDL
MODEL 6
REMARK VINA RESULT:    -6.949      4.245     10.447
REMARK INTER + INTRA:         -14.353
REMARK INTER:                 -13.457
REMARK INTRA:                  -0.896
REMARK UNBOUND:                -0.904
REMARK SMILES CCCCCCCCCCCCCCCCCC(=O)[O-]
REMARK SMILES IDX 10 1 11 2 12 3 13 4 14 5 15 6 16 7 17 8 18 9 19 10 20 11
REMARK SMILES IDX 9 12 8 13 7 14 6 15 5 16 4 17 3 18 2 19 1 20
REMARK H PARENT
REMARK Flexibility Score: inf
ROOT
ATOM      1  C   UNL     1     -21.335 -19.748  29.747  1.00  0.00     0.000 C 
ENDROOT
BRANCH   1   2
ATOM      2  C   UNL     1     -22.333 -20.891  30.013  1.00  0.00     0.000 C 
BRANCH   2   3
ATOM      3  C   UNL     1     -22.011 -21.763  31.240  1.00  0.00     0.000 C 
BRANCH   3   4
ATOM      4  C   UNL     1     -22.879 -23.026  31.322  1.00  0.00     0.000 C 
BRANCH   4   5
ATOM      5  C   UNL     1     -22.288 -24.153  30.461  1.00  0.00     0.000 C 
BRANCH   5   6
ATOM      6  C   UNL     1     -22.949 -24.259  29.077  1.00  0.00     0.000 C 
BRANCH   6   7
ATOM      7  C   UNL     1     -23.618 -25.613  28.770  1.00  0.00     0.006 C 
BRANCH   7   8
ATOM      8  C   UNL     1     -25.077 -25.716  29.254  1.00  0.00     0.053 C 
BRANCH   8   9
ATOM      9  C   UNL     1     -25.230 -26.646  30.420  1.00  0.00     0.041 C 
ATOM     10  O   UNL     1     -24.861 -26.287  31.569  1.00  0.00    -0.550 OA
ATOM     11  O   UNL     1     -25.742 -27.923  30.232  1.00  0.00    -0.550 OA
ENDBRANCH   8   9
ENDBRANCH   7   8
ENDBRANCH   6   7
ENDBRANCH   5   6
ENDBRANCH   4   5
ENDBRANCH   3   4
ENDBRANCH   2   3
ENDBRANCH   1   2
BRANCH   1  12
ATOM     12  C   UNL     1     -20.573 -19.314  31.009  1.00  0.00     0.000 C 
BRANCH  12  13
ATOM     13  C   UNL     1     -19.416 -18.372  30.654  1.00  0.00    -0.000 C 
BRANCH  13  14
ATOM     14  C   UNL     1     -19.040 -18.495  29.172  1.00  0.00    -0.000 C 
BRANCH  14  15
ATOM     15  C   UNL     1     -19.096 -17.126  28.476  1.00  0.00    -0.000 C 
BRANCH  15  16
ATOM     16  C   UNL     1     -17.961 -16.190  28.919  1.00  0.00    -0.000 C 
BRANCH  16  17
ATOM     17  C   UNL     1     -17.495 -15.248  27.794  1.00  0.00    -0.000 C 
BRANCH  17  18
ATOM     18  C   UNL     1     -17.525 -15.933  26.411  1.00  0.00    -0.000 C 
BRANCH  18  19
ATOM     19  C   UNL     1     -16.839 -15.116  25.304  1.00  0.00    -0.003 C 
ATOM     20  C   UNL     1     -16.003 -15.974  24.357  1.00  0.00     0.004 C 
ENDBRANCH  18  19
ENDBRANCH  17  18
ENDBRANCH  16  17
ENDBRANCH  15  16
ENDBRANCH  14  15
ENDBRANCH  13  14
ENDBRANCH  12  13
ENDBRANCH   1  12
TORSDOF 16
ENDMDL
MODEL 7
REMARK VINA RESULT:    -6.883      2.901      4.493
REMARK INTER + INTRA:         -14.225
REMARK INTER:                 -13.160
REMARK INTRA:                  -1.065
REMARK UNBOUND:                -0.904
REMARK SMILES CCCCCCCCCCCCCCCCCC(=O)[O-]
REMARK SMILES IDX 10 1 11 2 12 3 13 4 14 5 15 6 16 7 17 8 18 9 19 10 20 11
REMARK SMILES IDX 9 12 8 13 7 14 6 15 5 16 4 17 3 18 2 19 1 20
REMARK H PARENT
REMARK Flexibility Score: inf
ROOT
ATOM      1  C   UNL     1     -21.279 -19.928  29.430  1.00  0.00     0.000 C 
ENDROOT
BRANCH   1   2
ATOM      2  C   UNL     1     -20.890 -19.483  30.852  1.00  0.00     0.000 C 
BRANCH   2   3
ATOM      3  C   UNL     1     -19.842 -18.357  30.917  1.00  0.00     0.000 C 
BRANCH   3   4
ATOM      4  C   UNL     1     -20.075 -17.261  29.867  1.00  0.00     0.000 C 
BRANCH   4   5
ATOM      5  C   UNL     1     -18.875 -17.153  28.914  1.00  0.00     0.000 C 
BRANCH   5   6
ATOM      6  C   UNL     1     -18.096 -15.837  29.076  1.00  0.00     0.000 C 
BRANCH   6   7
ATOM      7  C   UNL     1     -17.174 -15.470  27.896  1.00  0.00     0.006 C 
BRANCH   7   8
ATOM      8  C   UNL     1     -17.457 -16.265  26.608  1.00  0.00     0.053 C 
BRANCH   8   9
ATOM      9  C   UNL     1     -17.333 -15.421  25.375  1.00  0.00     0.041 C 
ATOM     10  O   UNL     1     -18.348 -15.173  24.672  1.00  0.00    -0.550 OA
ATOM     11  O   UNL     1     -16.092 -14.940  24.980  1.00  0.00    -0.550 OA
ENDBRANCH   8   9
ENDBRANCH   7   8
ENDBRANCH   6   7
ENDBRANCH   5   6
ENDBRANCH   4   5
ENDBRANCH   3   4
ENDBRANCH   2   3
ENDBRANCH   1   2
BRANCH   1  12
ATOM     12  C   UNL     1     -22.381 -20.998  29.418  1.00  0.00     0.000 C 
BRANCH  12  13
ATOM     13  C   UNL     1     -22.026 -22.141  28.458  1.00  0.00    -0.000 C 
BRANCH  13  14
ATOM     14  C   UNL     1     -22.588 -23.476  28.959  1.00  0.00    -0.000 C 
BRANCH  14  15
ATOM     15  C   UNL     1     -22.214 -23.711  30.431  1.00  0.00    -0.000 C 
BRANCH  15  16
ATOM     16  C   UNL     1     -23.428 -24.073  31.300  1.00  0.00    -0.000 C 
BRANCH  16  17
ATOM     17  C   UNL     1     -23.766 -25.574  31.254  1.00  0.00    -0.000 C 
BRANCH  17  18
ATOM     18  C   UNL     1     -25.226 -25.830  30.823  1.00  0.00    -0.000 C 
BRANCH  18  19
ATOM     19  C   UNL     1     -25.397 -26.009  29.305  1.00  0.00    -0.003 C 
ATOM     20  C   UNL     1     -24.261 -26.803  28.664  1.00  0.00     0.004 C 
ENDBRANCH  18  19
ENDBRANCH  17  18
ENDBRANCH  16  17
ENDBRANCH  15  16
ENDBRANCH  14  15
ENDBRANCH  13  14
ENDBRANCH  12  13
ENDBRANCH   1  12
TORSDOF 16
ENDMDL
MODEL 8
REMARK VINA RESULT:    -6.863      1.560      2.591
REMARK INTER + INTRA:         -14.187
REMARK INTER:                 -13.408
REMARK INTRA:                  -0.778
REMARK UNBOUND:                -0.904
REMARK SMILES CCCCCCCCCCCCCCCCCC(=O)[O-]
REMARK SMILES IDX 10 1 11 2 12 3 13 4 14 5 15 6 16 7 17 8 18 9 19 10 20 11
REMARK SMILES IDX 9 12 8 13 7 14 6 15 5 16 4 17 3 18 2 19 1 20
REMARK H PARENT
REMARK Flexibility Score: inf
ROOT
ATOM      1  C   UNL     1     -22.093 -22.238  28.362  1.00  0.00     0.000 C 
ENDROOT
BRANCH   1   2
ATOM      2  C   UNL     1     -22.399 -20.955  29.156  1.00  0.00     0.000 C 
BRANCH   2   3
ATOM      3  C   UNL     1     -21.203 -20.002  29.339  1.00  0.00     0.000 C 
BRANCH   3   4
ATOM      4  C   UNL     1     -21.202 -19.297  30.703  1.00  0.00     0.000 C 
BRANCH   4   5
ATOM      5  C   UNL     1     -19.767 -19.052  31.191  1.00  0.00     0.000 C 
BRANCH   5   6
ATOM      6  C   UNL     1     -19.279 -17.619  30.924  1.00  0.00     0.000 C 
BRANCH   6   7
ATOM      7  C   UNL     1     -19.548 -17.087  29.503  1.00  0.00     0.006 C 
BRANCH   7   8
ATOM      8  C   UNL     1     -18.376 -17.290  28.524  1.00  0.00     0.053 C 
BRANCH   8   9
ATOM      9  C   UNL     1     -17.868 -15.996  27.962  1.00  0.00     0.041 C 
ATOM     10  O   UNL     1     -17.452 -15.090  28.731  1.00  0.00    -0.550 OA
ATOM     11  O   UNL     1     -17.892 -15.774  26.591  1.00  0.00    -0.550 OA
ENDBRANCH   8   9
ENDBRANCH   7   8
ENDBRANCH   6   7
ENDBRANCH   5   6
ENDBRANCH   4   5
ENDBRANCH   3   4
ENDBRANCH   2   3
ENDBRANCH   1   2
BRANCH   1  12
ATOM     12  C   UNL     1     -22.061 -23.495  29.244  1.00  0.00     0.000 C 
BRANCH  12  13
ATOM     13  C   UNL     1     -22.377 -23.148  30.704  1.00  0.00    -0.000 C 
BRANCH  13  14
ATOM     14  C   UNL     1     -23.272 -24.216  31.343  1.00  0.00    -0.000 C 
BRANCH  14  15
ATOM     15  C   UNL     1     -23.639 -25.306  30.324  1.00  0.00    -0.000 C 
BRANCH  15  16
ATOM     16  C   UNL     1     -25.069 -25.836  30.512  1.00  0.00    -0.000 C 
BRANCH  16  17
ATOM     17  C   UNL     1     -25.245 -27.271  29.983  1.00  0.00    -0.000 C 
BRANCH  17  18
ATOM     18  C   UNL     1     -25.594 -27.297  28.480  1.00  0.00    -0.000 C 
BRANCH  18  19
ATOM     19  C   UNL     1     -26.566 -28.425  28.093  1.00  0.00    -0.003 C 
ATOM     20  C   UNL     1     -26.849 -28.484  26.594  1.00  0.00     0.004 C 
ENDBRANCH  18  19
ENDBRANCH  17  18
ENDBRANCH  16  17
ENDBRANCH  15  16
ENDBRANCH  14  15
ENDBRANCH  13  14
ENDBRANCH  12  13
ENDBRANCH   1  12
TORSDOF 16
ENDMDL
MODEL 9
REMARK VINA RESULT:    -6.623      5.010     10.609
REMARK INTER + INTRA:         -13.722
REMARK INTER:                 -13.001
REMARK INTRA:                  -0.721
REMARK UNBOUND:                -0.904
REMARK SMILES CCCCCCCCCCCCCCCCCC(=O)[O-]
REMARK SMILES IDX 10 1 11 2 12 3 13 4 14 5 15 6 16 7 17 8 18 9 19 10 20 11
REMARK SMILES IDX 9 12 8 13 7 14 6 15 5 16 4 17 3 18 2 19 1 20
REMARK H PARENT
REMARK Flexibility Score: inf
ROOT
ATOM      1  C   UNL     1     -23.162 -23.147  31.661  1.00  0.00     0.000 C 
ENDROOT
BRANCH   1   2
ATOM      2  C   UNL     1     -23.241 -24.383  30.746  1.00  0.00     0.000 C 
BRANCH   2   3
ATOM      3  C   UNL     1     -23.861 -25.634  31.396  1.00  0.00     0.000 C 
BRANCH   3   4
ATOM      4  C   UNL     1     -25.252 -25.972  30.841  1.00  0.00     0.000 C 
BRANCH   4   5
ATOM      5  C   UNL     1     -25.280 -25.830  29.312  1.00  0.00     0.000 C 
BRANCH   5   6
ATOM      6  C   UNL     1     -25.314 -27.184  28.584  1.00  0.00     0.000 C 
BRANCH   6   7
ATOM      7  C   UNL     1     -26.446 -27.346  27.550  1.00  0.00     0.006 C 
BRANCH   7   8
ATOM      8  C   UNL     1     -26.546 -28.759  26.945  1.00  0.00     0.053 C 
BRANCH   8   9
ATOM      9  C   UNL     1     -26.726 -28.733  25.457  1.00  0.00     0.041 C 
ATOM     10  O   UNL     1     -25.772 -29.050  24.698  1.00  0.00    -0.550 OA
ATOM     11  O   UNL     1     -27.932 -28.321  24.907  1.00  0.00    -0.550 OA
ENDBRANCH   8   9
ENDBRANCH   7   8
ENDBRANCH   6   7
ENDBRANCH   5   6
ENDBRANCH   4   5
ENDBRANCH   3   4
ENDBRANCH   2   3
ENDBRANCH   1   2
BRANCH   1  12
ATOM     12  C   UNL     1     -21.957 -22.248  31.349  1.00  0.00     0.000 C 
BRANCH  12  13
ATOM     13  C   UNL     1     -21.976 -21.793  29.884  1.00  0.00    -0.000 C 
BRANCH  13  14
ATOM     14  C   UNL     1     -21.867 -20.267  29.780  1.00  0.00    -0.000 C 
BRANCH  14  15
ATOM     15  C   UNL     1     -21.333 -19.664  31.088  1.00  0.00    -0.000 C 
BRANCH  15  16
ATOM     16  C   UNL     1     -20.054 -18.837  30.880  1.00  0.00    -0.000 C 
BRANCH  16  17
ATOM     17  C   UNL     1     -20.155 -17.879  29.680  1.00  0.00    -0.000 C 
BRANCH  17  18
ATOM     18  C   UNL     1     -18.809 -17.728  28.941  1.00  0.00    -0.000 C 
BRANCH  18  19
ATOM     19  C   UNL     1     -18.767 -16.531  27.976  1.00  0.00    -0.003 C 
ATOM     20  C   UNL     1     -17.457 -15.750  28.048  1.00  0.00     0.004 C 
ENDBRANCH  18  19
ENDBRANCH  17  18
ENDBRANCH  16  17
ENDBRANCH  15  16
ENDBRANCH  14  15
ENDBRANCH  13  14
ENDBRANCH  12  13
ENDBRANCH   1  12
TORSDOF 16
ENDMDL
