MODEL 1
REMARK VINA RESULT:    -2.491      0.000      0.000
REMARK INTER + INTRA:          -7.369
REMARK INTER:                  -6.569
REMARK INTRA:                  -0.800
REMARK UNBOUND:                -0.800
REMARK SMILES CCCCCCCCCCCCCCCCCCCCCCCCCCCCCC(=O)[O-]
REMARK SMILES IDX 16 1 17 2 18 3 19 4 20 5 21 6 22 7 23 8 24 9 25 10 26 11
REMARK SMILES IDX 27 12 28 13 29 14 30 15 31 16 32 17 15 18 14 19 13 20 12 21
REMARK SMILES IDX 11 22 10 23 9 24 8 25 7 26 6 27 5 28 4 29 3 30 2 31 1 32
REMARK H PARENT
REMARK Flexibility Score: inf
ROOT
ATOM      1  C   UNL     1       2.137 -34.396  23.353  1.00  0.00     0.000 C 
ENDROOT
BRANCH   1   2
ATOM      2  C   UNL     1       3.542 -34.746  22.835  1.00  0.00     0.000 C 
BRANCH   2   3
ATOM      3  C   UNL     1       3.829 -36.256  22.878  1.00  0.00     0.000 C 
BRANCH   3   4
ATOM      4  C   UNL     1       5.194 -36.582  23.511  1.00  0.00     0.000 C 
BRANCH   4   5
ATOM      5  C   UNL     1       5.783 -37.952  23.112  1.00  0.00     0.000 C 
BRANCH   5   6
ATOM      6  C   UNL     1       6.070 -38.125  21.605  1.00  0.00     0.000 C 
BRANCH   6   7
ATOM      7  C   UNL     1       6.085 -36.815  20.791  1.00  0.00     0.000 C 
BRANCH   7   8
ATOM      8  C   UNL     1       5.931 -36.993  19.270  1.00  0.00     0.000 C 
BRANCH   8   9
ATOM      9  C   UNL     1       4.690 -36.278  18.711  1.00  0.00     0.000 C 
BRANCH   9  10
ATOM     10  C   UNL     1       4.107 -36.981  17.466  1.00  0.00     0.000 C 
BRANCH  10  11
ATOM     11  C   UNL     1       2.572 -37.122  17.487  1.00  0.00     0.000 C 
BRANCH  11  12
ATOM     12  C   UNL     1       2.010 -38.048  18.583  1.00  0.00     0.000 C 
BRANCH  12  13
ATOM     13  C   UNL     1       2.416 -37.683  20.027  1.00  0.00     0.006 C 
BRANCH  13  14
ATOM     14  C   UNL     1       1.241 -37.325  20.951  1.00  0.00     0.053 C 
BRANCH  14  15
ATOM     15  C   UNL     1       0.687 -35.965  20.654  1.00  0.00     0.041 C 
ATOM     16  O   UNL     1       1.177 -35.271  19.726  1.00  0.00    -0.550 OA
ATOM     17  O   UNL     1      -0.394 -35.477  21.378  1.00  0.00    -0.550 OA
ENDBRANCH  14  15
ENDBRANCH  13  14
ENDBRANCH  12  13
ENDBRANCH  11  12
ENDBRANCH  10  11
ENDBRANCH   9  10
ENDBRANCH   8   9
ENDBRANCH   7   8
ENDBRANCH   6   7
ENDBRANCH   5   6
ENDBRANCH   4   5
ENDBRANCH   3   4
ENDBRANCH   2   3
ENDBRANCH   1   2
BRANCH   1  18
ATOM     18  C   UNL     1       1.865 -32.880  23.328  1.00  0.00     0.000 C 
BRANCH  18  19
ATOM     19  C   UNL     1       1.174 -32.379  24.609  1.00  0.00     0.000 C 
BRANCH  19  20
ATOM     20  C   UNL     1      -0.310 -32.783  24.667  1.00  0.00     0.000 C 
BRANCH  20  21
ATOM     21  C   UNL     1      -1.111 -32.322  23.435  1.00  0.00     0.000 C 
BRANCH  21  22
ATOM     22  C   UNL     1      -2.415 -33.098  23.164  1.00  0.00     0.000 C 
BRANCH  22  23
ATOM     23  C   UNL     1      -2.186 -34.598  22.918  1.00  0.00     0.000 C 
BRANCH  23  24
ATOM     24  C   UNL     1      -3.472 -35.428  23.064  1.00  0.00    -0.000 C 
BRANCH  24  25
ATOM     25  C   UNL     1      -4.063 -35.901  21.717  1.00  0.00    -0.000 C 
BRANCH  25  26
ATOM     26  C   UNL     1      -3.773 -37.388  21.437  1.00  0.00    -0.000 C 
BRANCH  26  27
ATOM     27  C   UNL     1      -2.407 -37.608  20.766  1.00  0.00    -0.000 C 
BRANCH  27  28
ATOM     28  C   UNL     1      -2.520 -37.878  19.257  1.00  0.00    -0.000 C 
BRANCH  28  29
ATOM     29  C   UNL     1      -3.982 -38.096  18.845  1.00  0.00    -0.000 C 
BRANCH  29  30
ATOM     30  C   UNL     1      -4.154 -37.965  17.324  1.00  0.00    -0.000 C 
BRANCH  30  31
ATOM     31  C   UNL     1      -4.792 -36.628  16.915  1.00  0.00    -0.003 C 
ATOM     32  C   UNL     1      -4.440 -35.488  17.871  1.00  0.00     0.004 C 
ENDBRANCH  30  31
ENDBRANCH  29  30
ENDBRANCH  28  29
ENDBRANCH  27  28
ENDBRANCH  26  27
ENDBRANCH  25  26
ENDBRANCH  24  25
ENDBRANCH  23  24
ENDBRANCH  22  23
ENDBRANCH  21  22
ENDBRANCH  20  21
ENDBRANCH  19  20
ENDBRANCH  18  19
ENDBRANCH   1  18
TORSDOF 28
ENDMDL
MODEL 2
REMARK VINA RESULT:    -2.066      1.840      7.769
REMARK INTER + INTRA:          -6.248
REMARK INTER:                  -3.477
REMARK INTRA:                  -2.771
REMARK UNBOUND:                -0.800
REMARK SMILES CCCCCCCCCCCCCCCCCCCCCCCCCCCCCC(=O)[O-]
REMARK SMILES IDX 16 1 17 2 18 3 19 4 20 5 21 6 22 7 23 8 24 9 25 10 26 11
REMARK SMILES IDX 27 12 28 13 29 14 30 15 31 16 32 17 15 18 14 19 13 20 12 21
REMARK SMILES IDX 11 22 10 23 9 24 8 25 7 26 6 27 5 28 4 29 3 30 2 31 1 32
REMARK H PARENT
REMARK Flexibility Score: inf
ROOT
ATOM      1  C   UNL     1       2.665 -35.884  18.761  1.00  0.00     0.000 C 
ENDROOT
BRANCH   1   2
ATOM      2  C   UNL     1       2.310 -37.015  19.740  1.00  0.00     0.000 C 
BRANCH   2   3
ATOM      3  C   UNL     1       1.443 -38.108  19.092  1.00  0.00     0.000 C 
BRANCH   3   4
ATOM      4  C   UNL     1       0.000 -38.116  19.629  1.00  0.00     0.000 C 
BRANCH   4   5
ATOM      5  C   UNL     1      -0.147 -37.668  21.099  1.00  0.00     0.000 C 
BRANCH   5   6
ATOM      6  C   UNL     1      -0.686 -36.236  21.294  1.00  0.00     0.000 C 
BRANCH   6   7
ATOM      7  C   UNL     1      -1.620 -36.052  22.508  1.00  0.00     0.000 C 
BRANCH   7   8
ATOM      8  C   UNL     1      -2.866 -35.187  22.245  1.00  0.00     0.000 C 
BRANCH   8   9
ATOM      9  C   UNL     1      -3.912 -35.902  21.373  1.00  0.00     0.000 C 
BRANCH   9  10
ATOM     10  C   UNL     1      -3.764 -37.438  21.404  1.00  0.00     0.000 C 
BRANCH  10  11
ATOM     11  C   UNL     1      -4.066 -38.125  20.057  1.00  0.00     0.000 C 
BRANCH  11  12
ATOM     12  C   UNL     1      -3.145 -37.721  18.890  1.00  0.00     0.000 C 
BRANCH  12  13
ATOM     13  C   UNL     1      -3.644 -38.125  17.486  1.00  0.00     0.006 C 
BRANCH  13  14
ATOM     14  C   UNL     1      -4.930 -37.412  17.035  1.00  0.00     0.053 C 
BRANCH  14  15
ATOM     15  C   UNL     1      -4.883 -35.940  17.313  1.00  0.00     0.041 C 
ATOM     16  O   UNL     1      -3.797 -35.312  17.215  1.00  0.00    -0.550 OA
ATOM     17  O   UNL     1      -6.045 -35.254  17.645  1.00  0.00    -0.550 OA
ENDBRANCH  14  15
ENDBRANCH  13  14
ENDBRANCH  12  13
ENDBRANCH  11  12
ENDBRANCH  10  11
ENDBRANCH   9  10
ENDBRANCH   8   9
ENDBRANCH   7   8
ENDBRANCH   6   7
ENDBRANCH   5   6
ENDBRANCH   4   5
ENDBRANCH   3   4
ENDBRANCH   2   3
ENDBRANCH   1   2
BRANCH   1  18
ATOM     18  C   UNL     1       4.178 -35.804  18.484  1.00  0.00     0.000 C 
BRANCH  18  19
ATOM     19  C   UNL     1       4.758 -37.130  17.962  1.00  0.00     0.000 C 
BRANCH  19  20
ATOM     20  C   UNL     1       6.082 -37.500  18.654  1.00  0.00     0.000 C 
BRANCH  20  21
ATOM     21  C   UNL     1       6.078 -37.203  20.166  1.00  0.00     0.000 C 
BRANCH  21  22
ATOM     22  C   UNL     1       5.097 -38.043  21.004  1.00  0.00     0.000 C 
BRANCH  22  23
ATOM     23  C   UNL     1       5.190 -37.758  22.512  1.00  0.00     0.000 C 
BRANCH  23  24
ATOM     24  C   UNL     1       5.933 -36.448  22.824  1.00  0.00    -0.000 C 
BRANCH  24  25
ATOM     25  C   UNL     1       4.998 -35.232  23.013  1.00  0.00    -0.000 C 
BRANCH  25  26
ATOM     26  C   UNL     1       3.511 -35.602  22.850  1.00  0.00    -0.000 C 
BRANCH  26  27
ATOM     27  C   UNL     1       2.598 -34.819  23.808  1.00  0.00    -0.000 C 
BRANCH  27  28
ATOM     28  C   UNL     1       2.149 -33.467  23.232  1.00  0.00    -0.000 C 
BRANCH  28  29
ATOM     29  C   UNL     1       1.938 -32.436  24.349  1.00  0.00    -0.000 C 
BRANCH  29  30
ATOM     30  C   UNL     1       0.553 -31.780  24.243  1.00  0.00    -0.000 C 
BRANCH  30  31
ATOM     31  C   UNL     1      -0.529 -32.759  23.763  1.00  0.00    -0.003 C 
ATOM     32  C   UNL     1      -1.811 -32.677  24.591  1.00  0.00     0.004 C 
ENDBRANCH  30  31
ENDBRANCH  29  30
ENDBRANCH  28  29
ENDBRANCH  27  28
ENDBRANCH  26  27
ENDBRANCH  25  26
ENDBRANCH  24  25
ENDBRANCH  23  24
ENDBRANCH  22  23
ENDBRANCH  21  22
ENDBRANCH  20  21
ENDBRANCH  19  20
ENDBRANCH  18  19
ENDBRANCH   1  18
TORSDOF 28
ENDMDL
MODEL 3
REMARK VINA RESULT:    -0.762      1.807      5.457
REMARK INTER + INTRA:          -2.810
REMARK INTER:                  -1.170
REMARK INTRA:                  -1.641
REMARK UNBOUND:                -0.800
REMARK SMILES CCCCCCCCCCCCCCCCCCCCCCCCCCCCCC(=O)[O-]
REMARK SMILES IDX 16 1 17 2 18 3 19 4 20 5 21 6 22 7 23 8 24 9 25 10 26 11
REMARK SMILES IDX 27 12 28 13 29 14 30 15 31 16 32 17 15 18 14 19 13 20 12 21
REMARK SMILES IDX 11 22 10 23 9 24 8 25 7 26 6 27 5 28 4 29 3 30 2 31 1 32
REMARK H PARENT
REMARK Flexibility Score: inf
ROOT
ATOM      1  C   UNL     1       0.529 -36.550  21.615  1.00  0.00     0.000 C 
ENDROOT
BRANCH   1   2
ATOM      2  C   UNL     1       1.799 -35.781  21.215  1.00  0.00     0.000 C 
BRANCH   2   3
ATOM      3  C   UNL     1       1.764 -35.299  19.755  1.00  0.00     0.000 C 
BRANCH   3   4
ATOM      4  C   UNL     1       3.132 -35.416  19.059  1.00  0.00     0.000 C 
BRANCH   4   5
ATOM      5  C   UNL     1       3.478 -36.829  18.542  1.00  0.00     0.000 C 
BRANCH   5   6
ATOM      6  C   UNL     1       4.877 -36.968  17.906  1.00  0.00     0.000 C 
BRANCH   6   7
ATOM      7  C   UNL     1       6.051 -36.962  18.907  1.00  0.00     0.000 C 
BRANCH   7   8
ATOM      8  C   UNL     1       5.944 -37.998  20.040  1.00  0.00     0.000 C 
BRANCH   8   9
ATOM      9  C   UNL     1       6.008 -37.358  21.438  1.00  0.00     0.000 C 
BRANCH   9  10
ATOM     10  C   UNL     1       4.880 -37.849  22.370  1.00  0.00     0.000 C 
BRANCH  10  11
ATOM     11  C   UNL     1       4.540 -36.871  23.512  1.00  0.00     0.000 C 
BRANCH  11  12
ATOM     12  C   UNL     1       4.320 -35.407  23.083  1.00  0.00     0.000 C 
BRANCH  12  13
ATOM     13  C   UNL     1       3.343 -34.601  23.965  1.00  0.00     0.006 C 
BRANCH  13  14
ATOM     14  C   UNL     1       2.681 -33.405  23.259  1.00  0.00     0.053 C 
BRANCH  14  15
ATOM     15  C   UNL     1       1.752 -32.660  24.168  1.00  0.00     0.041 C 
ATOM     16  O   UNL     1       1.097 -33.277  25.047  1.00  0.00    -0.550 OA
ATOM     17  O   UNL     1       1.635 -31.279  24.068  1.00  0.00    -0.550 OA
ENDBRANCH  14  15
ENDBRANCH  13  14
ENDBRANCH  12  13
ENDBRANCH  11  12
ENDBRANCH  10  11
ENDBRANCH   9  10
ENDBRANCH   8   9
ENDBRANCH   7   8
ENDBRANCH   6   7
ENDBRANCH   5   6
ENDBRANCH   4   5
ENDBRANCH   3   4
ENDBRANCH   2   3
ENDBRANCH   1   2
BRANCH   1  18
ATOM     18  C   UNL     1       0.540 -38.003  21.104  1.00  0.00     0.000 C 
BRANCH  18  19
ATOM     19  C   UNL     1       0.779 -38.099  19.587  1.00  0.00     0.000 C 
BRANCH  19  20
ATOM     20  C   UNL     1      -0.536 -38.120  18.789  1.00  0.00     0.000 C 
BRANCH  20  21
ATOM     21  C   UNL     1      -1.784 -37.944  19.676  1.00  0.00     0.000 C 
BRANCH  21  22
ATOM     22  C   UNL     1      -3.119 -37.798  18.920  1.00  0.00     0.000 C 
BRANCH  22  23
ATOM     23  C   UNL     1      -4.342 -37.777  19.851  1.00  0.00     0.000 C 
BRANCH  23  24
ATOM     24  C   UNL     1      -3.957 -37.666  21.336  1.00  0.00    -0.000 C 
BRANCH  24  25
ATOM     25  C   UNL     1      -4.689 -36.530  22.086  1.00  0.00    -0.000 C 
BRANCH  25  26
ATOM     26  C   UNL     1      -3.717 -35.491  22.676  1.00  0.00    -0.000 C 
BRANCH  26  27
ATOM     27  C   UNL     1      -2.341 -35.512  21.989  1.00  0.00    -0.000 C 
BRANCH  27  28
ATOM     28  C   UNL     1      -1.589 -34.179  22.120  1.00  0.00    -0.000 C 
BRANCH  28  29
ATOM     29  C   UNL     1      -1.855 -33.529  23.485  1.00  0.00    -0.000 C 
BRANCH  29  30
ATOM     30  C   UNL     1      -2.256 -32.054  23.327  1.00  0.00    -0.000 C 
BRANCH  30  31
ATOM     31  C   UNL     1      -1.469 -31.125  24.265  1.00  0.00    -0.003 C 
ATOM     32  C   UNL     1      -1.725 -29.645  23.982  1.00  0.00     0.004 C 
ENDBRANCH  30  31
ENDBRANCH  29  30
ENDBRANCH  28  29
ENDBRANCH  27  28
ENDBRANCH  26  27
ENDBRANCH  25  26
ENDBRANCH  24  25
ENDBRANCH  23  24
ENDBRANCH  22  23
ENDBRANCH  21  22
ENDBRANCH  20  21
ENDBRANCH  19  20
ENDBRANCH  18  19
ENDBRANCH   1  18
TORSDOF 28
ENDMDL
MODEL 4
REMARK VINA RESULT:     0.389      1.826      6.900
REMARK INTER + INTRA:           0.225
REMARK INTER:                   0.180
REMARK INTRA:                   0.045
REMARK UNBOUND:                -0.800
REMARK SMILES CCCCCCCCCCCCCCCCCCCCCCCCCCCCCC(=O)[O-]
REMARK SMILES IDX 16 1 17 2 18 3 19 4 20 5 21 6 22 7 23 8 24 9 25 10 26 11
REMARK SMILES IDX 27 12 28 13 29 14 30 15 31 16 32 17 15 18 14 19 13 20 12 21
REMARK SMILES IDX 11 22 10 23 9 24 8 25 7 26 6 27 5 28 4 29 3 30 2 31 1 32
REMARK H PARENT
REMARK Flexibility Score: inf
ROOT
ATOM      1  C   UNL     1       1.293 -31.586  23.503  1.00  0.00     0.000 C 
ENDROOT
BRANCH   1   2
ATOM      2  C   UNL     1       0.667 -31.821  24.888  1.00  0.00     0.000 C 
BRANCH   2   3
ATOM      3  C   UNL     1      -0.553 -32.755  24.835  1.00  0.00     0.000 C 
BRANCH   3   4
ATOM      4  C   UNL     1      -1.845 -32.021  24.432  1.00  0.00     0.000 C 
BRANCH   4   5
ATOM      5  C   UNL     1      -2.643 -32.693  23.294  1.00  0.00     0.000 C 
BRANCH   5   6
ATOM      6  C   UNL     1      -2.823 -34.219  23.435  1.00  0.00     0.000 C 
BRANCH   6   7
ATOM      7  C   UNL     1      -2.404 -35.041  22.199  1.00  0.00     0.000 C 
BRANCH   7   8
ATOM      8  C   UNL     1      -0.968 -34.787  21.706  1.00  0.00     0.000 C 
BRANCH   8   9
ATOM      9  C   UNL     1      -0.739 -35.279  20.267  1.00  0.00     0.000 C 
BRANCH   9  10
ATOM     10  C   UNL     1      -0.150 -36.705  20.212  1.00  0.00     0.000 C 
BRANCH  10  11
ATOM     11  C   UNL     1      -1.009 -37.767  20.926  1.00  0.00     0.000 C 
BRANCH  11  12
ATOM     12  C   UNL     1      -2.334 -38.124  20.224  1.00  0.00     0.000 C 
BRANCH  12  13
ATOM     13  C   UNL     1      -3.376 -36.987  20.165  1.00  0.00     0.006 C 
BRANCH  13  14
ATOM     14  C   UNL     1      -4.564 -37.255  19.225  1.00  0.00     0.053 C 
BRANCH  14  15
ATOM     15  C   UNL     1      -4.172 -37.152  17.782  1.00  0.00     0.041 C 
ATOM     16  O   UNL     1      -3.514 -38.076  17.237  1.00  0.00    -0.550 OA
ATOM     17  O   UNL     1      -4.565 -36.053  17.028  1.00  0.00    -0.550 OA
ENDBRANCH  14  15
ENDBRANCH  13  14
ENDBRANCH  12  13
ENDBRANCH  11  12
ENDBRANCH  10  11
ENDBRANCH   9  10
ENDBRANCH   8   9
ENDBRANCH   7   8
ENDBRANCH   6   7
ENDBRANCH   5   6
ENDBRANCH   4   5
ENDBRANCH   3   4
ENDBRANCH   2   3
ENDBRANCH   1   2
BRANCH   1  18
ATOM     18  C   UNL     1       2.739 -32.110  23.418  1.00  0.00     0.000 C 
BRANCH  18  19
ATOM     19  C   UNL     1       2.828 -33.638  23.572  1.00  0.00     0.000 C 
BRANCH  19  20
ATOM     20  C   UNL     1       2.025 -34.382  22.490  1.00  0.00     0.000 C 
BRANCH  20  21
ATOM     21  C   UNL     1       2.053 -35.913  22.661  1.00  0.00     0.000 C 
BRANCH  21  22
ATOM     22  C   UNL     1       3.455 -36.545  22.749  1.00  0.00     0.000 C 
BRANCH  22  23
ATOM     23  C   UNL     1       4.570 -35.513  22.985  1.00  0.00     0.000 C 
BRANCH  23  24
ATOM     24  C   UNL     1       5.975 -36.135  22.940  1.00  0.00    -0.000 C 
BRANCH  24  25
ATOM     25  C   UNL     1       5.972 -37.665  22.725  1.00  0.00    -0.000 C 
BRANCH  25  26
ATOM     26  C   UNL     1       6.125 -38.051  21.241  1.00  0.00    -0.000 C 
BRANCH  26  27
ATOM     27  C   UNL     1       4.804 -37.942  20.462  1.00  0.00    -0.000 C 
BRANCH  27  28
ATOM     28  C   UNL     1       4.940 -37.120  19.171  1.00  0.00    -0.000 C 
BRANCH  28  29
ATOM     29  C   UNL     1       4.229 -35.766  19.302  1.00  0.00    -0.000 C 
BRANCH  29  30
ATOM     30  C   UNL     1       3.019 -35.682  18.359  1.00  0.00    -0.000 C 
BRANCH  30  31
ATOM     31  C   UNL     1       2.733 -37.013  17.646  1.00  0.00    -0.003 C 
ATOM     32  C   UNL     1       1.953 -37.997  18.519  1.00  0.00     0.004 C 
ENDBRANCH  30  31
ENDBRANCH  29  30
ENDBRANCH  28  29
ENDBRANCH  27  28
ENDBRANCH  26  27
ENDBRANCH  25  26
ENDBRANCH  24  25
ENDBRANCH  23  24
ENDBRANCH  22  23
ENDBRANCH  21  22
ENDBRANCH  20  21
ENDBRANCH  19  20
ENDBRANCH  18  19
ENDBRANCH   1  18
TORSDOF 28
ENDMDL
