MODEL 1
REMARK VINA RESULT:    -6.910      0.000      0.000
REMARK INTER + INTRA:         -10.985
REMARK INTER:                 -10.142
REMARK INTRA:                  -0.843
REMARK UNBOUND:                -0.843
REMARK SMILES O=c1c(OC[C@H]2O[C@H](O)[C@H](O)[C@@H](O)[C@H]2O)c(-c2ccc(O)c(O)c2)oc2cc(O)cc(O)c12
REMARK SMILES IDX 4 1 3 2 16 3 25 4 2 5 26 6 1 7 33 8 27 9 31 10 28 11 30 12
REMARK SMILES IDX 17 13 18 14 19 15 20 16 24 17 22 18 21 19 23 21 32 23 29 25
REMARK SMILES IDX 5 27 6 28 14 29 7 30 12 31 8 32 10 33 15 34 13 36 9 38 11 40
REMARK H PARENT 21 20 23 22 32 24 29 26 15 35 13 37 9 39 11 41
REMARK Flexibility Score: inf
ROOT
ATOM      1  O   UNL     1      -5.785   4.608  12.535  1.00  0.00    -0.483 OA
ENDROOT
BRANCH   1   2
ATOM      2  C   UNL     1      -4.929   5.686  12.799  1.00  0.00     0.211 A 
ATOM      3  C   UNL     1      -4.271   5.836  14.038  1.00  0.00     0.180 A 
ATOM      4  O   UNL     1      -3.547   6.928  14.272  1.00  0.00    -0.452 OA
ATOM      5  C   UNL     1      -4.739   6.658  11.810  1.00  0.00     0.239 A 
ATOM      6  C   UNL     1      -3.371   7.891  13.375  1.00  0.00     0.146 A 
ATOM      7  O   UNL     1      -5.294   6.510  10.688  1.00  0.00    -0.285 OA
ATOM      8  C   UNL     1      -3.952   7.794  12.089  1.00  0.00     0.111 A 
ATOM      9  C   UNL     1      -2.594   9.004  13.714  1.00  0.00     0.094 A 
ATOM     10  C   UNL     1      -3.736   8.833  11.153  1.00  0.00     0.134 A 
ATOM     11  C   UNL     1      -2.383  10.026  12.788  1.00  0.00     0.123 A 
ATOM     12  C   UNL     1      -2.951   9.940  11.512  1.00  0.00     0.093 A 
BRANCH   3  13
ATOM     13  C   UNL     1      -4.339   4.810  15.102  1.00  0.00     0.025 A 
ATOM     14  C   UNL     1      -5.563   4.549  15.735  1.00  0.00     0.016 A 
ATOM     15  C   UNL     1      -5.642   3.591  16.749  1.00  0.00     0.051 A 
ATOM     16  C   UNL     1      -4.498   2.893  17.155  1.00  0.00     0.157 A 
ATOM     17  C   UNL     1      -3.187   4.125  15.525  1.00  0.00     0.062 A 
ATOM     18  C   UNL     1      -3.263   3.165  16.541  1.00  0.00     0.158 A 
BRANCH  16  19
ATOM     19  O   UNL     1      -4.580   1.936  18.164  1.00  0.00    -0.504 OA
ATOM     20  H   UNL     1      -5.191   2.059  18.964  1.00  0.00     0.293 HD
ENDBRANCH  16  19
BRANCH  18  21
ATOM     21  O   UNL     1      -2.102   2.496  16.929  1.00  0.00    -0.504 OA
ATOM     22  H   UNL     1      -1.878   2.327  17.902  1.00  0.00     0.293 HD
ENDBRANCH  18  21
ENDBRANCH   3  13
BRANCH  10  23
ATOM     23  O   UNL     1      -4.293   8.776   9.875  1.00  0.00    -0.507 OA
ATOM     24  H   UNL     1      -4.792   7.957   9.547  1.00  0.00     0.293 HD
ENDBRANCH  10  23
BRANCH  11  25
ATOM     25  O   UNL     1      -1.605  11.125  13.145  1.00  0.00    -0.508 OA
ATOM     26  H   UNL     1      -1.820  12.058  12.811  1.00  0.00     0.293 HD
ENDBRANCH  11  25
ENDBRANCH   1   2
BRANCH   1  27
ATOM     27  C   UNL     1      -7.208   4.742  12.487  1.00  0.00     0.265 C 
BRANCH  27  28
ATOM     28  C   UNL     1      -7.639   6.126  12.994  1.00  0.00     0.190 C 
ATOM     29  C   UNL     1      -8.486   6.008  14.279  1.00  0.00     0.178 C 
ATOM     30  O   UNL     1      -8.368   6.787  11.970  1.00  0.00    -0.340 OA
ATOM     31  C   UNL     1      -8.879   7.421  14.749  1.00  0.00     0.179 C 
ATOM     32  C   UNL     1      -8.661   8.130  12.326  1.00  0.00     0.279 C 
ATOM     33  C   UNL     1      -9.541   8.195  13.595  1.00  0.00     0.201 C 
BRANCH  29  34
ATOM     34  O   UNL     1      -9.637   5.240  14.023  1.00  0.00    -0.387 OA
ATOM     35  H   UNL     1      -9.333   4.395  13.601  1.00  0.00     0.211 HD
ENDBRANCH  29  34
BRANCH  31  36
ATOM     36  O   UNL     1      -9.765   7.348  15.836  1.00  0.00    -0.387 OA
ATOM     37  H   UNL     1      -9.297   7.755  16.613  1.00  0.00     0.211 HD
ENDBRANCH  31  36
BRANCH  32  38
ATOM     38  O   UNL     1      -7.474   8.871  12.480  1.00  0.00    -0.366 OA
ATOM     39  H   UNL     1      -6.739   8.219  12.623  1.00  0.00     0.213 HD
ENDBRANCH  32  38
BRANCH  33  40
ATOM     40  O   UNL     1      -9.744   9.536  13.960  1.00  0.00    -0.385 OA
ATOM     41  H   UNL     1     -10.724   9.664  14.054  1.00  0.00     0.211 HD
ENDBRANCH  33  40
ENDBRANCH  27  28
ENDBRANCH   1  27
TORSDOF 12
ENDMDL
MODEL 2
REMARK VINA RESULT:    -6.846      1.565      2.208
REMARK INTER + INTRA:         -10.891
REMARK INTER:                  -9.998
REMARK INTRA:                  -0.893
REMARK UNBOUND:                -0.843
REMARK SMILES O=c1c(OC[C@H]2O[C@H](O)[C@H](O)[C@@H](O)[C@H]2O)c(-c2ccc(O)c(O)c2)oc2cc(O)cc(O)c12
REMARK SMILES IDX 4 1 3 2 16 3 25 4 2 5 26 6 1 7 33 8 27 9 31 10 28 11 30 12
REMARK SMILES IDX 17 13 18 14 19 15 20 16 24 17 22 18 21 19 23 21 32 23 29 25
REMARK SMILES IDX 5 27 6 28 14 29 7 30 12 31 8 32 10 33 15 34 13 36 9 38 11 40
REMARK H PARENT 21 20 23 22 32 24 29 26 15 35 13 37 9 39 11 41
REMARK Flexibility Score: inf
ROOT
ATOM      1  O   UNL     1      -6.549   5.823  12.955  1.00  0.00    -0.483 OA
ENDROOT
BRANCH   1   2
ATOM      2  C   UNL     1      -5.315   6.480  13.050  1.00  0.00     0.211 A 
ATOM      3  C   UNL     1      -4.498   6.380  14.196  1.00  0.00     0.180 A 
ATOM      4  O   UNL     1      -3.383   7.101  14.276  1.00  0.00    -0.452 OA
ATOM      5  C   UNL     1      -4.889   7.280  11.984  1.00  0.00     0.239 A 
ATOM      6  C   UNL     1      -2.961   7.901  13.303  1.00  0.00     0.146 A 
ATOM      7  O   UNL     1      -5.596   7.344  10.943  1.00  0.00    -0.285 OA
ATOM      8  C   UNL     1      -3.694   8.019  12.099  1.00  0.00     0.111 A 
ATOM      9  C   UNL     1      -1.776   8.622  13.479  1.00  0.00     0.094 A 
ATOM     10  C   UNL     1      -3.211   8.871  11.077  1.00  0.00     0.134 A 
ATOM     11  C   UNL     1      -1.303   9.462  12.470  1.00  0.00     0.123 A 
ATOM     12  C   UNL     1      -2.018   9.585  11.273  1.00  0.00     0.093 A 
BRANCH   3  13
ATOM     13  C   UNL     1      -4.823   5.483  15.327  1.00  0.00     0.025 A 
ATOM     14  C   UNL     1      -4.642   4.099  15.188  1.00  0.00     0.016 A 
ATOM     15  C   UNL     1      -4.955   3.237  16.242  1.00  0.00     0.051 A 
ATOM     16  C   UNL     1      -5.467   3.744  17.443  1.00  0.00     0.157 A 
ATOM     17  C   UNL     1      -5.358   5.988  16.525  1.00  0.00     0.062 A 
ATOM     18  C   UNL     1      -5.673   5.128  17.583  1.00  0.00     0.158 A 
BRANCH  16  19
ATOM     19  O   UNL     1      -5.775   2.883  18.494  1.00  0.00    -0.504 OA
ATOM     20  H   UNL     1      -5.309   2.954  19.392  1.00  0.00     0.293 HD
ENDBRANCH  16  19
BRANCH  18  21
ATOM     21  O   UNL     1      -6.192   5.664  18.761  1.00  0.00    -0.504 OA
ATOM     22  H   UNL     1      -6.012   5.248  19.667  1.00  0.00     0.293 HD
ENDBRANCH  18  21
ENDBRANCH   3  13
BRANCH  10  23
ATOM     23  O   UNL     1      -3.905   9.016   9.875  1.00  0.00    -0.507 OA
ATOM     24  H   UNL     1      -3.771   9.823   9.276  1.00  0.00     0.293 HD
ENDBRANCH  10  23
BRANCH  11  25
ATOM     25  O   UNL     1      -0.120  10.170  12.665  1.00  0.00    -0.508 OA
ATOM     26  H   UNL     1      -0.085  11.180  12.573  1.00  0.00     0.293 HD
ENDBRANCH  11  25
ENDBRANCH   1   2
BRANCH   1  27
ATOM     27  C   UNL     1      -7.779   6.420  13.373  1.00  0.00     0.265 C 
BRANCH  27  28
ATOM     28  C   UNL     1      -8.133   7.616  12.477  1.00  0.00     0.190 C 
ATOM     29  C   UNL     1      -8.886   8.703  13.272  1.00  0.00     0.178 C 
ATOM     30  O   UNL     1      -8.916   7.160  11.383  1.00  0.00    -0.340 OA
ATOM     31  C   UNL     1      -9.203   9.881  12.331  1.00  0.00     0.179 C 
ATOM     32  C   UNL     1      -9.143   8.196  10.439  1.00  0.00     0.279 C 
ATOM     33  C   UNL     1      -9.925   9.369  11.072  1.00  0.00     0.201 C 
BRANCH  29  34
ATOM     34  O   UNL     1     -10.075   8.168  13.803  1.00  0.00    -0.387 OA
ATOM     35  H   UNL     1     -10.541   8.910  14.271  1.00  0.00     0.211 HD
ENDBRANCH  29  34
BRANCH  31  36
ATOM     36  O   UNL     1     -10.009  10.827  12.985  1.00  0.00    -0.387 OA
ATOM     37  H   UNL     1      -9.632  11.721  12.767  1.00  0.00     0.211 HD
ENDBRANCH  31  36
BRANCH  32  38
ATOM     38  O   UNL     1      -7.927   8.628   9.877  1.00  0.00    -0.366 OA
ATOM     39  H   UNL     1      -7.199   8.135  10.338  1.00  0.00     0.213 HD
ENDBRANCH  32  38
BRANCH  33  40
ATOM     40  O   UNL     1     -10.063  10.405  10.133  1.00  0.00    -0.385 OA
ATOM     41  H   UNL     1     -10.546  11.143  10.588  1.00  0.00     0.211 HD
ENDBRANCH  33  40
ENDBRANCH  27  28
ENDBRANCH   1  27
TORSDOF 12
ENDMDL
MODEL 3
REMARK VINA RESULT:    -6.840      1.527      7.157
REMARK INTER + INTRA:         -10.882
REMARK INTER:                  -9.887
REMARK INTRA:                  -0.995
REMARK UNBOUND:                -0.843
REMARK SMILES O=c1c(OC[C@H]2O[C@H](O)[C@H](O)[C@@H](O)[C@H]2O)c(-c2ccc(O)c(O)c2)oc2cc(O)cc(O)c12
REMARK SMILES IDX 4 1 3 2 16 3 25 4 2 5 26 6 1 7 33 8 27 9 31 10 28 11 30 12
REMARK SMILES IDX 17 13 18 14 19 15 20 16 24 17 22 18 21 19 23 21 32 23 29 25
REMARK SMILES IDX 5 27 6 28 14 29 7 30 12 31 8 32 10 33 15 34 13 36 9 38 11 40
REMARK H PARENT 21 20 23 22 32 24 29 26 15 35 13 37 9 39 11 41
REMARK Flexibility Score: inf
ROOT
ATOM      1  O   UNL     1      -4.013   6.444  14.024  1.00  0.00    -0.483 OA
ENDROOT
BRANCH   1   2
ATOM      2  C   UNL     1      -4.286   5.368  14.880  1.00  0.00     0.211 A 
ATOM      3  C   UNL     1      -5.604   4.990  15.213  1.00  0.00     0.180 A 
ATOM      4  O   UNL     1      -5.807   4.026  16.107  1.00  0.00    -0.452 OA
ATOM      5  C   UNL     1      -3.217   4.662  15.442  1.00  0.00     0.239 A 
ATOM      6  C   UNL     1      -4.821   3.355  16.692  1.00  0.00     0.146 A 
ATOM      7  O   UNL     1      -2.039   4.971  15.119  1.00  0.00    -0.285 OA
ATOM      8  C   UNL     1      -3.471   3.636  16.375  1.00  0.00     0.111 A 
ATOM      9  C   UNL     1      -5.133   2.359  17.622  1.00  0.00     0.094 A 
ATOM     10  C   UNL     1      -2.444   2.894  17.008  1.00  0.00     0.134 A 
ATOM     11  C   UNL     1      -4.118   1.630  18.244  1.00  0.00     0.123 A 
ATOM     12  C   UNL     1      -2.779   1.897  17.937  1.00  0.00     0.093 A 
BRANCH   3  13
ATOM     13  C   UNL     1      -6.791   5.619  14.592  1.00  0.00     0.025 A 
ATOM     14  C   UNL     1      -7.009   5.476  13.214  1.00  0.00     0.016 A 
ATOM     15  C   UNL     1      -8.118   6.072  12.610  1.00  0.00     0.051 A 
ATOM     16  C   UNL     1      -9.017   6.831  13.371  1.00  0.00     0.157 A 
ATOM     17  C   UNL     1      -7.681   6.399  15.351  1.00  0.00     0.062 A 
ATOM     18  C   UNL     1      -8.794   6.997  14.749  1.00  0.00     0.158 A 
BRANCH  16  19
ATOM     19  O   UNL     1     -10.125   7.421  12.767  1.00  0.00    -0.504 OA
ATOM     20  H   UNL     1     -10.474   7.101  11.871  1.00  0.00     0.293 HD
ENDBRANCH  16  19
BRANCH  18  21
ATOM     21  O   UNL     1      -9.663   7.755  15.534  1.00  0.00    -0.504 OA
ATOM     22  H   UNL     1     -10.650   7.832  15.322  1.00  0.00     0.293 HD
ENDBRANCH  18  21
ENDBRANCH   3  13
BRANCH  10  23
ATOM     23  O   UNL     1      -1.101   3.141  16.724  1.00  0.00    -0.507 OA
ATOM     24  H   UNL     1      -0.594   3.901  17.164  1.00  0.00     0.293 HD
ENDBRANCH  10  23
BRANCH  11  25
ATOM     25  O   UNL     1      -4.450   0.641  19.167  1.00  0.00    -0.508 OA
ATOM     26  H   UNL     1      -3.874  -0.184  19.290  1.00  0.00     0.293 HD
ENDBRANCH  11  25
ENDBRANCH   1   2
BRANCH   1  27
ATOM     27  C   UNL     1      -4.325   7.798  14.356  1.00  0.00     0.265 C 
BRANCH  27  28
ATOM     28  C   UNL     1      -3.360   8.765  13.655  1.00  0.00     0.190 C 
ATOM     29  C   UNL     1      -3.596   8.779  12.131  1.00  0.00     0.178 C 
ATOM     30  O   UNL     1      -2.025   8.383  13.954  1.00  0.00    -0.340 OA
ATOM     31  C   UNL     1      -2.612   9.771  11.482  1.00  0.00     0.179 C 
ATOM     32  C   UNL     1      -1.091   9.331  13.459  1.00  0.00     0.279 C 
ATOM     33  C   UNL     1      -1.173   9.449  11.921  1.00  0.00     0.201 C 
BRANCH  29  34
ATOM     34  O   UNL     1      -3.403   7.487  11.606  1.00  0.00    -0.387 OA
ATOM     35  H   UNL     1      -2.846   6.990  12.260  1.00  0.00     0.211 HD
ENDBRANCH  29  34
BRANCH  31  36
ATOM     36  O   UNL     1      -2.704   9.708  10.082  1.00  0.00    -0.387 OA
ATOM     37  H   UNL     1      -3.367  10.396   9.808  1.00  0.00     0.211 HD
ENDBRANCH  31  36
BRANCH  32  38
ATOM     38  O   UNL     1      -1.274  10.579  14.085  1.00  0.00    -0.366 OA
ATOM     39  H   UNL     1      -0.534  10.690  14.738  1.00  0.00     0.213 HD
ENDBRANCH  32  38
BRANCH  33  40
ATOM     40  O   UNL     1      -0.293  10.449  11.477  1.00  0.00    -0.385 OA
ATOM     41  H   UNL     1       0.625  10.074  11.537  1.00  0.00     0.211 HD
ENDBRANCH  33  40
ENDBRANCH  27  28
ENDBRANCH   1  27
TORSDOF 12
ENDMDL
MODEL 4
REMARK VINA RESULT:    -6.737      2.033      6.396
REMARK INTER + INTRA:         -10.731
REMARK INTER:                  -9.924
REMARK INTRA:                  -0.807
REMARK UNBOUND:                -0.843
REMARK SMILES O=c1c(OC[C@H]2O[C@H](O)[C@H](O)[C@@H](O)[C@H]2O)c(-c2ccc(O)c(O)c2)oc2cc(O)cc(O)c12
REMARK SMILES IDX 4 1 3 2 16 3 25 4 2 5 26 6 1 7 33 8 27 9 31 10 28 11 30 12
REMARK SMILES IDX 17 13 18 14 19 15 20 16 24 17 22 18 21 19 23 21 32 23 29 25
REMARK SMILES IDX 5 27 6 28 14 29 7 30 12 31 8 32 10 33 15 34 13 36 9 38 11 40
REMARK H PARENT 21 20 23 22 32 24 29 26 15 35 13 37 9 39 11 41
REMARK Flexibility Score: inf
ROOT
ATOM      1  O   UNL     1      -4.160   6.447  13.499  1.00  0.00    -0.483 OA
ENDROOT
BRANCH   1   2
ATOM      2  C   UNL     1      -5.026   7.299  12.798  1.00  0.00     0.211 A 
ATOM      3  C   UNL     1      -4.733   8.664  12.594  1.00  0.00     0.180 A 
ATOM      4  O   UNL     1      -5.633   9.451  12.009  1.00  0.00    -0.452 OA
ATOM      5  C   UNL     1      -6.230   6.785  12.307  1.00  0.00     0.239 A 
ATOM      6  C   UNL     1      -6.803   9.011  11.561  1.00  0.00     0.146 A 
ATOM      7  O   UNL     1      -6.480   5.558  12.453  1.00  0.00    -0.285 OA
ATOM      8  C   UNL     1      -7.153   7.646  11.679  1.00  0.00     0.111 A 
ATOM      9  C   UNL     1      -7.686   9.915  10.961  1.00  0.00     0.094 A 
ATOM     10  C   UNL     1      -8.403   7.208  11.180  1.00  0.00     0.134 A 
ATOM     11  C   UNL     1      -8.918   9.480  10.471  1.00  0.00     0.123 A 
ATOM     12  C   UNL     1      -9.274   8.131  10.579  1.00  0.00     0.093 A 
BRANCH   3  13
ATOM     13  C   UNL     1      -3.443   9.268  12.995  1.00  0.00     0.025 A 
ATOM     14  C   UNL     1      -3.373  10.040  14.163  1.00  0.00     0.016 A 
ATOM     15  C   UNL     1      -2.165  10.627  14.550  1.00  0.00     0.051 A 
ATOM     16  C   UNL     1      -1.015  10.462  13.768  1.00  0.00     0.157 A 
ATOM     17  C   UNL     1      -2.293   9.121  12.199  1.00  0.00     0.062 A 
ATOM     18  C   UNL     1      -1.082   9.707  12.583  1.00  0.00     0.158 A 
BRANCH  16  19
ATOM     19  O   UNL     1       0.189  11.044  14.158  1.00  0.00    -0.504 OA
ATOM     20  H   UNL     1       0.280  11.533  15.041  1.00  0.00     0.293 HD
ENDBRANCH  16  19
BRANCH  18  21
ATOM     21  O   UNL     1       0.042   9.533  11.776  1.00  0.00    -0.504 OA
ATOM     22  H   UNL     1       0.576  10.317  11.421  1.00  0.00     0.293 HD
ENDBRANCH  18  21
ENDBRANCH   3  13
BRANCH  10  23
ATOM     23  O   UNL     1      -8.787   5.870  11.278  1.00  0.00    -0.507 OA
ATOM     24  H   UNL     1      -8.747   5.244  10.482  1.00  0.00     0.293 HD
ENDBRANCH  10  23
BRANCH  11  25
ATOM     25  O   UNL     1      -9.782  10.396   9.876  1.00  0.00    -0.508 OA
ATOM     26  H   UNL     1      -9.588  10.792   8.963  1.00  0.00     0.293 HD
ENDBRANCH  11  25
ENDBRANCH   1   2
BRANCH   1  27
ATOM     27  C   UNL     1      -3.647   6.760  14.796  1.00  0.00     0.265 C 
BRANCH  27  28
ATOM     28  C   UNL     1      -4.003   5.653  15.800  1.00  0.00     0.190 C 
ATOM     29  C   UNL     1      -3.010   4.476  15.703  1.00  0.00     0.178 C 
ATOM     30  O   UNL     1      -5.330   5.213  15.553  1.00  0.00    -0.340 OA
ATOM     31  C   UNL     1      -3.404   3.404  16.737  1.00  0.00     0.179 C 
ATOM     32  C   UNL     1      -5.767   4.298  16.547  1.00  0.00     0.279 C 
ATOM     33  C   UNL     1      -4.887   3.028  16.567  1.00  0.00     0.201 C 
BRANCH  29  34
ATOM     34  O   UNL     1      -3.036   3.934  14.404  1.00  0.00    -0.387 OA
ATOM     35  H   UNL     1      -2.178   4.182  13.971  1.00  0.00     0.211 HD
ENDBRANCH  29  34
BRANCH  31  36
ATOM     36  O   UNL     1      -2.607   2.258  16.584  1.00  0.00    -0.387 OA
ATOM     37  H   UNL     1      -2.040   2.193  17.397  1.00  0.00     0.211 HD
ENDBRANCH  31  36
BRANCH  32  38
ATOM     38  O   UNL     1      -5.806   4.921  17.809  1.00  0.00    -0.366 OA
ATOM     39  H   UNL     1      -5.343   4.318  18.448  1.00  0.00     0.213 HD
ENDBRANCH  32  38
BRANCH  33  40
ATOM     40  O   UNL     1      -5.299   2.185  17.611  1.00  0.00    -0.385 OA
ATOM     41  H   UNL     1      -6.057   1.645  17.264  1.00  0.00     0.211 HD
ENDBRANCH  33  40
ENDBRANCH  27  28
ENDBRANCH   1  27
TORSDOF 12
ENDMDL
MODEL 5
REMARK VINA RESULT:    -6.659      1.776      6.416
REMARK INTER + INTRA:         -10.617
REMARK INTER:                  -9.164
REMARK INTRA:                  -1.453
REMARK UNBOUND:                -0.843
REMARK SMILES O=c1c(OC[C@H]2O[C@H](O)[C@H](O)[C@@H](O)[C@H]2O)c(-c2ccc(O)c(O)c2)oc2cc(O)cc(O)c12
REMARK SMILES IDX 4 1 3 2 16 3 25 4 2 5 26 6 1 7 33 8 27 9 31 10 28 11 30 12
REMARK SMILES IDX 17 13 18 14 19 15 20 16 24 17 22 18 21 19 23 21 32 23 29 25
REMARK SMILES IDX 5 27 6 28 14 29 7 30 12 31 8 32 10 33 15 34 13 36 9 38 11 40
REMARK H PARENT 21 20 23 22 32 24 29 26 15 35 13 37 9 39 11 41
REMARK Flexibility Score: inf
ROOT
ATOM      1  O   UNL     1      -3.921   5.893  14.089  1.00  0.00    -0.483 OA
ENDROOT
BRANCH   1   2
ATOM      2  C   UNL     1      -4.113   4.874  15.031  1.00  0.00     0.211 A 
ATOM      3  C   UNL     1      -5.397   4.503  15.484  1.00  0.00     0.180 A 
ATOM      4  O   UNL     1      -5.518   3.597  16.451  1.00  0.00    -0.452 OA
ATOM      5  C   UNL     1      -2.995   4.218  15.557  1.00  0.00     0.239 A 
ATOM      6  C   UNL     1      -4.481   2.977  17.003  1.00  0.00     0.146 A 
ATOM      7  O   UNL     1      -1.848   4.519  15.128  1.00  0.00    -0.285 OA
ATOM      8  C   UNL     1      -3.163   3.252  16.570  1.00  0.00     0.111 A 
ATOM      9  C   UNL     1      -4.708   2.041  18.017  1.00  0.00     0.094 A 
ATOM     10  C   UNL     1      -2.081   2.566  17.172  1.00  0.00     0.134 A 
ATOM     11  C   UNL     1      -3.639   1.367  18.608  1.00  0.00     0.123 A 
ATOM     12  C   UNL     1      -2.330   1.628  18.186  1.00  0.00     0.093 A 
BRANCH   3  13
ATOM     13  C   UNL     1      -6.636   5.075  14.913  1.00  0.00     0.025 A 
ATOM     14  C   UNL     1      -6.999   4.765  13.595  1.00  0.00     0.016 A 
ATOM     15  C   UNL     1      -8.160   5.305  13.036  1.00  0.00     0.051 A 
ATOM     16  C   UNL     1      -8.966   6.175  13.782  1.00  0.00     0.157 A 
ATOM     17  C   UNL     1      -7.434   5.966  15.653  1.00  0.00     0.062 A 
ATOM     18  C   UNL     1      -8.597   6.509  15.097  1.00  0.00     0.158 A 
BRANCH  16  19
ATOM     19  O   UNL     1     -10.125   6.710  13.225  1.00  0.00    -0.504 OA
ATOM     20  H   UNL     1     -11.026   6.258  13.338  1.00  0.00     0.293 HD
ENDBRANCH  16  19
BRANCH  18  21
ATOM     21  O   UNL     1      -9.371   7.381  15.863  1.00  0.00    -0.504 OA
ATOM     22  H   UNL     1     -10.371   7.474  15.727  1.00  0.00     0.293 HD
ENDBRANCH  18  21
ENDBRANCH   3  13
BRANCH  10  23
ATOM     23  O   UNL     1      -0.766   2.810  16.774  1.00  0.00    -0.507 OA
ATOM     24  H   UNL     1      -0.522   3.609  16.200  1.00  0.00     0.293 HD
ENDBRANCH  10  23
BRANCH  11  25
ATOM     25  O   UNL     1      -3.887   0.436  19.614  1.00  0.00    -0.508 OA
ATOM     26  H   UNL     1      -4.759  -0.079  19.657  1.00  0.00     0.293 HD
ENDBRANCH  11  25
ENDBRANCH   1   2
BRANCH   1  27
ATOM     27  C   UNL     1      -3.929   7.280  14.435  1.00  0.00     0.265 C 
BRANCH  27  28
ATOM     28  C   UNL     1      -4.893   8.060  13.529  1.00  0.00     0.190 C 
ATOM     29  C   UNL     1      -5.026   7.384  12.148  1.00  0.00     0.178 C 
ATOM     30  O   UNL     1      -4.425   9.393  13.394  1.00  0.00    -0.340 OA
ATOM     31  C   UNL     1      -6.011   8.198  11.287  1.00  0.00     0.179 C 
ATOM     32  C   UNL     1      -5.357  10.202  12.692  1.00  0.00     0.279 C 
ATOM     33  C   UNL     1      -5.587   9.677  11.257  1.00  0.00     0.201 C 
BRANCH  29  34
ATOM     34  O   UNL     1      -3.766   7.324  11.523  1.00  0.00    -0.387 OA
ATOM     35  H   UNL     1      -3.086   7.303  12.245  1.00  0.00     0.211 HD
ENDBRANCH  29  34
BRANCH  31  36
ATOM     36  O   UNL     1      -6.051   7.692   9.977  1.00  0.00    -0.387 OA
ATOM     37  H   UNL     1      -5.206   7.971   9.537  1.00  0.00     0.211 HD
ENDBRANCH  31  36
BRANCH  32  38
ATOM     38  O   UNL     1      -6.566  10.299  13.408  1.00  0.00    -0.366 OA
ATOM     39  H   UNL     1      -6.910   9.375  13.526  1.00  0.00     0.213 HD
ENDBRANCH  32  38
BRANCH  33  40
ATOM     40  O   UNL     1      -6.571  10.453  10.623  1.00  0.00    -0.385 OA
ATOM     41  H   UNL     1      -7.384  10.410  11.192  1.00  0.00     0.211 HD
ENDBRANCH  33  40
ENDBRANCH  27  28
ENDBRANCH   1  27
TORSDOF 12
ENDMDL
MODEL 6
REMARK VINA RESULT:    -6.496      1.715      5.885
REMARK INTER + INTRA:         -10.378
REMARK INTER:                  -9.512
REMARK INTRA:                  -0.866
REMARK UNBOUND:                -0.843
REMARK SMILES O=c1c(OC[C@H]2O[C@H](O)[C@H](O)[C@@H](O)[C@H]2O)c(-c2ccc(O)c(O)c2)oc2cc(O)cc(O)c12
REMARK SMILES IDX 4 1 3 2 16 3 25 4 2 5 26 6 1 7 33 8 27 9 31 10 28 11 30 12
REMARK SMILES IDX 17 13 18 14 19 15 20 16 24 17 22 18 21 19 23 21 32 23 29 25
REMARK SMILES IDX 5 27 6 28 14 29 7 30 12 31 8 32 10 33 15 34 13 36 9 38 11 40
REMARK H PARENT 21 20 23 22 32 24 29 26 15 35 13 37 9 39 11 41
REMARK Flexibility Score: inf
ROOT
ATOM      1  O   UNL     1      -6.327   6.772  13.939  1.00  0.00    -0.483 OA
ENDROOT
BRANCH   1   2
ATOM      2  C   UNL     1      -5.206   6.120  14.470  1.00  0.00     0.211 A 
ATOM      3  C   UNL     1      -3.889   6.521  14.162  1.00  0.00     0.180 A 
ATOM      4  O   UNL     1      -2.861   5.808  14.614  1.00  0.00    -0.452 OA
ATOM      5  C   UNL     1      -5.399   5.022  15.315  1.00  0.00     0.239 A 
ATOM      6  C   UNL     1      -3.000   4.738  15.388  1.00  0.00     0.146 A 
ATOM      7  O   UNL     1      -6.573   4.683  15.624  1.00  0.00    -0.285 OA
ATOM      8  C   UNL     1      -4.284   4.300  15.787  1.00  0.00     0.111 A 
ATOM      9  C   UNL     1      -1.858   4.051  15.813  1.00  0.00     0.094 A 
ATOM     10  C   UNL     1      -4.397   3.162  16.622  1.00  0.00     0.134 A 
ATOM     11  C   UNL     1      -1.973   2.930  16.635  1.00  0.00     0.123 A 
ATOM     12  C   UNL     1      -3.238   2.488  17.039  1.00  0.00     0.093 A 
BRANCH   3  13
ATOM     13  C   UNL     1      -3.594   7.727  13.357  1.00  0.00     0.025 A 
ATOM     14  C   UNL     1      -3.881   7.731  11.984  1.00  0.00     0.016 A 
ATOM     15  C   UNL     1      -3.599   8.857  11.207  1.00  0.00     0.051 A 
ATOM     16  C   UNL     1      -3.012   9.989  11.788  1.00  0.00     0.157 A 
ATOM     17  C   UNL     1      -2.985   8.855  13.934  1.00  0.00     0.062 A 
ATOM     18  C   UNL     1      -2.701   9.985  13.159  1.00  0.00     0.158 A 
BRANCH  16  19
ATOM     19  O   UNL     1      -2.735  11.112  11.012  1.00  0.00    -0.504 OA
ATOM     20  H   UNL     1      -1.813  11.273  10.621  1.00  0.00     0.293 HD
ENDBRANCH  16  19
BRANCH  18  21
ATOM     21  O   UNL     1      -2.106  11.091  13.765  1.00  0.00    -0.504 OA
ATOM     22  H   UNL     1      -1.101  11.172  13.871  1.00  0.00     0.293 HD
ENDBRANCH  18  21
ENDBRANCH   3  13
BRANCH  10  23
ATOM     23  O   UNL     1      -5.645   2.696  17.036  1.00  0.00    -0.507 OA
ATOM     24  H   UNL     1      -6.174   2.028  16.487  1.00  0.00     0.293 HD
ENDBRANCH  10  23
BRANCH  11  25
ATOM     25  O   UNL     1      -0.823   2.261  17.048  1.00  0.00    -0.508 OA
ATOM     26  H   UNL     1      -0.632   2.091  18.029  1.00  0.00     0.293 HD
ENDBRANCH  11  25
ENDBRANCH   1   2
BRANCH   1  27
ATOM     27  C   UNL     1      -6.783   8.042  14.412  1.00  0.00     0.265 C 
BRANCH  27  28
ATOM     28  C   UNL     1      -7.908   8.582  13.516  1.00  0.00     0.190 C 
ATOM     29  C   UNL     1      -8.292   7.558  12.428  1.00  0.00     0.178 C 
ATOM     30  O   UNL     1      -7.485   9.805  12.930  1.00  0.00    -0.340 OA
ATOM     31  C   UNL     1      -9.429   8.145  11.570  1.00  0.00     0.179 C 
ATOM     32  C   UNL     1      -8.541  10.429  12.214  1.00  0.00     0.279 C 
ATOM     33  C   UNL     1      -9.032   9.538  11.051  1.00  0.00     0.201 C 
BRANCH  29  34
ATOM     34  O   UNL     1      -7.172   7.272  11.625  1.00  0.00    -0.387 OA
ATOM     35  H   UNL     1      -6.367   7.489  12.164  1.00  0.00     0.211 HD
ENDBRANCH  29  34
BRANCH  31  36
ATOM     36  O   UNL     1      -9.711   7.299  10.485  1.00  0.00    -0.387 OA
ATOM     37  H   UNL     1      -8.843   6.920  10.186  1.00  0.00     0.211 HD
ENDBRANCH  31  36
BRANCH  32  38
ATOM     38  O   UNL     1      -9.593  10.773  13.084  1.00  0.00    -0.366 OA
ATOM     39  H   UNL     1      -9.209  10.837  13.997  1.00  0.00     0.213 HD
ENDBRANCH  32  38
BRANCH  33  40
ATOM     40  O   UNL     1     -10.125  10.152  10.416  1.00  0.00    -0.385 OA
ATOM     41  H   UNL     1     -10.821  10.290  11.111  1.00  0.00     0.211 HD
ENDBRANCH  33  40
ENDBRANCH  27  28
ENDBRANCH   1  27
TORSDOF 12
ENDMDL
MODEL 7
REMARK VINA RESULT:    -6.491      2.274      6.124
REMARK INTER + INTRA:         -10.371
REMARK INTER:                  -9.393
REMARK INTRA:                  -0.977
REMARK UNBOUND:                -0.843
REMARK SMILES O=c1c(OC[C@H]2O[C@H](O)[C@H](O)[C@@H](O)[C@H]2O)c(-c2ccc(O)c(O)c2)oc2cc(O)cc(O)c12
REMARK SMILES IDX 4 1 3 2 16 3 25 4 2 5 26 6 1 7 33 8 27 9 31 10 28 11 30 12
REMARK SMILES IDX 17 13 18 14 19 15 20 16 24 17 22 18 21 19 23 21 32 23 29 25
REMARK SMILES IDX 5 27 6 28 14 29 7 30 12 31 8 32 10 33 15 34 13 36 9 38 11 40
REMARK H PARENT 21 20 23 22 32 24 29 26 15 35 13 37 9 39 11 41
REMARK Flexibility Score: inf
ROOT
ATOM      1  O   UNL     1      -5.200   6.657  14.011  1.00  0.00    -0.483 OA
ENDROOT
BRANCH   1   2
ATOM      2  C   UNL     1      -4.487   7.503  13.151  1.00  0.00     0.211 A 
ATOM      3  C   UNL     1      -4.958   7.832  11.862  1.00  0.00     0.180 A 
ATOM      4  O   UNL     1      -4.197   8.559  11.048  1.00  0.00    -0.452 OA
ATOM      5  C   UNL     1      -3.257   8.018  13.573  1.00  0.00     0.239 A 
ATOM      6  C   UNL     1      -3.008   9.038  11.396  1.00  0.00     0.146 A 
ATOM      7  O   UNL     1      -2.849   7.758  14.737  1.00  0.00    -0.285 OA
ATOM      8  C   UNL     1      -2.485   8.798  12.688  1.00  0.00     0.111 A 
ATOM      9  C   UNL     1      -2.279   9.791  10.470  1.00  0.00     0.094 A 
ATOM     10  C   UNL     1      -1.219   9.331  13.031  1.00  0.00     0.134 A 
ATOM     11  C   UNL     1      -1.032  10.315  10.812  1.00  0.00     0.123 A 
ATOM     12  C   UNL     1      -0.505  10.087  12.088  1.00  0.00     0.093 A 
BRANCH   3  13
ATOM     13  C   UNL     1      -6.289   7.410  11.372  1.00  0.00     0.025 A 
ATOM     14  C   UNL     1      -7.376   8.291  11.473  1.00  0.00     0.016 A 
ATOM     15  C   UNL     1      -8.641   7.905  11.025  1.00  0.00     0.051 A 
ATOM     16  C   UNL     1      -8.841   6.628  10.484  1.00  0.00     0.157 A 
ATOM     17  C   UNL     1      -6.496   6.122  10.848  1.00  0.00     0.062 A 
ATOM     18  C   UNL     1      -7.762   5.731  10.398  1.00  0.00     0.158 A 
BRANCH  16  19
ATOM     19  O   UNL     1     -10.104   6.247  10.034  1.00  0.00    -0.504 OA
ATOM     20  H   UNL     1     -10.917   6.286  10.639  1.00  0.00     0.293 HD
ENDBRANCH  16  19
BRANCH  18  21
ATOM     21  O   UNL     1      -7.930   4.450   9.875  1.00  0.00    -0.504 OA
ATOM     22  H   UNL     1      -8.783   3.920  10.011  1.00  0.00     0.293 HD
ENDBRANCH  18  21
ENDBRANCH   3  13
BRANCH  10  23
ATOM     23  O   UNL     1      -0.668   9.116  14.294  1.00  0.00    -0.507 OA
ATOM     24  H   UNL     1       0.277   8.767  14.411  1.00  0.00     0.293 HD
ENDBRANCH  10  23
BRANCH  11  25
ATOM     25  O   UNL     1      -0.323  11.064   9.875  1.00  0.00    -0.508 OA
ATOM     26  H   UNL     1       0.377  10.639   9.276  1.00  0.00     0.293 HD
ENDBRANCH  11  25
ENDBRANCH   1   2
BRANCH   1  27
ATOM     27  C   UNL     1      -5.122   5.231  13.937  1.00  0.00     0.265 C 
BRANCH  27  28
ATOM     28  C   UNL     1      -4.702   4.641  15.291  1.00  0.00     0.190 C 
ATOM     29  C   UNL     1      -3.171   4.467  15.371  1.00  0.00     0.178 C 
ATOM     30  O   UNL     1      -5.359   3.395  15.477  1.00  0.00    -0.340 OA
ATOM     31  C   UNL     1      -2.805   3.885  16.750  1.00  0.00     0.179 C 
ATOM     32  C   UNL     1      -5.129   2.876  16.778  1.00  0.00     0.279 C 
ATOM     33  C   UNL     1      -3.625   2.611  17.018  1.00  0.00     0.201 C 
BRANCH  29  34
ATOM     34  O   UNL     1      -2.733   3.607  14.347  1.00  0.00    -0.387 OA
ATOM     35  H   UNL     1      -1.816   3.896  14.099  1.00  0.00     0.211 HD
ENDBRANCH  29  34
BRANCH  31  36
ATOM     36  O   UNL     1      -1.435   3.585  16.808  1.00  0.00    -0.387 OA
ATOM     37  H   UNL     1      -1.179   3.243  15.911  1.00  0.00     0.211 HD
ENDBRANCH  31  36
BRANCH  32  38
ATOM     38  O   UNL     1      -5.667   3.734  17.756  1.00  0.00    -0.366 OA
ATOM     39  H   UNL     1      -5.655   3.240  18.617  1.00  0.00     0.213 HD
ENDBRANCH  32  38
BRANCH  33  40
ATOM     40  O   UNL     1      -3.429   2.173  18.338  1.00  0.00    -0.385 OA
ATOM     41  H   UNL     1      -3.985   2.754  18.920  1.00  0.00     0.211 HD
ENDBRANCH  33  40
ENDBRANCH  27  28
ENDBRANCH   1  27
TORSDOF 12
ENDMDL
MODEL 8
REMARK VINA RESULT:    -6.419      1.989      6.223
REMARK INTER + INTRA:         -10.264
REMARK INTER:                  -8.934
REMARK INTRA:                  -1.330
REMARK UNBOUND:                -0.843
REMARK SMILES O=c1c(OC[C@H]2O[C@H](O)[C@H](O)[C@@H](O)[C@H]2O)c(-c2ccc(O)c(O)c2)oc2cc(O)cc(O)c12
REMARK SMILES IDX 4 1 3 2 16 3 25 4 2 5 26 6 1 7 33 8 27 9 31 10 28 11 30 12
REMARK SMILES IDX 17 13 18 14 19 15 20 16 24 17 22 18 21 19 23 21 32 23 29 25
REMARK SMILES IDX 5 27 6 28 14 29 7 30 12 31 8 32 10 33 15 34 13 36 9 38 11 40
REMARK H PARENT 21 20 23 22 32 24 29 26 15 35 13 37 9 39 11 41
REMARK Flexibility Score: inf
ROOT
ATOM      1  O   UNL     1      -5.333  10.035  14.681  1.00  0.00    -0.483 OA
ENDROOT
BRANCH   1   2
ATOM      2  C   UNL     1      -4.966   8.694  14.863  1.00  0.00     0.211 A 
ATOM      3  C   UNL     1      -4.044   8.047  14.013  1.00  0.00     0.180 A 
ATOM      4  O   UNL     1      -3.805   6.747  14.169  1.00  0.00    -0.452 OA
ATOM      5  C   UNL     1      -5.550   7.967  15.906  1.00  0.00     0.239 A 
ATOM      6  C   UNL     1      -4.365   6.012  15.122  1.00  0.00     0.146 A 
ATOM      7  O   UNL     1      -6.346   8.550  16.690  1.00  0.00    -0.285 OA
ATOM      8  C   UNL     1      -5.261   6.595  16.049  1.00  0.00     0.111 A 
ATOM      9  C   UNL     1      -4.053   4.652  15.205  1.00  0.00     0.094 A 
ATOM     10  C   UNL     1      -5.833   5.785  17.059  1.00  0.00     0.134 A 
ATOM     11  C   UNL     1      -4.619   3.856  16.203  1.00  0.00     0.123 A 
ATOM     12  C   UNL     1      -5.504   4.422  17.127  1.00  0.00     0.093 A 
BRANCH   3  13
ATOM     13  C   UNL     1      -3.308   8.763  12.948  1.00  0.00     0.025 A 
ATOM     14  C   UNL     1      -3.707   8.617  11.612  1.00  0.00     0.016 A 
ATOM     15  C   UNL     1      -3.017   9.277  10.592  1.00  0.00     0.051 A 
ATOM     16  C   UNL     1      -1.909  10.080  10.893  1.00  0.00     0.157 A 
ATOM     17  C   UNL     1      -2.183   9.552  13.246  1.00  0.00     0.062 A 
ATOM     18  C   UNL     1      -1.489  10.215  12.228  1.00  0.00     0.158 A 
BRANCH  16  19
ATOM     19  O   UNL     1      -1.224  10.741   9.875  1.00  0.00    -0.504 OA
ATOM     20  H   UNL     1      -0.397  10.342   9.446  1.00  0.00     0.293 HD
ENDBRANCH  16  19
BRANCH  18  21
ATOM     21  O   UNL     1      -0.383  10.998  12.560  1.00  0.00    -0.504 OA
ATOM     22  H   UNL     1       0.532  10.596  12.720  1.00  0.00     0.293 HD
ENDBRANCH  18  21
ENDBRANCH   3  13
BRANCH  10  23
ATOM     23  O   UNL     1      -6.722   6.321  17.991  1.00  0.00    -0.507 OA
ATOM     24  H   UNL     1      -7.270   7.150  17.790  1.00  0.00     0.293 HD
ENDBRANCH  10  23
BRANCH  11  25
ATOM     25  O   UNL     1      -4.293   2.504  16.269  1.00  0.00    -0.508 OA
ATOM     26  H   UNL     1      -3.651   2.080  15.608  1.00  0.00     0.293 HD
ENDBRANCH  11  25
ENDBRANCH   1   2
BRANCH   1  27
ATOM     27  C   UNL     1      -6.419  10.434  13.842  1.00  0.00     0.265 C 
BRANCH  27  28
ATOM     28  C   UNL     1      -7.175   9.206  13.313  1.00  0.00     0.190 C 
ATOM     29  C   UNL     1      -7.428   9.320  11.795  1.00  0.00     0.178 C 
ATOM     30  O   UNL     1      -8.401   9.078  14.019  1.00  0.00    -0.340 OA
ATOM     31  C   UNL     1      -8.176   8.061  11.317  1.00  0.00     0.179 C 
ATOM     32  C   UNL     1      -9.072   7.873  13.680  1.00  0.00     0.279 C 
ATOM     33  C   UNL     1      -9.432   7.835  12.177  1.00  0.00     0.201 C 
BRANCH  29  34
ATOM     34  O   UNL     1      -8.190  10.472  11.523  1.00  0.00    -0.387 OA
ATOM     35  H   UNL     1      -7.552  11.180  11.244  1.00  0.00     0.211 HD
ENDBRANCH  29  34
BRANCH  31  36
ATOM     36  O   UNL     1      -8.544   8.191   9.969  1.00  0.00    -0.387 OA
ATOM     37  H   UNL     1      -8.998   9.071   9.880  1.00  0.00     0.211 HD
ENDBRANCH  31  36
BRANCH  32  38
ATOM     38  O   UNL     1      -8.303   6.756  14.057  1.00  0.00    -0.366 OA
ATOM     39  H   UNL     1      -8.419   6.637  15.036  1.00  0.00     0.213 HD
ENDBRANCH  32  38
BRANCH  33  40
ATOM     40  O   UNL     1     -10.022   6.600  11.865  1.00  0.00    -0.385 OA
ATOM     41  H   UNL     1      -9.385   6.117  11.276  1.00  0.00     0.211 HD
ENDBRANCH  33  40
ENDBRANCH  27  28
ENDBRANCH   1  27
TORSDOF 12
ENDMDL
