MODEL 1
REMARK VINA RESULT:    22.172      0.000      0.000
REMARK INTER + INTRA:          26.421
REMARK INTER:                  26.709
REMARK INTRA:                  -0.288
REMARK UNBOUND:                -0.288
REMARK SMILES O=c1c(O)c(-c2ccc(O)c(O)c2)oc2cc(O)cc(O)c12
REMARK SMILES IDX 5 1 3 2 2 3 1 4 22 5 20 6 19 7 17 8 16 9 15 10 14 11 6 12
REMARK SMILES IDX 7 13 8 14 9 15 13 16 11 17 10 18 12 20 4 22 21 24 18 26
REMARK H PARENT 10 19 12 21 4 23 21 25 18 27
REMARK Flexibility Score: inf
ROOT
ATOM      1  C   UNL     1      26.847  30.127   4.847  1.00  0.00     0.180 A 
ATOM      2  C   UNL     1      27.940  30.706   4.178  1.00  0.00     0.208 A 
ATOM      3  C   UNL     1      28.491  30.039   3.072  1.00  0.00     0.238 A 
ATOM      4  O   UNL     1      29.420  30.598   2.433  1.00  0.00    -0.285 OA
ATOM      5  C   UNL     1      27.981  28.778   2.682  1.00  0.00     0.111 A 
ATOM      6  C   UNL     1      28.492  27.992   1.604  1.00  0.00     0.134 A 
ATOM      7  C   UNL     1      27.838  26.807   1.242  1.00  0.00     0.093 A 
ATOM      8  C   UNL     1      26.733  26.347   1.957  1.00  0.00     0.123 A 
ATOM      9  C   UNL     1      26.259  27.077   3.047  1.00  0.00     0.094 A 
ATOM     10  C   UNL     1      26.865  28.283   3.409  1.00  0.00     0.146 A 
ATOM     11  O   UNL     1      26.368  28.958   4.438  1.00  0.00    -0.452 OA
ENDROOT
BRANCH   1  12
ATOM     12  C   UNL     1      26.203  30.776   6.011  1.00  0.00     0.025 A 
ATOM     13  C   UNL     1      25.025  31.517   5.823  1.00  0.00     0.016 A 
ATOM     14  C   UNL     1      24.411  32.157   6.903  1.00  0.00     0.051 A 
ATOM     15  C   UNL     1      24.973  32.078   8.184  1.00  0.00     0.157 A 
ATOM     16  C   UNL     1      26.776  30.716   7.294  1.00  0.00     0.062 A 
ATOM     17  C   UNL     1      26.164  31.358   8.378  1.00  0.00     0.158 A 
BRANCH  15  18
ATOM     18  O   UNL     1      24.358  32.715   9.260  1.00  0.00    -0.504 OA
ATOM     19  H   UNL     1      24.509  33.698   9.451  1.00  0.00     0.293 HD
ENDBRANCH  15  18
BRANCH  17  20
ATOM     20  O   UNL     1      26.757  31.272   9.637  1.00  0.00    -0.504 OA
ATOM     21  H   UNL     1      26.359  30.713  10.383  1.00  0.00     0.293 HD
ENDBRANCH  17  20
ENDBRANCH   1  12
BRANCH   2  22
ATOM     22  O   UNL     1      28.479  31.915   4.626  1.00  0.00    -0.502 OA
ATOM     23  H   UNL     1      28.607  32.713   4.015  1.00  0.00     0.293 HD
ENDBRANCH   2  22
BRANCH   6  24
ATOM     24  O   UNL     1      29.642  28.313   0.877  1.00  0.00    -0.507 OA
ATOM     25  H   UNL     1      29.773  28.133  -0.106  1.00  0.00     0.293 HD
ENDBRANCH   6  24
BRANCH   8  26
ATOM     26  O   UNL     1      26.119  25.155   1.580  1.00  0.00    -0.508 OA
ATOM     27  H   UNL     1      25.159  25.133   1.256  1.00  0.00     0.293 HD
ENDBRANCH   8  26
TORSDOF 6
ENDMDL
