MODEL 1
REMARK VINA RESULT:    -6.660      0.000      0.000
REMARK INTER + INTRA:         -14.241
REMARK INTER:                 -10.942
REMARK INTRA:                  -3.299
REMARK UNBOUND:                -3.299
REMARK SMILES C[C@H]1O[C@@H](OC[C@@H]2O[C@@H](Oc3c(-c4ccc(O)c(O)c4)oc4cc(O)cc(O)c4c3=O)[C@H](O)[C@@H](O)[C@H]2O)[C@H](O)[C@@H](O)[C@@H]1O
REMARK SMILES IDX 7 1 36 2 34 3 32 4 9 5 8 6 6 7 5 8 4 9 1 10 2 11 42 12 3 13
REMARK SMILES IDX 40 14 38 15 43 16 41 18 39 20 37 22 35 24 10 26 11 27 12 28
REMARK SMILES IDX 30 29 21 30 29 31 31 32 22 33 27 34 23 35 26 36 24 37 13 38
REMARK SMILES IDX 20 39 14 40 18 41 15 42 16 43 19 44 17 46 28 48 25 50 33 52
REMARK H PARENT 43 17 41 19 39 21 37 23 35 25 19 45 17 47 28 49 25 51 33 53
REMARK Flexibility Score: inf
ROOT
ATOM      1  C   UNL     1       4.520  65.734  19.277  1.00  0.00     0.180 C 
ATOM      2  C   UNL     1       5.259  66.667  20.295  1.00  0.00     0.177 C 
ATOM      3  C   UNL     1       4.469  66.765  21.620  1.00  0.00     0.180 C 
ATOM      4  C   UNL     1       2.946  67.005  21.386  1.00  0.00     0.214 C 
ATOM      5  C   UNL     1       2.626  67.016  19.875  1.00  0.00     0.339 C 
ATOM      6  O   UNL     1       3.093  65.816  19.307  1.00  0.00    -0.332 OA
ENDROOT
BRANCH   1   7
ATOM      7  C   UNL     1       5.009  65.941  17.837  1.00  0.00     0.198 C 
BRANCH   7   8
ATOM      8  O   UNL     1       5.695  64.772  17.426  1.00  0.00    -0.347 OA
BRANCH   8   9
ATOM      9  C   UNL     1       5.070  64.100  16.335  1.00  0.00     0.281 C 
ATOM     10  C   UNL     1       2.434  65.232  14.040  1.00  0.00     0.041 C 
ATOM     11  C   UNL     1       3.225  64.238  14.893  1.00  0.00     0.150 C 
ATOM     12  C   UNL     1       2.273  63.390  15.765  1.00  0.00     0.174 C 
ATOM     13  O   UNL     1       4.092  64.946  15.735  1.00  0.00    -0.344 OA
ATOM     14  C   UNL     1       3.030  62.575  16.853  1.00  0.00     0.179 C 
ATOM     15  C   UNL     1       4.570  62.695  16.765  1.00  0.00     0.202 C 
BRANCH  12  16
ATOM     16  O   UNL     1       1.482  62.538  14.972  1.00  0.00    -0.388 OA
ATOM     17  H   UNL     1       0.578  62.955  14.883  1.00  0.00     0.211 HD
ENDBRANCH  12  16
BRANCH  14  18
ATOM     18  O   UNL     1       2.594  62.984  18.131  1.00  0.00    -0.387 OA
ATOM     19  H   UNL     1       3.365  62.852  18.742  1.00  0.00     0.211 HD
ENDBRANCH  14  18
BRANCH  15  20
ATOM     20  O   UNL     1       5.117  61.702  15.940  1.00  0.00    -0.385 OA
ATOM     21  H   UNL     1       4.446  60.981  15.846  1.00  0.00     0.211 HD
ENDBRANCH  15  20
ENDBRANCH   8   9
ENDBRANCH   7   8
ENDBRANCH   1   7
BRANCH   2  22
ATOM     22  O   UNL     1       6.588  66.252  20.520  1.00  0.00    -0.387 OA
ATOM     23  H   UNL     1       6.894  65.749  19.723  1.00  0.00     0.211 HD
ENDBRANCH   2  22
BRANCH   3  24
ATOM     24  O   UNL     1       4.674  65.637  22.434  1.00  0.00    -0.387 OA
ATOM     25  H   UNL     1       5.448  65.146  22.048  1.00  0.00     0.211 HD
ENDBRANCH   3  24
BRANCH   5  26
ATOM     26  O   UNL     1       1.220  67.117  19.651  1.00  0.00    -0.454 OA
BRANCH  26  27
ATOM     27  C   UNL     1       0.666  67.163  18.361  1.00  0.00     0.214 A 
ATOM     28  C   UNL     1       0.636  68.374  17.658  1.00  0.00     0.180 A 
ATOM     29  C   UNL     1       0.140  66.008  17.746  1.00  0.00     0.239 A 
ATOM     30  O   UNL     1       0.045  68.439  16.468  1.00  0.00    -0.452 OA
ATOM     31  C   UNL     1      -0.497  66.105  16.487  1.00  0.00     0.111 A 
ATOM     32  O   UNL     1       0.294  64.900  18.316  1.00  0.00    -0.285 OA
ATOM     33  C   UNL     1      -0.524  67.388  15.877  1.00  0.00     0.146 A 
ATOM     34  C   UNL     1      -1.076  65.003  15.781  1.00  0.00     0.134 A 
ATOM     35  C   UNL     1      -1.142  67.572  14.629  1.00  0.00     0.094 A 
ATOM     36  C   UNL     1      -1.643  65.217  14.529  1.00  0.00     0.093 A 
ATOM     37  C   UNL     1      -1.687  66.483  13.951  1.00  0.00     0.123 A 
BRANCH  28  38
ATOM     38  C   UNL     1       1.274  69.596  18.183  1.00  0.00     0.025 A 
ATOM     39  C   UNL     1       0.573  70.471  19.028  1.00  0.00     0.062 A 
ATOM     40  C   UNL     1       2.526  69.968  17.690  1.00  0.00     0.016 A 
ATOM     41  C   UNL     1       1.103  71.729  19.341  1.00  0.00     0.158 A 
ATOM     42  C   UNL     1       3.073  71.221  18.025  1.00  0.00     0.051 A 
ATOM     43  C   UNL     1       2.357  72.107  18.832  1.00  0.00     0.157 A 
BRANCH  41  44
ATOM     44  O   UNL     1       0.382  72.620  20.138  1.00  0.00    -0.504 OA
ATOM     45  H   UNL     1       0.158  72.395  21.101  1.00  0.00     0.293 HD
ENDBRANCH  41  44
BRANCH  43  46
ATOM     46  O   UNL     1       2.888  73.381  19.091  1.00  0.00    -0.504 OA
ATOM     47  H   UNL     1       2.562  74.203  18.594  1.00  0.00     0.293 HD
ENDBRANCH  43  46
ENDBRANCH  28  38
BRANCH  34  48
ATOM     48  O   UNL     1      -1.118  63.683  16.243  1.00  0.00    -0.507 OA
ATOM     49  H   UNL     1      -1.880  63.042  16.133  1.00  0.00     0.293 HD
ENDBRANCH  34  48
BRANCH  37  50
ATOM     50  O   UNL     1      -2.273  66.635  12.693  1.00  0.00    -0.508 OA
ATOM     51  H   UNL     1      -1.738  66.562  11.835  1.00  0.00     0.293 HD
ENDBRANCH  37  50
ENDBRANCH  26  27
ENDBRANCH   5  26
BRANCH   4  52
ATOM     52  O   UNL     1       2.559  68.228  21.962  1.00  0.00    -0.384 OA
ATOM     53  H   UNL     1       2.955  68.251  22.871  1.00  0.00     0.211 HD
ENDBRANCH   4  52
TORSDOF 16
ENDMDL
MODEL 2
REMARK VINA RESULT:    -6.569      5.192      8.868
REMARK INTER + INTRA:         -14.092
REMARK INTER:                 -11.154
REMARK INTRA:                  -2.938
REMARK UNBOUND:                -3.299
REMARK SMILES C[C@H]1O[C@@H](OC[C@@H]2O[C@@H](Oc3c(-c4ccc(O)c(O)c4)oc4cc(O)cc(O)c4c3=O)[C@H](O)[C@@H](O)[C@H]2O)[C@H](O)[C@@H](O)[C@@H]1O
REMARK SMILES IDX 7 1 36 2 34 3 32 4 9 5 8 6 6 7 5 8 4 9 1 10 2 11 42 12 3 13
REMARK SMILES IDX 40 14 38 15 43 16 41 18 39 20 37 22 35 24 10 26 11 27 12 28
REMARK SMILES IDX 30 29 21 30 29 31 31 32 22 33 27 34 23 35 26 36 24 37 13 38
REMARK SMILES IDX 20 39 14 40 18 41 15 42 16 43 19 44 17 46 28 48 25 50 33 52
REMARK H PARENT 43 17 41 19 39 21 37 23 35 25 19 45 17 47 28 49 25 51 33 53
REMARK Flexibility Score: inf
ROOT
ATOM      1  C   UNL     1       3.676  67.175  13.826  1.00  0.00     0.180 C 
ATOM      2  C   UNL     1       3.442  66.296  15.101  1.00  0.00     0.177 C 
ATOM      3  C   UNL     1       3.037  64.858  14.705  1.00  0.00     0.180 C 
ATOM      4  C   UNL     1       1.944  64.833  13.594  1.00  0.00     0.214 C 
ATOM      5  C   UNL     1       1.603  66.269  13.139  1.00  0.00     0.339 C 
ATOM      6  O   UNL     1       2.791  66.907  12.735  1.00  0.00    -0.332 OA
ENDROOT
BRANCH   1   7
ATOM      7  C   UNL     1       3.647  68.678  14.142  1.00  0.00     0.198 C 
BRANCH   7   8
ATOM      8  O   UNL     1       4.951  69.198  13.950  1.00  0.00    -0.347 OA
BRANCH   8   9
ATOM      9  C   UNL     1       4.991  70.319  13.071  1.00  0.00     0.281 C 
ATOM     10  C   UNL     1       2.368  72.727  12.166  1.00  0.00     0.041 C 
ATOM     11  C   UNL     1       3.600  71.844  11.956  1.00  0.00     0.150 C 
ATOM     12  C   UNL     1       3.464  71.020  10.657  1.00  0.00     0.174 C 
ATOM     13  O   UNL     1       3.718  70.960  13.036  1.00  0.00    -0.344 OA
ATOM     14  C   UNL     1       4.541  69.902  10.545  1.00  0.00     0.179 C 
ATOM     15  C   UNL     1       5.579  69.919  11.692  1.00  0.00     0.202 C 
BRANCH  12  16
ATOM     16  O   UNL     1       3.499  71.852   9.522  1.00  0.00    -0.388 OA
ATOM     17  H   UNL     1       4.105  72.621   9.725  1.00  0.00     0.211 HD
ENDBRANCH  12  16
BRANCH  14  18
ATOM     18  O   UNL     1       3.905  68.643  10.500  1.00  0.00    -0.387 OA
ATOM     19  H   UNL     1       4.412  68.100   9.842  1.00  0.00     0.211 HD
ENDBRANCH  14  18
BRANCH  15  20
ATOM     20  O   UNL     1       6.683  70.723  11.374  1.00  0.00    -0.385 OA
ATOM     21  H   UNL     1       7.158  70.934  12.216  1.00  0.00     0.211 HD
ENDBRANCH  15  20
ENDBRANCH   8   9
ENDBRANCH   7   8
ENDBRANCH   1   7
BRANCH   2  22
ATOM     22  O   UNL     1       4.566  66.297  15.953  1.00  0.00    -0.387 OA
ATOM     23  H   UNL     1       4.252  66.142  16.880  1.00  0.00     0.211 HD
ENDBRANCH   2  22
BRANCH   3  24
ATOM     24  O   UNL     1       4.151  64.089  14.323  1.00  0.00    -0.387 OA
ATOM     25  H   UNL     1       4.674  64.645  13.686  1.00  0.00     0.211 HD
ENDBRANCH   3  24
BRANCH   5  26
ATOM     26  O   UNL     1       0.691  66.254  12.041  1.00  0.00    -0.454 OA
BRANCH  26  27
ATOM     27  C   UNL     1       0.485  67.375  11.219  1.00  0.00     0.214 A 
ATOM     28  C   UNL     1       0.823  67.316   9.862  1.00  0.00     0.180 A 
ATOM     29  C   UNL     1      -0.065  68.569  11.730  1.00  0.00     0.239 A 
ATOM     30  O   UNL     1       0.702  68.398   9.097  1.00  0.00    -0.452 OA
ATOM     31  C   UNL     1      -0.171  69.710  10.902  1.00  0.00     0.111 A 
ATOM     32  O   UNL     1      -0.497  68.575  12.910  1.00  0.00    -0.285 OA
ATOM     33  C   UNL     1       0.249  69.566   9.552  1.00  0.00     0.146 A 
ATOM     34  C   UNL     1      -0.699  70.972  11.320  1.00  0.00     0.134 A 
ATOM     35  C   UNL     1       0.181  70.653   8.664  1.00  0.00     0.094 A 
ATOM     36  C   UNL     1      -0.787  72.013  10.402  1.00  0.00     0.093 A 
ATOM     37  C   UNL     1      -0.350  71.870   9.087  1.00  0.00     0.123 A 
BRANCH  28  38
ATOM     38  C   UNL     1       1.289  66.067   9.228  1.00  0.00     0.025 A 
ATOM     39  C   UNL     1       0.468  65.359   8.338  1.00  0.00     0.062 A 
ATOM     40  C   UNL     1       2.490  65.501   9.660  1.00  0.00     0.016 A 
ATOM     41  C   UNL     1       0.825  64.071   7.917  1.00  0.00     0.158 A 
ATOM     42  C   UNL     1       2.865  64.218   9.217  1.00  0.00     0.051 A 
ATOM     43  C   UNL     1       2.027  63.497   8.363  1.00  0.00     0.157 A 
BRANCH  41  44
ATOM     44  O   UNL     1      -0.019  63.346   7.074  1.00  0.00    -0.504 OA
ATOM     45  H   UNL     1       0.259  62.441   6.711  1.00  0.00     0.293 HD
ENDBRANCH  41  44
BRANCH  43  46
ATOM     46  O   UNL     1       2.385  62.190   7.995  1.00  0.00    -0.504 OA
ATOM     47  H   UNL     1       1.737  61.415   8.094  1.00  0.00     0.293 HD
ENDBRANCH  43  46
ENDBRANCH  28  38
BRANCH  34  48
ATOM     48  O   UNL     1      -1.161  71.266  12.608  1.00  0.00    -0.507 OA
ATOM     49  H   UNL     1      -2.117  71.402  12.876  1.00  0.00     0.293 HD
ENDBRANCH  34  48
BRANCH  37  50
ATOM     50  O   UNL     1      -0.461  72.952   8.212  1.00  0.00    -0.508 OA
ATOM     51  H   UNL     1      -1.071  73.739   8.401  1.00  0.00     0.293 HD
ENDBRANCH  37  50
ENDBRANCH  26  27
ENDBRANCH   5  26
BRANCH   4  52
ATOM     52  O   UNL     1       0.784  64.200  14.076  1.00  0.00    -0.384 OA
ATOM     53  H   UNL     1       1.088  63.455  14.656  1.00  0.00     0.211 HD
ENDBRANCH   4  52
TORSDOF 16
ENDMDL
MODEL 3
REMARK VINA RESULT:    -6.511      2.691      5.170
REMARK INTER + INTRA:         -13.996
REMARK INTER:                 -11.173
REMARK INTRA:                  -2.823
REMARK UNBOUND:                -3.299
REMARK SMILES C[C@H]1O[C@@H](OC[C@@H]2O[C@@H](Oc3c(-c4ccc(O)c(O)c4)oc4cc(O)cc(O)c4c3=O)[C@H](O)[C@@H](O)[C@H]2O)[C@H](O)[C@@H](O)[C@@H]1O
REMARK SMILES IDX 7 1 36 2 34 3 32 4 9 5 8 6 6 7 5 8 4 9 1 10 2 11 42 12 3 13
REMARK SMILES IDX 40 14 38 15 43 16 41 18 39 20 37 22 35 24 10 26 11 27 12 28
REMARK SMILES IDX 30 29 21 30 29 31 31 32 22 33 27 34 23 35 26 36 24 37 13 38
REMARK SMILES IDX 20 39 14 40 18 41 15 42 16 43 19 44 17 46 28 48 25 50 33 52
REMARK H PARENT 43 17 41 19 39 21 37 23 35 25 19 45 17 47 28 49 25 51 33 53
REMARK Flexibility Score: inf
ROOT
ATOM      1  C   UNL     1       3.373  68.733  12.774  1.00  0.00     0.180 C 
ATOM      2  C   UNL     1       2.914  69.581  11.540  1.00  0.00     0.177 C 
ATOM      3  C   UNL     1       2.449  70.986  11.986  1.00  0.00     0.180 C 
ATOM      4  C   UNL     1       1.503  70.934  13.224  1.00  0.00     0.214 C 
ATOM      5  C   UNL     1       1.336  69.479  13.714  1.00  0.00     0.339 C 
ATOM      6  O   UNL     1       2.611  68.939  13.966  1.00  0.00    -0.332 OA
ENDROOT
BRANCH   1   7
ATOM      7  C   UNL     1       3.424  67.231  12.461  1.00  0.00     0.198 C 
BRANCH   7   8
ATOM      8  O   UNL     1       2.859  66.529  13.554  1.00  0.00    -0.347 OA
BRANCH   8   9
ATOM      9  C   UNL     1       3.669  65.452  14.018  1.00  0.00     0.281 C 
ATOM     10  C   UNL     1       2.729  62.311  15.674  1.00  0.00     0.041 C 
ATOM     11  C   UNL     1       3.596  63.532  15.364  1.00  0.00     0.150 C 
ATOM     12  C   UNL     1       4.041  64.230  16.668  1.00  0.00     0.174 C 
ATOM     13  O   UNL     1       2.851  64.440  14.601  1.00  0.00    -0.344 OA
ATOM     14  C   UNL     1       4.674  65.628  16.409  1.00  0.00     0.179 C 
ATOM     15  C   UNL     1       4.827  65.975  14.909  1.00  0.00     0.202 C 
BRANCH  12  16
ATOM     16  O   UNL     1       4.924  63.418  17.403  1.00  0.00    -0.388 OA
ATOM     17  H   UNL     1       4.534  62.498  17.441  1.00  0.00     0.211 HD
ENDBRANCH  12  16
BRANCH  14  18
ATOM     18  O   UNL     1       3.899  66.618  17.049  1.00  0.00    -0.387 OA
ATOM     19  H   UNL     1       4.522  67.360  17.265  1.00  0.00     0.211 HD
ENDBRANCH  14  18
BRANCH  15  20
ATOM     20  O   UNL     1       6.066  65.554  14.407  1.00  0.00    -0.385 OA
ATOM     21  H   UNL     1       6.231  64.635  14.735  1.00  0.00     0.211 HD
ENDBRANCH  15  20
ENDBRANCH   8   9
ENDBRANCH   7   8
ENDBRANCH   1   7
BRANCH   2  22
ATOM     22  O   UNL     1       3.921  69.663  10.556  1.00  0.00    -0.387 OA
ATOM     23  H   UNL     1       3.536  70.101   9.755  1.00  0.00     0.211 HD
ENDBRANCH   2  22
BRANCH   3  24
ATOM     24  O   UNL     1       3.538  71.843  12.229  1.00  0.00    -0.387 OA
ATOM     25  H   UNL     1       3.565  72.488  11.474  1.00  0.00     0.211 HD
ENDBRANCH   3  24
BRANCH   5  26
ATOM     26  O   UNL     1       0.567  69.430  14.917  1.00  0.00    -0.454 OA
BRANCH  26  27
ATOM     27  C   UNL     1       0.485  68.273  15.710  1.00  0.00     0.214 A 
ATOM     28  C   UNL     1       0.962  68.294  17.026  1.00  0.00     0.180 A 
ATOM     29  C   UNL     1      -0.078  67.080  15.211  1.00  0.00     0.239 A 
ATOM     30  O   UNL     1       0.956  67.181  17.755  1.00  0.00    -0.452 OA
ATOM     31  C   UNL     1      -0.061  65.906  15.999  1.00  0.00     0.111 A 
ATOM     32  O   UNL     1      -0.632  67.102  14.084  1.00  0.00    -0.285 OA
ATOM     33  C   UNL     1       0.494  66.016  17.303  1.00  0.00     0.146 A 
ATOM     34  C   UNL     1      -0.590  64.642  15.587  1.00  0.00     0.134 A 
ATOM     35  C   UNL     1       0.555  64.895  18.148  1.00  0.00     0.094 A 
ATOM     36  C   UNL     1      -0.549  63.566  16.468  1.00  0.00     0.093 A 
ATOM     37  C   UNL     1       0.020  63.676  17.735  1.00  0.00     0.123 A 
BRANCH  28  38
ATOM     38  C   UNL     1       1.453  69.534  17.657  1.00  0.00     0.025 A 
ATOM     39  C   UNL     1       0.695  70.196  18.636  1.00  0.00     0.062 A 
ATOM     40  C   UNL     1       2.599  70.143  17.144  1.00  0.00     0.016 A 
ATOM     41  C   UNL     1       1.059  71.478  19.066  1.00  0.00     0.158 A 
ATOM     42  C   UNL     1       2.983  71.420  17.594  1.00  0.00     0.051 A 
ATOM     43  C   UNL     1       2.205  72.095  18.538  1.00  0.00     0.157 A 
BRANCH  41  44
ATOM     44  O   UNL     1       0.274  72.157  20.000  1.00  0.00    -0.504 OA
ATOM     45  H   UNL     1      -0.093  71.682  20.817  1.00  0.00     0.293 HD
ENDBRANCH  41  44
BRANCH  43  46
ATOM     46  O   UNL     1       2.564  73.399  18.917  1.00  0.00    -0.504 OA
ATOM     47  H   UNL     1       2.820  73.623  19.872  1.00  0.00     0.293 HD
ENDBRANCH  43  46
ENDBRANCH  28  38
BRANCH  34  48
ATOM     48  O   UNL     1      -1.176  64.380  14.344  1.00  0.00    -0.507 OA
ATOM     49  H   UNL     1      -1.516  63.493  14.027  1.00  0.00     0.293 HD
ENDBRANCH  34  48
BRANCH  37  50
ATOM     50  O   UNL     1       0.035  62.559  18.572  1.00  0.00    -0.508 OA
ATOM     51  H   UNL     1       0.320  61.644  18.246  1.00  0.00     0.293 HD
ENDBRANCH  37  50
ENDBRANCH  26  27
ENDBRANCH   5  26
BRANCH   4  52
ATOM     52  O   UNL     1       0.246  71.469  12.891  1.00  0.00    -0.384 OA
ATOM     53  H   UNL     1       0.115  71.302  11.922  1.00  0.00     0.211 HD
ENDBRANCH   4  52
TORSDOF 16
ENDMDL
MODEL 4
REMARK VINA RESULT:    -6.475      5.480     10.523
REMARK INTER + INTRA:         -13.938
REMARK INTER:                 -11.016
REMARK INTRA:                  -2.922
REMARK UNBOUND:                -3.299
REMARK SMILES C[C@H]1O[C@@H](OC[C@@H]2O[C@@H](Oc3c(-c4ccc(O)c(O)c4)oc4cc(O)cc(O)c4c3=O)[C@H](O)[C@@H](O)[C@H]2O)[C@H](O)[C@@H](O)[C@@H]1O
REMARK SMILES IDX 7 1 36 2 34 3 32 4 9 5 8 6 6 7 5 8 4 9 1 10 2 11 42 12 3 13
REMARK SMILES IDX 40 14 38 15 43 16 41 18 39 20 37 22 35 24 10 26 11 27 12 28
REMARK SMILES IDX 30 29 21 30 29 31 31 32 22 33 27 34 23 35 26 36 24 37 13 38
REMARK SMILES IDX 20 39 14 40 18 41 15 42 16 43 19 44 17 46 28 48 25 50 33 52
REMARK H PARENT 43 17 41 19 39 21 37 23 35 25 19 45 17 47 28 49 25 51 33 53
REMARK Flexibility Score: inf
ROOT
ATOM      1  C   UNL     1      -0.350  66.181   8.821  1.00  0.00     0.180 C 
ATOM      2  C   UNL     1       0.155  65.843   7.377  1.00  0.00     0.177 C 
ATOM      3  C   UNL     1       1.117  64.634   7.405  1.00  0.00     0.180 C 
ATOM      4  C   UNL     1       2.182  64.748   8.539  1.00  0.00     0.214 C 
ATOM      5  C   UNL     1       1.942  66.023   9.378  1.00  0.00     0.339 C 
ATOM      6  O   UNL     1       0.619  66.005   9.857  1.00  0.00    -0.332 OA
ENDROOT
BRANCH   1   7
ATOM      7  C   UNL     1      -0.938  67.597   8.915  1.00  0.00     0.198 C 
BRANCH   7   8
ATOM      8  O   UNL     1      -0.200  68.443   8.051  1.00  0.00    -0.347 OA
BRANCH   8   9
ATOM      9  C   UNL     1       0.480  69.495   8.732  1.00  0.00     0.281 C 
ATOM     10  C   UNL     1      -0.037  70.875  12.097  1.00  0.00     0.041 C 
ATOM     11  C   UNL     1       0.312  70.894  10.607  1.00  0.00     0.150 C 
ATOM     12  C   UNL     1      -0.429  72.042   9.888  1.00  0.00     0.174 C 
ATOM     13  O   UNL     1      -0.078  69.678  10.031  1.00  0.00    -0.344 OA
ATOM     14  C   UNL     1      -0.341  71.930   8.339  1.00  0.00     0.179 C 
ATOM     15  C   UNL     1       0.555  70.768   7.848  1.00  0.00     0.202 C 
BRANCH  12  16
ATOM     16  O   UNL     1       0.039  73.298  10.318  1.00  0.00    -0.388 OA
ATOM     17  H   UNL     1      -0.738  73.800  10.697  1.00  0.00     0.211 HD
ENDBRANCH  12  16
BRANCH  14  18
ATOM     18  O   UNL     1      -1.639  71.786   7.805  1.00  0.00    -0.387 OA
ATOM     19  H   UNL     1      -1.584  71.055   7.136  1.00  0.00     0.211 HD
ENDBRANCH  14  18
BRANCH  15  20
ATOM     20  O   UNL     1       1.886  71.178   7.684  1.00  0.00    -0.385 OA
ATOM     21  H   UNL     1       2.103  71.806   8.417  1.00  0.00     0.211 HD
ENDBRANCH  15  20
ENDBRANCH   8   9
ENDBRANCH   7   8
ENDBRANCH   1   7
BRANCH   2  22
ATOM     22  O   UNL     1      -0.915  65.626   6.484  1.00  0.00    -0.387 OA
ATOM     23  H   UNL     1      -1.632  65.145   6.971  1.00  0.00     0.211 HD
ENDBRANCH   2  22
BRANCH   3  24
ATOM     24  O   UNL     1       0.422  63.415   7.498  1.00  0.00    -0.387 OA
ATOM     25  H   UNL     1       0.768  62.835   6.768  1.00  0.00     0.211 HD
ENDBRANCH   3  24
BRANCH   5  26
ATOM     26  O   UNL     1       2.836  66.078  10.490  1.00  0.00    -0.454 OA
BRANCH  26  27
ATOM     27  C   UNL     1       3.101  67.271  11.183  1.00  0.00     0.214 A 
ATOM     28  C   UNL     1       2.963  67.315  12.575  1.00  0.00     0.180 A 
ATOM     29  C   UNL     1       3.514  68.437  10.505  1.00  0.00     0.239 A 
ATOM     30  O   UNL     1       3.140  68.461  13.228  1.00  0.00    -0.452 OA
ATOM     31  C   UNL     1       3.681  69.647  11.217  1.00  0.00     0.111 A 
ATOM     32  O   UNL     1       3.773  68.360   9.278  1.00  0.00    -0.285 OA
ATOM     33  C   UNL     1       3.466  69.602  12.621  1.00  0.00     0.146 A 
ATOM     34  C   UNL     1       4.083  70.888  10.628  1.00  0.00     0.134 A 
ATOM     35  C   UNL     1       3.606  70.762  13.401  1.00  0.00     0.094 A 
ATOM     36  C   UNL     1       4.250  72.005  11.440  1.00  0.00     0.093 A 
ATOM     37  C   UNL     1       4.012  71.957  12.812  1.00  0.00     0.123 A 
BRANCH  28  38
ATOM     38  C   UNL     1       2.654  66.108  13.366  1.00  0.00     0.025 A 
ATOM     39  C   UNL     1       3.582  65.061  13.479  1.00  0.00     0.062 A 
ATOM     40  C   UNL     1       1.357  65.937  13.855  1.00  0.00     0.016 A 
ATOM     41  C   UNL     1       3.201  63.835  14.040  1.00  0.00     0.158 A 
ATOM     42  C   UNL     1       0.980  64.716  14.443  1.00  0.00     0.051 A 
ATOM     43  C   UNL     1       1.892  63.661  14.519  1.00  0.00     0.157 A 
BRANCH  41  44
ATOM     44  O   UNL     1       4.109  62.777  14.104  1.00  0.00    -0.504 OA
ATOM     45  H   UNL     1       5.037  62.861  13.706  1.00  0.00     0.293 HD
ENDBRANCH  41  44
BRANCH  43  46
ATOM     46  O   UNL     1       1.471  62.426  15.040  1.00  0.00    -0.504 OA
ATOM     47  H   UNL     1       0.499  62.251  15.271  1.00  0.00     0.293 HD
ENDBRANCH  43  46
ENDBRANCH  28  38
BRANCH  34  48
ATOM     48  O   UNL     1       4.342  71.089   9.268  1.00  0.00    -0.507 OA
ATOM     49  H   UNL     1       3.658  71.136   8.537  1.00  0.00     0.293 HD
ENDBRANCH  34  48
BRANCH  37  50
ATOM     50  O   UNL     1       4.194  73.113  13.573  1.00  0.00    -0.508 OA
ATOM     51  H   UNL     1       3.889  73.179  14.537  1.00  0.00     0.293 HD
ENDBRANCH  37  50
ENDBRANCH  26  27
ENDBRANCH   5  26
BRANCH   4  52
ATOM     52  O   UNL     1       3.473  64.782   7.984  1.00  0.00    -0.384 OA
ATOM     53  H   UNL     1       3.596  63.925   7.501  1.00  0.00     0.211 HD
ENDBRANCH   4  52
TORSDOF 16
ENDMDL
MODEL 5
REMARK VINA RESULT:    -6.458      4.232      8.469
REMARK INTER + INTRA:         -13.909
REMARK INTER:                 -11.275
REMARK INTRA:                  -2.634
REMARK UNBOUND:                -3.299
REMARK SMILES C[C@H]1O[C@@H](OC[C@@H]2O[C@@H](Oc3c(-c4ccc(O)c(O)c4)oc4cc(O)cc(O)c4c3=O)[C@H](O)[C@@H](O)[C@H]2O)[C@H](O)[C@@H](O)[C@@H]1O
REMARK SMILES IDX 7 1 36 2 34 3 32 4 9 5 8 6 6 7 5 8 4 9 1 10 2 11 42 12 3 13
REMARK SMILES IDX 40 14 38 15 43 16 41 18 39 20 37 22 35 24 10 26 11 27 12 28
REMARK SMILES IDX 30 29 21 30 29 31 31 32 22 33 27 34 23 35 26 36 24 37 13 38
REMARK SMILES IDX 20 39 14 40 18 41 15 42 16 43 19 44 17 46 28 48 25 50 33 52
REMARK H PARENT 43 17 41 19 39 21 37 23 35 25 19 45 17 47 28 49 25 51 33 53
REMARK Flexibility Score: inf
ROOT
ATOM      1  C   UNL     1       3.738  66.722  13.739  1.00  0.00     0.180 C 
ATOM      2  C   UNL     1       3.393  65.890  15.020  1.00  0.00     0.177 C 
ATOM      3  C   UNL     1       2.786  64.521  14.635  1.00  0.00     0.180 C 
ATOM      4  C   UNL     1       1.690  64.647  13.533  1.00  0.00     0.214 C 
ATOM      5  C   UNL     1       1.552  66.115  13.073  1.00  0.00     0.339 C 
ATOM      6  O   UNL     1       2.815  66.578  12.657  1.00  0.00    -0.332 OA
ENDROOT
BRANCH   1   7
ATOM      7  C   UNL     1       3.924  68.215  14.048  1.00  0.00     0.198 C 
BRANCH   7   8
ATOM      8  O   UNL     1       3.913  68.383  15.454  1.00  0.00    -0.347 OA
BRANCH   8   9
ATOM      9  C   UNL     1       3.030  69.412  15.896  1.00  0.00     0.281 C 
ATOM     10  C   UNL     1       2.694  71.003  19.190  1.00  0.00     0.041 C 
ATOM     11  C   UNL     1       2.229  70.448  17.842  1.00  0.00     0.150 C 
ATOM     12  C   UNL     1       1.004  69.527  18.025  1.00  0.00     0.174 C 
ATOM     13  O   UNL     1       3.270  69.704  17.271  1.00  0.00    -0.344 OA
ATOM     14  C   UNL     1       0.673  68.713  16.740  1.00  0.00     0.179 C 
ATOM     15  C   UNL     1       1.561  69.076  15.526  1.00  0.00     0.202 C 
BRANCH  12  16
ATOM     16  O   UNL     1      -0.122  70.256  18.450  1.00  0.00    -0.388 OA
ATOM     17  H   UNL     1      -0.609  69.702  19.125  1.00  0.00     0.211 HD
ENDBRANCH  12  16
BRANCH  14  18
ATOM     18  O   UNL     1       0.788  67.335  17.017  1.00  0.00    -0.387 OA
ATOM     19  H   UNL     1       1.534  67.243  17.665  1.00  0.00     0.211 HD
ENDBRANCH  14  18
BRANCH  15  20
ATOM     20  O   UNL     1       0.995  70.109  14.766  1.00  0.00    -0.385 OA
ATOM     21  H   UNL     1       1.567  70.250  13.971  1.00  0.00     0.211 HD
ENDBRANCH  15  20
ENDBRANCH   8   9
ENDBRANCH   7   8
ENDBRANCH   1   7
BRANCH   2  22
ATOM     22  O   UNL     1       4.513  65.735  15.863  1.00  0.00    -0.387 OA
ATOM     23  H   UNL     1       4.754  64.774  15.884  1.00  0.00     0.211 HD
ENDBRANCH   2  22
BRANCH   3  24
ATOM     24  O   UNL     1       3.777  63.602  14.247  1.00  0.00    -0.387 OA
ATOM     25  H   UNL     1       3.565  62.746  14.707  1.00  0.00     0.211 HD
ENDBRANCH   3  24
BRANCH   5  26
ATOM     26  O   UNL     1       0.637  66.225  11.983  1.00  0.00    -0.454 OA
BRANCH  26  27
ATOM     27  C   UNL     1       0.527  67.393  11.209  1.00  0.00     0.214 A 
ATOM     28  C   UNL     1       0.917  67.378   9.864  1.00  0.00     0.180 A 
ATOM     29  C   UNL     1       0.022  68.591  11.755  1.00  0.00     0.239 A 
ATOM     30  O   UNL     1       0.886  68.498   9.148  1.00  0.00    -0.452 OA
ATOM     31  C   UNL     1       0.013  69.773  10.980  1.00  0.00     0.111 A 
ATOM     32  O   UNL     1      -0.457  68.567  12.916  1.00  0.00    -0.285 OA
ATOM     33  C   UNL     1       0.480  69.667   9.641  1.00  0.00     0.146 A 
ATOM     34  C   UNL     1      -0.462  71.043  11.438  1.00  0.00     0.134 A 
ATOM     35  C   UNL     1       0.508  70.796   8.805  1.00  0.00     0.094 A 
ATOM     36  C   UNL     1      -0.455  72.128  10.567  1.00  0.00     0.093 A 
ATOM     37  C   UNL     1       0.027  72.021   9.265  1.00  0.00     0.123 A 
BRANCH  28  38
ATOM     38  C   UNL     1       1.340  66.135   9.189  1.00  0.00     0.025 A 
ATOM     39  C   UNL     1       0.462  65.436   8.346  1.00  0.00     0.062 A 
ATOM     40  C   UNL     1       2.564  65.562   9.538  1.00  0.00     0.016 A 
ATOM     41  C   UNL     1       0.790  64.153   7.889  1.00  0.00     0.158 A 
ATOM     42  C   UNL     1       2.908  64.284   9.059  1.00  0.00     0.051 A 
ATOM     43  C   UNL     1       2.017  63.573   8.253  1.00  0.00     0.157 A 
BRANCH  41  44
ATOM     44  O   UNL     1      -0.107  63.437   7.094  1.00  0.00    -0.504 OA
ATOM     45  H   UNL     1      -0.985  63.101   7.471  1.00  0.00     0.293 HD
ENDBRANCH  41  44
BRANCH  43  46
ATOM     46  O   UNL     1       2.348  62.269   7.849  1.00  0.00    -0.504 OA
ATOM     47  H   UNL     1       2.342  61.999   6.872  1.00  0.00     0.293 HD
ENDBRANCH  43  46
ENDBRANCH  28  38
BRANCH  34  48
ATOM     48  O   UNL     1      -0.960  71.302  12.719  1.00  0.00    -0.507 OA
ATOM     49  H   UNL     1      -1.210  70.617  13.406  1.00  0.00     0.293 HD
ENDBRANCH  34  48
BRANCH  37  50
ATOM     50  O   UNL     1       0.011  73.147   8.440  1.00  0.00    -0.508 OA
ATOM     51  H   UNL     1       0.766  73.822   8.433  1.00  0.00     0.293 HD
ENDBRANCH  37  50
ENDBRANCH  26  27
ENDBRANCH   5  26
BRANCH   4  52
ATOM     52  O   UNL     1       0.457  64.186  14.027  1.00  0.00    -0.384 OA
ATOM     53  H   UNL     1      -0.234  64.474  13.376  1.00  0.00     0.211 HD
ENDBRANCH   4  52
TORSDOF 16
ENDMDL
MODEL 6
REMARK VINA RESULT:    -6.439      3.486      6.005
REMARK INTER + INTRA:         -13.879
REMARK INTER:                 -11.401
REMARK INTRA:                  -2.478
REMARK UNBOUND:                -3.299
REMARK SMILES C[C@H]1O[C@@H](OC[C@@H]2O[C@@H](Oc3c(-c4ccc(O)c(O)c4)oc4cc(O)cc(O)c4c3=O)[C@H](O)[C@@H](O)[C@H]2O)[C@H](O)[C@@H](O)[C@@H]1O
REMARK SMILES IDX 7 1 36 2 34 3 32 4 9 5 8 6 6 7 5 8 4 9 1 10 2 11 42 12 3 13
REMARK SMILES IDX 40 14 38 15 43 16 41 18 39 20 37 22 35 24 10 26 11 27 12 28
REMARK SMILES IDX 30 29 21 30 29 31 31 32 22 33 27 34 23 35 26 36 24 37 13 38
REMARK SMILES IDX 20 39 14 40 18 41 15 42 16 43 19 44 17 46 28 48 25 50 33 52
REMARK H PARENT 43 17 41 19 39 21 37 23 35 25 19 45 17 47 28 49 25 51 33 53
REMARK Flexibility Score: inf
ROOT
ATOM      1  C   UNL     1       3.742  68.699  13.133  1.00  0.00     0.180 C 
ATOM      2  C   UNL     1       3.420  69.580  11.878  1.00  0.00     0.177 C 
ATOM      3  C   UNL     1       2.972  70.996  12.305  1.00  0.00     0.180 C 
ATOM      4  C   UNL     1       1.924  70.964  13.459  1.00  0.00     0.214 C 
ATOM      5  C   UNL     1       1.663  69.511  13.912  1.00  0.00     0.339 C 
ATOM      6  O   UNL     1       2.892  68.920  14.261  1.00  0.00    -0.332 OA
ENDROOT
BRANCH   1   7
ATOM      7  C   UNL     1       3.764  67.200  12.802  1.00  0.00     0.198 C 
BRANCH   7   8
ATOM      8  O   UNL     1       3.612  67.052  11.401  1.00  0.00    -0.347 OA
BRANCH   8   9
ATOM      9  C   UNL     1       2.655  66.060  11.036  1.00  0.00     0.281 C 
ATOM     10  C   UNL     1       2.506  63.872   8.089  1.00  0.00     0.041 C 
ATOM     11  C   UNL     1       1.962  64.741   9.223  1.00  0.00     0.150 C 
ATOM     12  C   UNL     1       0.910  65.738   8.689  1.00  0.00     0.174 C 
ATOM     13  O   UNL     1       3.018  65.466   9.792  1.00  0.00    -0.344 OA
ATOM     14  C   UNL     1       0.541  66.831   9.734  1.00  0.00     0.179 C 
ATOM     15  C   UNL     1       1.214  66.629  11.113  1.00  0.00     0.202 C 
BRANCH  12  16
ATOM     16  O   UNL     1      -0.246  65.069   8.248  1.00  0.00    -0.388 OA
ATOM     17  H   UNL     1      -0.892  65.040   9.010  1.00  0.00     0.211 HD
ENDBRANCH  12  16
BRANCH  14  18
ATOM     18  O   UNL     1       0.882  68.101   9.222  1.00  0.00    -0.387 OA
ATOM     19  H   UNL     1       0.332  68.758   9.723  1.00  0.00     0.211 HD
ENDBRANCH  14  18
BRANCH  15  20
ATOM     20  O   UNL     1       0.419  65.847  11.962  1.00  0.00    -0.385 OA
ATOM     21  H   UNL     1       0.417  66.273  12.855  1.00  0.00     0.211 HD
ENDBRANCH  15  20
ENDBRANCH   8   9
ENDBRANCH   7   8
ENDBRANCH   1   7
BRANCH   2  22
ATOM     22  O   UNL     1       4.507  69.634  10.982  1.00  0.00    -0.387 OA
ATOM     23  H   UNL     1       4.942  70.520  11.076  1.00  0.00     0.211 HD
ENDBRANCH   2  22
BRANCH   3  24
ATOM     24  O   UNL     1       4.067  71.807  12.651  1.00  0.00    -0.387 OA
ATOM     25  H   UNL     1       3.857  72.203  13.538  1.00  0.00     0.211 HD
ENDBRANCH   3  24
BRANCH   5  26
ATOM     26  O   UNL     1       0.796  69.477  15.046  1.00  0.00    -0.454 OA
BRANCH  26  27
ATOM     27  C   UNL     1       0.630  68.323  15.831  1.00  0.00     0.214 A 
ATOM     28  C   UNL     1       1.018  68.333  17.176  1.00  0.00     0.180 A 
ATOM     29  C   UNL     1       0.070  67.145  15.295  1.00  0.00     0.239 A 
ATOM     30  O   UNL     1       0.933  67.222  17.903  1.00  0.00    -0.452 OA
ATOM     31  C   UNL     1       0.004  65.972  16.081  1.00  0.00     0.111 A 
ATOM     32  O   UNL     1      -0.405  67.180  14.133  1.00  0.00    -0.285 OA
ATOM     33  C   UNL     1       0.472  66.069  17.420  1.00  0.00     0.146 A 
ATOM     34  C   UNL     1      -0.530  64.722  15.634  1.00  0.00     0.134 A 
ATOM     35  C   UNL     1       0.446  64.948  18.267  1.00  0.00     0.094 A 
ATOM     36  C   UNL     1      -0.576  63.646  16.515  1.00  0.00     0.093 A 
ATOM     37  C   UNL     1      -0.091  63.743  17.818  1.00  0.00     0.123 A 
BRANCH  28  38
ATOM     38  C   UNL     1       1.497  69.561  17.840  1.00  0.00     0.025 A 
ATOM     39  C   UNL     1       0.672  70.274  18.723  1.00  0.00     0.062 A 
ATOM     40  C   UNL     1       2.719  70.107  17.444  1.00  0.00     0.016 A 
ATOM     41  C   UNL     1       1.049  71.546  19.173  1.00  0.00     0.158 A 
ATOM     42  C   UNL     1       3.113  71.373  17.916  1.00  0.00     0.051 A 
ATOM     43  C   UNL     1       2.273  72.100  18.762  1.00  0.00     0.157 A 
BRANCH  41  44
ATOM     44  O   UNL     1       0.203  72.277  20.009  1.00  0.00    -0.504 OA
ATOM     45  H   UNL     1      -0.016  71.952  20.943  1.00  0.00     0.293 HD
ENDBRANCH  41  44
BRANCH  43  46
ATOM     46  O   UNL     1       2.651  73.393  19.159  1.00  0.00    -0.504 OA
ATOM     47  H   UNL     1       2.742  73.642  20.139  1.00  0.00     0.293 HD
ENDBRANCH  43  46
ENDBRANCH  28  38
BRANCH  34  48
ATOM     48  O   UNL     1      -1.037  64.474  14.354  1.00  0.00    -0.507 OA
ATOM     49  H   UNL     1      -1.561  63.668  14.073  1.00  0.00     0.293 HD
ENDBRANCH  34  48
BRANCH  37  50
ATOM     50  O   UNL     1      -0.162  62.627  18.653  1.00  0.00    -0.508 OA
ATOM     51  H   UNL     1       0.560  62.412  19.330  1.00  0.00     0.293 HD
ENDBRANCH  37  50
ENDBRANCH  26  27
ENDBRANCH   5  26
BRANCH   4  52
ATOM     52  O   UNL     1       0.720  71.551  13.031  1.00  0.00    -0.384 OA
ATOM     53  H   UNL     1       0.440  72.177  13.748  1.00  0.00     0.211 HD
ENDBRANCH   4  52
TORSDOF 16
ENDMDL
MODEL 7
REMARK VINA RESULT:    -6.412      3.692      6.521
REMARK INTER + INTRA:         -13.834
REMARK INTER:                 -10.507
REMARK INTRA:                  -3.328
REMARK UNBOUND:                -3.299
REMARK SMILES C[C@H]1O[C@@H](OC[C@@H]2O[C@@H](Oc3c(-c4ccc(O)c(O)c4)oc4cc(O)cc(O)c4c3=O)[C@H](O)[C@@H](O)[C@H]2O)[C@H](O)[C@@H](O)[C@@H]1O
REMARK SMILES IDX 7 1 36 2 34 3 32 4 9 5 8 6 6 7 5 8 4 9 1 10 2 11 42 12 3 13
REMARK SMILES IDX 40 14 38 15 43 16 41 18 39 20 37 22 35 24 10 26 11 27 12 28
REMARK SMILES IDX 30 29 21 30 29 31 31 32 22 33 27 34 23 35 26 36 24 37 13 38
REMARK SMILES IDX 20 39 14 40 18 41 15 42 16 43 19 44 17 46 28 48 25 50 33 52
REMARK H PARENT 43 17 41 19 39 21 37 23 35 25 19 45 17 47 28 49 25 51 33 53
REMARK Flexibility Score: inf
ROOT
ATOM      1  C   UNL     1       1.662  65.006  15.699  1.00  0.00     0.180 C 
ATOM      2  C   UNL     1       2.503  64.021  14.818  1.00  0.00     0.177 C 
ATOM      3  C   UNL     1       3.953  63.921  15.344  1.00  0.00     0.180 C 
ATOM      4  C   UNL     1       4.568  65.318  15.661  1.00  0.00     0.214 C 
ATOM      5  C   UNL     1       3.527  66.434  15.422  1.00  0.00     0.339 C 
ATOM      6  O   UNL     1       2.377  66.147  16.181  1.00  0.00    -0.332 OA
ENDROOT
BRANCH   1   7
ATOM      7  C   UNL     1       0.384  65.474  14.989  1.00  0.00     0.198 C 
BRANCH   7   8
ATOM      8  O   UNL     1       0.584  66.804  14.542  1.00  0.00    -0.347 OA
BRANCH   8   9
ATOM      9  C   UNL     1       0.507  66.944  13.126  1.00  0.00     0.281 C 
ATOM     10  C   UNL     1       3.141  67.616  10.655  1.00  0.00     0.041 C 
ATOM     11  C   UNL     1       1.743  67.679  11.272  1.00  0.00     0.150 C 
ATOM     12  C   UNL     1       1.222  69.132  11.294  1.00  0.00     0.174 C 
ATOM     13  O   UNL     1       1.802  67.203  12.588  1.00  0.00    -0.344 OA
ATOM     14  C   UNL     1      -0.057  69.293  12.166  1.00  0.00     0.179 C 
ATOM     15  C   UNL     1      -0.599  67.959  12.731  1.00  0.00     0.202 C 
BRANCH  12  16
ATOM     16  O   UNL     1       0.993  69.610   9.991  1.00  0.00    -0.388 OA
ATOM     17  H   UNL     1       1.881  69.824   9.583  1.00  0.00     0.211 HD
ENDBRANCH  12  16
BRANCH  14  18
ATOM     18  O   UNL     1       0.209  70.185  13.226  1.00  0.00    -0.387 OA
ATOM     19  H   UNL     1       0.905  70.810  12.895  1.00  0.00     0.211 HD
ENDBRANCH  14  18
BRANCH  15  20
ATOM     20  O   UNL     1      -1.523  67.368  11.858  1.00  0.00    -0.385 OA
ATOM     21  H   UNL     1      -1.667  66.434  12.153  1.00  0.00     0.211 HD
ENDBRANCH  15  20
ENDBRANCH   8   9
ENDBRANCH   7   8
ENDBRANCH   1   7
BRANCH   2  22
ATOM     22  O   UNL     1       1.900  62.750  14.731  1.00  0.00    -0.387 OA
ATOM     23  H   UNL     1       1.935  62.454  13.786  1.00  0.00     0.211 HD
ENDBRANCH   2  22
BRANCH   3  24
ATOM     24  O   UNL     1       4.045  63.073  16.463  1.00  0.00    -0.387 OA
ATOM     25  H   UNL     1       3.543  62.246  16.234  1.00  0.00     0.211 HD
ENDBRANCH   3  24
BRANCH   5  26
ATOM     26  O   UNL     1       4.039  67.705  15.821  1.00  0.00    -0.454 OA
BRANCH  26  27
ATOM     27  C   UNL     1       3.937  68.846  15.007  1.00  0.00     0.214 A 
ATOM     28  C   UNL     1       3.062  69.880  15.362  1.00  0.00     0.180 A 
ATOM     29  C   UNL     1       4.705  68.980  13.832  1.00  0.00     0.239 A 
ATOM     30  O   UNL     1       2.905  70.927  14.556  1.00  0.00    -0.452 OA
ATOM     31  C   UNL     1       4.511  70.095  12.983  1.00  0.00     0.111 A 
ATOM     32  O   UNL     1       5.588  68.121  13.589  1.00  0.00    -0.285 OA
ATOM     33  C   UNL     1       3.561  71.065  13.404  1.00  0.00     0.146 A 
ATOM     34  C   UNL     1       5.224  70.323  11.764  1.00  0.00     0.134 A 
ATOM     35  C   UNL     1       3.304  72.200  12.616  1.00  0.00     0.094 A 
ATOM     36  C   UNL     1       4.971  71.478  11.032  1.00  0.00     0.093 A 
ATOM     37  C   UNL     1       4.020  72.412  11.440  1.00  0.00     0.123 A 
BRANCH  28  38
ATOM     38  C   UNL     1       2.317  69.867  16.635  1.00  0.00     0.025 A 
ATOM     39  C   UNL     1       1.129  69.132  16.770  1.00  0.00     0.062 A 
ATOM     40  C   UNL     1       2.709  70.737  17.654  1.00  0.00     0.016 A 
ATOM     41  C   UNL     1       0.316  69.299  17.898  1.00  0.00     0.158 A 
ATOM     42  C   UNL     1       1.908  70.887  18.802  1.00  0.00     0.051 A 
ATOM     43  C   UNL     1       0.706  70.186  18.916  1.00  0.00     0.157 A 
BRANCH  41  44
ATOM     44  O   UNL     1      -0.892  68.608  18.006  1.00  0.00    -0.504 OA
ATOM     45  H   UNL     1      -1.583  68.869  18.700  1.00  0.00     0.293 HD
ENDBRANCH  41  44
BRANCH  43  46
ATOM     46  O   UNL     1      -0.115  70.409  20.034  1.00  0.00    -0.504 OA
ATOM     47  H   UNL     1      -1.081  70.700  19.934  1.00  0.00     0.293 HD
ENDBRANCH  43  46
ENDBRANCH  28  38
BRANCH  34  48
ATOM     48  O   UNL     1       6.193  69.470  11.225  1.00  0.00    -0.507 OA
ATOM     49  H   UNL     1       6.025  68.702  10.604  1.00  0.00     0.293 HD
ENDBRANCH  34  48
BRANCH  37  50
ATOM     50  O   UNL     1       3.808  73.550  10.660  1.00  0.00    -0.508 OA
ATOM     51  H   UNL     1       4.427  73.808   9.901  1.00  0.00     0.293 HD
ENDBRANCH  37  50
ENDBRANCH  26  27
ENDBRANCH   5  26
BRANCH   4  52
ATOM     52  O   UNL     1       5.697  65.541  14.853  1.00  0.00    -0.384 OA
ATOM     53  H   UNL     1       6.488  65.472  15.446  1.00  0.00     0.211 HD
ENDBRANCH   4  52
TORSDOF 16
ENDMDL
MODEL 8
REMARK VINA RESULT:    -6.390      5.013      8.624
REMARK INTER + INTRA:         -13.798
REMARK INTER:                 -11.382
REMARK INTRA:                  -2.416
REMARK UNBOUND:                -3.299
REMARK SMILES C[C@H]1O[C@@H](OC[C@@H]2O[C@@H](Oc3c(-c4ccc(O)c(O)c4)oc4cc(O)cc(O)c4c3=O)[C@H](O)[C@@H](O)[C@H]2O)[C@H](O)[C@@H](O)[C@@H]1O
REMARK SMILES IDX 7 1 36 2 34 3 32 4 9 5 8 6 6 7 5 8 4 9 1 10 2 11 42 12 3 13
REMARK SMILES IDX 40 14 38 15 43 16 41 18 39 20 37 22 35 24 10 26 11 27 12 28
REMARK SMILES IDX 30 29 21 30 29 31 31 32 22 33 27 34 23 35 26 36 24 37 13 38
REMARK SMILES IDX 20 39 14 40 18 41 15 42 16 43 19 44 17 46 28 48 25 50 33 52
REMARK H PARENT 43 17 41 19 39 21 37 23 35 25 19 45 17 47 28 49 25 51 33 53
REMARK Flexibility Score: inf
ROOT
ATOM      1  C   UNL     1      -0.039  68.482   9.556  1.00  0.00     0.180 C 
ATOM      2  C   UNL     1      -1.315  69.387   9.481  1.00  0.00     0.177 C 
ATOM      3  C   UNL     1      -1.046  70.765  10.126  1.00  0.00     0.180 C 
ATOM      4  C   UNL     1      -0.319  70.646  11.500  1.00  0.00     0.214 C 
ATOM      5  C   UNL     1      -0.004  69.167  11.818  1.00  0.00     0.339 C 
ATOM      6  O   UNL     1       0.734  68.624  10.750  1.00  0.00    -0.332 OA
ENDROOT
BRANCH   1   7
ATOM      7  C   UNL     1      -0.365  66.997   9.339  1.00  0.00     0.198 C 
BRANCH   7   8
ATOM      8  O   UNL     1      -0.643  66.799   7.965  1.00  0.00    -0.347 OA
BRANCH   8   9
ATOM      9  C   UNL     1       0.291  65.941   7.314  1.00  0.00     0.281 C 
ATOM     10  C   UNL     1       1.714  62.728   8.385  1.00  0.00     0.041 C 
ATOM     11  C   UNL     1       1.689  64.097   7.704  1.00  0.00     0.150 C 
ATOM     12  C   UNL     1       2.939  64.919   8.087  1.00  0.00     0.174 C 
ATOM     13  O   UNL     1       0.548  64.795   8.123  1.00  0.00    -0.344 OA
ATOM     14  C   UNL     1       2.823  66.412   7.662  1.00  0.00     0.179 C 
ATOM     15  C   UNL     1       1.543  66.733   6.855  1.00  0.00     0.202 C 
BRANCH  12  16
ATOM     16  O   UNL     1       4.108  64.345   7.553  1.00  0.00    -0.388 OA
ATOM     17  H   UNL     1       4.390  64.897   6.769  1.00  0.00     0.211 HD
ENDBRANCH  12  16
BRANCH  14  18
ATOM     18  O   UNL     1       2.879  67.230   8.809  1.00  0.00    -0.387 OA
ATOM     19  H   UNL     1       2.010  67.708   8.852  1.00  0.00     0.211 HD
ENDBRANCH  14  18
BRANCH  15  20
ATOM     20  O   UNL     1       1.750  66.576   5.477  1.00  0.00    -0.385 OA
ATOM     21  H   UNL     1       1.176  65.832   5.166  1.00  0.00     0.211 HD
ENDBRANCH  15  20
ENDBRANCH   8   9
ENDBRANCH   7   8
ENDBRANCH   1   7
BRANCH   2  22
ATOM     22  O   UNL     1      -1.785  69.523   8.158  1.00  0.00    -0.387 OA
ATOM     23  H   UNL     1      -1.052  69.895   7.606  1.00  0.00     0.211 HD
ENDBRANCH   2  22
BRANCH   3  24
ATOM     24  O   UNL     1      -0.334  71.616   9.261  1.00  0.00    -0.387 OA
ATOM     25  H   UNL     1       0.545  71.787   9.692  1.00  0.00     0.211 HD
ENDBRANCH   3  24
BRANCH   5  26
ATOM     26  O   UNL     1       0.765  69.055  13.016  1.00  0.00    -0.454 OA
BRANCH  26  27
ATOM     27  C   UNL     1       1.484  67.893  13.341  1.00  0.00     0.214 A 
ATOM     28  C   UNL     1       2.870  67.851  13.142  1.00  0.00     0.180 A 
ATOM     29  C   UNL     1       0.842  66.757  13.875  1.00  0.00     0.239 A 
ATOM     30  O   UNL     1       3.544  66.729  13.376  1.00  0.00    -0.452 OA
ATOM     31  C   UNL     1       1.576  65.570  14.102  1.00  0.00     0.111 A 
ATOM     32  O   UNL     1      -0.373  66.843  14.184  1.00  0.00    -0.285 OA
ATOM     33  C   UNL     1       2.968  65.611  13.818  1.00  0.00     0.146 A 
ATOM     34  C   UNL     1       1.023  64.359  14.625  1.00  0.00     0.134 A 
ATOM     35  C   UNL     1       3.769  64.473  14.011  1.00  0.00     0.094 A 
ATOM     36  C   UNL     1       1.856  63.266  14.841  1.00  0.00     0.093 A 
ATOM     37  C   UNL     1       3.215  63.307  14.536  1.00  0.00     0.123 A 
BRANCH  28  38
ATOM     38  C   UNL     1       3.629  69.038  12.702  1.00  0.00     0.025 A 
ATOM     39  C   UNL     1       3.563  70.244  13.417  1.00  0.00     0.062 A 
ATOM     40  C   UNL     1       4.277  69.003  11.466  1.00  0.00     0.016 A 
ATOM     41  C   UNL     1       4.103  71.418  12.877  1.00  0.00     0.158 A 
ATOM     42  C   UNL     1       4.845  70.175  10.933  1.00  0.00     0.051 A 
ATOM     43  C   UNL     1       4.742  71.383  11.626  1.00  0.00     0.157 A 
BRANCH  41  44
ATOM     44  O   UNL     1       3.989  72.627  13.564  1.00  0.00    -0.504 OA
ATOM     45  H   UNL     1       3.893  73.504  13.065  1.00  0.00     0.293 HD
ENDBRANCH  41  44
BRANCH  43  46
ATOM     46  O   UNL     1       5.249  72.555  11.041  1.00  0.00    -0.504 OA
ATOM     47  H   UNL     1       5.416  72.620  10.042  1.00  0.00     0.293 HD
ENDBRANCH  43  46
ENDBRANCH  28  38
BRANCH  34  48
ATOM     48  O   UNL     1      -0.321  64.166  14.963  1.00  0.00    -0.507 OA
ATOM     49  H   UNL     1      -0.999  64.886  15.122  1.00  0.00     0.293 HD
ENDBRANCH  34  48
BRANCH  37  50
ATOM     50  O   UNL     1       3.998  62.177  14.771  1.00  0.00    -0.508 OA
ATOM     51  H   UNL     1       5.004  62.180  14.647  1.00  0.00     0.293 HD
ENDBRANCH  37  50
ENDBRANCH  26  27
ENDBRANCH   5  26
BRANCH   4  52
ATOM     52  O   UNL     1      -1.123  71.189  12.518  1.00  0.00    -0.384 OA
ATOM     53  H   UNL     1      -0.556  71.240  13.330  1.00  0.00     0.211 HD
ENDBRANCH   4  52
TORSDOF 16
ENDMDL
MODEL 9
REMARK VINA RESULT:    -6.289      5.712      9.464
REMARK INTER + INTRA:         -13.632
REMARK INTER:                 -10.586
REMARK INTRA:                  -3.047
REMARK UNBOUND:                -3.299
REMARK SMILES C[C@H]1O[C@@H](OC[C@@H]2O[C@@H](Oc3c(-c4ccc(O)c(O)c4)oc4cc(O)cc(O)c4c3=O)[C@H](O)[C@@H](O)[C@H]2O)[C@H](O)[C@@H](O)[C@@H]1O
REMARK SMILES IDX 7 1 36 2 34 3 32 4 9 5 8 6 6 7 5 8 4 9 1 10 2 11 42 12 3 13
REMARK SMILES IDX 40 14 38 15 43 16 41 18 39 20 37 22 35 24 10 26 11 27 12 28
REMARK SMILES IDX 30 29 21 30 29 31 31 32 22 33 27 34 23 35 26 36 24 37 13 38
REMARK SMILES IDX 20 39 14 40 18 41 15 42 16 43 19 44 17 46 28 48 25 50 33 52
REMARK H PARENT 43 17 41 19 39 21 37 23 35 25 19 45 17 47 28 49 25 51 33 53
REMARK Flexibility Score: inf
ROOT
ATOM      1  C   UNL     1       3.949  67.673  13.323  1.00  0.00     0.180 C 
ATOM      2  C   UNL     1       3.296  67.991  14.710  1.00  0.00     0.177 C 
ATOM      3  C   UNL     1       2.235  66.926  15.071  1.00  0.00     0.180 C 
ATOM      4  C   UNL     1       1.286  66.605  13.877  1.00  0.00     0.214 C 
ATOM      5  C   UNL     1       1.707  67.401  12.622  1.00  0.00     0.339 C 
ATOM      6  O   UNL     1       3.060  67.125  12.347  1.00  0.00    -0.332 OA
ENDROOT
BRANCH   1   7
ATOM      7  C   UNL     1       4.666  68.892  12.724  1.00  0.00     0.198 C 
BRANCH   7   8
ATOM      8  O   UNL     1       4.005  70.062  13.174  1.00  0.00    -0.347 OA
BRANCH   8   9
ATOM      9  C   UNL     1       3.067  70.581  12.235  1.00  0.00     0.281 C 
ATOM     10  C   UNL     1       3.367  71.096   8.610  1.00  0.00     0.041 C 
ATOM     11  C   UNL     1       2.906  71.390  10.039  1.00  0.00     0.150 C 
ATOM     12  C   UNL     1       3.145  72.874  10.394  1.00  0.00     0.174 C 
ATOM     13  O   UNL     1       3.638  70.593  10.928  1.00  0.00    -0.344 OA
ATOM     14  C   UNL     1       2.967  73.159  11.913  1.00  0.00     0.179 C 
ATOM     15  C   UNL     1       2.485  71.933  12.725  1.00  0.00     0.202 C 
BRANCH  12  16
ATOM     16  O   UNL     1       2.314  73.718   9.634  1.00  0.00    -0.388 OA
ATOM     17  H   UNL     1       2.272  74.604  10.098  1.00  0.00     0.211 HD
ENDBRANCH  12  16
BRANCH  14  18
ATOM     18  O   UNL     1       4.185  73.632  12.446  1.00  0.00    -0.387 OA
ATOM     19  H   UNL     1       4.825  73.661  11.688  1.00  0.00     0.211 HD
ENDBRANCH  14  18
BRANCH  15  20
ATOM     20  O   UNL     1       1.086  71.876  12.787  1.00  0.00    -0.385 OA
ATOM     21  H   UNL     1       0.772  72.649  13.320  1.00  0.00     0.211 HD
ENDBRANCH  15  20
ENDBRANCH   8   9
ENDBRANCH   7   8
ENDBRANCH   1   7
BRANCH   2  22
ATOM     22  O   UNL     1       4.262  68.118  15.729  1.00  0.00    -0.387 OA
ATOM     23  H   UNL     1       5.157  68.144  15.305  1.00  0.00     0.211 HD
ENDBRANCH   2  22
BRANCH   3  24
ATOM     24  O   UNL     1       2.825  65.749  15.566  1.00  0.00    -0.387 OA
ATOM     25  H   UNL     1       3.590  65.542  14.966  1.00  0.00     0.211 HD
ENDBRANCH   3  24
BRANCH   5  26
ATOM     26  O   UNL     1       0.920  67.027  11.491  1.00  0.00    -0.454 OA
BRANCH  26  27
ATOM     27  C   UNL     1       0.492  67.961  10.532  1.00  0.00     0.214 A 
ATOM     28  C   UNL     1       0.683  67.698   9.170  1.00  0.00     0.180 A 
ATOM     29  C   UNL     1      -0.137  69.165  10.909  1.00  0.00     0.239 A 
ATOM     30  O   UNL     1       0.349  68.610   8.261  1.00  0.00    -0.452 OA
ATOM     31  C   UNL     1      -0.470  70.127   9.927  1.00  0.00     0.111 A 
ATOM     32  O   UNL     1      -0.434  69.336  12.117  1.00  0.00    -0.285 OA
ATOM     33  C   UNL     1      -0.188  69.789   8.576  1.00  0.00     0.146 A 
ATOM     34  C   UNL     1      -1.096  71.384  10.199  1.00  0.00     0.134 A 
ATOM     35  C   UNL     1      -0.482  70.691   7.539  1.00  0.00     0.094 A 
ATOM     36  C   UNL     1      -1.409  72.233   9.143  1.00  0.00     0.093 A 
ATOM     37  C   UNL     1      -1.105  71.905   7.823  1.00  0.00     0.123 A 
BRANCH  28  38
ATOM     38  C   UNL     1       1.222  66.409   8.693  1.00  0.00     0.025 A 
ATOM     39  C   UNL     1       0.400  65.481   8.035  1.00  0.00     0.062 A 
ATOM     40  C   UNL     1       2.518  66.045   9.060  1.00  0.00     0.016 A 
ATOM     41  C   UNL     1       0.859  64.182   7.785  1.00  0.00     0.158 A 
ATOM     42  C   UNL     1       2.991  64.748   8.787  1.00  0.00     0.051 A 
ATOM     43  C   UNL     1       2.158  63.812   8.168  1.00  0.00     0.157 A 
BRANCH  41  44
ATOM     44  O   UNL     1       0.022  63.243   7.179  1.00  0.00    -0.504 OA
ATOM     45  H   UNL     1      -0.334  62.449   7.698  1.00  0.00     0.293 HD
ENDBRANCH  41  44
BRANCH  43  46
ATOM     46  O   UNL     1       2.625  62.502   7.974  1.00  0.00    -0.504 OA
ATOM     47  H   UNL     1       2.208  61.887   7.283  1.00  0.00     0.293 HD
ENDBRANCH  43  46
ENDBRANCH  28  38
BRANCH  34  48
ATOM     48  O   UNL     1      -1.445  71.852  11.471  1.00  0.00    -0.507 OA
ATOM     49  H   UNL     1      -1.374  71.340  12.329  1.00  0.00     0.293 HD
ENDBRANCH  34  48
BRANCH  37  50
ATOM     50  O   UNL     1      -1.442  72.800   6.806  1.00  0.00    -0.508 OA
ATOM     51  H   UNL     1      -2.398  73.085   6.631  1.00  0.00     0.293 HD
ENDBRANCH  37  50
ENDBRANCH  26  27
ENDBRANCH   5  26
BRANCH   4  52
ATOM     52  O   UNL     1      -0.040  66.925  14.218  1.00  0.00    -0.384 OA
ATOM     53  H   UNL     1      -0.185  67.865  13.940  1.00  0.00     0.211 HD
ENDBRANCH   4  52
TORSDOF 16
ENDMDL
