MODEL 1
REMARK VINA RESULT:    -7.938      0.000      0.000
REMARK INTER + INTRA:         -12.257
REMARK INTER:                 -10.490
REMARK INTRA:                  -1.767
REMARK UNBOUND:                -1.767
REMARK SMILES CC[C@@H](C=C[C@@H](C)[C@H]1CC[C@@H]2[C@H]3CC=C4C[C@@H](O)CC[C@]4(C)[C@@H]3CC[C@]21C)C(C)C
REMARK SMILES IDX 6 1 7 2 5 3 4 4 3 5 2 6 1 7 28 8 29 9 30 10 8 11 9 12 26 13
REMARK SMILES IDX 10 14 11 15 25 16 27 17 12 18 24 19 23 20 13 21 21 22 14 23
REMARK SMILES IDX 15 24 20 25 22 26 16 27 19 28 17 29 18 30
REMARK H PARENT 18 31
REMARK Flexibility Score: inf
ROOT
ATOM      1  C   UNL     1      -5.703  26.041  49.831  1.00  0.00     0.012 C 
ATOM      2  C   UNL     1      -6.837  27.082  49.800  1.00  0.00     0.012 C 
ENDROOT
BRANCH   1   3
ATOM      3  C   UNL     1      -4.726  26.281  50.976  1.00  0.00    -0.028 C 
ATOM      4  C   UNL     1      -4.389  25.351  51.895  1.00  0.00    -0.027 C 
BRANCH   4   5
ATOM      5  C   UNL     1      -3.506  25.592  53.124  1.00  0.00     0.014 C 
BRANCH   5   6
ATOM      6  C   UNL     1      -3.664  27.016  53.741  1.00  0.00     0.004 C 
ATOM      7  C   UNL     1      -2.636  28.036  53.236  1.00  0.00     0.004 C 
ENDBRANCH   5   6
BRANCH   5   8
ATOM      8  C   UNL     1      -2.007  25.208  52.839  1.00  0.00    -0.011 C 
ATOM      9  C   UNL     1      -1.240  24.839  54.125  1.00  0.00     0.008 C 
ATOM     10  C   UNL     1      -1.884  24.018  51.863  1.00  0.00     0.008 C 
ENDBRANCH   5   8
ENDBRANCH   4   5
ENDBRANCH   1   3
BRANCH   1  11
ATOM     11  C   UNL     1      -5.035  25.871  48.421  1.00  0.00     0.002 C 
ATOM     12  C   UNL     1      -3.665  26.594  48.276  1.00  0.00     0.005 C 
ATOM     13  C   UNL     1      -4.736  24.413  47.944  1.00  0.00    -0.026 C 
ATOM     14  C   UNL     1      -2.582  25.508  48.127  1.00  0.00     0.005 C 
ATOM     15  C   UNL     1      -3.300  24.201  48.438  1.00  0.00    -0.001 C 
ATOM     16  C   UNL     1      -5.611  23.269  48.519  1.00  0.00     0.007 C 
ATOM     17  C   UNL     1      -4.851  24.407  46.383  1.00  0.00     0.012 C 
ATOM     18  C   UNL     1      -2.673  22.877  47.941  1.00  0.00     0.000 C 
ATOM     19  C   UNL     1      -5.072  21.885  48.096  1.00  0.00     0.005 C 
ATOM     20  C   UNL     1      -3.553  21.684  48.422  1.00  0.00     0.003 C 
ATOM     21  C   UNL     1      -1.268  22.704  48.532  1.00  0.00     0.031 C 
ATOM     22  C   UNL     1      -2.969  20.284  47.959  1.00  0.00    -0.008 C 
ATOM     23  C   UNL     1      -0.681  21.387  48.133  1.00  0.00    -0.027 C 
ATOM     24  C   UNL     1      -1.427  20.283  47.909  1.00  0.00    -0.065 C 
ATOM     25  C   UNL     1      -3.476  19.899  46.532  1.00  0.00     0.014 C 
ATOM     26  C   UNL     1      -3.431  19.213  48.982  1.00  0.00     0.016 C 
ATOM     27  C   UNL     1      -0.738  19.049  47.360  1.00  0.00     0.063 C 
ATOM     28  C   UNL     1      -2.796  18.650  45.934  1.00  0.00     0.033 C 
ATOM     29  C   UNL     1      -1.263  18.770  45.943  1.00  0.00     0.118 C 
BRANCH  29  30
ATOM     30  O   UNL     1      -0.674  17.611  45.408  1.00  0.00    -0.393 OA
ATOM     31  H   UNL     1      -1.400  16.957  45.239  1.00  0.00     0.210 HD
ENDBRANCH  29  30
ENDBRANCH   1  11
TORSDOF 6
ENDMDL
MODEL 2
REMARK VINA RESULT:    -7.797      1.613      4.631
REMARK INTER + INTRA:         -12.071
REMARK INTER:                 -10.302
REMARK INTRA:                  -1.768
REMARK UNBOUND:                -1.767
REMARK SMILES CC[C@@H](C=C[C@@H](C)[C@H]1CC[C@@H]2[C@H]3CC=C4C[C@@H](O)CC[C@]4(C)[C@@H]3CC[C@]21C)C(C)C
REMARK SMILES IDX 6 1 7 2 5 3 4 4 3 5 2 6 1 7 28 8 29 9 30 10 8 11 9 12 26 13
REMARK SMILES IDX 10 14 11 15 25 16 27 17 12 18 24 19 23 20 13 21 21 22 14 23
REMARK SMILES IDX 15 24 20 25 22 26 16 27 19 28 17 29 18 30
REMARK H PARENT 18 31
REMARK Flexibility Score: inf
ROOT
ATOM      1  C   UNL     1      -3.148  27.285  51.552  1.00  0.00     0.012 C 
ATOM      2  C   UNL     1      -2.546  28.274  52.567  1.00  0.00     0.012 C 
ENDROOT
BRANCH   1   3
ATOM      3  C   UNL     1      -4.582  27.642  51.176  1.00  0.00    -0.028 C 
ATOM      4  C   UNL     1      -5.075  27.580  49.921  1.00  0.00    -0.027 C 
BRANCH   4   5
ATOM      5  C   UNL     1      -6.472  28.043  49.489  1.00  0.00     0.014 C 
BRANCH   5   6
ATOM      6  C   UNL     1      -7.517  26.889  49.403  1.00  0.00     0.004 C 
ATOM      7  C   UNL     1      -6.901  25.496  49.229  1.00  0.00     0.004 C 
ENDBRANCH   5   6
BRANCH   5   8
ATOM      8  C   UNL     1      -6.409  28.915  48.181  1.00  0.00    -0.011 C 
ATOM      9  C   UNL     1      -7.711  28.837  47.360  1.00  0.00     0.008 C 
ATOM     10  C   UNL     1      -6.136  30.405  48.485  1.00  0.00     0.008 C 
ENDBRANCH   5   8
ENDBRANCH   4   5
ENDBRANCH   1   3
BRANCH   1  11
ATOM     11  C   UNL     1      -2.936  25.796  51.998  1.00  0.00     0.002 C 
ATOM     12  C   UNL     1      -4.233  25.087  52.483  1.00  0.00     0.005 C 
ATOM     13  C   UNL     1      -2.351  24.810  50.935  1.00  0.00    -0.026 C 
ATOM     14  C   UNL     1      -4.567  23.984  51.462  1.00  0.00     0.005 C 
ATOM     15  C   UNL     1      -3.620  24.236  50.295  1.00  0.00    -0.001 C 
ATOM     16  C   UNL     1      -1.472  25.403  49.803  1.00  0.00     0.007 C 
ATOM     17  C   UNL     1      -1.521  23.735  51.714  1.00  0.00     0.012 C 
ATOM     18  C   UNL     1      -3.337  23.079  49.309  1.00  0.00     0.000 C 
ATOM     19  C   UNL     1      -1.130  24.334  48.743  1.00  0.00     0.005 C 
ATOM     20  C   UNL     1      -2.390  23.590  48.181  1.00  0.00     0.003 C 
ATOM     21  C   UNL     1      -4.643  22.608  48.659  1.00  0.00     0.031 C 
ATOM     22  C   UNL     1      -2.058  22.460  47.119  1.00  0.00    -0.008 C 
ATOM     23  C   UNL     1      -4.378  21.548  47.636  1.00  0.00    -0.027 C 
ATOM     24  C   UNL     1      -3.239  21.490  46.911  1.00  0.00    -0.065 C 
ATOM     25  C   UNL     1      -0.830  21.601  47.566  1.00  0.00     0.014 C 
ATOM     26  C   UNL     1      -1.743  23.154  45.768  1.00  0.00     0.016 C 
ATOM     27  C   UNL     1      -3.017  20.285  46.018  1.00  0.00     0.063 C 
ATOM     28  C   UNL     1      -0.571  20.361  46.686  1.00  0.00     0.033 C 
ATOM     29  C   UNL     1      -1.824  19.478  46.553  1.00  0.00     0.118 C 
BRANCH  29  30
ATOM     30  O   UNL     1      -1.559  18.367  45.733  1.00  0.00    -0.393 OA
ATOM     31  H   UNL     1      -1.644  17.553  46.294  1.00  0.00     0.210 HD
ENDBRANCH  29  30
ENDBRANCH   1  11
TORSDOF 6
ENDMDL
MODEL 3
REMARK VINA RESULT:    -7.535      1.547      4.325
REMARK INTER + INTRA:         -11.725
REMARK INTER:                  -9.577
REMARK INTRA:                  -2.148
REMARK UNBOUND:                -1.767
REMARK SMILES CC[C@@H](C=C[C@@H](C)[C@H]1CC[C@@H]2[C@H]3CC=C4C[C@@H](O)CC[C@]4(C)[C@@H]3CC[C@]21C)C(C)C
REMARK SMILES IDX 6 1 7 2 5 3 4 4 3 5 2 6 1 7 28 8 29 9 30 10 8 11 9 12 26 13
REMARK SMILES IDX 10 14 11 15 25 16 27 17 12 18 24 19 23 20 13 21 21 22 14 23
REMARK SMILES IDX 15 24 20 25 22 26 16 27 19 28 17 29 18 30
REMARK H PARENT 18 31
REMARK Flexibility Score: inf
ROOT
ATOM      1  C   UNL     1      -3.026  27.234  51.463  1.00  0.00     0.012 C 
ATOM      2  C   UNL     1      -2.924  28.204  52.655  1.00  0.00     0.012 C 
ENDROOT
BRANCH   1   3
ATOM      3  C   UNL     1      -4.239  27.519  50.585  1.00  0.00    -0.028 C 
ATOM      4  C   UNL     1      -4.220  27.500  49.235  1.00  0.00    -0.027 C 
BRANCH   4   5
ATOM      5  C   UNL     1      -5.387  27.898  48.323  1.00  0.00     0.014 C 
BRANCH   5   6
ATOM      6  C   UNL     1      -6.353  28.943  48.959  1.00  0.00     0.004 C 
ATOM      7  C   UNL     1      -6.129  30.381  48.474  1.00  0.00     0.004 C 
ENDBRANCH   5   6
BRANCH   5   8
ATOM      8  C   UNL     1      -6.133  26.632  47.760  1.00  0.00    -0.011 C 
ATOM      9  C   UNL     1      -5.205  25.725  46.927  1.00  0.00     0.008 C 
ATOM     10  C   UNL     1      -6.747  25.768  48.884  1.00  0.00     0.008 C 
ENDBRANCH   5   8
ENDBRANCH   4   5
ENDBRANCH   1   3
BRANCH   1  11
ATOM     11  C   UNL     1      -2.882  25.740  51.919  1.00  0.00     0.002 C 
ATOM     12  C   UNL     1      -4.210  25.092  52.404  1.00  0.00     0.005 C 
ATOM     13  C   UNL     1      -2.336  24.721  50.865  1.00  0.00    -0.026 C 
ATOM     14  C   UNL     1      -4.589  23.997  51.388  1.00  0.00     0.005 C 
ATOM     15  C   UNL     1      -3.628  24.200  50.224  1.00  0.00    -0.001 C 
ATOM     16  C   UNL     1      -1.428  25.268  49.733  1.00  0.00     0.007 C 
ATOM     17  C   UNL     1      -1.558  23.616  51.655  1.00  0.00     0.012 C 
ATOM     18  C   UNL     1      -3.392  23.026  49.246  1.00  0.00     0.000 C 
ATOM     19  C   UNL     1      -1.130  24.178  48.681  1.00  0.00     0.005 C 
ATOM     20  C   UNL     1      -2.420  23.487  48.119  1.00  0.00     0.003 C 
ATOM     21  C   UNL     1      -4.716  22.608  48.594  1.00  0.00     0.031 C 
ATOM     22  C   UNL     1      -2.134  22.336  47.066  1.00  0.00    -0.008 C 
ATOM     23  C   UNL     1      -4.494  21.531  47.579  1.00  0.00    -0.027 C 
ATOM     24  C   UNL     1      -3.357  21.418  46.859  1.00  0.00    -0.065 C 
ATOM     25  C   UNL     1      -0.947  21.427  47.523  1.00  0.00     0.014 C 
ATOM     26  C   UNL     1      -1.784  23.007  45.711  1.00  0.00     0.016 C 
ATOM     27  C   UNL     1      -3.184  20.199  45.975  1.00  0.00     0.063 C 
ATOM     28  C   UNL     1      -0.740  20.171  46.651  1.00  0.00     0.033 C 
ATOM     29  C   UNL     1      -2.030  19.344  46.519  1.00  0.00     0.118 C 
BRANCH  29  30
ATOM     30  O   UNL     1      -1.812  18.217  45.707  1.00  0.00    -0.393 OA
ATOM     31  H   UNL     1      -1.573  17.460  46.302  1.00  0.00     0.210 HD
ENDBRANCH  29  30
ENDBRANCH   1  11
TORSDOF 6
ENDMDL
MODEL 4
REMARK VINA RESULT:    -7.190      3.275      6.924
REMARK INTER + INTRA:         -11.269
REMARK INTER:                  -9.299
REMARK INTRA:                  -1.970
REMARK UNBOUND:                -1.767
REMARK SMILES CC[C@@H](C=C[C@@H](C)[C@H]1CC[C@@H]2[C@H]3CC=C4C[C@@H](O)CC[C@]4(C)[C@@H]3CC[C@]21C)C(C)C
REMARK SMILES IDX 6 1 7 2 5 3 4 4 3 5 2 6 1 7 28 8 29 9 30 10 8 11 9 12 26 13
REMARK SMILES IDX 10 14 11 15 25 16 27 17 12 18 24 19 23 20 13 21 21 22 14 23
REMARK SMILES IDX 15 24 20 25 22 26 16 27 19 28 17 29 18 30
REMARK H PARENT 18 31
REMARK Flexibility Score: inf
ROOT
ATOM      1  C   UNL     1      -0.970  23.986  53.531  1.00  0.00     0.012 C 
ATOM      2  C   UNL     1       0.494  24.050  54.002  1.00  0.00     0.012 C 
ENDROOT
BRANCH   1   3
ATOM      3  C   UNL     1      -1.114  23.306  52.174  1.00  0.00    -0.028 C 
ATOM      4  C   UNL     1      -0.371  23.611  51.089  1.00  0.00    -0.027 C 
BRANCH   4   5
ATOM      5  C   UNL     1      -0.569  23.034  49.682  1.00  0.00     0.014 C 
BRANCH   5   6
ATOM      6  C   UNL     1       0.587  23.378  48.694  1.00  0.00     0.004 C 
ATOM      7  C   UNL     1       1.920  23.707  49.377  1.00  0.00     0.004 C 
ENDBRANCH   5   6
BRANCH   5   8
ATOM      8  C   UNL     1      -1.992  23.387  49.112  1.00  0.00    -0.011 C 
ATOM      9  C   UNL     1      -1.926  23.955  47.680  1.00  0.00     0.008 C 
ATOM     10  C   UNL     1      -2.932  22.161  49.087  1.00  0.00     0.008 C 
ENDBRANCH   5   8
ENDBRANCH   4   5
ENDBRANCH   1   3
BRANCH   1  11
ATOM     11  C   UNL     1      -1.676  25.382  53.645  1.00  0.00     0.002 C 
ATOM     12  C   UNL     1      -0.764  26.587  53.277  1.00  0.00     0.005 C 
ATOM     13  C   UNL     1      -2.956  25.608  52.774  1.00  0.00    -0.026 C 
ATOM     14  C   UNL     1      -1.320  27.212  51.984  1.00  0.00     0.005 C 
ATOM     15  C   UNL     1      -2.371  26.222  51.497  1.00  0.00    -0.001 C 
ATOM     16  C   UNL     1      -3.784  24.362  52.368  1.00  0.00     0.007 C 
ATOM     17  C   UNL     1      -3.877  26.599  53.561  1.00  0.00     0.012 C 
ATOM     18  C   UNL     1      -3.452  26.718  50.508  1.00  0.00     0.000 C 
ATOM     19  C   UNL     1      -4.898  24.734  51.365  1.00  0.00     0.005 C 
ATOM     20  C   UNL     1      -4.373  25.523  50.118  1.00  0.00     0.003 C 
ATOM     21  C   UNL     1      -2.793  27.252  49.230  1.00  0.00     0.031 C 
ATOM     22  C   UNL     1      -5.507  25.950  49.095  1.00  0.00    -0.008 C 
ATOM     23  C   UNL     1      -3.828  27.655  48.226  1.00  0.00    -0.027 C 
ATOM     24  C   UNL     1      -5.035  27.057  48.128  1.00  0.00    -0.065 C 
ATOM     25  C   UNL     1      -6.769  26.496  49.838  1.00  0.00     0.014 C 
ATOM     26  C   UNL     1      -5.894  24.699  48.263  1.00  0.00     0.016 C 
ATOM     27  C   UNL     1      -6.057  27.651  47.179  1.00  0.00     0.063 C 
ATOM     28  C   UNL     1      -7.833  27.115  48.908  1.00  0.00     0.033 C 
ATOM     29  C   UNL     1      -7.238  28.200  47.994  1.00  0.00     0.118 C 
BRANCH  29  30
ATOM     30  O   UNL     1      -8.228  28.731  47.149  1.00  0.00    -0.393 OA
ATOM     31  H   UNL     1      -7.868  28.725  46.225  1.00  0.00     0.210 HD
ENDBRANCH  29  30
ENDBRANCH   1  11
TORSDOF 6
ENDMDL
MODEL 5
REMARK VINA RESULT:    -7.151      2.005      4.913
REMARK INTER + INTRA:         -11.218
REMARK INTER:                  -9.104
REMARK INTRA:                  -2.114
REMARK UNBOUND:                -1.767
REMARK SMILES CC[C@@H](C=C[C@@H](C)[C@H]1CC[C@@H]2[C@H]3CC=C4C[C@@H](O)CC[C@]4(C)[C@@H]3CC[C@]21C)C(C)C
REMARK SMILES IDX 6 1 7 2 5 3 4 4 3 5 2 6 1 7 28 8 29 9 30 10 8 11 9 12 26 13
REMARK SMILES IDX 10 14 11 15 25 16 27 17 12 18 24 19 23 20 13 21 21 22 14 23
REMARK SMILES IDX 15 24 20 25 22 26 16 27 19 28 17 29 18 30
REMARK H PARENT 18 31
REMARK Flexibility Score: inf
ROOT
ATOM      1  C   UNL     1      -1.820  28.066  52.295  1.00  0.00     0.012 C 
ATOM      2  C   UNL     1      -1.246  28.985  53.389  1.00  0.00     0.012 C 
ENDROOT
BRANCH   1   3
ATOM      3  C   UNL     1      -2.834  28.780  51.410  1.00  0.00    -0.028 C 
ATOM      4  C   UNL     1      -2.958  28.578  50.081  1.00  0.00    -0.027 C 
BRANCH   4   5
ATOM      5  C   UNL     1      -3.883  29.363  49.143  1.00  0.00     0.014 C 
BRANCH   5   6
ATOM      6  C   UNL     1      -4.365  30.724  49.731  1.00  0.00     0.004 C 
ATOM      7  C   UNL     1      -5.589  31.316  49.023  1.00  0.00     0.004 C 
ENDBRANCH   5   6
BRANCH   5   8
ATOM      8  C   UNL     1      -5.065  28.466  48.618  1.00  0.00    -0.011 C 
ATOM      9  C   UNL     1      -4.566  27.252  47.810  1.00  0.00     0.008 C 
ATOM     10  C   UNL     1      -5.949  27.934  49.767  1.00  0.00     0.008 C 
ENDBRANCH   5   8
ENDBRANCH   4   5
ENDBRANCH   1   3
BRANCH   1  11
ATOM     11  C   UNL     1      -2.311  26.699  52.887  1.00  0.00     0.002 C 
ATOM     12  C   UNL     1      -3.784  26.716  53.388  1.00  0.00     0.005 C 
ATOM     13  C   UNL     1      -2.256  25.451  51.945  1.00  0.00    -0.026 C 
ATOM     14  C   UNL     1      -4.598  25.791  52.464  1.00  0.00     0.005 C 
ATOM     15  C   UNL     1      -3.653  25.463  51.315  1.00  0.00    -0.001 C 
ATOM     16  C   UNL     1      -1.215  25.458  50.795  1.00  0.00     0.007 C 
ATOM     17  C   UNL     1      -2.005  24.201  52.853  1.00  0.00     0.012 C 
ATOM     18  C   UNL     1      -3.944  24.211  50.454  1.00  0.00     0.000 C 
ATOM     19  C   UNL     1      -1.413  24.251  49.854  1.00  0.00     0.005 C 
ATOM     20  C   UNL     1      -2.880  24.115  49.319  1.00  0.00     0.003 C 
ATOM     21  C   UNL     1      -5.328  24.328  49.803  1.00  0.00     0.031 C 
ATOM     22  C   UNL     1      -3.115  22.857  48.382  1.00  0.00    -0.008 C 
ATOM     23  C   UNL     1      -5.589  23.167  48.895  1.00  0.00    -0.027 C 
ATOM     24  C   UNL     1      -4.613  22.521  48.222  1.00  0.00    -0.065 C 
ATOM     25  C   UNL     1      -2.415  21.582  48.953  1.00  0.00     0.014 C 
ATOM     26  C   UNL     1      -2.531  23.189  46.983  1.00  0.00     0.016 C 
ATOM     27  C   UNL     1      -4.978  21.265  47.456  1.00  0.00     0.063 C 
ATOM     28  C   UNL     1      -2.764  20.279  48.204  1.00  0.00     0.033 C 
ATOM     29  C   UNL     1      -4.284  20.060  48.109  1.00  0.00     0.118 C 
BRANCH  29  30
ATOM     30  O   UNL     1      -4.568  18.874  47.407  1.00  0.00    -0.393 OA
ATOM     31  H   UNL     1      -3.839  18.230  47.601  1.00  0.00     0.210 HD
ENDBRANCH  29  30
ENDBRANCH   1  11
TORSDOF 6
ENDMDL
MODEL 6
REMARK VINA RESULT:    -7.099      3.236      6.734
REMARK INTER + INTRA:         -11.149
REMARK INTER:                  -9.117
REMARK INTRA:                  -2.033
REMARK UNBOUND:                -1.767
REMARK SMILES CC[C@@H](C=C[C@@H](C)[C@H]1CC[C@@H]2[C@H]3CC=C4C[C@@H](O)CC[C@]4(C)[C@@H]3CC[C@]21C)C(C)C
REMARK SMILES IDX 6 1 7 2 5 3 4 4 3 5 2 6 1 7 28 8 29 9 30 10 8 11 9 12 26 13
REMARK SMILES IDX 10 14 11 15 25 16 27 17 12 18 24 19 23 20 13 21 21 22 14 23
REMARK SMILES IDX 15 24 20 25 22 26 16 27 19 28 17 29 18 30
REMARK H PARENT 18 31
REMARK Flexibility Score: inf
ROOT
ATOM      1  C   UNL     1      -0.563  23.439  48.745  1.00  0.00     0.012 C 
ATOM      2  C   UNL     1       0.628  22.490  48.517  1.00  0.00     0.012 C 
ENDROOT
BRANCH   1   3
ATOM      3  C   UNL     1      -1.059  23.414  50.186  1.00  0.00    -0.028 C 
ATOM      4  C   UNL     1      -1.262  24.515  50.939  1.00  0.00    -0.027 C 
BRANCH   4   5
ATOM      5  C   UNL     1      -1.644  24.521  52.425  1.00  0.00     0.014 C 
BRANCH   5   6
ATOM      6  C   UNL     1      -1.519  23.127  53.110  1.00  0.00     0.004 C 
ATOM      7  C   UNL     1      -0.249  22.952  53.951  1.00  0.00     0.004 C 
ENDBRANCH   5   6
BRANCH   5   8
ATOM      8  C   UNL     1      -3.046  25.197  52.654  1.00  0.00    -0.011 C 
ATOM      9  C   UNL     1      -3.145  26.584  51.990  1.00  0.00     0.008 C 
ATOM     10  C   UNL     1      -4.207  24.334  52.112  1.00  0.00     0.008 C 
ENDBRANCH   5   8
ENDBRANCH   4   5
ENDBRANCH   1   3
BRANCH   1  11
ATOM     11  C   UNL     1      -1.680  23.236  47.662  1.00  0.00     0.002 C 
ATOM     12  C   UNL     1      -2.595  22.004  47.916  1.00  0.00     0.005 C 
ATOM     13  C   UNL     1      -2.691  24.410  47.451  1.00  0.00    -0.026 C 
ATOM     14  C   UNL     1      -4.005  22.534  48.240  1.00  0.00     0.005 C 
ATOM     15  C   UNL     1      -3.824  24.036  48.413  1.00  0.00    -0.001 C 
ATOM     16  C   UNL     1      -2.219  25.845  47.805  1.00  0.00     0.007 C 
ATOM     17  C   UNL     1      -3.130  24.374  45.948  1.00  0.00     0.012 C 
ATOM     18  C   UNL     1      -5.064  24.951  48.281  1.00  0.00     0.000 C 
ATOM     19  C   UNL     1      -3.384  26.854  47.717  1.00  0.00     0.005 C 
ATOM     20  C   UNL     1      -4.641  26.426  48.549  1.00  0.00     0.003 C 
ATOM     21  C   UNL     1      -6.122  24.560  49.320  1.00  0.00     0.031 C 
ATOM     22  C   UNL     1      -5.865  27.430  48.440  1.00  0.00    -0.008 C 
ATOM     23  C   UNL     1      -7.293  25.491  49.265  1.00  0.00    -0.027 C 
ATOM     24  C   UNL     1      -7.188  26.789  48.908  1.00  0.00    -0.065 C 
ATOM     25  C   UNL     1      -6.080  27.908  46.968  1.00  0.00     0.014 C 
ATOM     26  C   UNL     1      -5.559  28.653  49.346  1.00  0.00     0.016 C 
ATOM     27  C   UNL     1      -8.462  27.593  48.739  1.00  0.00     0.063 C 
ATOM     28  C   UNL     1      -7.370  28.727  46.751  1.00  0.00     0.033 C 
ATOM     29  C   UNL     1      -8.616  27.983  47.261  1.00  0.00     0.118 C 
BRANCH  29  30
ATOM     30  O   UNL     1      -9.770  28.762  47.064  1.00  0.00    -0.393 OA
ATOM     31  H   UNL     1     -10.550  28.220  47.351  1.00  0.00     0.210 HD
ENDBRANCH  29  30
ENDBRANCH   1  11
TORSDOF 6
ENDMDL
MODEL 7
REMARK VINA RESULT:    -6.929      3.259      6.636
REMARK INTER + INTRA:         -10.924
REMARK INTER:                  -9.164
REMARK INTRA:                  -1.761
REMARK UNBOUND:                -1.767
REMARK SMILES CC[C@@H](C=C[C@@H](C)[C@H]1CC[C@@H]2[C@H]3CC=C4C[C@@H](O)CC[C@]4(C)[C@@H]3CC[C@]21C)C(C)C
REMARK SMILES IDX 6 1 7 2 5 3 4 4 3 5 2 6 1 7 28 8 29 9 30 10 8 11 9 12 26 13
REMARK SMILES IDX 10 14 11 15 25 16 27 17 12 18 24 19 23 20 13 21 21 22 14 23
REMARK SMILES IDX 15 24 20 25 22 26 16 27 19 28 17 29 18 30
REMARK H PARENT 18 31
REMARK Flexibility Score: inf
ROOT
ATOM      1  C   UNL     1      -0.643  23.475  49.108  1.00  0.00     0.012 C 
ATOM      2  C   UNL     1       0.616  22.624  48.856  1.00  0.00     0.012 C 
ENDROOT
BRANCH   1   3
ATOM      3  C   UNL     1      -1.142  23.360  50.544  1.00  0.00    -0.028 C 
ATOM      4  C   UNL     1      -1.381  24.416  51.351  1.00  0.00    -0.027 C 
BRANCH   4   5
ATOM      5  C   UNL     1      -1.768  24.334  52.833  1.00  0.00     0.014 C 
BRANCH   5   6
ATOM      6  C   UNL     1      -2.756  25.451  53.286  1.00  0.00     0.004 C 
ATOM      7  C   UNL     1      -4.031  25.542  52.439  1.00  0.00     0.004 C 
ENDBRANCH   5   6
BRANCH   5   8
ATOM      8  C   UNL     1      -0.496  24.227  53.753  1.00  0.00    -0.011 C 
ATOM      9  C   UNL     1      -0.112  22.765  54.056  1.00  0.00     0.008 C 
ATOM     10  C   UNL     1       0.737  24.915  53.128  1.00  0.00     0.008 C 
ENDBRANCH   5   8
ENDBRANCH   4   5
ENDBRANCH   1   3
BRANCH   1  11
ATOM     11  C   UNL     1      -1.736  23.231  48.010  1.00  0.00     0.002 C 
ATOM     12  C   UNL     1      -2.653  22.005  48.288  1.00  0.00     0.005 C 
ATOM     13  C   UNL     1      -2.745  24.393  47.736  1.00  0.00    -0.026 C 
ATOM     14  C   UNL     1      -4.071  22.541  48.563  1.00  0.00     0.005 C 
ATOM     15  C   UNL     1      -3.897  24.049  48.688  1.00  0.00    -0.001 C 
ATOM     16  C   UNL     1      -2.284  25.841  48.050  1.00  0.00     0.007 C 
ATOM     17  C   UNL     1      -3.152  24.303  46.227  1.00  0.00     0.012 C 
ATOM     18  C   UNL     1      -5.136  24.955  48.497  1.00  0.00     0.000 C 
ATOM     19  C   UNL     1      -3.450  26.842  47.902  1.00  0.00     0.005 C 
ATOM     20  C   UNL     1      -4.723  26.440  48.722  1.00  0.00     0.003 C 
ATOM     21  C   UNL     1      -6.215  24.597  49.527  1.00  0.00     0.031 C 
ATOM     22  C   UNL     1      -5.946  27.435  48.553  1.00  0.00    -0.008 C 
ATOM     23  C   UNL     1      -7.387  25.522  49.416  1.00  0.00    -0.027 C 
ATOM     24  C   UNL     1      -7.278  26.807  49.016  1.00  0.00    -0.065 C 
ATOM     25  C   UNL     1      -6.132  27.861  47.061  1.00  0.00     0.014 C 
ATOM     26  C   UNL     1      -5.663  28.690  49.421  1.00  0.00     0.016 C 
ATOM     27  C   UNL     1      -8.550  27.600  48.792  1.00  0.00     0.063 C 
ATOM     28  C   UNL     1      -7.419  28.668  46.788  1.00  0.00     0.033 C 
ATOM     29  C   UNL     1      -8.673  27.938  47.298  1.00  0.00     0.118 C 
BRANCH  29  30
ATOM     30  O   UNL     1      -9.825  28.706  47.050  1.00  0.00    -0.393 OA
ATOM     31  H   UNL     1     -10.379  28.689  47.872  1.00  0.00     0.210 HD
ENDBRANCH  29  30
ENDBRANCH   1  11
TORSDOF 6
ENDMDL
MODEL 8
REMARK VINA RESULT:    -6.856      2.701      5.720
REMARK INTER + INTRA:         -10.828
REMARK INTER:                  -9.646
REMARK INTRA:                  -1.181
REMARK UNBOUND:                -1.767
REMARK SMILES CC[C@@H](C=C[C@@H](C)[C@H]1CC[C@@H]2[C@H]3CC=C4C[C@@H](O)CC[C@]4(C)[C@@H]3CC[C@]21C)C(C)C
REMARK SMILES IDX 6 1 7 2 5 3 4 4 3 5 2 6 1 7 28 8 29 9 30 10 8 11 9 12 26 13
REMARK SMILES IDX 10 14 11 15 25 16 27 17 12 18 24 19 23 20 13 21 21 22 14 23
REMARK SMILES IDX 15 24 20 25 22 26 16 27 19 28 17 29 18 30
REMARK H PARENT 18 31
REMARK Flexibility Score: inf
ROOT
ATOM      1  C   UNL     1      -5.027  28.531  49.086  1.00  0.00     0.012 C 
ATOM      2  C   UNL     1      -4.149  29.710  49.546  1.00  0.00     0.012 C 
ENDROOT
BRANCH   1   3
ATOM      3  C   UNL     1      -6.428  28.975  48.680  1.00  0.00    -0.028 C 
ATOM      4  C   UNL     1      -6.888  28.969  47.411  1.00  0.00    -0.027 C 
BRANCH   4   5
ATOM      5  C   UNL     1      -8.244  29.518  46.952  1.00  0.00     0.014 C 
BRANCH   5   6
ATOM      6  C   UNL     1      -9.246  28.415  46.494  1.00  0.00     0.004 C 
ATOM      7  C   UNL     1     -10.296  28.044  47.548  1.00  0.00     0.004 C 
ENDBRANCH   5   6
BRANCH   5   8
ATOM      8  C   UNL     1      -8.070  30.669  45.894  1.00  0.00    -0.011 C 
ATOM      9  C   UNL     1      -9.407  31.349  45.540  1.00  0.00     0.008 C 
ATOM     10  C   UNL     1      -7.099  31.768  46.380  1.00  0.00     0.008 C 
ENDBRANCH   5   8
ENDBRANCH   4   5
ENDBRANCH   1   3
BRANCH   1  11
ATOM     11  C   UNL     1      -4.985  27.344  50.110  1.00  0.00     0.002 C 
ATOM     12  C   UNL     1      -6.383  26.766  50.472  1.00  0.00     0.005 C 
ATOM     13  C   UNL     1      -4.157  26.081  49.705  1.00  0.00    -0.026 C 
ATOM     14  C   UNL     1      -6.453  25.335  49.907  1.00  0.00     0.005 C 
ATOM     15  C   UNL     1      -5.217  25.206  49.027  1.00  0.00    -0.001 C 
ATOM     16  C   UNL     1      -2.986  26.273  48.706  1.00  0.00     0.007 C 
ATOM     17  C   UNL     1      -3.601  25.452  51.027  1.00  0.00     0.012 C 
ATOM     18  C   UNL     1      -4.704  23.790  48.675  1.00  0.00     0.000 C 
ATOM     19  C   UNL     1      -2.395  24.915  48.270  1.00  0.00     0.005 C 
ATOM     20  C   UNL     1      -3.472  23.913  47.729  1.00  0.00     0.003 C 
ATOM     21  C   UNL     1      -5.795  23.002  47.939  1.00  0.00     0.031 C 
ATOM     22  C   UNL     1      -2.891  22.497  47.313  1.00  0.00    -0.008 C 
ATOM     23  C   UNL     1      -5.287  21.660  47.512  1.00  0.00    -0.027 C 
ATOM     24  C   UNL     1      -3.996  21.426  47.193  1.00  0.00    -0.065 C 
ATOM     25  C   UNL     1      -1.856  21.975  48.362  1.00  0.00     0.014 C 
ATOM     26  C   UNL     1      -2.200  22.652  45.933  1.00  0.00     0.016 C 
ATOM     27  C   UNL     1      -3.569  19.996  46.926  1.00  0.00     0.063 C 
ATOM     28  C   UNL     1      -1.399  20.520  48.130  1.00  0.00     0.033 C 
ATOM     29  C   UNL     1      -2.590  19.553  48.024  1.00  0.00     0.118 C 
BRANCH  29  30
ATOM     30  O   UNL     1      -2.140  18.240  47.796  1.00  0.00    -0.393 OA
ATOM     31  H   UNL     1      -1.853  17.866  48.669  1.00  0.00     0.210 HD
ENDBRANCH  29  30
ENDBRANCH   1  11
TORSDOF 6
ENDMDL
MODEL 9
REMARK VINA RESULT:    -6.797      2.466      5.447
REMARK INTER + INTRA:         -10.749
REMARK INTER:                  -9.004
REMARK INTRA:                  -1.745
REMARK UNBOUND:                -1.767
REMARK SMILES CC[C@@H](C=C[C@@H](C)[C@H]1CC[C@@H]2[C@H]3CC=C4C[C@@H](O)CC[C@]4(C)[C@@H]3CC[C@]21C)C(C)C
REMARK SMILES IDX 6 1 7 2 5 3 4 4 3 5 2 6 1 7 28 8 29 9 30 10 8 11 9 12 26 13
REMARK SMILES IDX 10 14 11 15 25 16 27 17 12 18 24 19 23 20 13 21 21 22 14 23
REMARK SMILES IDX 15 24 20 25 22 26 16 27 19 28 17 29 18 30
REMARK H PARENT 18 31
REMARK Flexibility Score: inf
ROOT
ATOM      1  C   UNL     1      -1.374  28.221  52.748  1.00  0.00     0.012 C 
ATOM      2  C   UNL     1      -0.414  28.894  53.746  1.00  0.00     0.012 C 
ENDROOT
BRANCH   1   3
ATOM      3  C   UNL     1      -2.450  29.175  52.244  1.00  0.00    -0.028 C 
ATOM      4  C   UNL     1      -2.865  29.242  50.961  1.00  0.00    -0.027 C 
BRANCH   4   5
ATOM      5  C   UNL     1      -3.856  30.268  50.398  1.00  0.00     0.014 C 
BRANCH   5   6
ATOM      6  C   UNL     1      -4.673  29.747  49.177  1.00  0.00     0.004 C 
ATOM      7  C   UNL     1      -4.663  28.222  49.019  1.00  0.00     0.004 C 
ENDBRANCH   5   6
BRANCH   5   8
ATOM      8  C   UNL     1      -3.157  31.652  50.125  1.00  0.00    -0.011 C 
ATOM      9  C   UNL     1      -3.018  31.953  48.620  1.00  0.00     0.008 C 
ATOM     10  C   UNL     1      -3.919  32.829  50.771  1.00  0.00     0.008 C 
ENDBRANCH   5   8
ENDBRANCH   4   5
ENDBRANCH   1   3
BRANCH   1  11
ATOM     11  C   UNL     1      -1.913  26.853  53.297  1.00  0.00     0.002 C 
ATOM     12  C   UNL     1      -3.362  26.921  53.859  1.00  0.00     0.005 C 
ATOM     13  C   UNL     1      -1.960  25.652  52.297  1.00  0.00    -0.026 C 
ATOM     14  C   UNL     1      -4.259  26.084  52.929  1.00  0.00     0.005 C 
ATOM     15  C   UNL     1      -3.379  25.764  51.728  1.00  0.00    -0.001 C 
ATOM     16  C   UNL     1      -0.966  25.661  51.107  1.00  0.00     0.007 C 
ATOM     17  C   UNL     1      -1.740  24.348  53.135  1.00  0.00     0.012 C 
ATOM     18  C   UNL     1      -3.768  24.572  50.822  1.00  0.00     0.000 C 
ATOM     19  C   UNL     1      -1.265  24.511  50.120  1.00  0.00     0.005 C 
ATOM     20  C   UNL     1      -2.756  24.476  49.641  1.00  0.00     0.003 C 
ATOM     21  C   UNL     1      -5.169  24.789  50.236  1.00  0.00     0.031 C 
ATOM     22  C   UNL     1      -3.094  23.278  48.658  1.00  0.00    -0.008 C 
ATOM     23  C   UNL     1      -5.527  23.688  49.288  1.00  0.00    -0.027 C 
ATOM     24  C   UNL     1      -4.613  23.026  48.546  1.00  0.00    -0.065 C 
ATOM     25  C   UNL     1      -2.440  21.943  49.140  1.00  0.00     0.014 C 
ATOM     26  C   UNL     1      -2.549  23.647  47.253  1.00  0.00     0.016 C 
ATOM     27  C   UNL     1      -5.073  21.828  47.739  1.00  0.00     0.063 C 
ATOM     28  C   UNL     1      -2.887  20.697  48.348  1.00  0.00     0.033 C 
ATOM     29  C   UNL     1      -4.418  20.560  48.306  1.00  0.00     0.118 C 
BRANCH  29  30
ATOM     30  O   UNL     1      -4.792  19.425  47.564  1.00  0.00    -0.393 OA
ATOM     31  H   UNL     1      -5.546  18.991  48.039  1.00  0.00     0.210 HD
ENDBRANCH  29  30
ENDBRANCH   1  11
TORSDOF 6
ENDMDL
