MODEL 1
REMARK VINA RESULT:    -4.077      0.000      0.000
REMARK INTER + INTRA:          -9.257
REMARK INTER:                  -7.415
REMARK INTRA:                  -1.842
REMARK UNBOUND:                -1.842
REMARK SMILES CCCCCCCCCCCCCCCC(=O)[O-]
REMARK SMILES IDX 9 1 10 2 11 3 12 4 13 5 14 6 15 7 16 8 17 9 18 10 8 11 7 12
REMARK SMILES IDX 6 13 5 14 4 15 3 16 2 17 1 18
REMARK H PARENT
REMARK Flexibility Score: inf
ROOT
ATOM      1  C   UNL     1      25.043   1.936   1.293  1.00  0.00     0.000 C 
ENDROOT
BRANCH   1   2
ATOM      2  C   UNL     1      23.916   1.743   2.319  1.00  0.00     0.000 C 
BRANCH   2   3
ATOM      3  C   UNL     1      23.266   3.069   2.745  1.00  0.00     0.000 C 
BRANCH   3   4
ATOM      4  C   UNL     1      23.143   4.121   1.626  1.00  0.00     0.000 C 
BRANCH   4   5
ATOM      5  C   UNL     1      21.963   3.870   0.663  1.00  0.00     0.000 C 
BRANCH   5   6
ATOM      6  C   UNL     1      20.715   3.347   1.396  1.00  0.00     0.006 C 
BRANCH   6   7
ATOM      7  C   UNL     1      20.194   2.038   0.789  1.00  0.00     0.053 C 
BRANCH   7   8
ATOM      8  C   UNL     1      19.387   1.254   1.778  1.00  0.00     0.041 C 
ATOM      9  O   UNL     1      18.213   1.609   2.063  1.00  0.00    -0.550 OA
ATOM     10  O   UNL     1      19.922   0.114   2.363  1.00  0.00    -0.550 OA
ENDBRANCH   7   8
ENDBRANCH   6   7
ENDBRANCH   5   6
ENDBRANCH   4   5
ENDBRANCH   3   4
ENDBRANCH   2   3
ENDBRANCH   1   2
BRANCH   1  11
ATOM     11  C   UNL     1      24.964   0.871   0.189  1.00  0.00     0.000 C 
BRANCH  11  12
ATOM     12  C   UNL     1      23.520   0.438  -0.112  1.00  0.00    -0.000 C 
BRANCH  12  13
ATOM     13  C   UNL     1      22.997   1.011  -1.442  1.00  0.00    -0.000 C 
BRANCH  13  14
ATOM     14  C   UNL     1      24.001   0.843  -2.593  1.00  0.00    -0.000 C 
BRANCH  14  15
ATOM     15  C   UNL     1      23.404   0.097  -3.795  1.00  0.00    -0.000 C 
BRANCH  15  16
ATOM     16  C   UNL     1      22.250  -0.813  -3.358  1.00  0.00    -0.000 C 
BRANCH  16  17
ATOM     17  C   UNL     1      21.014  -0.596  -4.241  1.00  0.00    -0.003 C 
ATOM     18  C   UNL     1      20.764   0.889  -4.483  1.00  0.00     0.004 C 
ENDBRANCH  16  17
ENDBRANCH  15  16
ENDBRANCH  14  15
ENDBRANCH  13  14
ENDBRANCH  12  13
ENDBRANCH  11  12
ENDBRANCH   1  11
TORSDOF 14
ENDMDL
MODEL 2
REMARK VINA RESULT:    -4.076      3.317      4.607
REMARK INTER + INTRA:          -9.255
REMARK INTER:                  -6.716
REMARK INTRA:                  -2.539
REMARK UNBOUND:                -1.842
REMARK SMILES CCCCCCCCCCCCCCCC(=O)[O-]
REMARK SMILES IDX 9 1 10 2 11 3 12 4 13 5 14 6 15 7 16 8 17 9 18 10 8 11 7 12
REMARK SMILES IDX 6 13 5 14 4 15 3 16 2 17 1 18
REMARK H PARENT
REMARK Flexibility Score: inf
ROOT
ATOM      1  C   UNL     1      27.656  -1.164   2.117  1.00  0.00     0.000 C 
ENDROOT
BRANCH   1   2
ATOM      2  C   UNL     1      28.099   0.172   1.502  1.00  0.00     0.000 C 
BRANCH   2   3
ATOM      3  C   UNL     1      27.587   1.389   2.291  1.00  0.00     0.000 C 
BRANCH   3   4
ATOM      4  C   UNL     1      26.054   1.531   2.340  1.00  0.00     0.000 C 
BRANCH   4   5
ATOM      5  C   UNL     1      25.450   2.196   1.086  1.00  0.00     0.000 C 
BRANCH   5   6
ATOM      6  C   UNL     1      23.929   2.399   1.207  1.00  0.00     0.006 C 
BRANCH   6   7
ATOM      7  C   UNL     1      23.488   2.607   2.662  1.00  0.00     0.053 C 
BRANCH   7   8
ATOM      8  C   UNL     1      23.262   4.056   2.968  1.00  0.00     0.041 C 
ATOM      9  O   UNL     1      23.094   4.883   2.034  1.00  0.00    -0.550 OA
ATOM     10  O   UNL     1      23.206   4.487   4.287  1.00  0.00    -0.550 OA
ENDBRANCH   7   8
ENDBRANCH   6   7
ENDBRANCH   5   6
ENDBRANCH   4   5
ENDBRANCH   3   4
ENDBRANCH   2   3
ENDBRANCH   1   2
BRANCH   1  11
ATOM     11  C   UNL     1      27.511  -2.242   1.032  1.00  0.00     0.000 C 
BRANCH  11  12
ATOM     12  C   UNL     1      26.088  -2.818   0.959  1.00  0.00    -0.000 C 
BRANCH  12  13
ATOM     13  C   UNL     1      25.066  -1.969   1.737  1.00  0.00    -0.000 C 
BRANCH  13  14
ATOM     14  C   UNL     1      24.048  -1.280   0.816  1.00  0.00    -0.000 C 
BRANCH  14  15
ATOM     15  C   UNL     1      24.321  -1.548  -0.671  1.00  0.00    -0.000 C 
BRANCH  15  16
ATOM     16  C   UNL     1      24.641  -0.246  -1.415  1.00  0.00    -0.000 C 
BRANCH  16  17
ATOM     17  C   UNL     1      26.139  -0.146  -1.728  1.00  0.00    -0.003 C 
ATOM     18  C   UNL     1      26.609  -1.335  -2.562  1.00  0.00     0.004 C 
ENDBRANCH  16  17
ENDBRANCH  15  16
ENDBRANCH  14  15
ENDBRANCH  13  14
ENDBRANCH  12  13
ENDBRANCH  11  12
ENDBRANCH   1  11
TORSDOF 14
ENDMDL
MODEL 3
REMARK VINA RESULT:    -4.034      4.689      7.291
REMARK INTER + INTRA:          -9.178
REMARK INTER:                  -7.306
REMARK INTRA:                  -1.872
REMARK UNBOUND:                -1.842
REMARK SMILES CCCCCCCCCCCCCCCC(=O)[O-]
REMARK SMILES IDX 9 1 10 2 11 3 12 4 13 5 14 6 15 7 16 8 17 9 18 10 8 11 7 12
REMARK SMILES IDX 6 13 5 14 4 15 3 16 2 17 1 18
REMARK H PARENT
REMARK Flexibility Score: inf
ROOT
ATOM      1  C   UNL     1      28.017   0.086   1.348  1.00  0.00     0.000 C 
ENDROOT
BRANCH   1   2
ATOM      2  C   UNL     1      27.400  -1.297   1.608  1.00  0.00     0.000 C 
BRANCH   2   3
ATOM      3  C   UNL     1      26.173  -1.577   0.725  1.00  0.00     0.000 C 
BRANCH   3   4
ATOM      4  C   UNL     1      26.481  -1.767  -0.773  1.00  0.00     0.000 C 
BRANCH   4   5
ATOM      5  C   UNL     1      26.037  -0.582  -1.655  1.00  0.00     0.000 C 
BRANCH   5   6
ATOM      6  C   UNL     1      27.158  -0.100  -2.593  1.00  0.00     0.006 C 
BRANCH   6   7
ATOM      7  C   UNL     1      27.592   1.339  -2.284  1.00  0.00     0.053 C 
BRANCH   7   8
ATOM      8  C   UNL     1      28.443   1.905  -3.379  1.00  0.00     0.041 C 
ATOM      9  O   UNL     1      29.550   1.376  -3.662  1.00  0.00    -0.550 OA
ATOM     10  O   UNL     1      27.998   2.999  -4.110  1.00  0.00    -0.550 OA
ENDBRANCH   7   8
ENDBRANCH   6   7
ENDBRANCH   5   6
ENDBRANCH   4   5
ENDBRANCH   3   4
ENDBRANCH   2   3
ENDBRANCH   1   2
BRANCH   1  11
ATOM     11  C   UNL     1      27.687   1.054   2.493  1.00  0.00     0.000 C 
BRANCH  11  12
ATOM     12  C   UNL     1      26.267   1.633   2.387  1.00  0.00    -0.000 C 
BRANCH  12  13
ATOM     13  C   UNL     1      25.890   2.012   0.942  1.00  0.00    -0.000 C 
BRANCH  13  14
ATOM     14  C   UNL     1      24.373   1.978   0.701  1.00  0.00    -0.000 C 
BRANCH  14  15
ATOM     15  C   UNL     1      23.581   1.613   1.964  1.00  0.00    -0.000 C 
BRANCH  15  16
ATOM     16  C   UNL     1      22.253   2.378   2.021  1.00  0.00    -0.000 C 
BRANCH  16  17
ATOM     17  C   UNL     1      22.490   3.874   2.264  1.00  0.00    -0.003 C 
ATOM     18  C   UNL     1      23.293   4.105   3.541  1.00  0.00     0.004 C 
ENDBRANCH  16  17
ENDBRANCH  15  16
ENDBRANCH  14  15
ENDBRANCH  13  14
ENDBRANCH  12  13
ENDBRANCH  11  12
ENDBRANCH   1  11
TORSDOF 14
ENDMDL
MODEL 4
REMARK VINA RESULT:    -4.021      2.435      4.110
REMARK INTER + INTRA:          -9.155
REMARK INTER:                  -7.435
REMARK INTRA:                  -1.720
REMARK UNBOUND:                -1.842
REMARK SMILES CCCCCCCCCCCCCCCC(=O)[O-]
REMARK SMILES IDX 9 1 10 2 11 3 12 4 13 5 14 6 15 7 16 8 17 9 18 10 8 11 7 12
REMARK SMILES IDX 6 13 5 14 4 15 3 16 2 17 1 18
REMARK H PARENT
REMARK Flexibility Score: inf
ROOT
ATOM      1  C   UNL     1      26.521  -1.201  -0.443  1.00  0.00     0.000 C 
ENDROOT
BRANCH   1   2
ATOM      2  C   UNL     1      27.241  -1.974   0.673  1.00  0.00     0.000 C 
BRANCH   2   3
ATOM      3  C   UNL     1      27.514  -1.111   1.915  1.00  0.00     0.000 C 
BRANCH   3   4
ATOM      4  C   UNL     1      28.031   0.309   1.617  1.00  0.00     0.000 C 
BRANCH   4   5
ATOM      5  C   UNL     1      27.217   1.425   2.304  1.00  0.00     0.000 C 
BRANCH   5   6
ATOM      6  C   UNL     1      25.741   1.036   2.497  1.00  0.00     0.006 C 
BRANCH   6   7
ATOM      7  C   UNL     1      24.799   1.891   1.639  1.00  0.00     0.053 C 
BRANCH   7   8
ATOM      8  C   UNL     1      23.616   2.366   2.424  1.00  0.00     0.041 C 
ATOM      9  O   UNL     1      23.716   3.365   3.185  1.00  0.00    -0.550 OA
ATOM     10  O   UNL     1      22.392   1.722   2.293  1.00  0.00    -0.550 OA
ENDBRANCH   7   8
ENDBRANCH   6   7
ENDBRANCH   5   6
ENDBRANCH   4   5
ENDBRANCH   3   4
ENDBRANCH   2   3
ENDBRANCH   1   2
BRANCH   1  11
ATOM     11  C   UNL     1      25.037  -1.594  -0.508  1.00  0.00     0.000 C 
BRANCH  11  12
ATOM     12  C   UNL     1      24.188  -0.567  -1.274  1.00  0.00    -0.000 C 
BRANCH  12  13
ATOM     13  C   UNL     1      22.783  -0.392  -0.667  1.00  0.00    -0.000 C 
BRANCH  13  14
ATOM     14  C   UNL     1      22.100   0.905  -1.127  1.00  0.00    -0.000 C 
BRANCH  14  15
ATOM     15  C   UNL     1      22.163   1.099  -2.649  1.00  0.00    -0.000 C 
BRANCH  15  16
ATOM     16  C   UNL     1      20.852   0.660  -3.313  1.00  0.00    -0.000 C 
BRANCH  16  17
ATOM     17  C   UNL     1      21.105  -0.439  -4.353  1.00  0.00    -0.003 C 
ATOM     18  C   UNL     1      21.158  -1.816  -3.698  1.00  0.00     0.004 C 
ENDBRANCH  16  17
ENDBRANCH  15  16
ENDBRANCH  14  15
ENDBRANCH  13  14
ENDBRANCH  12  13
ENDBRANCH  11  12
ENDBRANCH   1  11
TORSDOF 14
ENDMDL
MODEL 5
REMARK VINA RESULT:    -4.004      3.283      4.588
REMARK INTER + INTRA:          -9.124
REMARK INTER:                  -7.249
REMARK INTRA:                  -1.875
REMARK UNBOUND:                -1.842
REMARK SMILES CCCCCCCCCCCCCCCC(=O)[O-]
REMARK SMILES IDX 9 1 10 2 11 3 12 4 13 5 14 6 15 7 16 8 17 9 18 10 8 11 7 12
REMARK SMILES IDX 6 13 5 14 4 15 3 16 2 17 1 18
REMARK H PARENT
REMARK Flexibility Score: inf
ROOT
ATOM      1  C   UNL     1      20.824   2.070   0.280  1.00  0.00     0.000 C 
ENDROOT
BRANCH   1   2
ATOM      2  C   UNL     1      21.628   2.048   1.588  1.00  0.00     0.000 C 
BRANCH   2   3
ATOM      3  C   UNL     1      22.477   3.315   1.786  1.00  0.00     0.000 C 
BRANCH   3   4
ATOM      4  C   UNL     1      23.760   3.112   2.615  1.00  0.00     0.000 C 
BRANCH   4   5
ATOM      5  C   UNL     1      24.243   1.647   2.666  1.00  0.00     0.000 C 
BRANCH   5   6
ATOM      6  C   UNL     1      25.659   1.479   2.087  1.00  0.00     0.006 C 
BRANCH   6   7
ATOM      7  C   UNL     1      25.996   0.010   1.798  1.00  0.00     0.053 C 
BRANCH   7   8
ATOM      8  C   UNL     1      27.475  -0.219   1.759  1.00  0.00     0.041 C 
ATOM      9  O   UNL     1      27.935  -1.367   1.522  1.00  0.00    -0.550 OA
ATOM     10  O   UNL     1      28.348   0.844   1.954  1.00  0.00    -0.550 OA
ENDBRANCH   7   8
ENDBRANCH   6   7
ENDBRANCH   5   6
ENDBRANCH   4   5
ENDBRANCH   3   4
ENDBRANCH   2   3
ENDBRANCH   1   2
BRANCH   1  11
ATOM     11  C   UNL     1      21.697   1.627  -0.904  1.00  0.00     0.000 C 
BRANCH  11  12
ATOM     12  C   UNL     1      22.698   0.525  -0.520  1.00  0.00    -0.000 C 
BRANCH  12  13
ATOM     13  C   UNL     1      23.990   0.583  -1.355  1.00  0.00    -0.000 C 
BRANCH  13  14
ATOM     14  C   UNL     1      23.875   1.537  -2.554  1.00  0.00    -0.000 C 
BRANCH  14  15
ATOM     15  C   UNL     1      24.523   0.970  -3.825  1.00  0.00    -0.000 C 
BRANCH  15  16
ATOM     16  C   UNL     1      23.514   0.147  -4.636  1.00  0.00    -0.000 C 
BRANCH  16  17
ATOM     17  C   UNL     1      22.104   0.739  -4.522  1.00  0.00    -0.003 C 
ATOM     18  C   UNL     1      21.077  -0.343  -4.198  1.00  0.00     0.004 C 
ENDBRANCH  16  17
ENDBRANCH  15  16
ENDBRANCH  14  15
ENDBRANCH  13  14
ENDBRANCH  12  13
ENDBRANCH  11  12
ENDBRANCH   1  11
TORSDOF 14
ENDMDL
MODEL 6
REMARK VINA RESULT:    -3.978      4.551      6.491
REMARK INTER + INTRA:          -9.077
REMARK INTER:                  -6.813
REMARK INTRA:                  -2.264
REMARK UNBOUND:                -1.842
REMARK SMILES CCCCCCCCCCCCCCCC(=O)[O-]
REMARK SMILES IDX 9 1 10 2 11 3 12 4 13 5 14 6 15 7 16 8 17 9 18 10 8 11 7 12
REMARK SMILES IDX 6 13 5 14 4 15 3 16 2 17 1 18
REMARK H PARENT
REMARK Flexibility Score: inf
ROOT
ATOM      1  C   UNL     1      25.413   0.928   2.532  1.00  0.00     0.000 C 
ENDROOT
BRANCH   1   2
ATOM      2  C   UNL     1      24.334   2.006   2.357  1.00  0.00     0.000 C 
BRANCH   2   3
ATOM      3  C   UNL     1      24.235   2.522   0.912  1.00  0.00     0.000 C 
BRANCH   3   4
ATOM      4  C   UNL     1      23.966   1.436  -0.148  1.00  0.00     0.000 C 
BRANCH   4   5
ATOM      5  C   UNL     1      24.758   1.634  -1.457  1.00  0.00     0.000 C 
BRANCH   5   6
ATOM      6  C   UNL     1      26.095   0.870  -1.451  1.00  0.00     0.006 C 
BRANCH   6   7
ATOM      7  C   UNL     1      27.296   1.805  -1.646  1.00  0.00     0.053 C 
BRANCH   7   8
ATOM      8  C   UNL     1      27.604   2.010  -3.098  1.00  0.00     0.041 C 
ATOM      9  O   UNL     1      27.448   1.070  -3.920  1.00  0.00    -0.550 OA
ATOM     10  O   UNL     1      28.035   3.252  -3.547  1.00  0.00    -0.550 OA
ENDBRANCH   7   8
ENDBRANCH   6   7
ENDBRANCH   5   6
ENDBRANCH   4   5
ENDBRANCH   3   4
ENDBRANCH   2   3
ENDBRANCH   1   2
BRANCH   1  11
ATOM     11  C   UNL     1      26.813   1.513   2.293  1.00  0.00     0.000 C 
BRANCH  11  12
ATOM     12  C   UNL     1      27.916   0.444   2.335  1.00  0.00    -0.000 C 
BRANCH  12  13
ATOM     13  C   UNL     1      27.684  -0.685   1.313  1.00  0.00    -0.000 C 
BRANCH  13  14
ATOM     14  C   UNL     1      27.718  -2.079   1.957  1.00  0.00    -0.000 C 
BRANCH  14  15
ATOM     15  C   UNL     1      26.636  -3.015   1.399  1.00  0.00    -0.000 C 
BRANCH  15  16
ATOM     16  C   UNL     1      25.671  -2.254   0.482  1.00  0.00    -0.000 C 
BRANCH  16  17
ATOM     17  C   UNL     1      24.257  -2.220   1.077  1.00  0.00    -0.003 C 
ATOM     18  C   UNL     1      24.110  -3.238   2.204  1.00  0.00     0.004 C 
ENDBRANCH  16  17
ENDBRANCH  15  16
ENDBRANCH  14  15
ENDBRANCH  13  14
ENDBRANCH  12  13
ENDBRANCH  11  12
ENDBRANCH   1  11
TORSDOF 14
ENDMDL
MODEL 7
REMARK VINA RESULT:    -3.962      2.850      5.746
REMARK INTER + INTRA:          -9.047
REMARK INTER:                  -6.734
REMARK INTRA:                  -2.314
REMARK UNBOUND:                -1.842
REMARK SMILES CCCCCCCCCCCCCCCC(=O)[O-]
REMARK SMILES IDX 9 1 10 2 11 3 12 4 13 5 14 6 15 7 16 8 17 9 18 10 8 11 7 12
REMARK SMILES IDX 6 13 5 14 4 15 3 16 2 17 1 18
REMARK H PARENT
REMARK Flexibility Score: inf
ROOT
ATOM      1  C   UNL     1      25.391   2.803  -0.888  1.00  0.00     0.000 C 
ENDROOT
BRANCH   1   2
ATOM      2  C   UNL     1      24.467   2.132  -1.916  1.00  0.00     0.000 C 
BRANCH   2   3
ATOM      3  C   UNL     1      23.337   1.322  -1.261  1.00  0.00     0.000 C 
BRANCH   3   4
ATOM      4  C   UNL     1      23.565  -0.202  -1.231  1.00  0.00     0.000 C 
BRANCH   4   5
ATOM      5  C   UNL     1      22.323  -1.025  -1.635  1.00  0.00     0.000 C 
BRANCH   5   6
ATOM      6  C   UNL     1      22.352  -1.434  -3.118  1.00  0.00     0.006 C 
BRANCH   6   7
ATOM      7  C   UNL     1      21.157  -0.869  -3.898  1.00  0.00     0.053 C 
BRANCH   7   8
ATOM      8  C   UNL     1      21.431   0.516  -4.399  1.00  0.00     0.041 C 
ATOM      9  O   UNL     1      20.506   1.368  -4.447  1.00  0.00    -0.550 OA
ATOM     10  O   UNL     1      22.716   0.874  -4.785  1.00  0.00    -0.550 OA
ENDBRANCH   7   8
ENDBRANCH   6   7
ENDBRANCH   5   6
ENDBRANCH   4   5
ENDBRANCH   3   4
ENDBRANCH   2   3
ENDBRANCH   1   2
BRANCH   1  11
ATOM     11  C   UNL     1      26.811   2.224  -0.972  1.00  0.00     0.000 C 
BRANCH  11  12
ATOM     12  C   UNL     1      27.264   1.575   0.345  1.00  0.00    -0.000 C 
BRANCH  12  13
ATOM     13  C   UNL     1      26.895   0.081   0.425  1.00  0.00    -0.000 C 
BRANCH  13  14
ATOM     14  C   UNL     1      25.949  -0.230   1.595  1.00  0.00    -0.000 C 
BRANCH  14  15
ATOM     15  C   UNL     1      25.643   1.006   2.453  1.00  0.00    -0.000 C 
BRANCH  15  16
ATOM     16  C   UNL     1      24.149   1.349   2.409  1.00  0.00    -0.000 C 
BRANCH  16  17
ATOM     17  C   UNL     1      23.927   2.861   2.537  1.00  0.00    -0.003 C 
ATOM     18  C   UNL     1      22.570   3.269   1.971  1.00  0.00     0.004 C 
ENDBRANCH  16  17
ENDBRANCH  15  16
ENDBRANCH  14  15
ENDBRANCH  13  14
ENDBRANCH  12  13
ENDBRANCH  11  12
ENDBRANCH   1  11
TORSDOF 14
ENDMDL
MODEL 8
REMARK VINA RESULT:    -3.962      3.799      6.053
REMARK INTER + INTRA:          -9.047
REMARK INTER:                  -6.980
REMARK INTRA:                  -2.067
REMARK UNBOUND:                -1.842
REMARK SMILES CCCCCCCCCCCCCCCC(=O)[O-]
REMARK SMILES IDX 9 1 10 2 11 3 12 4 13 5 14 6 15 7 16 8 17 9 18 10 8 11 7 12
REMARK SMILES IDX 6 13 5 14 4 15 3 16 2 17 1 18
REMARK H PARENT
REMARK Flexibility Score: inf
ROOT
ATOM      1  C   UNL     1      27.627   0.485   1.517  1.00  0.00     0.000 C 
ENDROOT
BRANCH   1   2
ATOM      2  C   UNL     1      27.651  -0.947   2.071  1.00  0.00     0.000 C 
BRANCH   2   3
ATOM      3  C   UNL     1      27.007  -1.966   1.117  1.00  0.00     0.000 C 
BRANCH   3   4
ATOM      4  C   UNL     1      25.481  -2.117   1.263  1.00  0.00     0.000 C 
BRANCH   4   5
ATOM      5  C   UNL     1      24.690  -1.692   0.008  1.00  0.00     0.000 C 
BRANCH   5   6
ATOM      6  C   UNL     1      25.607  -1.147  -1.101  1.00  0.00     0.006 C 
BRANCH   6   7
ATOM      7  C   UNL     1      25.302   0.319  -1.436  1.00  0.00     0.053 C 
BRANCH   7   8
ATOM      8  C   UNL     1      26.503   1.019  -1.994  1.00  0.00     0.041 C 
ATOM      9  O   UNL     1      26.873   2.124  -1.518  1.00  0.00    -0.550 OA
ATOM     10  O   UNL     1      27.232   0.434  -3.022  1.00  0.00    -0.550 OA
ENDBRANCH   7   8
ENDBRANCH   6   7
ENDBRANCH   5   6
ENDBRANCH   4   5
ENDBRANCH   3   4
ENDBRANCH   2   3
ENDBRANCH   1   2
BRANCH   1  11
ATOM     11  C   UNL     1      26.857   1.422   2.459  1.00  0.00     0.000 C 
BRANCH  11  12
ATOM     12  C   UNL     1      25.518   1.888   1.865  1.00  0.00    -0.000 C 
BRANCH  12  13
ATOM     13  C   UNL     1      24.315   1.122   2.447  1.00  0.00    -0.000 C 
BRANCH  13  14
ATOM     14  C   UNL     1      22.969   1.726   2.018  1.00  0.00    -0.000 C 
BRANCH  14  15
ATOM     15  C   UNL     1      22.148   0.774   1.137  1.00  0.00    -0.000 C 
BRANCH  15  16
ATOM     16  C   UNL     1      21.142   1.549   0.277  1.00  0.00    -0.000 C 
BRANCH  16  17
ATOM     17  C   UNL     1      20.199   2.385   1.153  1.00  0.00    -0.003 C 
ATOM     18  C   UNL     1      18.967   1.581   1.558  1.00  0.00     0.004 C 
ENDBRANCH  16  17
ENDBRANCH  15  16
ENDBRANCH  14  15
ENDBRANCH  13  14
ENDBRANCH  12  13
ENDBRANCH  11  12
ENDBRANCH   1  11
TORSDOF 14
ENDMDL
MODEL 9
REMARK VINA RESULT:    -3.921      2.788      5.283
REMARK INTER + INTRA:          -8.972
REMARK INTER:                  -6.751
REMARK INTRA:                  -2.221
REMARK UNBOUND:                -1.842
REMARK SMILES CCCCCCCCCCCCCCCC(=O)[O-]
REMARK SMILES IDX 9 1 10 2 11 3 12 4 13 5 14 6 15 7 16 8 17 9 18 10 8 11 7 12
REMARK SMILES IDX 6 13 5 14 4 15 3 16 2 17 1 18
REMARK H PARENT
REMARK Flexibility Score: inf
ROOT
ATOM      1  C   UNL     1      26.973   1.591  -0.276  1.00  0.00     0.000 C 
ENDROOT
BRANCH   1   2
ATOM      2  C   UNL     1      26.937   0.631  -1.475  1.00  0.00     0.000 C 
BRANCH   2   3
ATOM      3  C   UNL     1      25.550   0.551  -2.133  1.00  0.00     0.000 C 
BRANCH   3   4
ATOM      4  C   UNL     1      24.389   1.075  -1.265  1.00  0.00     0.000 C 
BRANCH   4   5
ATOM      5  C   UNL     1      23.472  -0.038  -0.716  1.00  0.00     0.000 C 
BRANCH   5   6
ATOM      6  C   UNL     1      22.134  -0.117  -1.473  1.00  0.00     0.006 C 
BRANCH   6   7
ATOM      7  C   UNL     1      21.867   1.141  -2.309  1.00  0.00     0.053 C 
BRANCH   7   8
ATOM      8  C   UNL     1      21.668   0.809  -3.756  1.00  0.00     0.041 C 
ATOM      9  O   UNL     1      20.512   0.587  -4.204  1.00  0.00    -0.550 OA
ATOM     10  O   UNL     1      22.757   0.776  -4.618  1.00  0.00    -0.550 OA
ENDBRANCH   7   8
ENDBRANCH   6   7
ENDBRANCH   5   6
ENDBRANCH   4   5
ENDBRANCH   3   4
ENDBRANCH   2   3
ENDBRANCH   1   2
BRANCH   1  11
ATOM     11  C   UNL     1      27.346   0.842   1.011  1.00  0.00     0.000 C 
BRANCH  11  12
ATOM     12  C   UNL     1      26.692   1.453   2.261  1.00  0.00    -0.000 C 
BRANCH  12  13
ATOM     13  C   UNL     1      25.193   1.117   2.368  1.00  0.00    -0.000 C 
BRANCH  13  14
ATOM     14  C   UNL     1      24.307   2.372   2.396  1.00  0.00    -0.000 C 
BRANCH  14  15
ATOM     15  C   UNL     1      22.810   2.041   2.323  1.00  0.00    -0.000 C 
BRANCH  15  16
ATOM     16  C   UNL     1      22.099   2.931   1.297  1.00  0.00    -0.000 C 
BRANCH  16  17
ATOM     17  C   UNL     1      20.633   2.514   1.129  1.00  0.00    -0.003 C 
ATOM     18  C   UNL     1      20.406   1.087   1.620  1.00  0.00     0.004 C 
ENDBRANCH  16  17
ENDBRANCH  15  16
ENDBRANCH  14  15
ENDBRANCH  13  14
ENDBRANCH  12  13
ENDBRANCH  11  12
ENDBRANCH   1  11
TORSDOF 14
ENDMDL
