MODEL 1
REMARK VINA RESULT:    21.442      0.000      0.000
REMARK INTER + INTRA:          24.912
REMARK INTER:                  25.203
REMARK INTRA:                  -0.291
REMARK UNBOUND:                -0.291
REMARK SMILES O=c1cc(-c2ccc(O)c(O)c2)oc2cc(O)cc(O)c12
REMARK SMILES IDX 4 1 3 2 2 3 1 4 21 5 19 6 18 7 16 8 15 9 14 10 13 11 5 12
REMARK SMILES IDX 6 13 7 14 8 15 12 16 10 17 9 18 11 20 20 22 17 24
REMARK H PARENT 9 19 11 21 20 23 17 25
REMARK Flexibility Score: inf
ROOT
ATOM      1  C   UNL     1      16.749  38.516  46.746  1.00  0.00     0.138 A 
ATOM      2  C   UNL     1      16.488  37.438  47.608  1.00  0.00     0.100 A 
ATOM      3  C   UNL     1      15.167  37.085  47.884  1.00  0.00     0.197 A 
ATOM      4  O   UNL     1      14.942  36.116  48.660  1.00  0.00    -0.289 OA
ATOM      5  C   UNL     1      14.114  37.815  47.298  1.00  0.00     0.107 A 
ATOM      6  C   UNL     1      12.748  37.523  47.524  1.00  0.00     0.134 A 
ATOM      7  C   UNL     1      11.759  38.303  46.906  1.00  0.00     0.093 A 
ATOM      8  C   UNL     1      12.107  39.366  46.071  1.00  0.00     0.123 A 
ATOM      9  C   UNL     1      13.457  39.659  45.844  1.00  0.00     0.094 A 
ATOM     10  C   UNL     1      14.457  38.894  46.450  1.00  0.00     0.146 A 
ATOM     11  O   UNL     1      15.731  39.192  46.216  1.00  0.00    -0.456 OA
ENDROOT
BRANCH   1  12
ATOM     12  C   UNL     1      18.134  38.938  46.417  1.00  0.00     0.021 A 
ATOM     13  C   UNL     1      18.418  39.734  45.291  1.00  0.00     0.016 A 
ATOM     14  C   UNL     1      19.730  40.125  45.012  1.00  0.00     0.051 A 
ATOM     15  C   UNL     1      20.778  39.737  45.855  1.00  0.00     0.157 A 
ATOM     16  C   UNL     1      19.192  38.563  47.266  1.00  0.00     0.062 A 
ATOM     17  C   UNL     1      20.508  38.956  46.985  1.00  0.00     0.158 A 
BRANCH  15  18
ATOM     18  O   UNL     1      22.088  40.124  45.578  1.00  0.00    -0.504 OA
ATOM     19  H   UNL     1      22.556  40.838  46.123  1.00  0.00     0.293 HD
ENDBRANCH  15  18
BRANCH  17  20
ATOM     20  O   UNL     1      21.553  38.573  47.825  1.00  0.00    -0.504 OA
ATOM     21  H   UNL     1      21.856  39.159  48.594  1.00  0.00     0.293 HD
ENDBRANCH  17  20
ENDBRANCH   1  12
BRANCH   6  22
ATOM     22  O   UNL     1      12.368  36.467  48.355  1.00  0.00    -0.507 OA
ATOM     23  H   UNL     1      12.579  35.503  48.121  1.00  0.00     0.293 HD
ENDBRANCH   6  22
BRANCH   8  24
ATOM     24  O   UNL     1      11.106  40.124  45.471  1.00  0.00    -0.508 OA
ATOM     25  H   UNL     1      11.045  41.127  45.610  1.00  0.00     0.293 HD
ENDBRANCH   8  24
TORSDOF 5
ENDMDL
MODEL 2
REMARK VINA RESULT:    23.417      1.931      7.030
REMARK INTER + INTRA:          27.233
REMARK INTER:                  27.507
REMARK INTRA:                  -0.273
REMARK UNBOUND:                -0.291
REMARK SMILES O=c1cc(-c2ccc(O)c(O)c2)oc2cc(O)cc(O)c12
REMARK SMILES IDX 4 1 3 2 2 3 1 4 21 5 19 6 18 7 16 8 15 9 14 10 13 11 5 12
REMARK SMILES IDX 6 13 7 14 8 15 12 16 10 17 9 18 11 20 20 22 17 24
REMARK H PARENT 9 19 11 21 20 23 17 25
REMARK Flexibility Score: inf
ROOT
ATOM      1  C   UNL     1      16.530  38.643  46.509  1.00  0.00     0.138 A 
ATOM      2  C   UNL     1      17.363  39.572  47.156  1.00  0.00     0.100 A 
ATOM      3  C   UNL     1      18.718  39.285  47.315  1.00  0.00     0.197 A 
ATOM      4  O   UNL     1      19.457  40.125  47.898  1.00  0.00    -0.289 OA
ATOM      5  C   UNL     1      19.234  38.068  46.828  1.00  0.00     0.107 A 
ATOM      6  C   UNL     1      20.596  37.700  46.947  1.00  0.00     0.134 A 
ATOM      7  C   UNL     1      21.028  36.465  46.440  1.00  0.00     0.093 A 
ATOM      8  C   UNL     1      20.130  35.594  45.820  1.00  0.00     0.123 A 
ATOM      9  C   UNL     1      18.783  35.953  45.700  1.00  0.00     0.094 A 
ATOM     10  C   UNL     1      18.332  37.178  46.198  1.00  0.00     0.146 A 
ATOM     11  O   UNL     1      17.048  37.497  46.070  1.00  0.00    -0.456 OA
ENDROOT
BRANCH   1  12
ATOM     12  C   UNL     1      15.080  38.893  46.313  1.00  0.00     0.021 A 
ATOM     13  C   UNL     1      14.614  39.918  45.467  1.00  0.00     0.016 A 
ATOM     14  C   UNL     1      13.243  40.125  45.294  1.00  0.00     0.051 A 
ATOM     15  C   UNL     1      12.316  39.308  45.953  1.00  0.00     0.157 A 
ATOM     16  C   UNL     1      14.142  38.070  46.962  1.00  0.00     0.062 A 
ATOM     17  C   UNL     1      12.767  38.278  46.787  1.00  0.00     0.158 A 
BRANCH  15  18
ATOM     18  O   UNL     1      10.948  39.513  45.784  1.00  0.00    -0.504 OA
ATOM     19  H   UNL     1      10.450  39.133  44.987  1.00  0.00     0.293 HD
ENDBRANCH  15  18
BRANCH  17  20
ATOM     20  O   UNL     1      11.841  37.464  47.440  1.00  0.00    -0.504 OA
ATOM     21  H   UNL     1      12.050  37.037  48.334  1.00  0.00     0.293 HD
ENDBRANCH  17  20
ENDBRANCH   1  12
BRANCH   6  22
ATOM     22  O   UNL     1      21.517  38.549  47.562  1.00  0.00    -0.507 OA
ATOM     23  H   UNL     1      21.602  38.601  48.571  1.00  0.00     0.293 HD
ENDBRANCH   6  22
BRANCH   8  24
ATOM     24  O   UNL     1      20.586  34.375  45.327  1.00  0.00    -0.508 OA
ATOM     25  H   UNL     1      20.413  33.506  45.819  1.00  0.00     0.293 HD
ENDBRANCH   8  24
TORSDOF 5
ENDMDL
MODEL 3
REMARK VINA RESULT:    23.714      1.420      2.792
REMARK INTER + INTRA:          27.582
REMARK INTER:                  27.897
REMARK INTRA:                  -0.315
REMARK UNBOUND:                -0.291
REMARK SMILES O=c1cc(-c2ccc(O)c(O)c2)oc2cc(O)cc(O)c12
REMARK SMILES IDX 4 1 3 2 2 3 1 4 21 5 19 6 18 7 16 8 15 9 14 10 13 11 5 12
REMARK SMILES IDX 6 13 7 14 8 15 12 16 10 17 9 18 11 20 20 22 17 24
REMARK H PARENT 9 19 11 21 20 23 17 25
REMARK Flexibility Score: inf
ROOT
ATOM      1  C   UNL     1      16.380  38.489  46.938  1.00  0.00     0.138 A 
ATOM      2  C   UNL     1      15.487  39.470  46.474  1.00  0.00     0.100 A 
ATOM      3  C   UNL     1      14.114  39.231  46.533  1.00  0.00     0.197 A 
ATOM      4  O   UNL     1      13.320  40.116  46.113  1.00  0.00    -0.289 OA
ATOM      5  C   UNL     1      13.641  38.010  47.054  1.00  0.00     0.107 A 
ATOM      6  C   UNL     1      12.267  37.688  47.152  1.00  0.00     0.134 A 
ATOM      7  C   UNL     1      11.879  36.447  47.678  1.00  0.00     0.093 A 
ATOM      8  C   UNL     1      12.835  35.524  48.107  1.00  0.00     0.123 A 
ATOM      9  C   UNL     1      14.196  35.837  48.013  1.00  0.00     0.094 A 
ATOM     10  C   UNL     1      14.603  37.068  47.492  1.00  0.00     0.146 A 
ATOM     11  O   UNL     1      15.901  37.342  47.415  1.00  0.00    -0.456 OA
ENDROOT
BRANCH   1  12
ATOM     12  C   UNL     1      17.851  38.688  46.897  1.00  0.00     0.021 A 
ATOM     13  C   UNL     1      18.421  39.967  46.755  1.00  0.00     0.016 A 
ATOM     14  C   UNL     1      19.809  40.125  46.729  1.00  0.00     0.051 A 
ATOM     15  C   UNL     1      20.650  39.012  46.856  1.00  0.00     0.157 A 
ATOM     16  C   UNL     1      18.703  37.577  47.036  1.00  0.00     0.062 A 
ATOM     17  C   UNL     1      20.095  37.737  47.011  1.00  0.00     0.158 A 
BRANCH  15  18
ATOM     18  O   UNL     1      22.035  39.167  46.830  1.00  0.00    -0.504 OA
ATOM     19  H   UNL     1      22.494  39.919  47.331  1.00  0.00     0.293 HD
ENDBRANCH  15  18
BRANCH  17  20
ATOM     20  O   UNL     1      20.935  36.631  47.140  1.00  0.00    -0.504 OA
ATOM     21  H   UNL     1      20.567  35.705  47.323  1.00  0.00     0.293 HD
ENDBRANCH  17  20
ENDBRANCH   1  12
BRANCH   6  22
ATOM     22  O   UNL     1      11.288  38.590  46.730  1.00  0.00    -0.507 OA
ATOM     23  H   UNL     1      10.300  38.369  46.787  1.00  0.00     0.293 HD
ENDBRANCH   6  22
BRANCH   8  24
ATOM     24  O   UNL     1      12.423  34.299  48.625  1.00  0.00    -0.508 OA
ATOM     25  H   UNL     1      12.882  33.881  49.426  1.00  0.00     0.293 HD
ENDBRANCH   8  24
TORSDOF 5
ENDMDL
