MODEL 1
REMARK VINA RESULT:    -1.676      0.000      0.000
REMARK INTER + INTRA:          -3.825
REMARK INTER:                  -3.831
REMARK INTRA:                   0.006
REMARK UNBOUND:                 0.006
REMARK SMILES CCCCCCCCCCCCCCCCCCCCCCCC(=O)[O-]
REMARK SMILES IDX 13 1 14 2 15 3 16 4 17 5 18 6 19 7 20 8 21 9 22 10 23 11
REMARK SMILES IDX 24 12 25 13 26 14 12 15 11 16 10 17 9 18 8 19 7 20 6 21 5 22
REMARK SMILES IDX 4 23 3 24 2 25 1 26
REMARK H PARENT
REMARK Flexibility Score: inf
ROOT
ATOM      1  C   UNL     1      23.873   1.790  -3.058  1.00  0.00     0.000 C 
ENDROOT
BRANCH   1   2
ATOM      2  C   UNL     1      23.946   3.066  -2.208  1.00  0.00     0.000 C 
BRANCH   2   3
ATOM      3  C   UNL     1      25.362   3.661  -2.229  1.00  0.00     0.000 C 
BRANCH   3   4
ATOM      4  C   UNL     1      25.385   5.173  -1.944  1.00  0.00     0.000 C 
BRANCH   4   5
ATOM      5  C   UNL     1      26.478   5.635  -0.963  1.00  0.00     0.000 C 
BRANCH   5   6
ATOM      6  C   UNL     1      26.815   7.137  -1.020  1.00  0.00     0.000 C 
BRANCH   6   7
ATOM      7  C   UNL     1      28.295   7.456  -0.722  1.00  0.00     0.000 C 
BRANCH   7   8
ATOM      8  C   UNL     1      28.973   8.239  -1.861  1.00  0.00     0.000 C 
BRANCH   8   9
ATOM      9  C   UNL     1      28.006   8.563  -3.011  1.00  0.00     0.000 C 
BRANCH   9  10
ATOM     10  C   UNL     1      28.587   9.585  -3.999  1.00  0.00     0.006 C 
BRANCH  10  11
ATOM     11  C   UNL     1      27.921  10.953  -3.826  1.00  0.00     0.053 C 
BRANCH  11  12
ATOM     12  C   UNL     1      28.691  11.796  -2.858  1.00  0.00     0.041 C 
ATOM     13  O   UNL     1      29.012  12.976  -3.163  1.00  0.00    -0.550 OA
ATOM     14  O   UNL     1      29.027  11.293  -1.607  1.00  0.00    -0.550 OA
ENDBRANCH  11  12
ENDBRANCH  10  11
ENDBRANCH   9  10
ENDBRANCH   8   9
ENDBRANCH   7   8
ENDBRANCH   6   7
ENDBRANCH   5   6
ENDBRANCH   4   5
ENDBRANCH   3   4
ENDBRANCH   2   3
ENDBRANCH   1   2
BRANCH   1  15
ATOM     15  C   UNL     1      22.675   0.893  -2.696  1.00  0.00     0.000 C 
BRANCH  15  16
ATOM     16  C   UNL     1      22.998  -0.258  -1.728  1.00  0.00     0.000 C 
BRANCH  16  17
ATOM     17  C   UNL     1      23.341  -1.571  -2.453  1.00  0.00     0.000 C 
BRANCH  17  18
ATOM     18  C   UNL     1      24.466  -1.403  -3.487  1.00  0.00    -0.000 C 
BRANCH  18  19
ATOM     19  C   UNL     1      25.721  -2.220  -3.134  1.00  0.00    -0.000 C 
BRANCH  19  20
ATOM     20  C   UNL     1      25.671  -3.654  -3.687  1.00  0.00    -0.000 C 
BRANCH  20  21
ATOM     21  C   UNL     1      27.048  -4.174  -4.125  1.00  0.00    -0.000 C 
BRANCH  21  22
ATOM     22  C   UNL     1      27.208  -5.661  -3.772  1.00  0.00    -0.000 C 
BRANCH  22  23
ATOM     23  C   UNL     1      27.052  -5.934  -2.268  1.00  0.00    -0.000 C 
BRANCH  23  24
ATOM     24  C   UNL     1      27.358  -4.697  -1.408  1.00  0.00    -0.000 C 
BRANCH  24  25
ATOM     25  C   UNL     1      27.628  -5.093   0.048  1.00  0.00    -0.003 C 
ATOM     26  C   UNL     1      28.372  -3.985   0.791  1.00  0.00     0.004 C 
ENDBRANCH  24  25
ENDBRANCH  23  24
ENDBRANCH  22  23
ENDBRANCH  21  22
ENDBRANCH  20  21
ENDBRANCH  19  20
ENDBRANCH  18  19
ENDBRANCH  17  18
ENDBRANCH  16  17
ENDBRANCH  15  16
ENDBRANCH   1  15
TORSDOF 22
ENDMDL
MODEL 2
REMARK VINA RESULT:    -1.177      4.606     11.985
REMARK INTER + INTRA:          -2.686
REMARK INTER:                  -2.369
REMARK INTRA:                  -0.317
REMARK UNBOUND:                 0.006
REMARK SMILES CCCCCCCCCCCCCCCCCCCCCCCC(=O)[O-]
REMARK SMILES IDX 13 1 14 2 15 3 16 4 17 5 18 6 19 7 20 8 21 9 22 10 23 11
REMARK SMILES IDX 24 12 25 13 26 14 12 15 11 16 10 17 9 18 8 19 7 20 6 21 5 22
REMARK SMILES IDX 4 23 3 24 2 25 1 26
REMARK H PARENT
REMARK Flexibility Score: inf
ROOT
ATOM      1  C   UNL     1      24.747   3.868  -2.601  1.00  0.00     0.000 C 
ENDROOT
BRANCH   1   2
ATOM      2  C   UNL     1      23.477   3.010  -2.511  1.00  0.00     0.000 C 
BRANCH   2   3
ATOM      3  C   UNL     1      23.732   1.593  -3.046  1.00  0.00     0.000 C 
BRANCH   3   4
ATOM      4  C   UNL     1      22.697   0.566  -2.550  1.00  0.00     0.000 C 
BRANCH   4   5
ATOM      5  C   UNL     1      23.077  -0.907  -2.787  1.00  0.00     0.000 C 
BRANCH   5   6
ATOM      6  C   UNL     1      24.564  -1.155  -3.102  1.00  0.00     0.000 C 
BRANCH   6   7
ATOM      7  C   UNL     1      25.012  -2.616  -2.887  1.00  0.00     0.000 C 
BRANCH   7   8
ATOM      8  C   UNL     1      26.010  -3.094  -3.957  1.00  0.00     0.000 C 
BRANCH   8   9
ATOM      9  C   UNL     1      26.284  -4.605  -3.876  1.00  0.00     0.000 C 
BRANCH   9  10
ATOM     10  C   UNL     1      27.744  -4.919  -3.518  1.00  0.00     0.006 C 
BRANCH  10  11
ATOM     11  C   UNL     1      27.825  -5.744  -2.230  1.00  0.00     0.053 C 
BRANCH  11  12
ATOM     12  C   UNL     1      27.709  -4.859  -1.028  1.00  0.00     0.041 C 
ATOM     13  O   UNL     1      28.490  -5.013  -0.051  1.00  0.00    -0.550 OA
ATOM     14  O   UNL     1      26.762  -3.842  -0.999  1.00  0.00    -0.550 OA
ENDBRANCH  11  12
ENDBRANCH  10  11
ENDBRANCH   9  10
ENDBRANCH   8   9
ENDBRANCH   7   8
ENDBRANCH   6   7
ENDBRANCH   5   6
ENDBRANCH   4   5
ENDBRANCH   3   4
ENDBRANCH   2   3
ENDBRANCH   1   2
BRANCH   1  15
ATOM     15  C   UNL     1      25.435   4.070  -1.239  1.00  0.00     0.000 C 
BRANCH  15  16
ATOM     16  C   UNL     1      26.640   5.027  -1.259  1.00  0.00     0.000 C 
BRANCH  16  17
ATOM     17  C   UNL     1      26.228   6.509  -1.223  1.00  0.00     0.000 C 
BRANCH  17  18
ATOM     18  C   UNL     1      25.818   7.045  -2.603  1.00  0.00    -0.000 C 
BRANCH  18  19
ATOM     19  C   UNL     1      26.126   8.543  -2.771  1.00  0.00    -0.000 C 
BRANCH  19  20
ATOM     20  C   UNL     1      26.995   8.835  -4.005  1.00  0.00    -0.000 C 
BRANCH  20  21
ATOM     21  C   UNL     1      28.450   9.170  -3.646  1.00  0.00    -0.000 C 
BRANCH  21  22
ATOM     22  C   UNL     1      28.536  10.522  -2.919  1.00  0.00    -0.000 C 
BRANCH  22  23
ATOM     23  C   UNL     1      29.092  10.393  -1.492  1.00  0.00    -0.000 C 
BRANCH  23  24
ATOM     24  C   UNL     1      28.907   8.982  -0.911  1.00  0.00    -0.000 C 
BRANCH  24  25
ATOM     25  C   UNL     1      28.222   9.037   0.459  1.00  0.00    -0.003 C 
ATOM     26  C   UNL     1      29.119   9.707   1.498  1.00  0.00     0.004 C 
ENDBRANCH  24  25
ENDBRANCH  23  24
ENDBRANCH  22  23
ENDBRANCH  21  22
ENDBRANCH  20  21
ENDBRANCH  19  20
ENDBRANCH  18  19
ENDBRANCH  17  18
ENDBRANCH  16  17
ENDBRANCH  15  16
ENDBRANCH   1  15
TORSDOF 22
ENDMDL
MODEL 3
REMARK VINA RESULT:    -1.129      4.994     11.985
REMARK INTER + INTRA:          -2.575
REMARK INTER:                  -2.724
REMARK INTRA:                   0.149
REMARK UNBOUND:                 0.006
REMARK SMILES CCCCCCCCCCCCCCCCCCCCCCCC(=O)[O-]
REMARK SMILES IDX 13 1 14 2 15 3 16 4 17 5 18 6 19 7 20 8 21 9 22 10 23 11
REMARK SMILES IDX 24 12 25 13 26 14 12 15 11 16 10 17 9 18 8 19 7 20 6 21 5 22
REMARK SMILES IDX 4 23 3 24 2 25 1 26
REMARK H PARENT
REMARK Flexibility Score: inf
ROOT
ATOM      1  C   UNL     1      25.425   4.971  -1.373  1.00  0.00     0.000 C 
ENDROOT
BRANCH   1   2
ATOM      2  C   UNL     1      24.819   4.917  -2.783  1.00  0.00     0.000 C 
BRANCH   2   3
ATOM      3  C   UNL     1      23.599   3.984  -2.822  1.00  0.00     0.000 C 
BRANCH   3   4
ATOM      4  C   UNL     1      23.974   2.496  -2.710  1.00  0.00     0.000 C 
BRANCH   4   5
ATOM      5  C   UNL     1      22.782   1.521  -2.723  1.00  0.00     0.000 C 
BRANCH   5   6
ATOM      6  C   UNL     1      23.131   0.070  -3.106  1.00  0.00     0.000 C 
BRANCH   6   7
ATOM      7  C   UNL     1      22.928  -0.944  -1.959  1.00  0.00     0.000 C 
BRANCH   7   8
ATOM      8  C   UNL     1      24.038  -2.009  -1.907  1.00  0.00     0.000 C 
BRANCH   8   9
ATOM      9  C   UNL     1      24.997  -1.920  -3.105  1.00  0.00     0.000 C 
BRANCH   9  10
ATOM     10  C   UNL     1      25.557  -3.291  -3.514  1.00  0.00     0.006 C 
BRANCH  10  11
ATOM     11  C   UNL     1      26.921  -3.540  -2.864  1.00  0.00     0.053 C 
BRANCH  11  12
ATOM     12  C   UNL     1      27.410  -4.920  -3.175  1.00  0.00     0.041 C 
ATOM     13  O   UNL     1      28.551  -5.086  -3.684  1.00  0.00    -0.550 OA
ATOM     14  O   UNL     1      26.623  -6.024  -2.873  1.00  0.00    -0.550 OA
ENDBRANCH  11  12
ENDBRANCH  10  11
ENDBRANCH   9  10
ENDBRANCH   8   9
ENDBRANCH   7   8
ENDBRANCH   6   7
ENDBRANCH   5   6
ENDBRANCH   4   5
ENDBRANCH   3   4
ENDBRANCH   2   3
ENDBRANCH   1   2
BRANCH   1  15
ATOM     15  C   UNL     1      26.836   4.360  -1.300  1.00  0.00     0.000 C 
BRANCH  15  16
ATOM     16  C   UNL     1      27.512   4.456   0.079  1.00  0.00     0.000 C 
BRANCH  16  17
ATOM     17  C   UNL     1      28.966   4.954  -0.001  1.00  0.00     0.000 C 
BRANCH  17  18
ATOM     18  C   UNL     1      29.073   6.394  -0.528  1.00  0.00    -0.000 C 
BRANCH  18  19
ATOM     19  C   UNL     1      27.698   7.048  -0.746  1.00  0.00    -0.000 C 
BRANCH  19  20
ATOM     20  C   UNL     1      27.696   8.550  -0.418  1.00  0.00    -0.000 C 
BRANCH  20  21
ATOM     21  C   UNL     1      28.323   9.405  -1.529  1.00  0.00    -0.000 C 
BRANCH  21  22
ATOM     22  C   UNL     1      28.265   8.674  -2.880  1.00  0.00    -0.000 C 
BRANCH  22  23
ATOM     23  C   UNL     1      27.184   9.241  -3.814  1.00  0.00    -0.000 C 
BRANCH  23  24
ATOM     24  C   UNL     1      27.365  10.743  -4.085  1.00  0.00    -0.000 C 
BRANCH  24  25
ATOM     25  C   UNL     1      28.850  11.125  -4.092  1.00  0.00    -0.003 C 
ATOM     26  C   UNL     1      29.125  12.286  -3.139  1.00  0.00     0.004 C 
ENDBRANCH  24  25
ENDBRANCH  23  24
ENDBRANCH  22  23
ENDBRANCH  21  22
ENDBRANCH  20  21
ENDBRANCH  19  20
ENDBRANCH  18  19
ENDBRANCH  17  18
ENDBRANCH  16  17
ENDBRANCH  15  16
ENDBRANCH   1  15
TORSDOF 22
ENDMDL
MODEL 4
REMARK VINA RESULT:    -0.976      1.171      1.849
REMARK INTER + INTRA:          -2.224
REMARK INTER:                  -1.975
REMARK INTRA:                  -0.250
REMARK UNBOUND:                 0.006
REMARK SMILES CCCCCCCCCCCCCCCCCCCCCCCC(=O)[O-]
REMARK SMILES IDX 13 1 14 2 15 3 16 4 17 5 18 6 19 7 20 8 21 9 22 10 23 11
REMARK SMILES IDX 24 12 25 13 26 14 12 15 11 16 10 17 9 18 8 19 7 20 6 21 5 22
REMARK SMILES IDX 4 23 3 24 2 25 1 26
REMARK H PARENT
REMARK Flexibility Score: inf
ROOT
ATOM      1  C   UNL     1      24.157   4.064  -2.241  1.00  0.00     0.000 C 
ENDROOT
BRANCH   1   2
ATOM      2  C   UNL     1      25.690   4.028  -2.319  1.00  0.00     0.000 C 
BRANCH   2   3
ATOM      3  C   UNL     1      26.320   4.624  -1.050  1.00  0.00     0.000 C 
BRANCH   3   4
ATOM      4  C   UNL     1      27.165   3.607  -0.262  1.00  0.00     0.000 C 
BRANCH   4   5
ATOM      5  C   UNL     1      28.452   4.175   0.363  1.00  0.00     0.000 C 
BRANCH   5   6
ATOM      6  C   UNL     1      29.049   5.393  -0.368  1.00  0.00     0.000 C 
BRANCH   6   7
ATOM      7  C   UNL     1      28.087   6.597  -0.462  1.00  0.00     0.000 C 
BRANCH   7   8
ATOM      8  C   UNL     1      28.716   7.802  -1.183  1.00  0.00     0.000 C 
BRANCH   8   9
ATOM      9  C   UNL     1      27.720   8.520  -2.109  1.00  0.00     0.000 C 
BRANCH   9  10
ATOM     10  C   UNL     1      28.388   9.072  -3.377  1.00  0.00     0.006 C 
BRANCH  10  11
ATOM     11  C   UNL     1      27.633  10.297  -3.903  1.00  0.00     0.053 C 
BRANCH  11  12
ATOM     12  C   UNL     1      28.303  11.560  -3.461  1.00  0.00     0.041 C 
ATOM     13  O   UNL     1      28.130  12.628  -4.107  1.00  0.00    -0.550 OA
ATOM     14  O   UNL     1      29.092  11.568  -2.317  1.00  0.00    -0.550 OA
ENDBRANCH  11  12
ENDBRANCH  10  11
ENDBRANCH   9  10
ENDBRANCH   8   9
ENDBRANCH   7   8
ENDBRANCH   6   7
ENDBRANCH   5   6
ENDBRANCH   4   5
ENDBRANCH   3   4
ENDBRANCH   2   3
ENDBRANCH   1   2
BRANCH   1  15
ATOM     15  C   UNL     1      23.487   2.935  -3.043  1.00  0.00     0.000 C 
BRANCH  15  16
ATOM     16  C   UNL     1      24.010   1.522  -2.732  1.00  0.00     0.000 C 
BRANCH  16  17
ATOM     17  C   UNL     1      22.910   0.575  -2.220  1.00  0.00     0.000 C 
BRANCH  17  18
ATOM     18  C   UNL     1      22.838  -0.738  -3.015  1.00  0.00    -0.000 C 
BRANCH  18  19
ATOM     19  C   UNL     1      23.914  -1.749  -2.584  1.00  0.00    -0.000 C 
BRANCH  19  20
ATOM     20  C   UNL     1      25.245  -1.552  -3.328  1.00  0.00    -0.000 C 
BRANCH  20  21
ATOM     21  C   UNL     1      26.206  -2.738  -3.159  1.00  0.00    -0.000 C 
BRANCH  21  22
ATOM     22  C   UNL     1      25.431  -4.064  -3.090  1.00  0.00    -0.000 C 
BRANCH  22  23
ATOM     23  C   UNL     1      26.346  -5.293  -3.211  1.00  0.00    -0.000 C 
BRANCH  23  24
ATOM     24  C   UNL     1      27.772  -5.019  -2.708  1.00  0.00    -0.000 C 
BRANCH  24  25
ATOM     25  C   UNL     1      27.982  -5.599  -1.305  1.00  0.00    -0.003 C 
ATOM     26  C   UNL     1      27.722  -4.546  -0.229  1.00  0.00     0.004 C 
ENDBRANCH  24  25
ENDBRANCH  23  24
ENDBRANCH  22  23
ENDBRANCH  21  22
ENDBRANCH  20  21
ENDBRANCH  19  20
ENDBRANCH  18  19
ENDBRANCH  17  18
ENDBRANCH  16  17
ENDBRANCH  15  16
ENDBRANCH   1  15
TORSDOF 22
ENDMDL
MODEL 5
REMARK VINA RESULT:    -0.889      4.691     12.334
REMARK INTER + INTRA:          -2.027
REMARK INTER:                  -1.361
REMARK INTRA:                  -0.666
REMARK UNBOUND:                 0.006
REMARK SMILES CCCCCCCCCCCCCCCCCCCCCCCC(=O)[O-]
REMARK SMILES IDX 13 1 14 2 15 3 16 4 17 5 18 6 19 7 20 8 21 9 22 10 23 11
REMARK SMILES IDX 24 12 25 13 26 14 12 15 11 16 10 17 9 18 8 19 7 20 6 21 5 22
REMARK SMILES IDX 4 23 3 24 2 25 1 26
REMARK H PARENT
REMARK Flexibility Score: inf
ROOT
ATOM      1  C   UNL     1      23.277   2.949  -2.768  1.00  0.00     0.000 C 
ENDROOT
BRANCH   1   2
ATOM      2  C   UNL     1      22.715   1.541  -3.011  1.00  0.00     0.000 C 
BRANCH   2   3
ATOM      3  C   UNL     1      23.821   0.481  -2.902  1.00  0.00     0.000 C 
BRANCH   3   4
ATOM      4  C   UNL     1      23.315  -0.863  -2.347  1.00  0.00     0.000 C 
BRANCH   4   5
ATOM      5  C   UNL     1      24.324  -2.023  -2.430  1.00  0.00     0.000 C 
BRANCH   5   6
ATOM      6  C   UNL     1      25.252  -1.994  -3.659  1.00  0.00     0.000 C 
BRANCH   6   7
ATOM      7  C   UNL     1      26.243  -3.176  -3.720  1.00  0.00     0.000 C 
BRANCH   7   8
ATOM      8  C   UNL     1      25.566  -4.531  -3.446  1.00  0.00     0.000 C 
BRANCH   8   9
ATOM      9  C   UNL     1      26.481  -5.724  -3.768  1.00  0.00     0.000 C 
BRANCH   9  10
ATOM     10  C   UNL     1      27.453  -6.046  -2.622  1.00  0.00     0.006 C 
BRANCH  10  11
ATOM     11  C   UNL     1      27.893  -4.767  -1.904  1.00  0.00     0.053 C 
BRANCH  11  12
ATOM     12  C   UNL     1      27.709  -4.902  -0.424  1.00  0.00     0.041 C 
ATOM     13  O   UNL     1      28.417  -4.222   0.366  1.00  0.00    -0.550 OA
ATOM     14  O   UNL     1      26.735  -5.753   0.083  1.00  0.00    -0.550 OA
ENDBRANCH  11  12
ENDBRANCH  10  11
ENDBRANCH   9  10
ENDBRANCH   8   9
ENDBRANCH   7   8
ENDBRANCH   6   7
ENDBRANCH   5   6
ENDBRANCH   4   5
ENDBRANCH   3   4
ENDBRANCH   2   3
ENDBRANCH   1   2
BRANCH   1  15
ATOM     15  C   UNL     1      24.726   2.937  -2.247  1.00  0.00     0.000 C 
BRANCH  15  16
ATOM     16  C   UNL     1      25.030   3.981  -1.158  1.00  0.00     0.000 C 
BRANCH  16  17
ATOM     17  C   UNL     1      26.358   4.722  -1.395  1.00  0.00     0.000 C 
BRANCH  17  18
ATOM     18  C   UNL     1      26.155   6.201  -1.762  1.00  0.00    -0.000 C 
BRANCH  18  19
ATOM     19  C   UNL     1      26.772   7.157  -0.726  1.00  0.00    -0.000 C 
BRANCH  19  20
ATOM     20  C   UNL     1      28.300   7.267  -0.856  1.00  0.00    -0.000 C 
BRANCH  20  21
ATOM     21  C   UNL     1      28.773   8.697  -1.155  1.00  0.00    -0.000 C 
BRANCH  21  22
ATOM     22  C   UNL     1      29.124   8.857  -2.644  1.00  0.00    -0.000 C 
BRANCH  22  23
ATOM     23  C   UNL     1      27.898   9.191  -3.508  1.00  0.00    -0.000 C 
BRANCH  23  24
ATOM     24  C   UNL     1      27.729  10.702  -3.735  1.00  0.00    -0.000 C 
BRANCH  24  25
ATOM     25  C   UNL     1      29.024  11.455  -3.407  1.00  0.00    -0.003 C 
ATOM     26  C   UNL     1      28.882  12.947  -3.699  1.00  0.00     0.004 C 
ENDBRANCH  24  25
ENDBRANCH  23  24
ENDBRANCH  22  23
ENDBRANCH  21  22
ENDBRANCH  20  21
ENDBRANCH  19  20
ENDBRANCH  18  19
ENDBRANCH  17  18
ENDBRANCH  16  17
ENDBRANCH  15  16
ENDBRANCH   1  15
TORSDOF 22
ENDMDL
MODEL 6
REMARK VINA RESULT:    -0.561      5.137     11.835
REMARK INTER + INTRA:          -1.276
REMARK INTER:                  -0.887
REMARK INTRA:                  -0.389
REMARK UNBOUND:                 0.006
REMARK SMILES CCCCCCCCCCCCCCCCCCCCCCCC(=O)[O-]
REMARK SMILES IDX 13 1 14 2 15 3 16 4 17 5 18 6 19 7 20 8 21 9 22 10 23 11
REMARK SMILES IDX 24 12 25 13 26 14 12 15 11 16 10 17 9 18 8 19 7 20 6 21 5 22
REMARK SMILES IDX 4 23 3 24 2 25 1 26
REMARK H PARENT
REMARK Flexibility Score: inf
ROOT
ATOM      1  C   UNL     1      26.322   4.766  -1.454  1.00  0.00     0.000 C 
ENDROOT
BRANCH   1   2
ATOM      2  C   UNL     1      25.564   3.553  -2.011  1.00  0.00     0.000 C 
BRANCH   2   3
ATOM      3  C   UNL     1      24.102   3.911  -2.318  1.00  0.00     0.000 C 
BRANCH   3   4
ATOM      4  C   UNL     1      23.368   2.819  -3.116  1.00  0.00     0.000 C 
BRANCH   4   5
ATOM      5  C   UNL     1      23.882   1.386  -2.884  1.00  0.00     0.000 C 
BRANCH   5   6
ATOM      6  C   UNL     1      22.840   0.403  -2.317  1.00  0.00     0.000 C 
BRANCH   6   7
ATOM      7  C   UNL     1      23.135  -1.076  -2.645  1.00  0.00     0.000 C 
BRANCH   7   8
ATOM      8  C   UNL     1      24.641  -1.366  -2.772  1.00  0.00     0.000 C 
BRANCH   8   9
ATOM      9  C   UNL     1      24.954  -2.872  -2.775  1.00  0.00     0.000 C 
BRANCH   9  10
ATOM     10  C   UNL     1      26.461  -3.160  -2.720  1.00  0.00     0.006 C 
BRANCH  10  11
ATOM     11  C   UNL     1      26.811  -4.401  -3.548  1.00  0.00     0.053 C 
BRANCH  11  12
ATOM     12  C   UNL     1      27.596  -5.377  -2.729  1.00  0.00     0.041 C 
ATOM     13  O   UNL     1      28.552  -6.013  -3.249  1.00  0.00    -0.550 OA
ATOM     14  O   UNL     1      27.296  -5.562  -1.385  1.00  0.00    -0.550 OA
ENDBRANCH  11  12
ENDBRANCH  10  11
ENDBRANCH   9  10
ENDBRANCH   8   9
ENDBRANCH   7   8
ENDBRANCH   6   7
ENDBRANCH   5   6
ENDBRANCH   4   5
ENDBRANCH   3   4
ENDBRANCH   2   3
ENDBRANCH   1   2
BRANCH   1  15
ATOM     15  C   UNL     1      25.539   6.083  -1.598  1.00  0.00     0.000 C 
BRANCH  15  16
ATOM     16  C   UNL     1      25.731   6.806  -2.942  1.00  0.00     0.000 C 
BRANCH  16  17
ATOM     17  C   UNL     1      26.241   8.249  -2.778  1.00  0.00     0.000 C 
BRANCH  17  18
ATOM     18  C   UNL     1      26.748   8.854  -4.097  1.00  0.00    -0.000 C 
BRANCH  18  19
ATOM     19  C   UNL     1      27.727  10.019  -3.875  1.00  0.00    -0.000 C 
BRANCH  19  20
ATOM     20  C   UNL     1      28.928   9.626  -2.999  1.00  0.00    -0.000 C 
BRANCH  20  21
ATOM     21  C   UNL     1      28.923  10.322  -1.630  1.00  0.00    -0.000 C 
BRANCH  21  22
ATOM     22  C   UNL     1      27.617  10.029  -0.872  1.00  0.00    -0.000 C 
BRANCH  22  23
ATOM     23  C   UNL     1      27.861   9.381   0.499  1.00  0.00    -0.000 C 
BRANCH  23  24
ATOM     24  C   UNL     1      29.119   8.500   0.522  1.00  0.00    -0.000 C 
BRANCH  24  25
ATOM     25  C   UNL     1      29.072   7.445  -0.590  1.00  0.00    -0.003 C 
ATOM     26  C   UNL     1      29.032   6.033  -0.009  1.00  0.00     0.004 C 
ENDBRANCH  24  25
ENDBRANCH  23  24
ENDBRANCH  22  23
ENDBRANCH  21  22
ENDBRANCH  20  21
ENDBRANCH  19  20
ENDBRANCH  18  19
ENDBRANCH  17  18
ENDBRANCH  16  17
ENDBRANCH  15  16
ENDBRANCH   1  15
TORSDOF 22
ENDMDL
MODEL 7
REMARK VINA RESULT:     0.146      1.695      2.931
REMARK INTER + INTRA:           0.340
REMARK INTER:                   0.363
REMARK INTRA:                  -0.022
REMARK UNBOUND:                 0.006
REMARK SMILES CCCCCCCCCCCCCCCCCCCCCCCC(=O)[O-]
REMARK SMILES IDX 13 1 14 2 15 3 16 4 17 5 18 6 19 7 20 8 21 9 22 10 23 11
REMARK SMILES IDX 24 12 25 13 26 14 12 15 11 16 10 17 9 18 8 19 7 20 6 21 5 22
REMARK SMILES IDX 4 23 3 24 2 25 1 26
REMARK H PARENT
REMARK Flexibility Score: inf
ROOT
ATOM      1  C   UNL     1      25.970   3.545  -2.298  1.00  0.00     0.000 C 
ENDROOT
BRANCH   1   2
ATOM      2  C   UNL     1      26.878   4.412  -1.414  1.00  0.00     0.000 C 
BRANCH   2   3
ATOM      3  C   UNL     1      26.143   5.677  -0.944  1.00  0.00     0.000 C 
BRANCH   3   4
ATOM      4  C   UNL     1      25.608   6.531  -2.107  1.00  0.00     0.000 C 
BRANCH   4   5
ATOM      5  C   UNL     1      26.648   7.453  -2.770  1.00  0.00     0.000 C 
BRANCH   5   6
ATOM      6  C   UNL     1      26.070   8.482  -3.761  1.00  0.00     0.000 C 
BRANCH   6   7
ATOM      7  C   UNL     1      27.032   9.646  -4.082  1.00  0.00     0.000 C 
BRANCH   7   8
ATOM      8  C   UNL     1      28.505   9.203  -4.125  1.00  0.00     0.000 C 
BRANCH   8   9
ATOM      9  C   UNL     1      29.125   9.079  -2.723  1.00  0.00     0.000 C 
BRANCH   9  10
ATOM     10  C   UNL     1      28.916  10.342  -1.874  1.00  0.00     0.006 C 
BRANCH  10  11
ATOM     11  C   UNL     1      28.115  10.022  -0.608  1.00  0.00     0.053 C 
BRANCH  11  12
ATOM     12  C   UNL     1      28.767   8.919   0.165  1.00  0.00     0.041 C 
ATOM     13  O   UNL     1      29.112   9.103   1.362  1.00  0.00    -0.550 OA
ATOM     14  O   UNL     1      28.965   7.676  -0.425  1.00  0.00    -0.550 OA
ENDBRANCH  11  12
ENDBRANCH  10  11
ENDBRANCH   9  10
ENDBRANCH   8   9
ENDBRANCH   7   8
ENDBRANCH   6   7
ENDBRANCH   5   6
ENDBRANCH   4   5
ENDBRANCH   3   4
ENDBRANCH   2   3
ENDBRANCH   1   2
BRANCH   1  15
ATOM     15  C   UNL     1      24.598   3.266  -1.660  1.00  0.00     0.000 C 
BRANCH  15  16
ATOM     16  C   UNL     1      23.555   2.653  -2.612  1.00  0.00     0.000 C 
BRANCH  16  17
ATOM     17  C   UNL     1      23.893   1.207  -3.018  1.00  0.00     0.000 C 
BRANCH  17  18
ATOM     18  C   UNL     1      22.931   0.177  -2.404  1.00  0.00    -0.000 C 
BRANCH  18  19
ATOM     19  C   UNL     1      23.191  -1.251  -2.912  1.00  0.00    -0.000 C 
BRANCH  19  20
ATOM     20  C   UNL     1      24.647  -1.468  -3.353  1.00  0.00    -0.000 C 
BRANCH  20  21
ATOM     21  C   UNL     1      25.316  -2.655  -2.644  1.00  0.00    -0.000 C 
BRANCH  21  22
ATOM     22  C   UNL     1      25.625  -3.784  -3.642  1.00  0.00    -0.000 C 
BRANCH  22  23
ATOM     23  C   UNL     1      27.052  -4.333  -3.491  1.00  0.00    -0.000 C 
BRANCH  23  24
ATOM     24  C   UNL     1      27.226  -5.190  -2.228  1.00  0.00    -0.000 C 
BRANCH  24  25
ATOM     25  C   UNL     1      27.714  -4.341  -1.049  1.00  0.00    -0.003 C 
ATOM     26  C   UNL     1      27.723  -5.149   0.247  1.00  0.00     0.004 C 
ENDBRANCH  24  25
ENDBRANCH  23  24
ENDBRANCH  22  23
ENDBRANCH  21  22
ENDBRANCH  20  21
ENDBRANCH  19  20
ENDBRANCH  18  19
ENDBRANCH  17  18
ENDBRANCH  16  17
ENDBRANCH  15  16
ENDBRANCH   1  15
TORSDOF 22
ENDMDL
