MODEL 1
REMARK VINA RESULT:    -7.562      0.000      0.000
REMARK INTER + INTRA:          -9.402
REMARK INTER:                  -9.110
REMARK INTRA:                  -0.292
REMARK UNBOUND:                -0.292
REMARK SMILES O=c1c(O)c(-c2ccc(O)c(O)c2)oc2cc(O)cc(O)c12
REMARK SMILES IDX 5 1 3 2 2 3 1 4 22 5 20 6 19 7 17 8 16 9 15 10 14 11 6 12
REMARK SMILES IDX 7 13 8 14 9 15 13 16 11 17 10 18 12 20 4 22 21 24 18 26
REMARK H PARENT 10 19 12 21 4 23 21 25 18 27
REMARK Flexibility Score: inf
ROOT
ATOM      1  C   UNL     1     115.563 -49.098  30.413  1.00  0.00     0.180 A 
ATOM      2  C   UNL     1     115.647 -49.900  31.564  1.00  0.00     0.208 A 
ATOM      3  C   UNL     1     114.507 -50.058  32.368  1.00  0.00     0.238 A 
ATOM      4  O   UNL     1     114.573 -50.821  33.367  1.00  0.00    -0.285 OA
ATOM      5  C   UNL     1     113.302 -49.400  32.020  1.00  0.00     0.111 A 
ATOM      6  C   UNL     1     112.098 -49.458  32.783  1.00  0.00     0.134 A 
ATOM      7  C   UNL     1     110.930 -48.874  32.276  1.00  0.00     0.093 A 
ATOM      8  C   UNL     1     110.939 -48.180  31.067  1.00  0.00     0.123 A 
ATOM      9  C   UNL     1     112.125 -48.066  30.340  1.00  0.00     0.094 A 
ATOM     10  C   UNL     1     113.298 -48.670  30.803  1.00  0.00     0.146 A 
ATOM     11  O   UNL     1     114.403 -48.547  30.078  1.00  0.00    -0.452 OA
ENDROOT
BRANCH   1  12
ATOM     12  C   UNL     1     116.729 -48.863  29.530  1.00  0.00     0.025 A 
ATOM     13  C   UNL     1     117.077 -49.831  28.574  1.00  0.00     0.016 A 
ATOM     14  C   UNL     1     118.160 -49.621  27.717  1.00  0.00     0.051 A 
ATOM     15  C   UNL     1     118.901 -48.438  27.790  1.00  0.00     0.157 A 
ATOM     16  C   UNL     1     117.462 -47.665  29.587  1.00  0.00     0.062 A 
ATOM     17  C   UNL     1     118.549 -47.451  28.726  1.00  0.00     0.158 A 
BRANCH  15  18
ATOM     18  O   UNL     1     119.979 -48.258  26.922  1.00  0.00    -0.504 OA
ATOM     19  H   UNL     1     119.902 -47.706  26.077  1.00  0.00     0.293 HD
ENDBRANCH  15  18
BRANCH  17  20
ATOM     20  O   UNL     1     119.274 -46.264  28.794  1.00  0.00    -0.504 OA
ATOM     21  H   UNL     1     118.826 -45.360  28.690  1.00  0.00     0.293 HD
ENDBRANCH  17  20
ENDBRANCH   1  12
BRANCH   2  22
ATOM     22  O   UNL     1     116.839 -50.558  31.877  1.00  0.00    -0.502 OA
ATOM     23  H   UNL     1     116.912 -51.217  32.642  1.00  0.00     0.293 HD
ENDBRANCH   2  22
BRANCH   6  24
ATOM     24  O   UNL     1     112.002 -50.047  34.047  1.00  0.00    -0.507 OA
ATOM     25  H   UNL     1     112.772 -50.469  34.544  1.00  0.00     0.293 HD
ENDBRANCH   6  24
BRANCH   8  26
ATOM     26  O   UNL     1     109.762 -47.598  30.600  1.00  0.00    -0.508 OA
ATOM     27  H   UNL     1     109.385 -46.756  31.018  1.00  0.00     0.293 HD
ENDBRANCH   8  26
TORSDOF 6
ENDMDL
MODEL 2
REMARK VINA RESULT:    -7.344      1.354      2.905
REMARK INTER + INTRA:          -9.138
REMARK INTER:                  -8.816
REMARK INTRA:                  -0.323
REMARK UNBOUND:                -0.292
REMARK SMILES O=c1c(O)c(-c2ccc(O)c(O)c2)oc2cc(O)cc(O)c12
REMARK SMILES IDX 5 1 3 2 2 3 1 4 22 5 20 6 19 7 17 8 16 9 15 10 14 11 6 12
REMARK SMILES IDX 7 13 8 14 9 15 13 16 11 17 10 18 12 20 4 22 21 24 18 26
REMARK H PARENT 10 19 12 21 4 23 21 25 18 27
REMARK Flexibility Score: inf
ROOT
ATOM      1  C   UNL     1     115.171 -49.145  30.551  1.00  0.00     0.180 A 
ATOM      2  C   UNL     1     113.905 -48.957  29.969  1.00  0.00     0.208 A 
ATOM      3  C   UNL     1     112.758 -49.234  30.731  1.00  0.00     0.238 A 
ATOM      4  O   UNL     1     111.627 -49.012  30.224  1.00  0.00    -0.285 OA
ATOM      5  C   UNL     1     112.892 -49.711  32.058  1.00  0.00     0.111 A 
ATOM      6  C   UNL     1     111.800 -50.062  32.906  1.00  0.00     0.134 A 
ATOM      7  C   UNL     1     112.044 -50.399  34.244  1.00  0.00     0.093 A 
ATOM      8  C   UNL     1     113.343 -50.460  34.744  1.00  0.00     0.123 A 
ATOM      9  C   UNL     1     114.424 -50.177  33.907  1.00  0.00     0.094 A 
ATOM     10  C   UNL     1     114.209 -49.802  32.578  1.00  0.00     0.146 A 
ATOM     11  O   UNL     1     115.262 -49.531  31.817  1.00  0.00    -0.452 OA
ENDROOT
BRANCH   1  12
ATOM     12  C   UNL     1     116.425 -48.898  29.802  1.00  0.00     0.025 A 
ATOM     13  C   UNL     1     116.978 -49.928  29.024  1.00  0.00     0.016 A 
ATOM     14  C   UNL     1     118.149 -49.711  28.293  1.00  0.00     0.051 A 
ATOM     15  C   UNL     1     118.776 -48.461  28.316  1.00  0.00     0.157 A 
ATOM     16  C   UNL     1     117.044 -47.636  29.807  1.00  0.00     0.062 A 
ATOM     17  C   UNL     1     118.219 -47.416  29.072  1.00  0.00     0.158 A 
BRANCH  15  18
ATOM     18  O   UNL     1     119.945 -48.275  27.578  1.00  0.00    -0.504 OA
ATOM     19  H   UNL     1     119.941 -48.231  26.566  1.00  0.00     0.293 HD
ENDBRANCH  15  18
BRANCH  17  20
ATOM     20  O   UNL     1     118.830 -46.163  29.087  1.00  0.00    -0.504 OA
ATOM     21  H   UNL     1     118.289 -45.307  29.053  1.00  0.00     0.293 HD
ENDBRANCH  17  20
ENDBRANCH   1  12
BRANCH   2  22
ATOM     22  O   UNL     1     113.795 -48.464  28.666  1.00  0.00    -0.502 OA
ATOM     23  H   UNL     1     112.917 -48.145  28.278  1.00  0.00     0.293 HD
ENDBRANCH   2  22
BRANCH   6  24
ATOM     24  O   UNL     1     110.469 -50.123  32.481  1.00  0.00    -0.507 OA
ATOM     25  H   UNL     1     109.712 -50.524  33.015  1.00  0.00     0.293 HD
ENDBRANCH   6  24
BRANCH   8  26
ATOM     26  O   UNL     1     113.551 -50.814  36.076  1.00  0.00    -0.508 OA
ATOM     27  H   UNL     1     112.965 -50.451  36.819  1.00  0.00     0.293 HD
ENDBRANCH   8  26
TORSDOF 6
ENDMDL
MODEL 3
REMARK VINA RESULT:    -7.287      2.540      3.969
REMARK INTER + INTRA:          -9.070
REMARK INTER:                  -9.075
REMARK INTRA:                   0.006
REMARK UNBOUND:                -0.292
REMARK SMILES O=c1c(O)c(-c2ccc(O)c(O)c2)oc2cc(O)cc(O)c12
REMARK SMILES IDX 5 1 3 2 2 3 1 4 22 5 20 6 19 7 17 8 16 9 15 10 14 11 6 12
REMARK SMILES IDX 7 13 8 14 9 15 13 16 11 17 10 18 12 20 4 22 21 24 18 26
REMARK H PARENT 10 19 12 21 4 23 21 25 18 27
REMARK Flexibility Score: inf
ROOT
ATOM      1  C   UNL     1     112.860 -49.636  31.471  1.00  0.00     0.180 A 
ATOM      2  C   UNL     1     112.676 -48.553  32.349  1.00  0.00     0.208 A 
ATOM      3  C   UNL     1     111.559 -48.550  33.199  1.00  0.00     0.238 A 
ATOM      4  O   UNL     1     111.428 -47.605  34.021  1.00  0.00    -0.285 OA
ATOM      5  C   UNL     1     110.632 -49.619  33.150  1.00  0.00     0.111 A 
ATOM      6  C   UNL     1     109.444 -49.698  33.937  1.00  0.00     0.134 A 
ATOM      7  C   UNL     1     108.668 -50.864  33.901  1.00  0.00     0.093 A 
ATOM      8  C   UNL     1     109.000 -51.923  33.059  1.00  0.00     0.123 A 
ATOM      9  C   UNL     1     110.126 -51.832  32.240  1.00  0.00     0.094 A 
ATOM     10  C   UNL     1     110.940 -50.698  32.281  1.00  0.00     0.146 A 
ATOM     11  O   UNL     1     112.009 -50.654  31.494  1.00  0.00    -0.452 OA
ENDROOT
BRANCH   1  12
ATOM     12  C   UNL     1     113.999 -49.698  30.526  1.00  0.00     0.025 A 
ATOM     13  C   UNL     1     115.308 -49.552  31.014  1.00  0.00     0.016 A 
ATOM     14  C   UNL     1     116.399 -49.629  30.144  1.00  0.00     0.051 A 
ATOM     15  C   UNL     1     116.202 -49.868  28.781  1.00  0.00     0.157 A 
ATOM     16  C   UNL     1     113.804 -49.960  29.159  1.00  0.00     0.062 A 
ATOM     17  C   UNL     1     114.898 -50.040  28.285  1.00  0.00     0.158 A 
BRANCH  15  18
ATOM     18  O   UNL     1     117.310 -49.937  27.937  1.00  0.00    -0.504 OA
ATOM     19  H   UNL     1     117.732 -49.109  27.535  1.00  0.00     0.293 HD
ENDBRANCH  15  18
BRANCH  17  20
ATOM     20  O   UNL     1     114.695 -50.292  26.929  1.00  0.00    -0.504 OA
ATOM     21  H   UNL     1     115.238 -49.822  26.214  1.00  0.00     0.293 HD
ENDBRANCH  17  20
ENDBRANCH   1  12
BRANCH   2  22
ATOM     22  O   UNL     1     113.615 -47.520  32.397  1.00  0.00    -0.502 OA
ATOM     23  H   UNL     1     114.146 -47.306  33.232  1.00  0.00     0.293 HD
ENDBRANCH   2  22
BRANCH   6  24
ATOM     24  O   UNL     1     108.972 -48.659  34.744  1.00  0.00    -0.507 OA
ATOM     25  H   UNL     1     109.476 -47.808  34.940  1.00  0.00     0.293 HD
ENDBRANCH   6  24
BRANCH   8  26
ATOM     26  O   UNL     1     108.196 -53.062  33.037  1.00  0.00    -0.508 OA
ATOM     27  H   UNL     1     108.535 -53.957  33.370  1.00  0.00     0.293 HD
ENDBRANCH   8  26
TORSDOF 6
ENDMDL
MODEL 4
REMARK VINA RESULT:    -7.170      2.344      3.790
REMARK INTER + INTRA:          -8.929
REMARK INTER:                  -8.640
REMARK INTRA:                  -0.289
REMARK UNBOUND:                -0.292
REMARK SMILES O=c1c(O)c(-c2ccc(O)c(O)c2)oc2cc(O)cc(O)c12
REMARK SMILES IDX 5 1 3 2 2 3 1 4 22 5 20 6 19 7 17 8 16 9 15 10 14 11 6 12
REMARK SMILES IDX 7 13 8 14 9 15 13 16 11 17 10 18 12 20 4 22 21 24 18 26
REMARK H PARENT 10 19 12 21 4 23 21 25 18 27
REMARK Flexibility Score: inf
ROOT
ATOM      1  C   UNL     1     113.367 -49.622  32.158  1.00  0.00     0.180 A 
ATOM      2  C   UNL     1     113.005 -48.549  32.990  1.00  0.00     0.208 A 
ATOM      3  C   UNL     1     111.743 -48.561  33.605  1.00  0.00     0.238 A 
ATOM      4  O   UNL     1     111.445 -47.624  34.392  1.00  0.00    -0.285 OA
ATOM      5  C   UNL     1     110.854 -49.638  33.370  1.00  0.00     0.111 A 
ATOM      6  C   UNL     1     109.537 -49.734  33.909  1.00  0.00     0.134 A 
ATOM      7  C   UNL     1     108.794 -50.906  33.716  1.00  0.00     0.093 A 
ATOM      8  C   UNL     1     109.295 -51.956  32.948  1.00  0.00     0.123 A 
ATOM      9  C   UNL     1     110.559 -51.849  32.365  1.00  0.00     0.094 A 
ATOM     10  C   UNL     1     111.337 -50.707  32.572  1.00  0.00     0.146 A 
ATOM     11  O   UNL     1     112.538 -50.648  32.008  1.00  0.00    -0.452 OA
ENDROOT
BRANCH   1  12
ATOM     12  C   UNL     1     114.670 -49.668  31.454  1.00  0.00     0.025 A 
ATOM     13  C   UNL     1     114.743 -49.263  30.112  1.00  0.00     0.016 A 
ATOM     14  C   UNL     1     115.965 -49.278  29.435  1.00  0.00     0.051 A 
ATOM     15  C   UNL     1     117.133 -49.681  30.090  1.00  0.00     0.157 A 
ATOM     16  C   UNL     1     115.848 -50.052  32.118  1.00  0.00     0.062 A 
ATOM     17  C   UNL     1     117.076 -50.066  31.440  1.00  0.00     0.158 A 
BRANCH  15  18
ATOM     18  O   UNL     1     118.337 -49.687  29.387  1.00  0.00    -0.504 OA
ATOM     19  H   UNL     1     118.886 -48.847  29.252  1.00  0.00     0.293 HD
ENDBRANCH  15  18
BRANCH  17  20
ATOM     20  O   UNL     1     118.238 -50.455  32.104  1.00  0.00    -0.504 OA
ATOM     21  H   UNL     1     118.792 -51.243  31.788  1.00  0.00     0.293 HD
ENDBRANCH  17  20
ENDBRANCH   1  12
BRANCH   2  22
ATOM     22  O   UNL     1     113.906 -47.507  33.227  1.00  0.00    -0.502 OA
ATOM     23  H   UNL     1     114.601 -47.547  33.961  1.00  0.00     0.293 HD
ENDBRANCH   2  22
BRANCH   6  24
ATOM     24  O   UNL     1     108.905 -48.705  34.615  1.00  0.00    -0.507 OA
ATOM     25  H   UNL     1     109.208 -47.743  34.622  1.00  0.00     0.293 HD
ENDBRANCH   6  24
BRANCH   8  26
ATOM     26  O   UNL     1     108.522 -53.101  32.762  1.00  0.00    -0.508 OA
ATOM     27  H   UNL     1     108.543 -53.867  33.425  1.00  0.00     0.293 HD
ENDBRANCH   8  26
TORSDOF 6
ENDMDL
MODEL 5
REMARK VINA RESULT:    -7.063      2.109      7.582
REMARK INTER + INTRA:          -8.799
REMARK INTER:                  -8.500
REMARK INTRA:                  -0.299
REMARK UNBOUND:                -0.292
REMARK SMILES O=c1c(O)c(-c2ccc(O)c(O)c2)oc2cc(O)cc(O)c12
REMARK SMILES IDX 5 1 3 2 2 3 1 4 22 5 20 6 19 7 17 8 16 9 15 10 14 11 6 12
REMARK SMILES IDX 7 13 8 14 9 15 13 16 11 17 10 18 12 20 4 22 21 24 18 26
REMARK H PARENT 10 19 12 21 4 23 21 25 18 27
REMARK Flexibility Score: inf
ROOT
ATOM      1  C   UNL     1     112.721 -49.962  31.726  1.00  0.00     0.180 A 
ATOM      2  C   UNL     1     112.762 -49.506  30.397  1.00  0.00     0.208 A 
ATOM      3  C   UNL     1     114.009 -49.274  29.796  1.00  0.00     0.238 A 
ATOM      4  O   UNL     1     114.042 -48.918  28.589  1.00  0.00    -0.285 OA
ATOM      5  C   UNL     1     115.198 -49.486  30.535  1.00  0.00     0.111 A 
ATOM      6  C   UNL     1     116.514 -49.245  30.039  1.00  0.00     0.134 A 
ATOM      7  C   UNL     1     117.623 -49.613  30.812  1.00  0.00     0.093 A 
ATOM      8  C   UNL     1     117.463 -50.152  32.088  1.00  0.00     0.123 A 
ATOM      9  C   UNL     1     116.181 -50.337  32.608  1.00  0.00     0.094 A 
ATOM     10  C   UNL     1     115.055 -50.013  31.845  1.00  0.00     0.146 A 
ATOM     11  O   UNL     1     113.853 -50.214  32.371  1.00  0.00    -0.452 OA
ENDROOT
BRANCH   1  12
ATOM     12  C   UNL     1     111.443 -50.205  32.436  1.00  0.00     0.025 A 
ATOM     13  C   UNL     1     110.771 -51.423  32.250  1.00  0.00     0.016 A 
ATOM     14  C   UNL     1     109.576 -51.682  32.925  1.00  0.00     0.051 A 
ATOM     15  C   UNL     1     109.042 -50.737  33.807  1.00  0.00     0.157 A 
ATOM     16  C   UNL     1     110.917 -49.265  33.339  1.00  0.00     0.062 A 
ATOM     17  C   UNL     1     109.718 -49.524  34.020  1.00  0.00     0.158 A 
BRANCH  15  18
ATOM     18  O   UNL     1     107.846 -51.023  34.465  1.00  0.00    -0.504 OA
ATOM     19  H   UNL     1     106.944 -50.804  34.060  1.00  0.00     0.293 HD
ENDBRANCH  15  18
BRANCH  17  20
ATOM     20  O   UNL     1     109.200 -48.583  34.908  1.00  0.00    -0.504 OA
ATOM     21  H   UNL     1     109.464 -47.606  34.862  1.00  0.00     0.293 HD
ENDBRANCH  17  20
ENDBRANCH   1  12
BRANCH   2  22
ATOM     22  O   UNL     1     111.577 -49.325  29.679  1.00  0.00    -0.502 OA
ATOM     23  H   UNL     1     110.832 -50.010  29.678  1.00  0.00     0.293 HD
ENDBRANCH   2  22
BRANCH   6  24
ATOM     24  O   UNL     1     116.786 -48.626  28.815  1.00  0.00    -0.507 OA
ATOM     25  H   UNL     1     117.399 -47.834  28.695  1.00  0.00     0.293 HD
ENDBRANCH   6  24
BRANCH   8  26
ATOM     26  O   UNL     1     118.588 -50.492  32.836  1.00  0.00    -0.508 OA
ATOM     27  H   UNL     1     119.513 -50.515  32.423  1.00  0.00     0.293 HD
ENDBRANCH   8  26
TORSDOF 6
ENDMDL
MODEL 6
REMARK VINA RESULT:    -7.060      2.996      7.792
REMARK INTER + INTRA:          -8.797
REMARK INTER:                  -8.484
REMARK INTRA:                  -0.312
REMARK UNBOUND:                -0.292
REMARK SMILES O=c1c(O)c(-c2ccc(O)c(O)c2)oc2cc(O)cc(O)c12
REMARK SMILES IDX 5 1 3 2 2 3 1 4 22 5 20 6 19 7 17 8 16 9 15 10 14 11 6 12
REMARK SMILES IDX 7 13 8 14 9 15 13 16 11 17 10 18 12 20 4 22 21 24 18 26
REMARK H PARENT 10 19 12 21 4 23 21 25 18 27
REMARK Flexibility Score: inf
ROOT
ATOM      1  C   UNL     1     110.797 -47.240  31.539  1.00  0.00     0.180 A 
ATOM      2  C   UNL     1     111.591 -47.402  32.688  1.00  0.00     0.208 A 
ATOM      3  C   UNL     1     112.794 -48.119  32.588  1.00  0.00     0.238 A 
ATOM      4  O   UNL     1     113.527 -48.214  33.607  1.00  0.00    -0.285 OA
ATOM      5  C   UNL     1     113.180 -48.678  31.346  1.00  0.00     0.111 A 
ATOM      6  C   UNL     1     114.357 -49.457  31.139  1.00  0.00     0.134 A 
ATOM      7  C   UNL     1     114.707 -49.851  29.841  1.00  0.00     0.093 A 
ATOM      8  C   UNL     1     113.889 -49.549  28.753  1.00  0.00     0.123 A 
ATOM      9  C   UNL     1     112.703 -48.839  28.952  1.00  0.00     0.094 A 
ATOM     10  C   UNL     1     112.347 -48.402  30.230  1.00  0.00     0.146 A 
ATOM     11  O   UNL     1     111.217 -47.720  30.376  1.00  0.00    -0.452 OA
ENDROOT
BRANCH   1  12
ATOM     12  C   UNL     1     109.504 -46.518  31.572  1.00  0.00     0.025 A 
ATOM     13  C   UNL     1     109.434 -45.205  31.081  1.00  0.00     0.016 A 
ATOM     14  C   UNL     1     108.220 -44.513  31.083  1.00  0.00     0.051 A 
ATOM     15  C   UNL     1     107.057 -45.125  31.558  1.00  0.00     0.157 A 
ATOM     16  C   UNL     1     108.329 -47.141  32.029  1.00  0.00     0.062 A 
ATOM     17  C   UNL     1     107.108 -46.448  32.029  1.00  0.00     0.158 A 
BRANCH  15  18
ATOM     18  O   UNL     1     105.860 -44.409  31.549  1.00  0.00    -0.504 OA
ATOM     19  H   UNL     1     105.540 -43.888  32.355  1.00  0.00     0.293 HD
ENDBRANCH  15  18
BRANCH  17  20
ATOM     20  O   UNL     1     105.950 -47.070  32.490  1.00  0.00    -0.504 OA
ATOM     21  H   UNL     1     105.133 -47.177  31.900  1.00  0.00     0.293 HD
ENDBRANCH  17  20
ENDBRANCH   1  12
BRANCH   2  22
ATOM     22  O   UNL     1     111.202 -46.822  33.899  1.00  0.00    -0.502 OA
ATOM     23  H   UNL     1     111.563 -47.135  34.792  1.00  0.00     0.293 HD
ENDBRANCH   2  22
BRANCH   6  24
ATOM     24  O   UNL     1     115.197 -49.892  32.169  1.00  0.00    -0.507 OA
ATOM     25  H   UNL     1     116.085 -49.473  32.402  1.00  0.00     0.293 HD
ENDBRANCH   6  24
BRANCH   8  26
ATOM     26  O   UNL     1     114.259 -49.970  27.477  1.00  0.00    -0.508 OA
ATOM     27  H   UNL     1     114.186 -49.355  26.675  1.00  0.00     0.293 HD
ENDBRANCH   8  26
TORSDOF 6
ENDMDL
MODEL 7
REMARK VINA RESULT:    -7.049      3.514      5.840
REMARK INTER + INTRA:          -8.783
REMARK INTER:                  -8.503
REMARK INTRA:                  -0.280
REMARK UNBOUND:                -0.292
REMARK SMILES O=c1c(O)c(-c2ccc(O)c(O)c2)oc2cc(O)cc(O)c12
REMARK SMILES IDX 5 1 3 2 2 3 1 4 22 5 20 6 19 7 17 8 16 9 15 10 14 11 6 12
REMARK SMILES IDX 7 13 8 14 9 15 13 16 11 17 10 18 12 20 4 22 21 24 18 26
REMARK H PARENT 10 19 12 21 4 23 21 25 18 27
REMARK Flexibility Score: inf
ROOT
ATOM      1  C   UNL     1     116.349 -47.527  31.258  1.00  0.00     0.180 A 
ATOM      2  C   UNL     1     117.662 -47.842  30.867  1.00  0.00     0.208 A 
ATOM      3  C   UNL     1     117.859 -48.718  29.788  1.00  0.00     0.238 A 
ATOM      4  O   UNL     1     119.036 -48.954  29.408  1.00  0.00    -0.285 OA
ATOM      5  C   UNL     1     116.742 -49.280  29.123  1.00  0.00     0.111 A 
ATOM      6  C   UNL     1     116.825 -50.210  28.044  1.00  0.00     0.134 A 
ATOM      7  C   UNL     1     115.658 -50.600  27.376  1.00  0.00     0.093 A 
ATOM      8  C   UNL     1     114.407 -50.146  27.790  1.00  0.00     0.123 A 
ATOM      9  C   UNL     1     114.308 -49.283  28.883  1.00  0.00     0.094 A 
ATOM     10  C   UNL     1     115.458 -48.847  29.545  1.00  0.00     0.146 A 
ATOM     11  O   UNL     1     115.323 -48.019  30.574  1.00  0.00    -0.452 OA
ENDROOT
BRANCH   1  12
ATOM     12  C   UNL     1     116.061 -46.632  32.402  1.00  0.00     0.025 A 
ATOM     13  C   UNL     1     115.722 -47.188  33.646  1.00  0.00     0.016 A 
ATOM     14  C   UNL     1     115.467 -46.363  34.744  1.00  0.00     0.051 A 
ATOM     15  C   UNL     1     115.562 -44.973  34.622  1.00  0.00     0.157 A 
ATOM     16  C   UNL     1     116.177 -45.235  32.287  1.00  0.00     0.062 A 
ATOM     17  C   UNL     1     115.924 -44.405  33.389  1.00  0.00     0.158 A 
BRANCH  15  18
ATOM     18  O   UNL     1     115.300 -44.175  35.736  1.00  0.00    -0.504 OA
ATOM     19  H   UNL     1     114.838 -43.278  35.657  1.00  0.00     0.293 HD
ENDBRANCH  15  18
BRANCH  17  20
ATOM     20  O   UNL     1     116.035 -43.022  33.264  1.00  0.00    -0.504 OA
ATOM     21  H   UNL     1     116.752 -42.596  32.688  1.00  0.00     0.293 HD
ENDBRANCH  17  20
ENDBRANCH   1  12
BRANCH   2  22
ATOM     22  O   UNL     1     118.749 -47.258  31.523  1.00  0.00    -0.502 OA
ATOM     23  H   UNL     1     119.705 -47.541  31.347  1.00  0.00     0.293 HD
ENDBRANCH   2  22
BRANCH   6  24
ATOM     24  O   UNL     1     118.018 -50.796  27.609  1.00  0.00    -0.507 OA
ATOM     25  H   UNL     1     118.626 -51.358  28.185  1.00  0.00     0.293 HD
ENDBRANCH   6  24
BRANCH   8  26
ATOM     26  O   UNL     1     113.264 -50.567  27.113  1.00  0.00    -0.508 OA
ATOM     27  H   UNL     1     112.834 -49.997  26.394  1.00  0.00     0.293 HD
ENDBRANCH   8  26
TORSDOF 6
ENDMDL
MODEL 8
REMARK VINA RESULT:    -6.983      1.473      3.260
REMARK INTER + INTRA:          -8.704
REMARK INTER:                  -8.467
REMARK INTRA:                  -0.237
REMARK UNBOUND:                -0.292
REMARK SMILES O=c1c(O)c(-c2ccc(O)c(O)c2)oc2cc(O)cc(O)c12
REMARK SMILES IDX 5 1 3 2 2 3 1 4 22 5 20 6 19 7 17 8 16 9 15 10 14 11 6 12
REMARK SMILES IDX 7 13 8 14 9 15 13 16 11 17 10 18 12 20 4 22 21 24 18 26
REMARK H PARENT 10 19 12 21 4 23 21 25 18 27
REMARK Flexibility Score: inf
ROOT
ATOM      1  C   UNL     1     114.942 -48.990  30.538  1.00  0.00     0.180 A 
ATOM      2  C   UNL     1     113.780 -48.314  30.127  1.00  0.00     0.208 A 
ATOM      3  C   UNL     1     112.596 -48.487  30.862  1.00  0.00     0.238 A 
ATOM      4  O   UNL     1     111.573 -47.837  30.522  1.00  0.00    -0.285 OA
ATOM      5  C   UNL     1     112.585 -49.344  31.989  1.00  0.00     0.111 A 
ATOM      6  C   UNL     1     111.433 -49.625  32.782  1.00  0.00     0.134 A 
ATOM      7  C   UNL     1     111.567 -50.386  33.951  1.00  0.00     0.093 A 
ATOM      8  C   UNL     1     112.796 -50.930  34.317  1.00  0.00     0.123 A 
ATOM      9  C   UNL     1     113.918 -50.713  33.516  1.00  0.00     0.094 A 
ATOM     10  C   UNL     1     113.823 -49.927  32.365  1.00  0.00     0.146 A 
ATOM     11  O   UNL     1     114.916 -49.736  31.636  1.00  0.00    -0.452 OA
ENDROOT
BRANCH   1  12
ATOM     12  C   UNL     1     116.221 -48.878  29.799  1.00  0.00     0.025 A 
ATOM     13  C   UNL     1     116.975 -47.698  29.900  1.00  0.00     0.016 A 
ATOM     14  C   UNL     1     118.194 -47.578  29.229  1.00  0.00     0.051 A 
ATOM     15  C   UNL     1     118.686 -48.637  28.461  1.00  0.00     0.157 A 
ATOM     16  C   UNL     1     116.727 -49.950  29.044  1.00  0.00     0.062 A 
ATOM     17  C   UNL     1     117.953 -49.832  28.371  1.00  0.00     0.158 A 
BRANCH  15  18
ATOM     18  O   UNL     1     119.905 -48.488  27.800  1.00  0.00    -0.504 OA
ATOM     19  H   UNL     1     120.686 -49.112  27.964  1.00  0.00     0.293 HD
ENDBRANCH  15  18
BRANCH  17  20
ATOM     20  O   UNL     1     118.443 -50.898  27.618  1.00  0.00    -0.504 OA
ATOM     21  H   UNL     1     118.985 -50.748  26.775  1.00  0.00     0.293 HD
ENDBRANCH  17  20
ENDBRANCH   1  12
BRANCH   2  22
ATOM     22  O   UNL     1     113.819 -47.455  29.026  1.00  0.00    -0.502 OA
ATOM     23  H   UNL     1     113.161 -46.694  28.906  1.00  0.00     0.293 HD
ENDBRANCH   2  22
BRANCH   6  24
ATOM     24  O   UNL     1     110.140 -49.206  32.456  1.00  0.00    -0.507 OA
ATOM     25  H   UNL     1     109.795 -48.264  32.567  1.00  0.00     0.293 HD
ENDBRANCH   6  24
BRANCH   8  26
ATOM     26  O   UNL     1     112.890 -51.696  35.478  1.00  0.00    -0.508 OA
ATOM     27  H   UNL     1     112.081 -51.878  36.060  1.00  0.00     0.293 HD
ENDBRANCH   8  26
TORSDOF 6
ENDMDL
MODEL 9
REMARK VINA RESULT:    -6.884      1.876      2.337
REMARK INTER + INTRA:          -8.584
REMARK INTER:                  -8.870
REMARK INTRA:                   0.286
REMARK UNBOUND:                -0.292
REMARK SMILES O=c1c(O)c(-c2ccc(O)c(O)c2)oc2cc(O)cc(O)c12
REMARK SMILES IDX 5 1 3 2 2 3 1 4 22 5 20 6 19 7 17 8 16 9 15 10 14 11 6 12
REMARK SMILES IDX 7 13 8 14 9 15 13 16 11 17 10 18 12 20 4 22 21 24 18 26
REMARK H PARENT 10 19 12 21 4 23 21 25 18 27
REMARK Flexibility Score: inf
ROOT
ATOM      1  C   UNL     1     115.166 -48.581  30.581  1.00  0.00     0.180 A 
ATOM      2  C   UNL     1     114.120 -49.449  30.221  1.00  0.00     0.208 A 
ATOM      3  C   UNL     1     112.927 -49.420  30.960  1.00  0.00     0.238 A 
ATOM      4  O   UNL     1     111.974 -50.160  30.600  1.00  0.00    -0.285 OA
ATOM      5  C   UNL     1     112.799 -48.535  32.059  1.00  0.00     0.111 A 
ATOM      6  C   UNL     1     111.651 -48.450  32.901  1.00  0.00     0.134 A 
ATOM      7  C   UNL     1     111.584 -47.448  33.878  1.00  0.00     0.093 A 
ATOM      8  C   UNL     1     112.648 -46.572  34.085  1.00  0.00     0.123 A 
ATOM      9  C   UNL     1     113.801 -46.684  33.306  1.00  0.00     0.094 A 
ATOM     10  C   UNL     1     113.883 -47.650  32.300  1.00  0.00     0.146 A 
ATOM     11  O   UNL     1     114.992 -47.718  31.574  1.00  0.00    -0.452 OA
ENDROOT
BRANCH   1  12
ATOM     12  C   UNL     1     116.463 -48.572  29.865  1.00  0.00     0.025 A 
ATOM     13  C   UNL     1     116.947 -49.762  29.299  1.00  0.00     0.016 A 
ATOM     14  C   UNL     1     118.157 -49.772  28.602  1.00  0.00     0.051 A 
ATOM     15  C   UNL     1     118.894 -48.594  28.445  1.00  0.00     0.157 A 
ATOM     16  C   UNL     1     117.194 -47.384  29.689  1.00  0.00     0.062 A 
ATOM     17  C   UNL     1     118.408 -47.392  28.987  1.00  0.00     0.158 A 
BRANCH  15  18
ATOM     18  O   UNL     1     120.100 -48.636  27.746  1.00  0.00    -0.504 OA
ATOM     19  H   UNL     1     120.689 -47.819  27.641  1.00  0.00     0.293 HD
ENDBRANCH  15  18
BRANCH  17  20
ATOM     20  O   UNL     1     119.130 -46.211  28.823  1.00  0.00    -0.504 OA
ATOM     21  H   UNL     1     120.060 -46.208  28.420  1.00  0.00     0.293 HD
ENDBRANCH  17  20
ENDBRANCH   1  12
BRANCH   2  22
ATOM     22  O   UNL     1     114.259 -50.298  29.120  1.00  0.00    -0.502 OA
ATOM     23  H   UNL     1     115.162 -50.555  28.741  1.00  0.00     0.293 HD
ENDBRANCH   2  22
BRANCH   6  24
ATOM     24  O   UNL     1     110.571 -49.334  32.840  1.00  0.00    -0.507 OA
ATOM     25  H   UNL     1     109.627 -49.109  33.117  1.00  0.00     0.293 HD
ENDBRANCH   6  24
BRANCH   8  26
ATOM     26  O   UNL     1     112.553 -45.597  35.076  1.00  0.00    -0.508 OA
ATOM     27  H   UNL     1     113.360 -45.060  35.370  1.00  0.00     0.293 HD
ENDBRANCH   8  26
TORSDOF 6
ENDMDL
