MODEL 1
REMARK VINA RESULT:    -3.577      0.000      0.000
REMARK INTER + INTRA:          -9.599
REMARK INTER:                  -6.714
REMARK INTRA:                  -2.884
REMARK UNBOUND:                -2.884
REMARK SMILES CCCCCCCCC=CCCCCCCCC(=O)[O-]
REMARK SMILES IDX 10 1 9 2 11 3 12 4 13 5 14 6 15 7 16 8 17 9 18 10 19 11
REMARK SMILES IDX 20 12 8 13 7 14 6 15 5 16 4 17 3 18 2 19 1 20
REMARK H PARENT
REMARK Flexibility Score: inf
ROOT
ATOM      1  C   UNL     1      -2.825   6.854  39.748  1.00  0.00    -0.031 C 
ATOM      2  C   UNL     1      -2.398   7.826  40.576  1.00  0.00    -0.031 C 
ENDROOT
BRANCH   1   3
ATOM      3  C   UNL     1      -2.615   5.377  39.975  1.00  0.00     0.027 C 
BRANCH   3   4
ATOM      4  C   UNL     1      -1.466   4.822  39.122  1.00  0.00     0.004 C 
BRANCH   4   5
ATOM      5  C   UNL     1      -1.199   5.683  37.875  1.00  0.00     0.000 C 
BRANCH   5   6
ATOM      6  C   UNL     1      -1.039   4.843  36.598  1.00  0.00     0.000 C 
BRANCH   6   7
ATOM      7  C   UNL     1       0.431   4.704  36.163  1.00  0.00     0.000 C 
BRANCH   7   8
ATOM      8  C   UNL     1       1.095   6.061  35.880  1.00  0.00     0.006 C 
BRANCH   8   9
ATOM      9  C   UNL     1       2.291   6.337  36.799  1.00  0.00     0.053 C 
BRANCH   9  10
ATOM     10  C   UNL     1       3.380   5.340  36.553  1.00  0.00     0.041 C 
ATOM     11  O   UNL     1       3.753   5.082  35.378  1.00  0.00    -0.550 OA
ATOM     12  O   UNL     1       4.020   4.734  37.626  1.00  0.00    -0.550 OA
ENDBRANCH   9  10
ENDBRANCH   8   9
ENDBRANCH   7   8
ENDBRANCH   6   7
ENDBRANCH   5   6
ENDBRANCH   4   5
ENDBRANCH   3   4
ENDBRANCH   1   3
BRANCH   2  13
ATOM     13  C   UNL     1      -1.728   7.589  41.909  1.00  0.00     0.027 C 
BRANCH  13  14
ATOM     14  C   UNL     1      -0.270   8.074  41.914  1.00  0.00     0.004 C 
BRANCH  14  15
ATOM     15  C   UNL     1       0.630   7.212  41.013  1.00  0.00     0.000 C 
BRANCH  15  16
ATOM     16  C   UNL     1       1.322   8.031  39.911  1.00  0.00     0.000 C 
BRANCH  16  17
ATOM     17  C   UNL     1       1.096   9.545  40.074  1.00  0.00    -0.000 C 
BRANCH  17  18
ATOM     18  C   UNL     1       0.174  10.125  38.991  1.00  0.00    -0.000 C 
BRANCH  18  19
ATOM     19  C   UNL     1      -0.083   9.140  37.840  1.00  0.00    -0.003 C 
ATOM     20  C   UNL     1      -1.447   9.388  37.200  1.00  0.00     0.004 C 
ENDBRANCH  18  19
ENDBRANCH  17  18
ENDBRANCH  16  17
ENDBRANCH  15  16
ENDBRANCH  14  15
ENDBRANCH  13  14
ENDBRANCH   2  13
TORSDOF 15
ENDMDL
MODEL 2
REMARK VINA RESULT:    -3.533      1.337      3.153
REMARK INTER + INTRA:          -9.515
REMARK INTER:                  -6.361
REMARK INTRA:                  -3.154
REMARK UNBOUND:                -2.884
REMARK SMILES CCCCCCCCC=CCCCCCCCC(=O)[O-]
REMARK SMILES IDX 10 1 9 2 11 3 12 4 13 5 14 6 15 7 16 8 17 9 18 10 19 11
REMARK SMILES IDX 20 12 8 13 7 14 6 15 5 16 4 17 3 18 2 19 1 20
REMARK H PARENT
REMARK Flexibility Score: inf
ROOT
ATOM      1  C   UNL     1      -2.244   8.372  39.383  1.00  0.00    -0.031 C 
ATOM      2  C   UNL     1      -1.826   9.353  38.560  1.00  0.00    -0.031 C 
ENDROOT
BRANCH   1   3
ATOM      3  C   UNL     1      -2.051   6.897  39.129  1.00  0.00     0.027 C 
BRANCH   3   4
ATOM      4  C   UNL     1      -2.165   6.072  40.418  1.00  0.00     0.004 C 
BRANCH   4   5
ATOM      5  C   UNL     1      -1.266   4.824  40.392  1.00  0.00     0.000 C 
BRANCH   5   6
ATOM      6  C   UNL     1      -1.014   4.304  38.969  1.00  0.00     0.000 C 
BRANCH   6   7
ATOM      7  C   UNL     1       0.483   4.252  38.615  1.00  0.00     0.000 C 
BRANCH   7   8
ATOM      8  C   UNL     1       0.739   4.389  37.105  1.00  0.00     0.006 C 
BRANCH   8   9
ATOM      9  C   UNL     1       0.408   5.789  36.574  1.00  0.00     0.053 C 
BRANCH   9  10
ATOM     10  C   UNL     1       1.610   6.396  35.919  1.00  0.00     0.041 C 
ATOM     11  O   UNL     1       1.481   7.378  35.140  1.00  0.00    -0.550 OA
ATOM     12  O   UNL     1       2.878   5.912  36.210  1.00  0.00    -0.550 OA
ENDBRANCH   9  10
ENDBRANCH   8   9
ENDBRANCH   7   8
ENDBRANCH   6   7
ENDBRANCH   5   6
ENDBRANCH   4   5
ENDBRANCH   3   4
ENDBRANCH   1   3
BRANCH   2  13
ATOM     13  C   UNL     1      -1.015   9.138  37.305  1.00  0.00     0.027 C 
BRANCH  13  14
ATOM     14  C   UNL     1       0.266   9.986  37.294  1.00  0.00     0.004 C 
BRANCH  14  15
ATOM     15  C   UNL     1       1.034   9.893  38.624  1.00  0.00     0.000 C 
BRANCH  15  16
ATOM     16  C   UNL     1       1.687   8.517  38.833  1.00  0.00     0.000 C 
BRANCH  16  17
ATOM     17  C   UNL     1       1.408   7.941  40.233  1.00  0.00    -0.000 C 
BRANCH  17  18
ATOM     18  C   UNL     1       0.886   9.002  41.215  1.00  0.00    -0.000 C 
BRANCH  18  19
ATOM     19  C   UNL     1       0.018   8.402  42.331  1.00  0.00    -0.003 C 
ATOM     20  C   UNL     1       0.567   7.053  42.789  1.00  0.00     0.004 C 
ENDBRANCH  18  19
ENDBRANCH  17  18
ENDBRANCH  16  17
ENDBRANCH  15  16
ENDBRANCH  14  15
ENDBRANCH  13  14
ENDBRANCH   2  13
TORSDOF 15
ENDMDL
MODEL 3
REMARK VINA RESULT:    -3.505      1.868      2.318
REMARK INTER + INTRA:          -9.462
REMARK INTER:                  -6.642
REMARK INTRA:                  -2.820
REMARK UNBOUND:                -2.884
REMARK SMILES CCCCCCCCC=CCCCCCCCC(=O)[O-]
REMARK SMILES IDX 10 1 9 2 11 3 12 4 13 5 14 6 15 7 16 8 17 9 18 10 19 11
REMARK SMILES IDX 20 12 8 13 7 14 6 15 5 16 4 17 3 18 2 19 1 20
REMARK H PARENT
REMARK Flexibility Score: inf
ROOT
ATOM      1  C   UNL     1      -2.777   6.767  39.556  1.00  0.00    -0.031 C 
ATOM      2  C   UNL     1      -2.577   7.601  40.593  1.00  0.00    -0.031 C 
ENDROOT
BRANCH   1   3
ATOM      3  C   UNL     1      -2.225   5.365  39.461  1.00  0.00     0.027 C 
BRANCH   3   4
ATOM      4  C   UNL     1      -1.523   5.113  38.120  1.00  0.00     0.004 C 
BRANCH   4   5
ATOM      5  C   UNL     1      -0.283   4.214  38.271  1.00  0.00     0.000 C 
BRANCH   5   6
ATOM      6  C   UNL     1       0.509   4.072  36.963  1.00  0.00     0.000 C 
BRANCH   6   7
ATOM      7  C   UNL     1       0.201   5.200  35.961  1.00  0.00     0.000 C 
BRANCH   7   8
ATOM      8  C   UNL     1       1.454   6.000  35.567  1.00  0.00     0.006 C 
BRANCH   8   9
ATOM      9  C   UNL     1       1.638   6.100  34.048  1.00  0.00     0.053 C 
BRANCH   9  10
ATOM     10  C   UNL     1       1.555   7.528  33.606  1.00  0.00     0.041 C 
ATOM     11  O   UNL     1       1.279   8.435  34.435  1.00  0.00    -0.550 OA
ATOM     12  O   UNL     1       1.835   7.863  32.288  1.00  0.00    -0.550 OA
ENDBRANCH   9  10
ENDBRANCH   8   9
ENDBRANCH   7   8
ENDBRANCH   6   7
ENDBRANCH   5   6
ENDBRANCH   4   5
ENDBRANCH   3   4
ENDBRANCH   1   3
BRANCH   2  13
ATOM     13  C   UNL     1      -1.853   7.235  41.866  1.00  0.00     0.027 C 
BRANCH  13  14
ATOM     14  C   UNL     1      -0.623   8.124  42.105  1.00  0.00     0.004 C 
BRANCH  14  15
ATOM     15  C   UNL     1      -0.061   8.701  40.794  1.00  0.00     0.000 C 
BRANCH  15  16
ATOM     16  C   UNL     1       1.120   7.884  40.247  1.00  0.00     0.000 C 
BRANCH  16  17
ATOM     17  C   UNL     1       1.013   7.639  38.731  1.00  0.00    -0.000 C 
BRANCH  17  18
ATOM     18  C   UNL     1       0.588   8.897  37.958  1.00  0.00    -0.000 C 
BRANCH  18  19
ATOM     19  C   UNL     1      -0.732   8.709  37.196  1.00  0.00    -0.003 C 
ATOM     20  C   UNL     1      -1.759   9.761  37.607  1.00  0.00     0.004 C 
ENDBRANCH  18  19
ENDBRANCH  17  18
ENDBRANCH  16  17
ENDBRANCH  15  16
ENDBRANCH  14  15
ENDBRANCH  13  14
ENDBRANCH   2  13
TORSDOF 15
ENDMDL
MODEL 4
REMARK VINA RESULT:    -3.503      1.849      4.560
REMARK INTER + INTRA:          -9.458
REMARK INTER:                  -6.706
REMARK INTRA:                  -2.752
REMARK UNBOUND:                -2.884
REMARK SMILES CCCCCCCCC=CCCCCCCCC(=O)[O-]
REMARK SMILES IDX 10 1 9 2 11 3 12 4 13 5 14 6 15 7 16 8 17 9 18 10 19 11
REMARK SMILES IDX 20 12 8 13 7 14 6 15 5 16 4 17 3 18 2 19 1 20
REMARK H PARENT
REMARK Flexibility Score: inf
ROOT
ATOM      1  C   UNL     1       0.432   9.021  36.092  1.00  0.00    -0.031 C 
ATOM      2  C   UNL     1      -0.885   8.994  36.370  1.00  0.00    -0.031 C 
ENDROOT
BRANCH   1   3
ATOM      3  C   UNL     1       1.376  10.124  36.506  1.00  0.00     0.027 C 
BRANCH   3   4
ATOM      4  C   UNL     1       2.158   9.765  37.776  1.00  0.00     0.004 C 
BRANCH   4   5
ATOM      5  C   UNL     1       2.444   8.256  37.877  1.00  0.00     0.000 C 
BRANCH   5   6
ATOM      6  C   UNL     1       2.017   7.662  39.228  1.00  0.00     0.000 C 
BRANCH   6   7
ATOM      7  C   UNL     1       1.225   6.351  39.073  1.00  0.00     0.000 C 
BRANCH   7   8
ATOM      8  C   UNL     1       1.468   5.670  37.716  1.00  0.00     0.006 C 
BRANCH   8   9
ATOM      9  C   UNL     1       0.184   5.096  37.104  1.00  0.00     0.053 C 
BRANCH   9  10
ATOM     10  C   UNL     1       0.334   4.945  35.622  1.00  0.00     0.041 C 
ATOM     11  O   UNL     1      -0.384   4.124  34.992  1.00  0.00    -0.550 OA
ATOM     12  O   UNL     1       1.228   5.750  34.930  1.00  0.00    -0.550 OA
ENDBRANCH   9  10
ENDBRANCH   8   9
ENDBRANCH   7   8
ENDBRANCH   6   7
ENDBRANCH   5   6
ENDBRANCH   4   5
ENDBRANCH   3   4
ENDBRANCH   1   3
BRANCH   2  13
ATOM     13  C   UNL     1      -1.607  10.011  37.220  1.00  0.00     0.027 C 
BRANCH  13  14
ATOM     14  C   UNL     1      -1.563   9.650  38.713  1.00  0.00     0.004 C 
BRANCH  14  15
ATOM     15  C   UNL     1      -1.741   8.140  38.949  1.00  0.00     0.000 C 
BRANCH  15  16
ATOM     16  C   UNL     1      -2.664   7.831  40.139  1.00  0.00     0.000 C 
BRANCH  16  17
ATOM     17  C   UNL     1      -1.977   6.959  41.204  1.00  0.00    -0.000 C 
BRANCH  17  18
ATOM     18  C   UNL     1      -1.750   7.710  42.526  1.00  0.00    -0.000 C 
BRANCH  18  19
ATOM     19  C   UNL     1      -0.273   7.739  42.946  1.00  0.00    -0.003 C 
ATOM     20  C   UNL     1       0.479   8.860  42.233  1.00  0.00     0.004 C 
ENDBRANCH  18  19
ENDBRANCH  17  18
ENDBRANCH  16  17
ENDBRANCH  15  16
ENDBRANCH  14  15
ENDBRANCH  13  14
ENDBRANCH   2  13
TORSDOF 15
ENDMDL
MODEL 5
REMARK VINA RESULT:    -3.486      2.856      5.899
REMARK INTER + INTRA:          -9.428
REMARK INTER:                  -7.241
REMARK INTRA:                  -2.186
REMARK UNBOUND:                -2.884
REMARK SMILES CCCCCCCCC=CCCCCCCCC(=O)[O-]
REMARK SMILES IDX 10 1 9 2 11 3 12 4 13 5 14 6 15 7 16 8 17 9 18 10 19 11
REMARK SMILES IDX 20 12 8 13 7 14 6 15 5 16 4 17 3 18 2 19 1 20
REMARK H PARENT
REMARK Flexibility Score: inf
ROOT
ATOM      1  C   UNL     1      -2.389   7.729  40.169  1.00  0.00    -0.031 C 
ATOM      2  C   UNL     1      -2.707   6.759  39.291  1.00  0.00    -0.031 C 
ENDROOT
BRANCH   1   3
ATOM      3  C   UNL     1      -2.319   7.546  41.665  1.00  0.00     0.027 C 
BRANCH   3   4
ATOM      4  C   UNL     1      -0.953   7.955  42.232  1.00  0.00     0.004 C 
BRANCH   4   5
ATOM      5  C   UNL     1       0.151   6.943  41.877  1.00  0.00     0.000 C 
BRANCH   5   6
ATOM      6  C   UNL     1       1.079   7.446  40.761  1.00  0.00     0.000 C 
BRANCH   6   7
ATOM      7  C   UNL     1       1.135   8.983  40.688  1.00  0.00     0.000 C 
BRANCH   7   8
ATOM      8  C   UNL     1       1.659   9.492  39.335  1.00  0.00     0.006 C 
BRANCH   8   9
ATOM      9  C   UNL     1       0.560  10.125  38.474  1.00  0.00     0.053 C 
BRANCH   9  10
ATOM     10  C   UNL     1       0.310   9.295  37.253  1.00  0.00     0.041 C 
ATOM     11  O   UNL     1       0.385   9.812  36.107  1.00  0.00    -0.550 OA
ATOM     12  O   UNL     1       0.048   7.937  37.379  1.00  0.00    -0.550 OA
ENDBRANCH   9  10
ENDBRANCH   8   9
ENDBRANCH   7   8
ENDBRANCH   6   7
ENDBRANCH   5   6
ENDBRANCH   4   5
ENDBRANCH   3   4
ENDBRANCH   1   3
BRANCH   2  13
ATOM     13  C   UNL     1      -2.950   5.314  39.655  1.00  0.00     0.027 C 
BRANCH  13  14
ATOM     14  C   UNL     1      -1.642   4.511  39.730  1.00  0.00     0.004 C 
BRANCH  14  15
ATOM     15  C   UNL     1      -1.697   3.413  40.805  1.00  0.00     0.000 C 
BRANCH  15  16
ATOM     16  C   UNL     1      -2.126   3.952  42.180  1.00  0.00     0.000 C 
BRANCH  16  17
ATOM     17  C   UNL     1      -3.423   3.299  42.688  1.00  0.00    -0.000 C 
BRANCH  17  18
ATOM     18  C   UNL     1      -4.043   2.339  41.661  1.00  0.00    -0.000 C 
BRANCH  18  19
ATOM     19  C   UNL     1      -5.541   2.098  41.902  1.00  0.00    -0.003 C 
ATOM     20  C   UNL     1      -5.935   0.672  41.525  1.00  0.00     0.004 C 
ENDBRANCH  18  19
ENDBRANCH  17  18
ENDBRANCH  16  17
ENDBRANCH  15  16
ENDBRANCH  14  15
ENDBRANCH  13  14
ENDBRANCH   2  13
TORSDOF 15
ENDMDL
MODEL 6
REMARK VINA RESULT:    -3.434      1.398      3.773
REMARK INTER + INTRA:          -9.329
REMARK INTER:                  -6.586
REMARK INTRA:                  -2.743
REMARK UNBOUND:                -2.884
REMARK SMILES CCCCCCCCC=CCCCCCCCC(=O)[O-]
REMARK SMILES IDX 10 1 9 2 11 3 12 4 13 5 14 6 15 7 16 8 17 9 18 10 19 11
REMARK SMILES IDX 20 12 8 13 7 14 6 15 5 16 4 17 3 18 2 19 1 20
REMARK H PARENT
REMARK Flexibility Score: inf
ROOT
ATOM      1  C   UNL     1      -0.034   9.003  39.428  1.00  0.00    -0.031 C 
ATOM      2  C   UNL     1       0.431   8.597  40.624  1.00  0.00    -0.031 C 
ENDROOT
BRANCH   1   3
ATOM      3  C   UNL     1      -1.494   9.081  39.053  1.00  0.00     0.027 C 
BRANCH   3   4
ATOM      4  C   UNL     1      -1.722   9.941  37.802  1.00  0.00     0.004 C 
BRANCH   4   5
ATOM      5  C   UNL     1      -1.377   9.187  36.506  1.00  0.00     0.000 C 
BRANCH   5   6
ATOM      6  C   UNL     1      -0.379   9.953  35.624  1.00  0.00     0.000 C 
BRANCH   6   7
ATOM      7  C   UNL     1       0.860   9.111  35.266  1.00  0.00     0.000 C 
BRANCH   7   8
ATOM      8  C   UNL     1       0.956   7.818  36.092  1.00  0.00     0.006 C 
BRANCH   8   9
ATOM      9  C   UNL     1       1.467   6.628  35.271  1.00  0.00     0.053 C 
BRANCH   9  10
ATOM     10  C   UNL     1       2.540   5.900  36.019  1.00  0.00     0.041 C 
ATOM     11  O   UNL     1       2.887   6.285  37.167  1.00  0.00    -0.550 OA
ATOM     12  O   UNL     1       3.119   4.764  35.470  1.00  0.00    -0.550 OA
ENDBRANCH   9  10
ENDBRANCH   8   9
ENDBRANCH   7   8
ENDBRANCH   6   7
ENDBRANCH   5   6
ENDBRANCH   4   5
ENDBRANCH   3   4
ENDBRANCH   1   3
BRANCH   2  13
ATOM     13  C   UNL     1      -0.435   8.249  41.811  1.00  0.00     0.027 C 
BRANCH  13  14
ATOM     14  C   UNL     1      -0.653   6.733  41.939  1.00  0.00     0.004 C 
BRANCH  14  15
ATOM     15  C   UNL     1      -2.125   6.339  41.726  1.00  0.00     0.000 C 
BRANCH  15  16
ATOM     16  C   UNL     1      -2.295   5.226  40.680  1.00  0.00     0.000 C 
BRANCH  16  17
ATOM     17  C   UNL     1      -2.917   5.740  39.370  1.00  0.00    -0.000 C 
BRANCH  17  18
ATOM     18  C   UNL     1      -2.031   5.462  38.146  1.00  0.00    -0.000 C 
BRANCH  18  19
ATOM     19  C   UNL     1      -0.540   5.362  38.502  1.00  0.00    -0.003 C 
ATOM     20  C   UNL     1       0.053   4.041  38.018  1.00  0.00     0.004 C 
ENDBRANCH  18  19
ENDBRANCH  17  18
ENDBRANCH  16  17
ENDBRANCH  15  16
ENDBRANCH  14  15
ENDBRANCH  13  14
ENDBRANCH   2  13
TORSDOF 15
ENDMDL
MODEL 7
REMARK VINA RESULT:    -3.404      1.557      3.991
REMARK INTER + INTRA:          -9.274
REMARK INTER:                  -6.222
REMARK INTRA:                  -3.052
REMARK UNBOUND:                -2.884
REMARK SMILES CCCCCCCCC=CCCCCCCCC(=O)[O-]
REMARK SMILES IDX 10 1 9 2 11 3 12 4 13 5 14 6 15 7 16 8 17 9 18 10 19 11
REMARK SMILES IDX 20 12 8 13 7 14 6 15 5 16 4 17 3 18 2 19 1 20
REMARK H PARENT
REMARK Flexibility Score: inf
ROOT
ATOM      1  C   UNL     1       1.222  10.125  39.298  1.00  0.00    -0.031 C 
ATOM      2  C   UNL     1       0.609   9.304  40.171  1.00  0.00    -0.031 C 
ENDROOT
BRANCH   1   3
ATOM      3  C   UNL     1       2.494   9.795  38.555  1.00  0.00     0.027 C 
BRANCH   3   4
ATOM      4  C   UNL     1       2.291   9.806  37.034  1.00  0.00     0.004 C 
BRANCH   4   5
ATOM      5  C   UNL     1       0.818  10.023  36.645  1.00  0.00     0.000 C 
BRANCH   5   6
ATOM      6  C   UNL     1       0.185   8.777  36.008  1.00  0.00     0.000 C 
BRANCH   6   7
ATOM      7  C   UNL     1      -0.666   7.970  37.007  1.00  0.00     0.000 C 
BRANCH   7   8
ATOM      8  C   UNL     1      -0.173   6.524  37.171  1.00  0.00     0.006 C 
BRANCH   8   9
ATOM      9  C   UNL     1       1.337   6.384  36.945  1.00  0.00     0.053 C 
BRANCH   9  10
ATOM     10  C   UNL     1       1.821   5.060  37.449  1.00  0.00     0.041 C 
ATOM     11  O   UNL     1       1.408   3.992  36.926  1.00  0.00    -0.550 OA
ATOM     12  O   UNL     1       2.769   5.008  38.462  1.00  0.00    -0.550 OA
ENDBRANCH   9  10
ENDBRANCH   8   9
ENDBRANCH   7   8
ENDBRANCH   6   7
ENDBRANCH   5   6
ENDBRANCH   4   5
ENDBRANCH   3   4
ENDBRANCH   1   3
BRANCH   2  13
ATOM     13  C   UNL     1       1.041   7.888  40.472  1.00  0.00     0.027 C 
BRANCH  13  14
ATOM     14  C   UNL     1       0.835   7.525  41.951  1.00  0.00     0.004 C 
BRANCH  14  15
ATOM     15  C   UNL     1       0.170   6.149  42.122  1.00  0.00     0.000 C 
BRANCH  15  16
ATOM     16  C   UNL     1       0.435   5.212  40.932  1.00  0.00     0.000 C 
BRANCH  16  17
ATOM     17  C   UNL     1      -0.862   4.635  40.338  1.00  0.00    -0.000 C 
BRANCH  17  18
ATOM     18  C   UNL     1      -2.118   5.360  40.847  1.00  0.00    -0.000 C 
BRANCH  18  19
ATOM     19  C   UNL     1      -2.752   6.268  39.783  1.00  0.00    -0.003 C 
ATOM     20  C   UNL     1      -2.684   7.735  40.201  1.00  0.00     0.004 C 
ENDBRANCH  18  19
ENDBRANCH  17  18
ENDBRANCH  16  17
ENDBRANCH  15  16
ENDBRANCH  14  15
ENDBRANCH  13  14
ENDBRANCH   2  13
TORSDOF 15
ENDMDL
MODEL 8
REMARK VINA RESULT:    -3.379      2.078      3.931
REMARK INTER + INTRA:          -9.227
REMARK INTER:                  -6.325
REMARK INTRA:                  -2.902
REMARK UNBOUND:                -2.884
REMARK SMILES CCCCCCCCC=CCCCCCCCC(=O)[O-]
REMARK SMILES IDX 10 1 9 2 11 3 12 4 13 5 14 6 15 7 16 8 17 9 18 10 19 11
REMARK SMILES IDX 20 12 8 13 7 14 6 15 5 16 4 17 3 18 2 19 1 20
REMARK H PARENT
REMARK Flexibility Score: inf
ROOT
ATOM      1  C   UNL     1      -1.463   8.203  38.613  1.00  0.00    -0.031 C 
ATOM      2  C   UNL     1      -2.259   7.454  39.400  1.00  0.00    -0.031 C 
ENDROOT
BRANCH   1   3
ATOM      3  C   UNL     1      -0.884   9.542  39.002  1.00  0.00     0.027 C 
BRANCH   3   4
ATOM      4  C   UNL     1       0.516   9.406  39.614  1.00  0.00     0.004 C 
BRANCH   4   5
ATOM      5  C   UNL     1       1.560   8.941  38.584  1.00  0.00     0.000 C 
BRANCH   5   6
ATOM      6  C   UNL     1       2.009  10.070  37.645  1.00  0.00     0.000 C 
BRANCH   6   7
ATOM      7  C   UNL     1       1.883   9.688  36.159  1.00  0.00     0.000 C 
BRANCH   7   8
ATOM      8  C   UNL     1       1.028   8.429  35.942  1.00  0.00     0.006 C 
BRANCH   8   9
ATOM      9  C   UNL     1       1.840   7.249  35.394  1.00  0.00     0.053 C 
BRANCH   9  10
ATOM     10  C   UNL     1       1.554   7.049  33.938  1.00  0.00     0.041 C 
ATOM     11  O   UNL     1       1.702   8.000  33.126  1.00  0.00    -0.550 OA
ATOM     12  O   UNL     1       1.176   5.798  33.472  1.00  0.00    -0.550 OA
ENDBRANCH   9  10
ENDBRANCH   8   9
ENDBRANCH   7   8
ENDBRANCH   6   7
ENDBRANCH   5   6
ENDBRANCH   4   5
ENDBRANCH   3   4
ENDBRANCH   1   3
BRANCH   2  13
ATOM     13  C   UNL     1      -2.619   7.787  40.828  1.00  0.00     0.027 C 
BRANCH  13  14
ATOM     14  C   UNL     1      -1.906   6.867  41.831  1.00  0.00     0.004 C 
BRANCH  14  15
ATOM     15  C   UNL     1      -0.653   7.527  42.433  1.00  0.00     0.000 C 
BRANCH  15  16
ATOM     16  C   UNL     1       0.632   6.740  42.129  1.00  0.00     0.000 C 
BRANCH  16  17
ATOM     17  C   UNL     1       0.380   5.534  41.208  1.00  0.00    -0.000 C 
BRANCH  17  18
ATOM     18  C   UNL     1       1.316   5.516  39.989  1.00  0.00    -0.000 C 
BRANCH  18  19
ATOM     19  C   UNL     1       0.573   5.238  38.674  1.00  0.00    -0.003 C 
ATOM     20  C   UNL     1      -0.409   4.080  38.832  1.00  0.00     0.004 C 
ENDBRANCH  18  19
ENDBRANCH  17  18
ENDBRANCH  16  17
ENDBRANCH  15  16
ENDBRANCH  14  15
ENDBRANCH  13  14
ENDBRANCH   2  13
TORSDOF 15
ENDMDL
MODEL 9
REMARK VINA RESULT:    -3.374      2.099      4.051
REMARK INTER + INTRA:          -9.216
REMARK INTER:                  -6.935
REMARK INTRA:                  -2.281
REMARK UNBOUND:                -2.884
REMARK SMILES CCCCCCCCC=CCCCCCCCC(=O)[O-]
REMARK SMILES IDX 10 1 9 2 11 3 12 4 13 5 14 6 15 7 16 8 17 9 18 10 19 11
REMARK SMILES IDX 20 12 8 13 7 14 6 15 5 16 4 17 3 18 2 19 1 20
REMARK H PARENT
REMARK Flexibility Score: inf
ROOT
ATOM      1  C   UNL     1      -2.353   7.616  40.571  1.00  0.00    -0.031 C 
ATOM      2  C   UNL     1      -2.249   8.227  39.375  1.00  0.00    -0.031 C 
ENDROOT
BRANCH   1   3
ATOM      3  C   UNL     1      -1.398   7.814  41.723  1.00  0.00     0.027 C 
BRANCH   3   4
ATOM      4  C   UNL     1      -1.556   6.725  42.793  1.00  0.00     0.004 C 
BRANCH   4   5
ATOM      5  C   UNL     1      -2.251   5.466  42.245  1.00  0.00     0.000 C 
BRANCH   5   6
ATOM      6  C   UNL     1      -1.258   4.348  41.895  1.00  0.00     0.000 C 
BRANCH   6   7
ATOM      7  C   UNL     1      -1.460   3.804  40.469  1.00  0.00     0.000 C 
BRANCH   7   8
ATOM      8  C   UNL     1      -0.641   4.573  39.420  1.00  0.00     0.006 C 
BRANCH   8   9
ATOM      9  C   UNL     1      -1.419   4.815  38.122  1.00  0.00     0.053 C 
BRANCH   9  10
ATOM     10  C   UNL     1      -0.793   4.062  36.989  1.00  0.00     0.041 C 
ATOM     11  O   UNL     1      -1.489   3.704  36.003  1.00  0.00    -0.550 OA
ATOM     12  O   UNL     1       0.571   3.803  36.999  1.00  0.00    -0.550 OA
ENDBRANCH   9  10
ENDBRANCH   8   9
ENDBRANCH   7   8
ENDBRANCH   6   7
ENDBRANCH   5   6
ENDBRANCH   4   5
ENDBRANCH   3   4
ENDBRANCH   1   3
BRANCH   2  13
ATOM     13  C   UNL     1      -1.220   9.277  39.031  1.00  0.00     0.027 C 
BRANCH  13  14
ATOM     14  C   UNL     1      -1.645  10.125  37.822  1.00  0.00     0.004 C 
BRANCH  14  15
ATOM     15  C   UNL     1      -1.198   9.499  36.490  1.00  0.00     0.000 C 
BRANCH  15  16
ATOM     16  C   UNL     1       0.166  10.027  36.017  1.00  0.00     0.000 C 
BRANCH  16  17
ATOM     17  C   UNL     1       1.311   9.039  36.304  1.00  0.00    -0.000 C 
BRANCH  17  18
ATOM     18  C   UNL     1       2.284   9.558  37.374  1.00  0.00    -0.000 C 
BRANCH  18  19
ATOM     19  C   UNL     1       2.300   8.685  38.637  1.00  0.00    -0.003 C 
ATOM     20  C   UNL     1       1.760   7.287  38.345  1.00  0.00     0.004 C 
ENDBRANCH  18  19
ENDBRANCH  17  18
ENDBRANCH  16  17
ENDBRANCH  15  16
ENDBRANCH  14  15
ENDBRANCH  13  14
ENDBRANCH   2  13
TORSDOF 15
ENDMDL
