MODEL 1
REMARK VINA RESULT:    -8.095      0.000      0.000
REMARK INTER + INTRA:         -10.034
REMARK INTER:                  -9.752
REMARK INTRA:                  -0.282
REMARK UNBOUND:                -0.282
REMARK SMILES O=c1c(O)c(-c2ccc(O)c(O)c2)oc2cc(O)cc(O)c12
REMARK SMILES IDX 5 1 3 2 2 3 1 4 22 5 20 6 19 7 17 8 16 9 15 10 14 11 6 12
REMARK SMILES IDX 7 13 8 14 9 15 13 16 11 17 10 18 12 20 4 22 21 24 18 26
REMARK H PARENT 10 19 12 21 4 23 21 25 18 27
REMARK Flexibility Score: inf
ROOT
ATOM      1  C   UNL     1      30.537  21.260  23.246  1.00  0.00     0.180 A 
ATOM      2  C   UNL     1      31.268  20.276  23.935  1.00  0.00     0.208 A 
ATOM      3  C   UNL     1      31.025  20.080  25.304  1.00  0.00     0.238 A 
ATOM      4  O   UNL     1      31.734  19.250  25.929  1.00  0.00    -0.285 OA
ATOM      5  C   UNL     1      30.015  20.829  25.955  1.00  0.00     0.111 A 
ATOM      6  C   UNL     1      29.653  20.682  27.329  1.00  0.00     0.134 A 
ATOM      7  C   UNL     1      28.711  21.554  27.891  1.00  0.00     0.093 A 
ATOM      8  C   UNL     1      28.073  22.524  27.115  1.00  0.00     0.123 A 
ATOM      9  C   UNL     1      28.380  22.639  25.763  1.00  0.00     0.094 A 
ATOM     10  C   UNL     1      29.343  21.810  25.180  1.00  0.00     0.146 A 
ATOM     11  O   UNL     1      29.620  21.970  23.892  1.00  0.00    -0.452 OA
ENDROOT
BRANCH   1  12
ATOM     12  C   UNL     1      30.747  21.535  21.807  1.00  0.00     0.025 A 
ATOM     13  C   UNL     1      29.777  21.125  20.878  1.00  0.00     0.016 A 
ATOM     14  C   UNL     1      29.945  21.393  19.517  1.00  0.00     0.051 A 
ATOM     15  C   UNL     1      31.075  22.087  19.068  1.00  0.00     0.157 A 
ATOM     16  C   UNL     1      31.870  22.250  21.354  1.00  0.00     0.062 A 
ATOM     17  C   UNL     1      32.037  22.521  19.988  1.00  0.00     0.158 A 
BRANCH  15  18
ATOM     18  O   UNL     1      31.246  22.355  17.711  1.00  0.00    -0.504 OA
ATOM     19  H   UNL     1      31.682  23.212  17.390  1.00  0.00     0.293 HD
ENDBRANCH  15  18
BRANCH  17  20
ATOM     20  O   UNL     1      33.153  23.224  19.540  1.00  0.00    -0.504 OA
ATOM     21  H   UNL     1      34.083  23.024  19.891  1.00  0.00     0.293 HD
ENDBRANCH  17  20
ENDBRANCH   1  12
BRANCH   2  22
ATOM     22  O   UNL     1      32.206  19.493  23.256  1.00  0.00    -0.502 OA
ATOM     23  H   UNL     1      32.435  18.549  23.543  1.00  0.00     0.293 HD
ENDBRANCH   2  22
BRANCH   6  24
ATOM     24  O   UNL     1      30.162  19.689  28.171  1.00  0.00    -0.507 OA
ATOM     25  H   UNL     1      31.040  19.214  28.038  1.00  0.00     0.293 HD
ENDBRANCH   6  24
BRANCH   8  26
ATOM     26  O   UNL     1      27.125  23.375  27.680  1.00  0.00    -0.508 OA
ATOM     27  H   UNL     1      26.960  24.304  27.311  1.00  0.00     0.293 HD
ENDBRANCH   8  26
TORSDOF 6
ENDMDL
MODEL 2
REMARK VINA RESULT:    -8.049      1.181      2.871
REMARK INTER + INTRA:          -9.978
REMARK INTER:                  -9.678
REMARK INTRA:                  -0.300
REMARK UNBOUND:                -0.282
REMARK SMILES O=c1c(O)c(-c2ccc(O)c(O)c2)oc2cc(O)cc(O)c12
REMARK SMILES IDX 5 1 3 2 2 3 1 4 22 5 20 6 19 7 17 8 16 9 15 10 14 11 6 12
REMARK SMILES IDX 7 13 8 14 9 15 13 16 11 17 10 18 12 20 4 22 21 24 18 26
REMARK H PARENT 10 19 12 21 4 23 21 25 18 27
REMARK Flexibility Score: inf
ROOT
ATOM      1  C   UNL     1      30.086  22.148  23.184  1.00  0.00     0.180 A 
ATOM      2  C   UNL     1      29.287  23.170  23.728  1.00  0.00     0.208 A 
ATOM      3  C   UNL     1      28.995  23.147  25.102  1.00  0.00     0.238 A 
ATOM      4  O   UNL     1      28.219  24.022  25.567  1.00  0.00    -0.285 OA
ATOM      5  C   UNL     1      29.551  22.138  25.924  1.00  0.00     0.111 A 
ATOM      6  C   UNL     1      29.358  22.043  27.337  1.00  0.00     0.134 A 
ATOM      7  C   UNL     1      29.870  20.939  28.030  1.00  0.00     0.093 A 
ATOM      8  C   UNL     1      30.621  19.961  27.375  1.00  0.00     0.123 A 
ATOM      9  C   UNL     1      30.860  20.073  26.009  1.00  0.00     0.094 A 
ATOM     10  C   UNL     1      30.330  21.141  25.281  1.00  0.00     0.146 A 
ATOM     11  O   UNL     1      30.565  21.196  23.976  1.00  0.00    -0.452 OA
ENDROOT
BRANCH   1  12
ATOM     12  C   UNL     1      30.425  22.095  21.745  1.00  0.00     0.025 A 
ATOM     13  C   UNL     1      29.490  21.577  20.835  1.00  0.00     0.016 A 
ATOM     14  C   UNL     1      29.780  21.536  19.468  1.00  0.00     0.051 A 
ATOM     15  C   UNL     1      31.001  22.028  18.991  1.00  0.00     0.157 A 
ATOM     16  C   UNL     1      31.642  22.606  21.258  1.00  0.00     0.062 A 
ATOM     17  C   UNL     1      31.932  22.568  19.886  1.00  0.00     0.158 A 
BRANCH  15  18
ATOM     18  O   UNL     1      31.294  21.987  17.629  1.00  0.00    -0.504 OA
ATOM     19  H   UNL     1      30.565  22.045  16.928  1.00  0.00     0.293 HD
ENDBRANCH  15  18
BRANCH  17  20
ATOM     20  O   UNL     1      33.140  23.069  19.407  1.00  0.00    -0.504 OA
ATOM     21  H   UNL     1      33.926  23.241  20.024  1.00  0.00     0.293 HD
ENDBRANCH  17  20
ENDBRANCH   1  12
BRANCH   2  22
ATOM     22  O   UNL     1      28.812  24.200  22.913  1.00  0.00    -0.502 OA
ATOM     23  H   UNL     1      28.579  25.117  23.276  1.00  0.00     0.293 HD
ENDBRANCH   2  22
BRANCH   6  24
ATOM     24  O   UNL     1      28.701  23.010  28.104  1.00  0.00    -0.507 OA
ATOM     25  H   UNL     1      28.754  24.005  27.948  1.00  0.00     0.293 HD
ENDBRANCH   6  24
BRANCH   8  26
ATOM     26  O   UNL     1      31.140  18.875  28.078  1.00  0.00    -0.508 OA
ATOM     27  H   UNL     1      31.776  18.217  27.642  1.00  0.00     0.293 HD
ENDBRANCH   8  26
TORSDOF 6
ENDMDL
MODEL 3
REMARK VINA RESULT:    -8.047      2.354      7.624
REMARK INTER + INTRA:          -9.976
REMARK INTER:                  -9.748
REMARK INTRA:                  -0.228
REMARK UNBOUND:                -0.282
REMARK SMILES O=c1c(O)c(-c2ccc(O)c(O)c2)oc2cc(O)cc(O)c12
REMARK SMILES IDX 5 1 3 2 2 3 1 4 22 5 20 6 19 7 17 8 16 9 15 10 14 11 6 12
REMARK SMILES IDX 7 13 8 14 9 15 13 16 11 17 10 18 12 20 4 22 21 24 18 26
REMARK H PARENT 10 19 12 21 4 23 21 25 18 27
REMARK Flexibility Score: inf
ROOT
ATOM      1  C   UNL     1      30.064  22.359  26.448  1.00  0.00     0.180 A 
ATOM      2  C   UNL     1      29.096  23.036  25.684  1.00  0.00     0.208 A 
ATOM      3  C   UNL     1      29.334  23.247  24.316  1.00  0.00     0.238 A 
ATOM      4  O   UNL     1      28.499  23.917  23.655  1.00  0.00    -0.285 OA
ATOM      5  C   UNL     1      30.508  22.731  23.716  1.00  0.00     0.111 A 
ATOM      6  C   UNL     1      30.830  22.846  22.330  1.00  0.00     0.134 A 
ATOM      7  C   UNL     1      32.072  22.389  21.870  1.00  0.00     0.093 A 
ATOM      8  C   UNL     1      32.975  21.764  22.732  1.00  0.00     0.123 A 
ATOM      9  C   UNL     1      32.646  21.598  24.074  1.00  0.00     0.094 A 
ATOM     10  C   UNL     1      31.433  22.077  24.573  1.00  0.00     0.146 A 
ATOM     11  O   UNL     1      31.171  21.916  25.864  1.00  0.00    -0.452 OA
ENDROOT
BRANCH   1  12
ATOM     12  C   UNL     1      29.892  22.112  27.897  1.00  0.00     0.025 A 
ATOM     13  C   UNL     1      28.972  21.143  28.327  1.00  0.00     0.016 A 
ATOM     14  C   UNL     1      28.809  20.878  29.689  1.00  0.00     0.051 A 
ATOM     15  C   UNL     1      29.573  21.566  30.639  1.00  0.00     0.157 A 
ATOM     16  C   UNL     1      30.673  22.787  28.853  1.00  0.00     0.062 A 
ATOM     17  C   UNL     1      30.510  22.519  30.221  1.00  0.00     0.158 A 
BRANCH  15  18
ATOM     18  O   UNL     1      29.412  21.307  31.999  1.00  0.00    -0.504 OA
ATOM     19  H   UNL     1      28.639  20.749  32.343  1.00  0.00     0.293 HD
ENDBRANCH  15  18
BRANCH  17  20
ATOM     20  O   UNL     1      31.280  23.193  31.167  1.00  0.00    -0.504 OA
ATOM     21  H   UNL     1      31.374  24.202  31.154  1.00  0.00     0.293 HD
ENDBRANCH  17  20
ENDBRANCH   1  12
BRANCH   2  22
ATOM     22  O   UNL     1      27.909  23.470  26.278  1.00  0.00    -0.502 OA
ATOM     23  H   UNL     1      27.286  24.131  25.829  1.00  0.00     0.293 HD
ENDBRANCH   2  22
BRANCH   6  24
ATOM     24  O   UNL     1      29.965  23.372  21.366  1.00  0.00    -0.507 OA
ATOM     25  H   UNL     1      29.546  22.845  20.616  1.00  0.00     0.293 HD
ENDBRANCH   6  24
BRANCH   8  26
ATOM     26  O   UNL     1      34.201  21.297  22.261  1.00  0.00    -0.508 OA
ATOM     27  H   UNL     1      34.603  20.430  22.598  1.00  0.00     0.293 HD
ENDBRANCH   8  26
TORSDOF 6
ENDMDL
MODEL 4
REMARK VINA RESULT:    -7.918      3.837      4.915
REMARK INTER + INTRA:          -9.821
REMARK INTER:                  -9.488
REMARK INTRA:                  -0.333
REMARK UNBOUND:                -0.282
REMARK SMILES O=c1c(O)c(-c2ccc(O)c(O)c2)oc2cc(O)cc(O)c12
REMARK SMILES IDX 5 1 3 2 2 3 1 4 22 5 20 6 19 7 17 8 16 9 15 10 14 11 6 12
REMARK SMILES IDX 7 13 8 14 9 15 13 16 11 17 10 18 12 20 4 22 21 24 18 26
REMARK H PARENT 10 19 12 21 4 23 21 25 18 27
REMARK Flexibility Score: inf
ROOT
ATOM      1  C   UNL     1      28.657  22.077  26.842  1.00  0.00     0.180 A 
ATOM      2  C   UNL     1      29.968  22.536  27.055  1.00  0.00     0.208 A 
ATOM      3  C   UNL     1      30.460  22.607  28.369  1.00  0.00     0.238 A 
ATOM      4  O   UNL     1      31.607  23.088  28.558  1.00  0.00    -0.285 OA
ATOM      5  C   UNL     1      29.655  22.165  29.448  1.00  0.00     0.111 A 
ATOM      6  C   UNL     1      30.068  22.150  30.815  1.00  0.00     0.134 A 
ATOM      7  C   UNL     1      29.148  21.792  31.809  1.00  0.00     0.093 A 
ATOM      8  C   UNL     1      27.852  21.387  31.480  1.00  0.00     0.123 A 
ATOM      9  C   UNL     1      27.458  21.347  30.146  1.00  0.00     0.094 A 
ATOM     10  C   UNL     1      28.340  21.735  29.134  1.00  0.00     0.146 A 
ATOM     11  O   UNL     1      27.915  21.702  27.877  1.00  0.00    -0.452 OA
ENDROOT
BRANCH   1  12
ATOM     12  C   UNL     1      28.063  21.988  25.489  1.00  0.00     0.025 A 
ATOM     13  C   UNL     1      28.109  20.769  24.795  1.00  0.00     0.016 A 
ATOM     14  C   UNL     1      27.536  20.657  23.524  1.00  0.00     0.051 A 
ATOM     15  C   UNL     1      26.897  21.756  22.938  1.00  0.00     0.157 A 
ATOM     16  C   UNL     1      27.403  23.084  24.905  1.00  0.00     0.062 A 
ATOM     17  C   UNL     1      26.826  22.971  23.631  1.00  0.00     0.158 A 
BRANCH  15  18
ATOM     18  O   UNL     1      26.327  21.648  21.671  1.00  0.00    -0.504 OA
ATOM     19  H   UNL     1      25.384  21.967  21.486  1.00  0.00     0.293 HD
ENDBRANCH  15  18
BRANCH  17  20
ATOM     20  O   UNL     1      26.177  24.059  23.051  1.00  0.00    -0.504 OA
ATOM     21  H   UNL     1      25.187  24.034  22.837  1.00  0.00     0.293 HD
ENDBRANCH  17  20
ENDBRANCH   1  12
BRANCH   2  22
ATOM     22  O   UNL     1      30.773  22.894  25.971  1.00  0.00    -0.502 OA
ATOM     23  H   UNL     1      30.971  22.259  25.207  1.00  0.00     0.293 HD
ENDBRANCH   2  22
BRANCH   6  24
ATOM     24  O   UNL     1      31.364  22.448  31.246  1.00  0.00    -0.507 OA
ATOM     25  H   UNL     1      32.028  21.773  31.590  1.00  0.00     0.293 HD
ENDBRANCH   6  24
BRANCH   8  26
ATOM     26  O   UNL     1      26.949  21.016  32.475  1.00  0.00    -0.508 OA
ATOM     27  H   UNL     1      27.015  20.119  32.943  1.00  0.00     0.293 HD
ENDBRANCH   8  26
TORSDOF 6
ENDMDL
MODEL 5
REMARK VINA RESULT:    -7.808      1.743      6.932
REMARK INTER + INTRA:          -9.687
REMARK INTER:                  -9.403
REMARK INTRA:                  -0.284
REMARK UNBOUND:                -0.282
REMARK SMILES O=c1c(O)c(-c2ccc(O)c(O)c2)oc2cc(O)cc(O)c12
REMARK SMILES IDX 5 1 3 2 2 3 1 4 22 5 20 6 19 7 17 8 16 9 15 10 14 11 6 12
REMARK SMILES IDX 7 13 8 14 9 15 13 16 11 17 10 18 12 20 4 22 21 24 18 26
REMARK H PARENT 10 19 12 21 4 23 21 25 18 27
REMARK Flexibility Score: inf
ROOT
ATOM      1  C   UNL     1      30.626  21.783  25.034  1.00  0.00     0.180 A 
ATOM      2  C   UNL     1      31.979  22.165  25.083  1.00  0.00     0.208 A 
ATOM      3  C   UNL     1      32.670  22.377  23.879  1.00  0.00     0.238 A 
ATOM      4  O   UNL     1      33.898  22.646  23.929  1.00  0.00    -0.285 OA
ATOM      5  C   UNL     1      31.987  22.262  22.644  1.00  0.00     0.111 A 
ATOM      6  C   UNL     1      32.577  22.499  21.365  1.00  0.00     0.134 A 
ATOM      7  C   UNL     1      31.832  22.250  20.205  1.00  0.00     0.093 A 
ATOM      8  C   UNL     1      30.500  21.835  20.279  1.00  0.00     0.123 A 
ATOM      9  C   UNL     1      29.901  21.654  21.522  1.00  0.00     0.094 A 
ATOM     10  C   UNL     1      30.628  21.856  22.697  1.00  0.00     0.146 A 
ATOM     11  O   UNL     1      30.022  21.651  23.860  1.00  0.00    -0.452 OA
ENDROOT
BRANCH   1  12
ATOM     12  C   UNL     1      29.835  21.526  26.259  1.00  0.00     0.025 A 
ATOM     13  C   UNL     1      28.867  22.459  26.663  1.00  0.00     0.016 A 
ATOM     14  C   UNL     1      28.094  22.227  27.804  1.00  0.00     0.051 A 
ATOM     15  C   UNL     1      28.267  21.054  28.547  1.00  0.00     0.157 A 
ATOM     16  C   UNL     1      29.992  20.339  26.997  1.00  0.00     0.062 A 
ATOM     17  C   UNL     1      29.214  20.105  28.141  1.00  0.00     0.158 A 
BRANCH  15  18
ATOM     18  O   UNL     1      27.500  20.820  29.687  1.00  0.00    -0.504 OA
ATOM     19  H   UNL     1      27.844  20.247  30.449  1.00  0.00     0.293 HD
ENDBRANCH  15  18
BRANCH  17  20
ATOM     20  O   UNL     1      29.375  18.932  28.875  1.00  0.00    -0.504 OA
ATOM     21  H   UNL     1      28.664  18.209  28.883  1.00  0.00     0.293 HD
ENDBRANCH  17  20
ENDBRANCH   1  12
BRANCH   2  22
ATOM     22  O   UNL     1      32.614  22.348  26.314  1.00  0.00    -0.502 OA
ATOM     23  H   UNL     1      33.612  22.504  26.393  1.00  0.00     0.293 HD
ENDBRANCH   2  22
BRANCH   6  24
ATOM     24  O   UNL     1      33.869  23.000  21.179  1.00  0.00    -0.507 OA
ATOM     25  H   UNL     1      34.088  23.892  20.763  1.00  0.00     0.293 HD
ENDBRANCH   6  24
BRANCH   8  26
ATOM     26  O   UNL     1      29.762  21.607  19.119  1.00  0.00    -0.508 OA
ATOM     27  H   UNL     1      28.794  21.895  19.041  1.00  0.00     0.293 HD
ENDBRANCH   8  26
TORSDOF 6
ENDMDL
MODEL 6
REMARK VINA RESULT:    -7.788     14.326     15.536
REMARK INTER + INTRA:          -9.664
REMARK INTER:                  -9.402
REMARK INTRA:                  -0.262
REMARK UNBOUND:                -0.282
REMARK SMILES O=c1c(O)c(-c2ccc(O)c(O)c2)oc2cc(O)cc(O)c12
REMARK SMILES IDX 5 1 3 2 2 3 1 4 22 5 20 6 19 7 17 8 16 9 15 10 14 11 6 12
REMARK SMILES IDX 7 13 8 14 9 15 13 16 11 17 10 18 12 20 4 22 21 24 18 26
REMARK H PARENT 10 19 12 21 4 23 21 25 18 27
REMARK Flexibility Score: inf
ROOT
ATOM      1  C   UNL     1      28.450  36.232  22.465  1.00  0.00     0.180 A 
ATOM      2  C   UNL     1      27.715  36.512  23.630  1.00  0.00     0.208 A 
ATOM      3  C   UNL     1      26.336  36.248  23.645  1.00  0.00     0.238 A 
ATOM      4  O   UNL     1      25.672  36.570  24.665  1.00  0.00    -0.285 OA
ATOM      5  C   UNL     1      25.719  35.656  22.517  1.00  0.00     0.111 A 
ATOM      6  C   UNL     1      24.337  35.303  22.438  1.00  0.00     0.134 A 
ATOM      7  C   UNL     1      23.816  34.821  21.231  1.00  0.00     0.093 A 
ATOM      8  C   UNL     1      24.638  34.617  20.120  1.00  0.00     0.123 A 
ATOM      9  C   UNL     1      25.997  34.907  20.205  1.00  0.00     0.094 A 
ATOM     10  C   UNL     1      26.540  35.426  21.382  1.00  0.00     0.146 A 
ATOM     11  O   UNL     1      27.837  35.708  21.410  1.00  0.00    -0.452 OA
ENDROOT
BRANCH   1  12
ATOM     12  C   UNL     1      29.903  36.497  22.367  1.00  0.00     0.025 A 
ATOM     13  C   UNL     1      30.354  37.818  22.215  1.00  0.00     0.016 A 
ATOM     14  C   UNL     1      31.723  38.094  22.142  1.00  0.00     0.051 A 
ATOM     15  C   UNL     1      32.658  37.056  22.235  1.00  0.00     0.157 A 
ATOM     16  C   UNL     1      30.846  35.460  22.480  1.00  0.00     0.062 A 
ATOM     17  C   UNL     1      32.220  35.737  22.409  1.00  0.00     0.158 A 
BRANCH  15  18
ATOM     18  O   UNL     1      34.023  37.327  22.160  1.00  0.00    -0.504 OA
ATOM     19  H   UNL     1      34.586  36.998  21.384  1.00  0.00     0.293 HD
ENDBRANCH  15  18
BRANCH  17  20
ATOM     20  O   UNL     1      33.153  34.708  22.515  1.00  0.00    -0.504 OA
ATOM     21  H   UNL     1      33.974  34.672  21.920  1.00  0.00     0.293 HD
ENDBRANCH  17  20
ENDBRANCH   1  12
BRANCH   2  22
ATOM     22  O   UNL     1      28.357  37.025  24.760  1.00  0.00    -0.502 OA
ATOM     23  H   UNL     1      28.914  36.448  25.378  1.00  0.00     0.293 HD
ENDBRANCH   2  22
BRANCH   6  24
ATOM     24  O   UNL     1      23.446  35.381  23.513  1.00  0.00    -0.507 OA
ATOM     25  H   UNL     1      22.583  34.866  23.586  1.00  0.00     0.293 HD
ENDBRANCH   6  24
BRANCH   8  26
ATOM     26  O   UNL     1      24.113  34.120  18.929  1.00  0.00    -0.508 OA
ATOM     27  H   UNL     1      24.625  34.184  18.057  1.00  0.00     0.293 HD
ENDBRANCH   8  26
TORSDOF 6
ENDMDL
MODEL 7
REMARK VINA RESULT:    -7.688      2.343      7.032
REMARK INTER + INTRA:          -9.543
REMARK INTER:                  -9.219
REMARK INTRA:                  -0.324
REMARK UNBOUND:                -0.282
REMARK SMILES O=c1c(O)c(-c2ccc(O)c(O)c2)oc2cc(O)cc(O)c12
REMARK SMILES IDX 5 1 3 2 2 3 1 4 22 5 20 6 19 7 17 8 16 9 15 10 14 11 6 12
REMARK SMILES IDX 7 13 8 14 9 15 13 16 11 17 10 18 12 20 4 22 21 24 18 26
REMARK H PARENT 10 19 12 21 4 23 21 25 18 27
REMARK Flexibility Score: inf
ROOT
ATOM      1  C   UNL     1      29.183  22.165  25.175  1.00  0.00     0.180 A 
ATOM      2  C   UNL     1      30.434  22.592  24.696  1.00  0.00     0.208 A 
ATOM      3  C   UNL     1      30.567  22.920  23.337  1.00  0.00     0.238 A 
ATOM      4  O   UNL     1      31.706  23.230  22.900  1.00  0.00    -0.285 OA
ATOM      5  C   UNL     1      29.437  22.870  22.485  1.00  0.00     0.111 A 
ATOM      6  C   UNL     1      29.446  23.223  21.101  1.00  0.00     0.134 A 
ATOM      7  C   UNL     1      28.291  23.032  20.333  1.00  0.00     0.093 A 
ATOM      8  C   UNL     1      27.109  22.562  20.911  1.00  0.00     0.123 A 
ATOM      9  C   UNL     1      27.076  22.268  22.271  1.00  0.00     0.094 A 
ATOM     10  C   UNL     1      28.222  22.410  23.057  1.00  0.00     0.146 A 
ATOM     11  O   UNL     1      28.149  22.097  24.344  1.00  0.00    -0.452 OA
ENDROOT
BRANCH   1  12
ATOM     12  C   UNL     1      28.967  21.789  26.590  1.00  0.00     0.025 A 
ATOM     13  C   UNL     1      28.399  22.721  27.472  1.00  0.00     0.016 A 
ATOM     14  C   UNL     1      28.167  22.381  28.808  1.00  0.00     0.051 A 
ATOM     15  C   UNL     1      28.485  21.100  29.275  1.00  0.00     0.157 A 
ATOM     16  C   UNL     1      29.266  20.497  27.059  1.00  0.00     0.062 A 
ATOM     17  C   UNL     1      29.031  20.154  28.399  1.00  0.00     0.158 A 
BRANCH  15  18
ATOM     18  O   UNL     1      28.257  20.757  30.607  1.00  0.00    -0.504 OA
ATOM     19  H   UNL     1      28.617  19.896  31.002  1.00  0.00     0.293 HD
ENDBRANCH  15  18
BRANCH  17  20
ATOM     20  O   UNL     1      29.333  18.876  28.863  1.00  0.00    -0.504 OA
ATOM     21  H   UNL     1      29.417  18.676  29.854  1.00  0.00     0.293 HD
ENDBRANCH  17  20
ENDBRANCH   1  12
BRANCH   2  22
ATOM     22  O   UNL     1      31.518  22.708  25.569  1.00  0.00    -0.502 OA
ATOM     23  H   UNL     1      32.218  23.435  25.473  1.00  0.00     0.293 HD
ENDBRANCH   2  22
BRANCH   6  24
ATOM     24  O   UNL     1      30.545  23.784  20.444  1.00  0.00    -0.507 OA
ATOM     25  H   UNL     1      30.576  24.011  19.462  1.00  0.00     0.293 HD
ENDBRANCH   6  24
BRANCH   8  26
ATOM     26  O   UNL     1      25.960  22.392  20.141  1.00  0.00    -0.508 OA
ATOM     27  H   UNL     1      25.987  22.449  19.130  1.00  0.00     0.293 HD
ENDBRANCH   8  26
TORSDOF 6
ENDMDL
MODEL 8
REMARK VINA RESULT:    -7.658      2.014      7.473
REMARK INTER + INTRA:          -9.507
REMARK INTER:                  -9.227
REMARK INTRA:                  -0.280
REMARK UNBOUND:                -0.282
REMARK SMILES O=c1c(O)c(-c2ccc(O)c(O)c2)oc2cc(O)cc(O)c12
REMARK SMILES IDX 5 1 3 2 2 3 1 4 22 5 20 6 19 7 17 8 16 9 15 10 14 11 6 12
REMARK SMILES IDX 7 13 8 14 9 15 13 16 11 17 10 18 12 20 4 22 21 24 18 26
REMARK H PARENT 10 19 12 21 4 23 21 25 18 27
REMARK Flexibility Score: inf
ROOT
ATOM      1  C   UNL     1      29.120  22.390  25.580  1.00  0.00     0.180 A 
ATOM      2  C   UNL     1      27.906  22.858  25.050  1.00  0.00     0.208 A 
ATOM      3  C   UNL     1      27.844  23.205  23.690  1.00  0.00     0.238 A 
ATOM      4  O   UNL     1      26.776  23.693  23.240  1.00  0.00    -0.285 OA
ATOM      5  C   UNL     1      28.981  23.025  22.865  1.00  0.00     0.111 A 
ATOM      6  C   UNL     1      29.020  23.300  21.464  1.00  0.00     0.134 A 
ATOM      7  C   UNL     1      30.231  23.185  20.772  1.00  0.00     0.093 A 
ATOM      8  C   UNL     1      31.391  22.744  21.414  1.00  0.00     0.123 A 
ATOM      9  C   UNL     1      31.350  22.421  22.767  1.00  0.00     0.094 A 
ATOM     10  C   UNL     1      30.166  22.562  23.496  1.00  0.00     0.146 A 
ATOM     11  O   UNL     1      30.178  22.264  24.789  1.00  0.00    -0.452 OA
ENDROOT
BRANCH   1  12
ATOM     12  C   UNL     1      29.267  22.019  27.006  1.00  0.00     0.025 A 
ATOM     13  C   UNL     1      29.400  23.031  27.970  1.00  0.00     0.016 A 
ATOM     14  C   UNL     1      29.519  22.705  29.325  1.00  0.00     0.051 A 
ATOM     15  C   UNL     1      29.490  21.367  29.734  1.00  0.00     0.157 A 
ATOM     16  C   UNL     1      29.218  20.677  27.423  1.00  0.00     0.062 A 
ATOM     17  C   UNL     1      29.335  20.351  28.783  1.00  0.00     0.158 A 
BRANCH  15  18
ATOM     18  O   UNL     1      29.611  21.038  31.083  1.00  0.00    -0.504 OA
ATOM     19  H   UNL     1      28.817  20.711  31.622  1.00  0.00     0.293 HD
ENDBRANCH  15  18
BRANCH  17  20
ATOM     20  O   UNL     1      29.292  19.020  29.195  1.00  0.00    -0.504 OA
ATOM     21  H   UNL     1      30.134  18.460  29.269  1.00  0.00     0.293 HD
ENDBRANCH  17  20
ENDBRANCH   1  12
BRANCH   2  22
ATOM     22  O   UNL     1      26.774  22.956  25.864  1.00  0.00    -0.502 OA
ATOM     23  H   UNL     1      25.833  22.863  25.500  1.00  0.00     0.293 HD
ENDBRANCH   2  22
BRANCH   6  24
ATOM     24  O   UNL     1      27.902  23.661  20.706  1.00  0.00    -0.507 OA
ATOM     25  H   UNL     1      27.469  24.571  20.711  1.00  0.00     0.293 HD
ENDBRANCH   6  24
BRANCH   8  26
ATOM     26  O   UNL     1      32.588  22.616  20.712  1.00  0.00    -0.508 OA
ATOM     27  H   UNL     1      33.470  22.915  21.111  1.00  0.00     0.293 HD
ENDBRANCH   8  26
TORSDOF 6
ENDMDL
MODEL 9
REMARK VINA RESULT:    -7.450     14.175     15.328
REMARK INTER + INTRA:          -9.256
REMARK INTER:                  -9.004
REMARK INTRA:                  -0.252
REMARK UNBOUND:                -0.282
REMARK SMILES O=c1c(O)c(-c2ccc(O)c(O)c2)oc2cc(O)cc(O)c12
REMARK SMILES IDX 5 1 3 2 2 3 1 4 22 5 20 6 19 7 17 8 16 9 15 10 14 11 6 12
REMARK SMILES IDX 7 13 8 14 9 15 13 16 11 17 10 18 12 20 4 22 21 24 18 26
REMARK H PARENT 10 19 12 21 4 23 21 25 18 27
REMARK Flexibility Score: inf
ROOT
ATOM      1  C   UNL     1      29.035  36.323  24.773  1.00  0.00     0.180 A 
ATOM      2  C   UNL     1      29.002  35.878  26.107  1.00  0.00     0.208 A 
ATOM      3  C   UNL     1      27.758  35.704  26.736  1.00  0.00     0.238 A 
ATOM      4  O   UNL     1      27.738  35.377  27.951  1.00  0.00    -0.285 OA
ATOM      5  C   UNL     1      26.563  35.923  26.009  1.00  0.00     0.111 A 
ATOM      6  C   UNL     1      25.248  35.734  26.532  1.00  0.00     0.134 A 
ATOM      7  C   UNL     1      24.138  36.085  25.753  1.00  0.00     0.093 A 
ATOM      8  C   UNL     1      24.294  36.556  24.447  1.00  0.00     0.123 A 
ATOM      9  C   UNL     1      25.570  36.691  23.909  1.00  0.00     0.094 A 
ATOM     10  C   UNL     1      26.699  36.387  24.674  1.00  0.00     0.146 A 
ATOM     11  O   UNL     1      27.897  36.552  24.128  1.00  0.00    -0.452 OA
ENDROOT
BRANCH   1  12
ATOM     12  C   UNL     1      30.306  36.543  24.048  1.00  0.00     0.025 A 
ATOM     13  C   UNL     1      30.767  37.854  23.848  1.00  0.00     0.016 A 
ATOM     14  C   UNL     1      31.975  38.086  23.184  1.00  0.00     0.051 A 
ATOM     15  C   UNL     1      32.745  37.010  22.725  1.00  0.00     0.157 A 
ATOM     16  C   UNL     1      31.093  35.466  23.603  1.00  0.00     0.062 A 
ATOM     17  C   UNL     1      32.307  35.698  22.939  1.00  0.00     0.158 A 
BRANCH  15  18
ATOM     18  O   UNL     1      33.949  37.237  22.060  1.00  0.00    -0.504 OA
ATOM     19  H   UNL     1      34.254  36.643  21.299  1.00  0.00     0.293 HD
ENDBRANCH  15  18
BRANCH  17  20
ATOM     20  O   UNL     1      33.082  34.630  22.493  1.00  0.00    -0.504 OA
ATOM     21  H   UNL     1      32.668  33.734  22.260  1.00  0.00     0.293 HD
ENDBRANCH  17  20
ENDBRANCH   1  12
BRANCH   2  22
ATOM     22  O   UNL     1      30.191  35.594  26.783  1.00  0.00    -0.502 OA
ATOM     23  H   UNL     1      30.953  35.085  26.351  1.00  0.00     0.293 HD
ENDBRANCH   2  22
BRANCH   6  24
ATOM     24  O   UNL     1      24.976  35.187  27.790  1.00  0.00    -0.507 OA
ATOM     25  H   UNL     1      24.059  35.114  28.203  1.00  0.00     0.293 HD
ENDBRANCH   6  24
BRANCH   8  26
ATOM     26  O   UNL     1      23.183  36.885  23.673  1.00  0.00    -0.508 OA
ATOM     27  H   UNL     1      22.306  37.166  24.097  1.00  0.00     0.293 HD
ENDBRANCH   8  26
TORSDOF 6
ENDMDL
