MODEL 1
REMARK VINA RESULT:    -4.779      0.000      0.000
REMARK INTER + INTRA:         -11.600
REMARK INTER:                  -9.249
REMARK INTRA:                  -2.351
REMARK UNBOUND:                -2.351
REMARK SMILES CCCCCCCCCCCCCCCCCC(=O)[O-]
REMARK SMILES IDX 10 1 11 2 12 3 13 4 14 5 15 6 16 7 17 8 18 9 19 10 20 11
REMARK SMILES IDX 9 12 8 13 7 14 6 15 5 16 4 17 3 18 2 19 1 20
REMARK H PARENT
REMARK Flexibility Score: inf
ROOT
ATOM      1  C   UNL     1      -5.554 -27.594  32.416  1.00  0.00     0.000 C 
ENDROOT
BRANCH   1   2
ATOM      2  C   UNL     1      -6.442 -28.030  31.237  1.00  0.00     0.000 C 
BRANCH   2   3
ATOM      3  C   UNL     1      -6.586 -26.935  30.165  1.00  0.00     0.000 C 
BRANCH   3   4
ATOM      4  C   UNL     1      -6.741 -27.456  28.722  1.00  0.00     0.000 C 
BRANCH   4   5
ATOM      5  C   UNL     1      -8.153 -27.310  28.120  1.00  0.00     0.000 C 
BRANCH   5   6
ATOM      6  C   UNL     1      -9.298 -27.268  29.147  1.00  0.00     0.000 C 
BRANCH   6   7
ATOM      7  C   UNL     1     -10.494 -26.424  28.672  1.00  0.00     0.006 C 
BRANCH   7   8
ATOM      8  C   UNL     1     -10.069 -25.019  28.227  1.00  0.00     0.053 C 
BRANCH   8   9
ATOM      9  C   UNL     1     -10.432 -24.754  26.799  1.00  0.00     0.041 C 
ATOM     10  O   UNL     1     -10.401 -23.581  26.342  1.00  0.00    -0.550 OA
ATOM     11  O   UNL     1     -10.778 -25.808  25.962  1.00  0.00    -0.550 OA
ENDBRANCH   8   9
ENDBRANCH   7   8
ENDBRANCH   6   7
ENDBRANCH   5   6
ENDBRANCH   4   5
ENDBRANCH   3   4
ENDBRANCH   2   3
ENDBRANCH   1   2
BRANCH   1  12
ATOM     12  C   UNL     1      -4.660 -26.394  32.069  1.00  0.00     0.000 C 
BRANCH  12  13
ATOM     13  C   UNL     1      -4.791 -25.248  33.084  1.00  0.00    -0.000 C 
BRANCH  13  14
ATOM     14  C   UNL     1      -6.095 -25.367  33.882  1.00  0.00    -0.000 C 
BRANCH  14  15
ATOM     15  C   UNL     1      -7.040 -24.196  33.571  1.00  0.00    -0.000 C 
BRANCH  15  16
ATOM     16  C   UNL     1      -7.409 -24.124  32.074  1.00  0.00    -0.000 C 
BRANCH  16  17
ATOM     17  C   UNL     1      -8.819 -24.660  31.756  1.00  0.00    -0.000 C 
BRANCH  17  18
ATOM     18  C   UNL     1      -9.323 -25.755  32.709  1.00  0.00    -0.000 C 
BRANCH  18  19
ATOM     19  C   UNL     1     -10.837 -25.991  32.597  1.00  0.00    -0.003 C 
ATOM     20  C   UNL     1     -11.493 -26.006  33.975  1.00  0.00     0.004 C 
ENDBRANCH  18  19
ENDBRANCH  17  18
ENDBRANCH  16  17
ENDBRANCH  15  16
ENDBRANCH  14  15
ENDBRANCH  13  14
ENDBRANCH  12  13
ENDBRANCH   1  12
TORSDOF 16
ENDMDL
MODEL 2
REMARK VINA RESULT:    -4.714      2.316      6.109
REMARK INTER + INTRA:         -11.474
REMARK INTER:                  -9.440
REMARK INTRA:                  -2.034
REMARK UNBOUND:                -2.351
REMARK SMILES CCCCCCCCCCCCCCCCCC(=O)[O-]
REMARK SMILES IDX 10 1 11 2 12 3 13 4 14 5 15 6 16 7 17 8 18 9 19 10 20 11
REMARK SMILES IDX 9 12 8 13 7 14 6 15 5 16 4 17 3 18 2 19 1 20
REMARK H PARENT
REMARK Flexibility Score: inf
ROOT
ATOM      1  C   UNL     1      -8.497 -24.534  31.592  1.00  0.00     0.000 C 
ENDROOT
BRANCH   1   2
ATOM      2  C   UNL     1      -8.817 -25.534  32.717  1.00  0.00     0.000 C 
BRANCH   2   3
ATOM      3  C   UNL     1      -7.799 -25.478  33.870  1.00  0.00     0.000 C 
BRANCH   3   4
ATOM      4  C   UNL     1      -6.702 -24.405  33.714  1.00  0.00     0.000 C 
BRANCH   4   5
ATOM      5  C   UNL     1      -5.286 -24.951  33.440  1.00  0.00     0.000 C 
BRANCH   5   6
ATOM      6  C   UNL     1      -5.012 -25.349  31.979  1.00  0.00     0.000 C 
BRANCH   6   7
ATOM      7  C   UNL     1      -4.964 -26.872  31.775  1.00  0.00     0.006 C 
BRANCH   7   8
ATOM      8  C   UNL     1      -6.106 -27.372  30.881  1.00  0.00     0.053 C 
BRANCH   8   9
ATOM      9  C   UNL     1      -5.758 -27.274  29.428  1.00  0.00     0.041 C 
ATOM     10  O   UNL     1      -6.668 -27.196  28.560  1.00  0.00    -0.550 OA
ATOM     11  O   UNL     1      -4.427 -27.242  29.032  1.00  0.00    -0.550 OA
ENDBRANCH   8   9
ENDBRANCH   7   8
ENDBRANCH   6   7
ENDBRANCH   5   6
ENDBRANCH   4   5
ENDBRANCH   3   4
ENDBRANCH   2   3
ENDBRANCH   1   2
BRANCH   1  12
ATOM     12  C   UNL     1      -8.992 -25.012  30.219  1.00  0.00     0.000 C 
BRANCH  12  13
ATOM     13  C   UNL     1     -10.149 -26.017  30.326  1.00  0.00    -0.000 C 
BRANCH  13  14
ATOM     14  C   UNL     1     -10.094 -27.042  29.187  1.00  0.00    -0.000 C 
BRANCH  14  15
ATOM     15  C   UNL     1     -11.272 -26.854  28.219  1.00  0.00    -0.000 C 
BRANCH  15  16
ATOM     16  C   UNL     1     -10.837 -26.957  26.741  1.00  0.00    -0.000 C 
BRANCH  16  17
ATOM     17  C   UNL     1     -10.888 -25.614  25.985  1.00  0.00    -0.000 C 
BRANCH  17  18
ATOM     18  C   UNL     1     -10.170 -24.450  26.686  1.00  0.00    -0.000 C 
BRANCH  18  19
ATOM     19  C   UNL     1     -11.074 -23.223  26.879  1.00  0.00    -0.003 C 
ATOM     20  C   UNL     1     -11.725 -22.810  25.562  1.00  0.00     0.004 C 
ENDBRANCH  18  19
ENDBRANCH  17  18
ENDBRANCH  16  17
ENDBRANCH  15  16
ENDBRANCH  14  15
ENDBRANCH  13  14
ENDBRANCH  12  13
ENDBRANCH   1  12
TORSDOF 16
ENDMDL
MODEL 3
REMARK VINA RESULT:    -4.695      1.348      4.092
REMARK INTER + INTRA:         -11.437
REMARK INTER:                  -8.935
REMARK INTRA:                  -2.501
REMARK UNBOUND:                -2.351
REMARK SMILES CCCCCCCCCCCCCCCCCC(=O)[O-]
REMARK SMILES IDX 10 1 11 2 12 3 13 4 14 5 15 6 16 7 17 8 18 9 19 10 20 11
REMARK SMILES IDX 9 12 8 13 7 14 6 15 5 16 4 17 3 18 2 19 1 20
REMARK H PARENT
REMARK Flexibility Score: inf
ROOT
ATOM      1  C   UNL     1      -7.346 -24.240  31.443  1.00  0.00     0.000 C 
ENDROOT
BRANCH   1   2
ATOM      2  C   UNL     1      -8.873 -24.423  31.515  1.00  0.00     0.000 C 
BRANCH   2   3
ATOM      3  C   UNL     1      -9.283 -25.704  32.263  1.00  0.00     0.000 C 
BRANCH   3   4
ATOM      4  C   UNL     1      -9.839 -26.828  31.366  1.00  0.00     0.000 C 
BRANCH   4   5
ATOM      5  C   UNL     1     -11.020 -26.422  30.461  1.00  0.00     0.000 C 
BRANCH   5   6
ATOM      6  C   UNL     1     -10.976 -26.998  29.035  1.00  0.00     0.000 C 
BRANCH   6   7
ATOM      7  C   UNL     1      -9.587 -26.879  28.386  1.00  0.00     0.006 C 
BRANCH   7   8
ATOM      8  C   UNL     1      -9.268 -25.438  27.964  1.00  0.00     0.053 C 
BRANCH   8   9
ATOM      9  C   UNL     1     -10.276 -24.907  26.993  1.00  0.00     0.041 C 
ATOM     10  O   UNL     1     -10.740 -23.745  27.131  1.00  0.00    -0.550 OA
ATOM     11  O   UNL     1     -10.683 -25.686  25.917  1.00  0.00    -0.550 OA
ENDBRANCH   8   9
ENDBRANCH   7   8
ENDBRANCH   6   7
ENDBRANCH   5   6
ENDBRANCH   4   5
ENDBRANCH   3   4
ENDBRANCH   2   3
ENDBRANCH   1   2
BRANCH   1  12
ATOM     12  C   UNL     1      -6.640 -24.661  32.740  1.00  0.00     0.000 C 
BRANCH  12  13
ATOM     13  C   UNL     1      -5.169 -25.039  32.515  1.00  0.00    -0.000 C 
BRANCH  13  14
ATOM     14  C   UNL     1      -4.881 -26.457  33.023  1.00  0.00    -0.000 C 
BRANCH  14  15
ATOM     15  C   UNL     1      -6.065 -27.395  32.739  1.00  0.00    -0.000 C 
BRANCH  15  16
ATOM     16  C   UNL     1      -5.868 -28.209  31.442  1.00  0.00    -0.000 C 
BRANCH  16  17
ATOM     17  C   UNL     1      -6.429 -27.518  30.184  1.00  0.00    -0.000 C 
BRANCH  17  18
ATOM     18  C   UNL     1      -5.463 -27.467  28.990  1.00  0.00    -0.000 C 
BRANCH  18  19
ATOM     19  C   UNL     1      -4.401 -28.576  29.036  1.00  0.00    -0.003 C 
ATOM     20  C   UNL     1      -3.004 -27.990  29.219  1.00  0.00     0.004 C 
ENDBRANCH  18  19
ENDBRANCH  17  18
ENDBRANCH  16  17
ENDBRANCH  15  16
ENDBRANCH  14  15
ENDBRANCH  13  14
ENDBRANCH  12  13
ENDBRANCH   1  12
TORSDOF 16
ENDMDL
MODEL 4
REMARK VINA RESULT:    -4.685      1.234      3.781
REMARK INTER + INTRA:         -11.417
REMARK INTER:                  -8.968
REMARK INTRA:                  -2.449
REMARK UNBOUND:                -2.351
REMARK SMILES CCCCCCCCCCCCCCCCCC(=O)[O-]
REMARK SMILES IDX 10 1 11 2 12 3 13 4 14 5 15 6 16 7 17 8 18 9 19 10 20 11
REMARK SMILES IDX 9 12 8 13 7 14 6 15 5 16 4 17 3 18 2 19 1 20
REMARK H PARENT
REMARK Flexibility Score: inf
ROOT
ATOM      1  C   UNL     1      -8.649 -26.123  32.786  1.00  0.00     0.000 C 
ENDROOT
BRANCH   1   2
ATOM      2  C   UNL     1     -10.083 -25.871  32.289  1.00  0.00     0.000 C 
BRANCH   2   3
ATOM      3  C   UNL     1     -10.327 -26.424  30.873  1.00  0.00     0.000 C 
BRANCH   3   4
ATOM      4  C   UNL     1      -9.176 -27.279  30.305  1.00  0.00     0.000 C 
BRANCH   4   5
ATOM      5  C   UNL     1      -8.465 -26.683  29.073  1.00  0.00     0.000 C 
BRANCH   5   6
ATOM      6  C   UNL     1      -8.810 -27.356  27.733  1.00  0.00     0.000 C 
BRANCH   6   7
ATOM      7  C   UNL     1      -9.918 -26.619  26.963  1.00  0.00     0.006 C 
BRANCH   7   8
ATOM      8  C   UNL     1     -10.005 -25.137  27.352  1.00  0.00     0.053 C 
BRANCH   8   9
ATOM      9  C   UNL     1     -10.604 -24.309  26.258  1.00  0.00     0.041 C 
ATOM     10  O   UNL     1     -11.022 -24.855  25.203  1.00  0.00    -0.550 OA
ATOM     11  O   UNL     1     -10.725 -22.933  26.413  1.00  0.00    -0.550 OA
ENDBRANCH   8   9
ENDBRANCH   7   8
ENDBRANCH   6   7
ENDBRANCH   5   6
ENDBRANCH   4   5
ENDBRANCH   3   4
ENDBRANCH   2   3
ENDBRANCH   1   2
BRANCH   1  12
ATOM     12  C   UNL     1      -7.845 -24.824  32.951  1.00  0.00     0.000 C 
BRANCH  12  13
ATOM     13  C   UNL     1      -7.302 -24.294  31.615  1.00  0.00    -0.000 C 
BRANCH  13  14
ATOM     14  C   UNL     1      -5.943 -24.923  31.285  1.00  0.00    -0.000 C 
BRANCH  14  15
ATOM     15  C   UNL     1      -5.105 -25.122  32.557  1.00  0.00    -0.000 C 
BRANCH  15  16
ATOM     16  C   UNL     1      -4.423 -26.507  32.597  1.00  0.00    -0.000 C 
BRANCH  16  17
ATOM     17  C   UNL     1      -5.411 -27.680  32.750  1.00  0.00    -0.000 C 
BRANCH  17  18
ATOM     18  C   UNL     1      -5.759 -28.407  31.441  1.00  0.00    -0.000 C 
BRANCH  18  19
ATOM     19  C   UNL     1      -4.600 -28.404  30.433  1.00  0.00    -0.003 C 
ATOM     20  C   UNL     1      -5.068 -27.922  29.062  1.00  0.00     0.004 C 
ENDBRANCH  18  19
ENDBRANCH  17  18
ENDBRANCH  16  17
ENDBRANCH  15  16
ENDBRANCH  14  15
ENDBRANCH  13  14
ENDBRANCH  12  13
ENDBRANCH   1  12
TORSDOF 16
ENDMDL
MODEL 5
REMARK VINA RESULT:    -4.678      3.510      6.869
REMARK INTER + INTRA:         -11.406
REMARK INTER:                  -9.201
REMARK INTRA:                  -2.205
REMARK UNBOUND:                -2.351
REMARK SMILES CCCCCCCCCCCCCCCCCC(=O)[O-]
REMARK SMILES IDX 10 1 11 2 12 3 13 4 14 5 15 6 16 7 17 8 18 9 19 10 20 11
REMARK SMILES IDX 9 12 8 13 7 14 6 15 5 16 4 17 3 18 2 19 1 20
REMARK H PARENT
REMARK Flexibility Score: inf
ROOT
ATOM      1  C   UNL     1     -10.533 -26.363  30.453  1.00  0.00     0.000 C 
ENDROOT
BRANCH   1   2
ATOM      2  C   UNL     1     -10.320 -26.383  31.977  1.00  0.00     0.000 C 
BRANCH   2   3
ATOM      3  C   UNL     1      -8.831 -26.386  32.369  1.00  0.00     0.000 C 
BRANCH   3   4
ATOM      4  C   UNL     1      -8.014 -27.561  31.797  1.00  0.00     0.000 C 
BRANCH   4   5
ATOM      5  C   UNL     1      -6.822 -27.157  30.904  1.00  0.00     0.000 C 
BRANCH   5   6
ATOM      6  C   UNL     1      -6.295 -25.729  31.128  1.00  0.00     0.000 C 
BRANCH   6   7
ATOM      7  C   UNL     1      -4.995 -25.695  31.947  1.00  0.00     0.006 C 
BRANCH   7   8
ATOM      8  C   UNL     1      -5.201 -25.068  33.333  1.00  0.00     0.053 C 
BRANCH   8   9
ATOM      9  C   UNL     1      -5.684 -26.074  34.332  1.00  0.00     0.041 C 
ATOM     10  O   UNL     1      -5.159 -27.217  34.388  1.00  0.00    -0.550 OA
ATOM     11  O   UNL     1      -6.698 -25.739  35.221  1.00  0.00    -0.550 OA
ENDBRANCH   8   9
ENDBRANCH   7   8
ENDBRANCH   6   7
ENDBRANCH   5   6
ENDBRANCH   4   5
ENDBRANCH   3   4
ENDBRANCH   2   3
ENDBRANCH   1   2
BRANCH   1  12
ATOM     12  C   UNL     1      -9.948 -25.105  29.792  1.00  0.00     0.000 C 
BRANCH  12  13
ATOM     13  C   UNL     1      -9.247 -25.410  28.460  1.00  0.00    -0.000 C 
BRANCH  13  14
ATOM     14  C   UNL     1      -9.255 -26.915  28.167  1.00  0.00    -0.000 C 
BRANCH  14  15
ATOM     15  C   UNL     1      -9.907 -27.208  26.806  1.00  0.00    -0.000 C 
BRANCH  15  16
ATOM     16  C   UNL     1     -11.152 -26.331  26.553  1.00  0.00    -0.000 C 
BRANCH  16  17
ATOM     17  C   UNL     1     -10.983 -25.337  25.387  1.00  0.00    -0.000 C 
BRANCH  17  18
ATOM     18  C   UNL     1     -12.112 -24.303  25.252  1.00  0.00    -0.000 C 
BRANCH  18  19
ATOM     19  C   UNL     1     -11.621 -22.858  25.425  1.00  0.00    -0.003 C 
ATOM     20  C   UNL     1     -11.156 -22.605  26.857  1.00  0.00     0.004 C 
ENDBRANCH  18  19
ENDBRANCH  17  18
ENDBRANCH  16  17
ENDBRANCH  15  16
ENDBRANCH  14  15
ENDBRANCH  13  14
ENDBRANCH  12  13
ENDBRANCH   1  12
TORSDOF 16
ENDMDL
MODEL 6
REMARK VINA RESULT:    -4.677      3.589      6.191
REMARK INTER + INTRA:         -11.403
REMARK INTER:                  -8.912
REMARK INTRA:                  -2.490
REMARK UNBOUND:                -2.351
REMARK SMILES CCCCCCCCCCCCCCCCCC(=O)[O-]
REMARK SMILES IDX 10 1 11 2 12 3 13 4 14 5 15 6 16 7 17 8 18 9 19 10 20 11
REMARK SMILES IDX 9 12 8 13 7 14 6 15 5 16 4 17 3 18 2 19 1 20
REMARK H PARENT
REMARK Flexibility Score: inf
ROOT
ATOM      1  C   UNL     1      -7.481 -27.968  31.918  1.00  0.00     0.000 C 
ENDROOT
BRANCH   1   2
ATOM      2  C   UNL     1      -8.882 -27.535  31.449  1.00  0.00     0.000 C 
BRANCH   2   3
ATOM      3  C   UNL     1      -9.485 -26.424  32.327  1.00  0.00     0.000 C 
BRANCH   3   4
ATOM      4  C   UNL     1      -9.228 -24.989  31.822  1.00  0.00     0.000 C 
BRANCH   4   5
ATOM      5  C   UNL     1      -7.860 -24.392  32.213  1.00  0.00     0.000 C 
BRANCH   5   6
ATOM      6  C   UNL     1      -7.359 -24.776  33.617  1.00  0.00     0.000 C 
BRANCH   6   7
ATOM      7  C   UNL     1      -5.891 -24.384  33.853  1.00  0.00     0.006 C 
BRANCH   7   8
ATOM      8  C   UNL     1      -4.927 -25.205  32.986  1.00  0.00     0.053 C 
BRANCH   8   9
ATOM      9  C   UNL     1      -4.133 -26.177  33.803  1.00  0.00     0.041 C 
ATOM     10  O   UNL     1      -3.116 -25.792  34.438  1.00  0.00    -0.550 OA
ATOM     11  O   UNL     1      -4.533 -27.505  33.886  1.00  0.00    -0.550 OA
ENDBRANCH   8   9
ENDBRANCH   7   8
ENDBRANCH   6   7
ENDBRANCH   5   6
ENDBRANCH   4   5
ENDBRANCH   3   4
ENDBRANCH   2   3
ENDBRANCH   1   2
BRANCH   1  12
ATOM     12  C   UNL     1      -6.417 -27.808  30.821  1.00  0.00     0.000 C 
BRANCH  12  13
ATOM     13  C   UNL     1      -6.825 -26.788  29.748  1.00  0.00    -0.000 C 
BRANCH  13  14
ATOM     14  C   UNL     1      -6.968 -27.459  28.377  1.00  0.00    -0.000 C 
BRANCH  14  15
ATOM     15  C   UNL     1      -8.320 -27.115  27.733  1.00  0.00    -0.000 C 
BRANCH  15  16
ATOM     16  C   UNL     1      -8.912 -25.800  28.282  1.00  0.00    -0.000 C 
BRANCH  16  17
ATOM     17  C   UNL     1     -10.451 -25.746  28.236  1.00  0.00    -0.000 C 
BRANCH  17  18
ATOM     18  C   UNL     1     -11.157 -27.019  28.728  1.00  0.00    -0.000 C 
BRANCH  18  19
ATOM     19  C   UNL     1     -11.919 -27.747  27.610  1.00  0.00    -0.003 C 
ATOM     20  C   UNL     1     -11.133 -28.955  27.108  1.00  0.00     0.004 C 
ENDBRANCH  18  19
ENDBRANCH  17  18
ENDBRANCH  16  17
ENDBRANCH  15  16
ENDBRANCH  14  15
ENDBRANCH  13  14
ENDBRANCH  12  13
ENDBRANCH   1  12
TORSDOF 16
ENDMDL
MODEL 7
REMARK VINA RESULT:    -4.675      1.681      3.918
REMARK INTER + INTRA:         -11.400
REMARK INTER:                  -8.898
REMARK INTRA:                  -2.502
REMARK UNBOUND:                -2.351
REMARK SMILES CCCCCCCCCCCCCCCCCC(=O)[O-]
REMARK SMILES IDX 10 1 11 2 12 3 13 4 14 5 15 6 16 7 17 8 18 9 19 10 20 11
REMARK SMILES IDX 9 12 8 13 7 14 6 15 5 16 4 17 3 18 2 19 1 20
REMARK H PARENT
REMARK Flexibility Score: inf
ROOT
ATOM      1  C   UNL     1      -8.304 -24.257  31.582  1.00  0.00     0.000 C 
ENDROOT
BRANCH   1   2
ATOM      2  C   UNL     1      -9.215 -25.459  31.892  1.00  0.00     0.000 C 
BRANCH   2   3
ATOM      3  C   UNL     1      -9.879 -26.042  30.633  1.00  0.00     0.000 C 
BRANCH   3   4
ATOM      4  C   UNL     1      -9.831 -25.127  29.392  1.00  0.00     0.000 C 
BRANCH   4   5
ATOM      5  C   UNL     1      -9.219 -25.767  28.129  1.00  0.00     0.000 C 
BRANCH   5   6
ATOM      6  C   UNL     1      -9.114 -27.302  28.162  1.00  0.00     0.000 C 
BRANCH   6   7
ATOM      7  C   UNL     1      -9.672 -27.964  26.891  1.00  0.00     0.006 C 
BRANCH   7   8
ATOM      8  C   UNL     1     -10.965 -28.744  27.165  1.00  0.00     0.053 C 
BRANCH   8   9
ATOM      9  C   UNL     1     -12.131 -27.829  27.380  1.00  0.00     0.041 C 
ATOM     10  O   UNL     1     -12.712 -27.298  26.397  1.00  0.00    -0.550 OA
ATOM     11  O   UNL     1     -12.595 -27.584  28.667  1.00  0.00    -0.550 OA
ENDBRANCH   8   9
ENDBRANCH   7   8
ENDBRANCH   6   7
ENDBRANCH   5   6
ENDBRANCH   4   5
ENDBRANCH   3   4
ENDBRANCH   2   3
ENDBRANCH   1   2
BRANCH   1  12
ATOM     12  C   UNL     1      -6.925 -24.375  32.247  1.00  0.00     0.000 C 
BRANCH  12  13
ATOM     13  C   UNL     1      -7.019 -24.601  33.764  1.00  0.00    -0.000 C 
BRANCH  13  14
ATOM     14  C   UNL     1      -5.830 -25.425  34.271  1.00  0.00    -0.000 C 
BRANCH  14  15
ATOM     15  C   UNL     1      -4.684 -25.430  33.247  1.00  0.00    -0.000 C 
BRANCH  15  16
ATOM     16  C   UNL     1      -3.941 -26.782  33.207  1.00  0.00    -0.000 C 
BRANCH  16  17
ATOM     17  C   UNL     1      -4.111 -27.545  31.878  1.00  0.00    -0.000 C 
BRANCH  17  18
ATOM     18  C   UNL     1      -5.398 -28.378  31.772  1.00  0.00    -0.000 C 
BRANCH  18  19
ATOM     19  C   UNL     1      -6.443 -27.742  30.843  1.00  0.00    -0.003 C 
ATOM     20  C   UNL     1      -5.773 -26.919  29.746  1.00  0.00     0.004 C 
ENDBRANCH  18  19
ENDBRANCH  17  18
ENDBRANCH  16  17
ENDBRANCH  15  16
ENDBRANCH  14  15
ENDBRANCH  13  14
ENDBRANCH  12  13
ENDBRANCH   1  12
TORSDOF 16
ENDMDL
MODEL 8
REMARK VINA RESULT:    -4.642      2.756      6.373
REMARK INTER + INTRA:         -11.336
REMARK INTER:                  -9.230
REMARK INTRA:                  -2.106
REMARK UNBOUND:                -2.351
REMARK SMILES CCCCCCCCCCCCCCCCCC(=O)[O-]
REMARK SMILES IDX 10 1 11 2 12 3 13 4 14 5 15 6 16 7 17 8 18 9 19 10 20 11
REMARK SMILES IDX 9 12 8 13 7 14 6 15 5 16 4 17 3 18 2 19 1 20
REMARK H PARENT
REMARK Flexibility Score: inf
ROOT
ATOM      1  C   UNL     1      -9.890 -25.482  29.950  1.00  0.00     0.000 C 
ENDROOT
BRANCH   1   2
ATOM      2  C   UNL     1      -9.324 -25.006  31.301  1.00  0.00     0.000 C 
BRANCH   2   3
ATOM      3  C   UNL     1      -9.245 -26.135  32.343  1.00  0.00     0.000 C 
BRANCH   3   4
ATOM      4  C   UNL     1      -9.069 -27.549  31.754  1.00  0.00     0.000 C 
BRANCH   4   5
ATOM      5  C   UNL     1      -7.613 -28.050  31.673  1.00  0.00     0.000 C 
BRANCH   5   6
ATOM      6  C   UNL     1      -6.583 -27.183  32.420  1.00  0.00     0.000 C 
BRANCH   6   7
ATOM      7  C   UNL     1      -5.217 -27.139  31.716  1.00  0.00     0.006 C 
BRANCH   7   8
ATOM      8  C   UNL     1      -4.961 -28.396  30.874  1.00  0.00     0.053 C 
BRANCH   8   9
ATOM      9  C   UNL     1      -4.756 -28.065  29.428  1.00  0.00     0.041 C 
ATOM     10  O   UNL     1      -4.953 -26.894  29.010  1.00  0.00    -0.550 OA
ATOM     11  O   UNL     1      -4.320 -29.046  28.545  1.00  0.00    -0.550 OA
ENDBRANCH   8   9
ENDBRANCH   7   8
ENDBRANCH   6   7
ENDBRANCH   5   6
ENDBRANCH   4   5
ENDBRANCH   3   4
ENDBRANCH   2   3
ENDBRANCH   1   2
BRANCH   1  12
ATOM     12  C   UNL     1      -8.862 -25.383  28.813  1.00  0.00     0.000 C 
BRANCH  12  13
ATOM     13  C   UNL     1      -8.453 -26.758  28.266  1.00  0.00    -0.000 C 
BRANCH  13  14
ATOM     14  C   UNL     1      -9.677 -27.664  28.084  1.00  0.00    -0.000 C 
BRANCH  14  15
ATOM     15  C   UNL     1     -10.289 -27.488  26.686  1.00  0.00    -0.000 C 
BRANCH  15  16
ATOM     16  C   UNL     1     -11.608 -26.687  26.721  1.00  0.00    -0.000 C 
BRANCH  16  17
ATOM     17  C   UNL     1     -11.776 -25.715  25.536  1.00  0.00    -0.000 C 
BRANCH  17  18
ATOM     18  C   UNL     1     -10.659 -24.669  25.395  1.00  0.00    -0.000 C 
BRANCH  18  19
ATOM     19  C   UNL     1     -10.767 -23.540  26.431  1.00  0.00    -0.003 C 
ATOM     20  C   UNL     1     -11.686 -22.427  25.935  1.00  0.00     0.004 C 
ENDBRANCH  18  19
ENDBRANCH  17  18
ENDBRANCH  16  17
ENDBRANCH  15  16
ENDBRANCH  14  15
ENDBRANCH  13  14
ENDBRANCH  12  13
ENDBRANCH   1  12
TORSDOF 16
ENDMDL
MODEL 9
REMARK VINA RESULT:    -4.569      1.912      4.413
REMARK INTER + INTRA:         -11.193
REMARK INTER:                  -9.007
REMARK INTRA:                  -2.186
REMARK UNBOUND:                -2.351
REMARK SMILES CCCCCCCCCCCCCCCCCC(=O)[O-]
REMARK SMILES IDX 10 1 11 2 12 3 13 4 14 5 15 6 16 7 17 8 18 9 19 10 20 11
REMARK SMILES IDX 9 12 8 13 7 14 6 15 5 16 4 17 3 18 2 19 1 20
REMARK H PARENT
REMARK Flexibility Score: inf
ROOT
ATOM      1  C   UNL     1      -8.864 -25.023  31.833  1.00  0.00     0.000 C 
ENDROOT
BRANCH   1   2
ATOM      2  C   UNL     1      -9.377 -25.097  30.384  1.00  0.00     0.000 C 
BRANCH   2   3
ATOM      3  C   UNL     1      -8.347 -25.713  29.420  1.00  0.00     0.000 C 
BRANCH   3   4
ATOM      4  C   UNL     1      -8.581 -27.200  29.085  1.00  0.00     0.000 C 
BRANCH   4   5
ATOM      5  C   UNL     1      -8.249 -27.604  27.634  1.00  0.00     0.000 C 
BRANCH   5   6
ATOM      6  C   UNL     1      -9.458 -28.043  26.787  1.00  0.00     0.000 C 
BRANCH   6   7
ATOM      7  C   UNL     1     -10.799 -27.828  27.507  1.00  0.00     0.006 C 
BRANCH   7   8
ATOM      8  C   UNL     1     -11.779 -26.997  26.668  1.00  0.00     0.053 C 
BRANCH   8   9
ATOM      9  C   UNL     1     -11.166 -25.709  26.211  1.00  0.00     0.041 C 
ATOM     10  O   UNL     1     -11.038 -25.467  24.982  1.00  0.00    -0.550 OA
ATOM     11  O   UNL     1     -10.761 -24.762  27.144  1.00  0.00    -0.550 OA
ENDBRANCH   8   9
ENDBRANCH   7   8
ENDBRANCH   6   7
ENDBRANCH   5   6
ENDBRANCH   4   5
ENDBRANCH   3   4
ENDBRANCH   2   3
ENDBRANCH   1   2
BRANCH   1  12
ATOM     12  C   UNL     1      -7.550 -24.237  31.954  1.00  0.00     0.000 C 
BRANCH  12  13
ATOM     13  C   UNL     1      -6.398 -25.094  32.500  1.00  0.00    -0.000 C 
BRANCH  13  14
ATOM     14  C   UNL     1      -6.891 -26.494  32.887  1.00  0.00    -0.000 C 
BRANCH  14  15
ATOM     15  C   UNL     1      -6.308 -27.563  31.950  1.00  0.00    -0.000 C 
BRANCH  15  16
ATOM     16  C   UNL     1      -4.945 -27.143  31.359  1.00  0.00    -0.000 C 
BRANCH  16  17
ATOM     17  C   UNL     1      -4.947 -27.021  29.822  1.00  0.00    -0.000 C 
BRANCH  17  18
ATOM     18  C   UNL     1      -4.430 -28.261  29.076  1.00  0.00    -0.000 C 
BRANCH  18  19
ATOM     19  C   UNL     1      -3.028 -28.058  28.483  1.00  0.00    -0.003 C 
ATOM     20  C   UNL     1      -1.947 -28.364  29.516  1.00  0.00     0.004 C 
ENDBRANCH  18  19
ENDBRANCH  17  18
ENDBRANCH  16  17
ENDBRANCH  15  16
ENDBRANCH  14  15
ENDBRANCH  13  14
ENDBRANCH  12  13
ENDBRANCH   1  12
TORSDOF 16
ENDMDL
