MODEL 1
REMARK VINA RESULT:    -5.571      0.000      0.000
REMARK INTER + INTRA:         -10.478
REMARK INTER:                  -8.829
REMARK INTRA:                  -1.649
REMARK UNBOUND:                -1.649
REMARK SMILES CCCCCCCCCCCC(=O)[O-]
REMARK SMILES IDX 7 1 8 2 9 3 10 4 11 5 12 6 13 7 14 8 6 9 5 10 4 11 3 12 2 13
REMARK SMILES IDX 1 14
REMARK H PARENT
REMARK Flexibility Score: inf
ROOT
ATOM      1  C   UNL     1       9.503  71.334  -4.112  1.00  0.00     0.000 C 
ENDROOT
BRANCH   1   2
ATOM      2  C   UNL     1      10.613  71.708  -3.115  1.00  0.00     0.000 C 
BRANCH   2   3
ATOM      3  C   UNL     1      10.208  72.861  -2.183  1.00  0.00     0.000 C 
BRANCH   3   4
ATOM      4  C   UNL     1       8.757  73.320  -2.399  1.00  0.00     0.006 C 
BRANCH   4   5
ATOM      5  C   UNL     1       8.706  74.806  -2.770  1.00  0.00     0.053 C 
BRANCH   5   6
ATOM      6  C   UNL     1       7.297  75.232  -3.038  1.00  0.00     0.041 C 
ATOM      7  O   UNL     1       7.040  75.991  -4.009  1.00  0.00    -0.550 OA
ATOM      8  O   UNL     1       6.263  74.753  -2.244  1.00  0.00    -0.550 OA
ENDBRANCH   5   6
ENDBRANCH   4   5
ENDBRANCH   3   4
ENDBRANCH   2   3
ENDBRANCH   1   2
BRANCH   1   9
ATOM      9  C   UNL     1       9.844  71.735  -5.559  1.00  0.00     0.000 C 
BRANCH   9  10
ATOM     10  C   UNL     1       9.087  72.967  -6.088  1.00  0.00    -0.000 C 
BRANCH  10  11
ATOM     11  C   UNL     1       9.970  74.225  -6.155  1.00  0.00    -0.000 C 
BRANCH  11  12
ATOM     12  C   UNL     1      11.468  73.903  -6.043  1.00  0.00    -0.000 C 
BRANCH  12  13
ATOM     13  C   UNL     1      12.154  74.651  -4.890  1.00  0.00    -0.003 C 
ATOM     14  C   UNL     1      13.320  73.842  -4.328  1.00  0.00     0.004 C 
ENDBRANCH  12  13
ENDBRANCH  11  12
ENDBRANCH  10  11
ENDBRANCH   9  10
ENDBRANCH   1   9
TORSDOF 10
ENDMDL
MODEL 2
REMARK VINA RESULT:    -5.456      1.644      2.820
REMARK INTER + INTRA:         -10.295
REMARK INTER:                  -8.953
REMARK INTRA:                  -1.342
REMARK UNBOUND:                -1.649
REMARK SMILES CCCCCCCCCCCC(=O)[O-]
REMARK SMILES IDX 7 1 8 2 9 3 10 4 11 5 12 6 13 7 14 8 6 9 5 10 4 11 3 12 2 13
REMARK SMILES IDX 1 14
REMARK H PARENT
REMARK Flexibility Score: inf
ROOT
ATOM      1  C   UNL     1       8.624  73.302  -6.226  1.00  0.00     0.000 C 
ENDROOT
BRANCH   1   2
ATOM      2  C   UNL     1       8.961  74.719  -5.730  1.00  0.00     0.000 C 
BRANCH   2   3
ATOM      3  C   UNL     1       8.107  75.142  -4.525  1.00  0.00     0.000 C 
BRANCH   3   4
ATOM      4  C   UNL     1       8.825  74.935  -3.182  1.00  0.00     0.006 C 
BRANCH   4   5
ATOM      5  C   UNL     1       7.953  74.123  -2.218  1.00  0.00     0.053 C 
BRANCH   5   6
ATOM      6  C   UNL     1       6.845  74.968  -1.674  1.00  0.00     0.041 C 
ATOM      7  O   UNL     1       7.107  75.987  -0.982  1.00  0.00    -0.550 OA
ATOM      8  O   UNL     1       5.523  74.657  -1.970  1.00  0.00    -0.550 OA
ENDBRANCH   5   6
ENDBRANCH   4   5
ENDBRANCH   3   4
ENDBRANCH   2   3
ENDBRANCH   1   2
BRANCH   1   9
ATOM      9  C   UNL     1       9.735  72.282  -5.912  1.00  0.00     0.000 C 
BRANCH   9  10
ATOM     10  C   UNL     1       9.400  71.278  -4.794  1.00  0.00    -0.000 C 
BRANCH  10  11
ATOM     11  C   UNL     1      10.208  71.526  -3.509  1.00  0.00    -0.000 C 
BRANCH  11  12
ATOM     12  C   UNL     1      11.505  72.309  -3.767  1.00  0.00    -0.000 C 
BRANCH  12  13
ATOM     13  C   UNL     1      12.202  72.751  -2.471  1.00  0.00    -0.003 C 
ATOM     14  C   UNL     1      11.803  71.855  -1.300  1.00  0.00     0.004 C 
ENDBRANCH  12  13
ENDBRANCH  11  12
ENDBRANCH  10  11
ENDBRANCH   9  10
ENDBRANCH   1   9
TORSDOF 10
ENDMDL
MODEL 3
REMARK VINA RESULT:    -5.450      1.329      2.429
REMARK INTER + INTRA:         -10.286
REMARK INTER:                  -8.784
REMARK INTRA:                  -1.501
REMARK UNBOUND:                -1.649
REMARK SMILES CCCCCCCCCCCC(=O)[O-]
REMARK SMILES IDX 7 1 8 2 9 3 10 4 11 5 12 6 13 7 14 8 6 9 5 10 4 11 3 12 2 13
REMARK SMILES IDX 1 14
REMARK H PARENT
REMARK Flexibility Score: inf
ROOT
ATOM      1  C   UNL     1      10.080  72.283  -5.844  1.00  0.00     0.000 C 
ENDROOT
BRANCH   1   2
ATOM      2  C   UNL     1       9.470  71.392  -4.747  1.00  0.00     0.000 C 
BRANCH   2   3
ATOM      3  C   UNL     1      10.261  71.452  -3.431  1.00  0.00     0.000 C 
BRANCH   3   4
ATOM      4  C   UNL     1       9.467  72.101  -2.286  1.00  0.00     0.006 C 
BRANCH   4   5
ATOM      5  C   UNL     1       9.530  73.629  -2.379  1.00  0.00     0.053 C 
BRANCH   5   6
ATOM      6  C   UNL     1       8.176  74.194  -2.670  1.00  0.00     0.041 C 
ATOM      7  O   UNL     1       7.345  74.358  -1.738  1.00  0.00    -0.550 OA
ATOM      8  O   UNL     1       7.847  74.582  -3.963  1.00  0.00    -0.550 OA
ENDBRANCH   5   6
ENDBRANCH   4   5
ENDBRANCH   3   4
ENDBRANCH   2   3
ENDBRANCH   1   2
BRANCH   1   9
ATOM      9  C   UNL     1      11.580  72.555  -5.624  1.00  0.00     0.000 C 
BRANCH   9  10
ATOM     10  C   UNL     1      12.025  74.003  -5.897  1.00  0.00    -0.000 C 
BRANCH  10  11
ATOM     11  C   UNL     1      12.921  74.571  -4.783  1.00  0.00    -0.000 C 
BRANCH  11  12
ATOM     12  C   UNL     1      13.456  73.481  -3.840  1.00  0.00    -0.000 C 
BRANCH  12  13
ATOM     13  C   UNL     1      13.285  73.840  -2.357  1.00  0.00    -0.003 C 
ATOM     14  C   UNL     1      13.286  72.586  -1.485  1.00  0.00     0.004 C 
ENDBRANCH  12  13
ENDBRANCH  11  12
ENDBRANCH  10  11
ENDBRANCH   9  10
ENDBRANCH   1   9
TORSDOF 10
ENDMDL
MODEL 4
REMARK VINA RESULT:    -5.393      1.323      2.698
REMARK INTER + INTRA:         -10.195
REMARK INTER:                  -8.553
REMARK INTRA:                  -1.642
REMARK UNBOUND:                -1.649
REMARK SMILES CCCCCCCCCCCC(=O)[O-]
REMARK SMILES IDX 7 1 8 2 9 3 10 4 11 5 12 6 13 7 14 8 6 9 5 10 4 11 3 12 2 13
REMARK SMILES IDX 1 14
REMARK H PARENT
REMARK Flexibility Score: inf
ROOT
ATOM      1  C   UNL     1       9.607  72.032  -5.885  1.00  0.00     0.000 C 
ENDROOT
BRANCH   1   2
ATOM      2  C   UNL     1       8.493  73.054  -6.172  1.00  0.00     0.000 C 
BRANCH   2   3
ATOM      3  C   UNL     1       9.003  74.504  -6.156  1.00  0.00     0.000 C 
BRANCH   3   4
ATOM      4  C   UNL     1       8.830  75.182  -4.788  1.00  0.00     0.006 C 
BRANCH   4   5
ATOM      5  C   UNL     1       7.653  74.569  -4.022  1.00  0.00     0.053 C 
BRANCH   5   6
ATOM      6  C   UNL     1       7.920  74.582  -2.551  1.00  0.00     0.041 C 
ATOM      7  O   UNL     1       7.033  74.198  -1.743  1.00  0.00    -0.550 OA
ATOM      8  O   UNL     1       9.165  74.973  -2.073  1.00  0.00    -0.550 OA
ENDBRANCH   5   6
ENDBRANCH   4   5
ENDBRANCH   3   4
ENDBRANCH   2   3
ENDBRANCH   1   2
BRANCH   1   9
ATOM      9  C   UNL     1       9.464  71.371  -4.501  1.00  0.00     0.000 C 
BRANCH   9  10
ATOM     10  C   UNL     1      10.466  71.862  -3.439  1.00  0.00    -0.000 C 
BRANCH  10  11
ATOM     11  C   UNL     1      11.729  72.488  -4.056  1.00  0.00    -0.000 C 
BRANCH  11  12
ATOM     12  C   UNL     1      12.061  73.864  -3.456  1.00  0.00    -0.000 C 
BRANCH  12  13
ATOM     13  C   UNL     1      12.534  74.876  -4.510  1.00  0.00    -0.003 C 
ATOM     14  C   UNL     1      12.477  74.274  -5.912  1.00  0.00     0.004 C 
ENDBRANCH  12  13
ENDBRANCH  11  12
ENDBRANCH  10  11
ENDBRANCH   9  10
ENDBRANCH   1   9
TORSDOF 10
ENDMDL
MODEL 5
REMARK VINA RESULT:    -5.298      2.745      4.487
REMARK INTER + INTRA:         -10.045
REMARK INTER:                  -8.836
REMARK INTRA:                  -1.209
REMARK UNBOUND:                -1.649
REMARK SMILES CCCCCCCCCCCC(=O)[O-]
REMARK SMILES IDX 7 1 8 2 9 3 10 4 11 5 12 6 13 7 14 8 6 9 5 10 4 11 3 12 2 13
REMARK SMILES IDX 1 14
REMARK H PARENT
REMARK Flexibility Score: inf
ROOT
ATOM      1  C   UNL     1      11.283  74.094  -6.234  1.00  0.00     0.000 C 
ENDROOT
BRANCH   1   2
ATOM      2  C   UNL     1      12.042  74.320  -4.914  1.00  0.00     0.000 C 
BRANCH   2   3
ATOM      3  C   UNL     1      13.090  73.229  -4.642  1.00  0.00     0.000 C 
BRANCH   3   4
ATOM      4  C   UNL     1      13.892  73.480  -3.355  1.00  0.00     0.006 C 
BRANCH   4   5
ATOM      5  C   UNL     1      13.197  72.841  -2.148  1.00  0.00     0.053 C 
BRANCH   5   6
ATOM      6  C   UNL     1      12.766  73.890  -1.173  1.00  0.00     0.041 C 
ATOM      7  O   UNL     1      13.616  74.464  -0.444  1.00  0.00    -0.550 OA
ATOM      8  O   UNL     1      11.430  74.268  -1.103  1.00  0.00    -0.550 OA
ENDBRANCH   5   6
ENDBRANCH   4   5
ENDBRANCH   3   4
ENDBRANCH   2   3
ENDBRANCH   1   2
BRANCH   1   9
ATOM      9  C   UNL     1       9.784  74.430  -6.123  1.00  0.00     0.000 C 
BRANCH   9  10
ATOM     10  C   UNL     1       8.865  73.223  -5.863  1.00  0.00    -0.000 C 
BRANCH  10  11
ATOM     11  C   UNL     1       9.618  71.882  -5.898  1.00  0.00    -0.000 C 
BRANCH  11  12
ATOM     12  C   UNL     1       9.454  71.077  -4.599  1.00  0.00    -0.000 C 
BRANCH  12  13
ATOM     13  C   UNL     1       9.716  71.918  -3.341  1.00  0.00    -0.003 C 
ATOM     14  C   UNL     1      10.082  71.030  -2.153  1.00  0.00     0.004 C 
ENDBRANCH  12  13
ENDBRANCH  11  12
ENDBRANCH  10  11
ENDBRANCH   9  10
ENDBRANCH   1   9
TORSDOF 10
ENDMDL
MODEL 6
REMARK VINA RESULT:    -5.266      2.850      4.699
REMARK INTER + INTRA:          -9.993
REMARK INTER:                  -8.291
REMARK INTRA:                  -1.702
REMARK UNBOUND:                -1.649
REMARK SMILES CCCCCCCCCCCC(=O)[O-]
REMARK SMILES IDX 7 1 8 2 9 3 10 4 11 5 12 6 13 7 14 8 6 9 5 10 4 11 3 12 2 13
REMARK SMILES IDX 1 14
REMARK H PARENT
REMARK Flexibility Score: inf
ROOT
ATOM      1  C   UNL     1      10.171  72.172  -5.891  1.00  0.00     0.000 C 
ENDROOT
BRANCH   1   2
ATOM      2  C   UNL     1      11.642  72.469  -5.551  1.00  0.00     0.000 C 
BRANCH   2   3
ATOM      3  C   UNL     1      11.980  73.966  -5.648  1.00  0.00     0.000 C 
BRANCH   3   4
ATOM      4  C   UNL     1      12.826  74.464  -4.465  1.00  0.00     0.006 C 
BRANCH   4   5
ATOM      5  C   UNL     1      13.433  73.286  -3.696  1.00  0.00     0.053 C 
BRANCH   5   6
ATOM      6  C   UNL     1      13.240  73.464  -2.223  1.00  0.00     0.041 C 
ATOM      7  O   UNL     1      13.061  72.463  -1.482  1.00  0.00    -0.550 OA
ATOM      8  O   UNL     1      13.304  74.734  -1.662  1.00  0.00    -0.550 OA
ENDBRANCH   5   6
ENDBRANCH   4   5
ENDBRANCH   3   4
ENDBRANCH   2   3
ENDBRANCH   1   2
BRANCH   1   9
ATOM      9  C   UNL     1       9.440  71.424  -4.760  1.00  0.00     0.000 C 
BRANCH   9  10
ATOM     10  C   UNL     1      10.151  71.453  -3.395  1.00  0.00    -0.000 C 
BRANCH  10  11
ATOM     11  C   UNL     1       9.413  72.315  -2.356  1.00  0.00    -0.000 C 
BRANCH  11  12
ATOM     12  C   UNL     1       9.550  73.821  -2.632  1.00  0.00    -0.000 C 
BRANCH  12  13
ATOM     13  C   UNL     1       8.245  74.455  -3.135  1.00  0.00    -0.003 C 
ATOM     14  C   UNL     1       8.455  75.156  -4.475  1.00  0.00     0.004 C 
ENDBRANCH  12  13
ENDBRANCH  11  12
ENDBRANCH  10  11
ENDBRANCH   9  10
ENDBRANCH   1   9
TORSDOF 10
ENDMDL
MODEL 7
REMARK VINA RESULT:    -5.239      2.874      3.987
REMARK INTER + INTRA:          -9.951
REMARK INTER:                  -8.552
REMARK INTRA:                  -1.400
REMARK UNBOUND:                -1.649
REMARK SMILES CCCCCCCCCCCC(=O)[O-]
REMARK SMILES IDX 7 1 8 2 9 3 10 4 11 5 12 6 13 7 14 8 6 9 5 10 4 11 3 12 2 13
REMARK SMILES IDX 1 14
REMARK H PARENT
REMARK Flexibility Score: inf
ROOT
ATOM      1  C   UNL     1       9.617  71.408  -4.216  1.00  0.00     0.000 C 
ENDROOT
BRANCH   1   2
ATOM      2  C   UNL     1      10.845  71.783  -3.368  1.00  0.00     0.000 C 
BRANCH   2   3
ATOM      3  C   UNL     1      11.830  72.689  -4.123  1.00  0.00     0.000 C 
BRANCH   3   4
ATOM      4  C   UNL     1      13.050  73.081  -3.275  1.00  0.00     0.006 C 
BRANCH   4   5
ATOM      5  C   UNL     1      12.796  72.793  -1.791  1.00  0.00     0.053 C 
BRANCH   5   6
ATOM      6  C   UNL     1      12.632  74.070  -1.030  1.00  0.00     0.041 C 
ATOM      7  O   UNL     1      11.497  74.606  -0.930  1.00  0.00    -0.550 OA
ATOM      8  O   UNL     1      13.724  74.644  -0.390  1.00  0.00    -0.550 OA
ENDBRANCH   5   6
ENDBRANCH   4   5
ENDBRANCH   3   4
ENDBRANCH   2   3
ENDBRANCH   1   2
BRANCH   1   9
ATOM      9  C   UNL     1       9.767  71.819  -5.693  1.00  0.00     0.000 C 
BRANCH   9  10
ATOM     10  C   UNL     1       8.726  72.837  -6.194  1.00  0.00    -0.000 C 
BRANCH  10  11
ATOM     11  C   UNL     1       9.227  74.290  -6.113  1.00  0.00    -0.000 C 
BRANCH  11  12
ATOM     12  C   UNL     1       8.473  75.117  -5.059  1.00  0.00    -0.000 C 
BRANCH  12  13
ATOM     13  C   UNL     1       9.195  75.156  -3.704  1.00  0.00    -0.003 C 
ATOM     14  C   UNL     1       8.344  74.517  -2.610  1.00  0.00     0.004 C 
ENDBRANCH  12  13
ENDBRANCH  11  12
ENDBRANCH  10  11
ENDBRANCH   9  10
ENDBRANCH   1   9
TORSDOF 10
ENDMDL
MODEL 8
REMARK VINA RESULT:    -5.222      1.586      3.038
REMARK INTER + INTRA:          -9.923
REMARK INTER:                  -8.741
REMARK INTRA:                  -1.182
REMARK UNBOUND:                -1.649
REMARK SMILES CCCCCCCCCCCC(=O)[O-]
REMARK SMILES IDX 7 1 8 2 9 3 10 4 11 5 12 6 13 7 14 8 6 9 5 10 4 11 3 12 2 13
REMARK SMILES IDX 1 14
REMARK H PARENT
REMARK Flexibility Score: inf
ROOT
ATOM      1  C   UNL     1       9.570  72.342  -2.104  1.00  0.00     0.000 C 
ENDROOT
BRANCH   1   2
ATOM      2  C   UNL     1       8.458  73.293  -2.579  1.00  0.00     0.000 C 
BRANCH   2   3
ATOM      3  C   UNL     1       8.821  74.773  -2.377  1.00  0.00     0.000 C 
BRANCH   3   4
ATOM      4  C   UNL     1       7.592  75.658  -2.119  1.00  0.00     0.006 C 
BRANCH   4   5
ATOM      5  C   UNL     1       7.146  75.557  -0.656  1.00  0.00     0.053 C 
BRANCH   5   6
ATOM      6  C   UNL     1       5.725  75.100  -0.570  1.00  0.00     0.041 C 
ATOM      7  O   UNL     1       5.255  74.326  -1.446  1.00  0.00    -0.550 OA
ATOM      8  O   UNL     1       4.932  75.490   0.502  1.00  0.00    -0.550 OA
ENDBRANCH   5   6
ENDBRANCH   4   5
ENDBRANCH   3   4
ENDBRANCH   2   3
ENDBRANCH   1   2
BRANCH   1   9
ATOM      9  C   UNL     1      10.170  71.508  -3.252  1.00  0.00     0.000 C 
BRANCH   9  10
ATOM     10  C   UNL     1      11.293  72.204  -4.043  1.00  0.00    -0.000 C 
BRANCH  10  11
ATOM     11  C   UNL     1      10.901  72.496  -5.502  1.00  0.00    -0.000 C 
BRANCH  11  12
ATOM     12  C   UNL     1       9.509  71.951  -5.861  1.00  0.00    -0.000 C 
BRANCH  12  13
ATOM     13  C   UNL     1       8.525  73.056  -6.273  1.00  0.00    -0.003 C 
ATOM     14  C   UNL     1       9.199  74.426  -6.254  1.00  0.00     0.004 C 
ENDBRANCH  12  13
ENDBRANCH  11  12
ENDBRANCH  10  11
ENDBRANCH   9  10
ENDBRANCH   1   9
TORSDOF 10
ENDMDL
MODEL 9
REMARK VINA RESULT:    -5.148      2.507      3.963
REMARK INTER + INTRA:          -9.807
REMARK INTER:                  -8.385
REMARK INTRA:                  -1.422
REMARK UNBOUND:                -1.649
REMARK SMILES CCCCCCCCCCCC(=O)[O-]
REMARK SMILES IDX 7 1 8 2 9 3 10 4 11 5 12 6 13 7 14 8 6 9 5 10 4 11 3 12 2 13
REMARK SMILES IDX 1 14
REMARK H PARENT
REMARK Flexibility Score: inf
ROOT
ATOM      1  C   UNL     1       9.502  71.364  -4.396  1.00  0.00     0.000 C 
ENDROOT
BRANCH   1   2
ATOM      2  C   UNL     1      10.667  71.773  -3.478  1.00  0.00     0.000 C 
BRANCH   2   3
ATOM      3  C   UNL     1      11.771  72.535  -4.229  1.00  0.00     0.000 C 
BRANCH   3   4
ATOM      4  C   UNL     1      12.556  73.496  -3.322  1.00  0.00     0.006 C 
BRANCH   4   5
ATOM      5  C   UNL     1      13.310  74.537  -4.155  1.00  0.00     0.053 C 
BRANCH   5   6
ATOM      6  C   UNL     1      13.052  75.915  -3.633  1.00  0.00     0.041 C 
ATOM      7  O   UNL     1      13.936  76.805  -3.732  1.00  0.00    -0.550 OA
ATOM      8  O   UNL     1      11.816  76.229  -3.079  1.00  0.00    -0.550 OA
ENDBRANCH   5   6
ENDBRANCH   4   5
ENDBRANCH   3   4
ENDBRANCH   2   3
ENDBRANCH   1   2
BRANCH   1   9
ATOM      9  C   UNL     1       9.674  71.877  -5.838  1.00  0.00     0.000 C 
BRANCH   9  10
ATOM     10  C   UNL     1       8.643  72.932  -6.281  1.00  0.00    -0.000 C 
BRANCH  10  11
ATOM     11  C   UNL     1       9.218  74.358  -6.295  1.00  0.00    -0.000 C 
BRANCH  11  12
ATOM     12  C   UNL     1       9.113  75.052  -4.927  1.00  0.00    -0.000 C 
BRANCH  12  13
ATOM     13  C   UNL     1       7.822  74.696  -4.176  1.00  0.00    -0.003 C 
ATOM     14  C   UNL     1       8.107  74.387  -2.708  1.00  0.00     0.004 C 
ENDBRANCH  12  13
ENDBRANCH  11  12
ENDBRANCH  10  11
ENDBRANCH   9  10
ENDBRANCH   1   9
TORSDOF 10
ENDMDL
