MODEL 1
REMARK VINA RESULT:    -3.883      0.000      0.000
REMARK INTER + INTRA:          -8.272
REMARK INTER:                  -6.608
REMARK INTRA:                  -1.664
REMARK UNBOUND:                -1.664
REMARK SMILES CCCCCCCCCCCCCC(=O)[O-]
REMARK SMILES IDX 8 1 9 2 10 3 11 4 12 5 13 6 14 7 15 8 16 9 7 10 6 11 5 12
REMARK SMILES IDX 4 13 3 14 2 15 1 16
REMARK H PARENT
REMARK Flexibility Score: inf
ROOT
ATOM      1  C   UNL     1      47.357   0.748  21.984  1.00  0.00     0.000 C 
ENDROOT
BRANCH   1   2
ATOM      2  C   UNL     1      48.814   0.568  22.439  1.00  0.00     0.000 C 
BRANCH   2   3
ATOM      3  C   UNL     1      49.415   1.856  23.021  1.00  0.00     0.000 C 
BRANCH   3   4
ATOM      4  C   UNL     1      50.795   2.184  22.431  1.00  0.00     0.000 C 
BRANCH   4   5
ATOM      5  C   UNL     1      50.808   1.964  20.910  1.00  0.00     0.006 C 
BRANCH   5   6
ATOM      6  C   UNL     1      50.641   3.276  20.132  1.00  0.00     0.053 C 
BRANCH   6   7
ATOM      7  C   UNL     1      51.779   3.509  19.188  1.00  0.00     0.041 C 
ATOM      8  O   UNL     1      51.774   4.509  18.421  1.00  0.00    -0.550 OA
ATOM      9  O   UNL     1      52.862   2.639  19.176  1.00  0.00    -0.550 OA
ENDBRANCH   6   7
ENDBRANCH   5   6
ENDBRANCH   4   5
ENDBRANCH   3   4
ENDBRANCH   2   3
ENDBRANCH   1   2
BRANCH   1  10
ATOM     10  C   UNL     1      47.263   0.804  20.454  1.00  0.00     0.000 C 
BRANCH  10  11
ATOM     11  C   UNL     1      47.023   2.242  19.970  1.00  0.00    -0.000 C 
BRANCH  11  12
ATOM     12  C   UNL     1      46.638   3.197  21.110  1.00  0.00    -0.000 C 
BRANCH  12  13
ATOM     13  C   UNL     1      45.472   4.128  20.732  1.00  0.00    -0.000 C 
BRANCH  13  14
ATOM     14  C   UNL     1      44.165   3.365  20.448  1.00  0.00    -0.000 C 
BRANCH  14  15
ATOM     15  C   UNL     1      43.612   2.557  21.636  1.00  0.00    -0.003 C 
ATOM     16  C   UNL     1      43.416   1.076  21.314  1.00  0.00     0.004 C 
ENDBRANCH  14  15
ENDBRANCH  13  14
ENDBRANCH  12  13
ENDBRANCH  11  12
ENDBRANCH  10  11
ENDBRANCH   1  10
TORSDOF 12
ENDMDL
MODEL 2
REMARK VINA RESULT:    -3.798      3.771      5.956
REMARK INTER + INTRA:          -8.127
REMARK INTER:                  -6.851
REMARK INTRA:                  -1.275
REMARK UNBOUND:                -1.664
REMARK SMILES CCCCCCCCCCCCCC(=O)[O-]
REMARK SMILES IDX 8 1 9 2 10 3 11 4 12 5 13 6 14 7 15 8 16 9 7 10 6 11 5 12
REMARK SMILES IDX 4 13 3 14 2 15 1 16
REMARK H PARENT
REMARK Flexibility Score: inf
ROOT
ATOM      1  C   UNL     1      49.124   4.882  24.294  1.00  0.00     0.000 C 
ENDROOT
BRANCH   1   2
ATOM      2  C   UNL     1      50.271   5.796  24.755  1.00  0.00     0.000 C 
BRANCH   2   3
ATOM      3  C   UNL     1      50.124   7.235  24.240  1.00  0.00     0.000 C 
BRANCH   3   4
ATOM      4  C   UNL     1      48.916   7.411  23.308  1.00  0.00     0.000 C 
BRANCH   4   5
ATOM      5  C   UNL     1      49.317   8.158  22.026  1.00  0.00     0.006 C 
BRANCH   5   6
ATOM      6  C   UNL     1      49.950   7.224  20.984  1.00  0.00     0.053 C 
BRANCH   6   7
ATOM      7  C   UNL     1      50.281   7.950  19.717  1.00  0.00     0.041 C 
ATOM      8  O   UNL     1      51.328   7.665  19.078  1.00  0.00    -0.550 OA
ATOM      9  O   UNL     1      49.418   8.921  19.227  1.00  0.00    -0.550 OA
ENDBRANCH   6   7
ENDBRANCH   5   6
ENDBRANCH   4   5
ENDBRANCH   3   4
ENDBRANCH   2   3
ENDBRANCH   1   2
BRANCH   1  10
ATOM     10  C   UNL     1      49.598   3.430  24.163  1.00  0.00     0.000 C 
BRANCH  10  11
ATOM     11  C   UNL     1      50.350   3.214  22.840  1.00  0.00    -0.000 C 
BRANCH  11  12
ATOM     12  C   UNL     1      49.552   3.693  21.617  1.00  0.00    -0.000 C 
BRANCH  12  13
ATOM     13  C   UNL     1      49.981   2.987  20.319  1.00  0.00    -0.000 C 
BRANCH  13  14
ATOM     14  C   UNL     1      51.406   2.410  20.394  1.00  0.00    -0.000 C 
BRANCH  14  15
ATOM     15  C   UNL     1      52.381   2.946  19.330  1.00  0.00    -0.003 C 
ATOM     16  C   UNL     1      51.903   4.243  18.679  1.00  0.00     0.004 C 
ENDBRANCH  14  15
ENDBRANCH  13  14
ENDBRANCH  12  13
ENDBRANCH  11  12
ENDBRANCH  10  11
ENDBRANCH   1  10
TORSDOF 12
ENDMDL
MODEL 3
REMARK VINA RESULT:    -3.771      5.700      6.865
REMARK INTER + INTRA:          -8.080
REMARK INTER:                  -6.482
REMARK INTRA:                  -1.598
REMARK UNBOUND:                -1.664
REMARK SMILES CCCCCCCCCCCCCC(=O)[O-]
REMARK SMILES IDX 8 1 9 2 10 3 11 4 12 5 13 6 14 7 15 8 16 9 7 10 6 11 5 12
REMARK SMILES IDX 4 13 3 14 2 15 1 16
REMARK H PARENT
REMARK Flexibility Score: inf
ROOT
ATOM      1  C   UNL     1      49.804   6.073  24.942  1.00  0.00     0.000 C 
ENDROOT
BRANCH   1   2
ATOM      2  C   UNL     1      50.326   7.510  24.786  1.00  0.00     0.000 C 
BRANCH   2   3
ATOM      3  C   UNL     1      49.424   8.373  23.891  1.00  0.00     0.000 C 
BRANCH   3   4
ATOM      4  C   UNL     1      48.681   7.550  22.828  1.00  0.00     0.000 C 
BRANCH   4   5
ATOM      5  C   UNL     1      48.975   8.083  21.417  1.00  0.00     0.006 C 
BRANCH   5   6
ATOM      6  C   UNL     1      50.109   7.310  20.729  1.00  0.00     0.053 C 
BRANCH   6   7
ATOM      7  C   UNL     1      50.544   7.976  19.461  1.00  0.00     0.041 C 
ATOM      8  O   UNL     1      50.313   9.200  19.275  1.00  0.00    -0.550 OA
ATOM      9  O   UNL     1      51.233   7.252  18.496  1.00  0.00    -0.550 OA
ENDBRANCH   6   7
ENDBRANCH   5   6
ENDBRANCH   4   5
ENDBRANCH   3   4
ENDBRANCH   2   3
ENDBRANCH   1   2
BRANCH   1  10
ATOM     10  C   UNL     1      50.008   5.568  26.376  1.00  0.00     0.000 C 
BRANCH  10  11
ATOM     11  C   UNL     1      49.689   6.671  27.398  1.00  0.00    -0.000 C 
BRANCH  11  12
ATOM     12  C   UNL     1      48.211   6.681  27.818  1.00  0.00    -0.000 C 
BRANCH  12  13
ATOM     13  C   UNL     1      47.616   8.101  27.848  1.00  0.00    -0.000 C 
BRANCH  13  14
ATOM     14  C   UNL     1      46.602   8.349  26.717  1.00  0.00    -0.000 C 
BRANCH  14  15
ATOM     15  C   UNL     1      46.387   7.159  25.764  1.00  0.00    -0.003 C 
ATOM     16  C   UNL     1      45.374   7.453  24.658  1.00  0.00     0.004 C 
ENDBRANCH  14  15
ENDBRANCH  13  14
ENDBRANCH  12  13
ENDBRANCH  11  12
ENDBRANCH  10  11
ENDBRANCH   1  10
TORSDOF 12
ENDMDL
MODEL 4
REMARK VINA RESULT:    -3.737      3.833      5.361
REMARK INTER + INTRA:          -8.022
REMARK INTER:                  -6.255
REMARK INTRA:                  -1.767
REMARK UNBOUND:                -1.664
REMARK SMILES CCCCCCCCCCCCCC(=O)[O-]
REMARK SMILES IDX 8 1 9 2 10 3 11 4 12 5 13 6 14 7 15 8 16 9 7 10 6 11 5 12
REMARK SMILES IDX 4 13 3 14 2 15 1 16
REMARK H PARENT
REMARK Flexibility Score: inf
ROOT
ATOM      1  C   UNL     1      49.305   4.651  25.308  1.00  0.00     0.000 C 
ENDROOT
BRANCH   1   2
ATOM      2  C   UNL     1      49.604   4.192  23.873  1.00  0.00     0.000 C 
BRANCH   2   3
ATOM      3  C   UNL     1      48.360   3.651  23.153  1.00  0.00     0.000 C 
BRANCH   3   4
ATOM      4  C   UNL     1      48.589   3.447  21.647  1.00  0.00     0.000 C 
BRANCH   4   5
ATOM      5  C   UNL     1      50.033   3.801  21.259  1.00  0.00     0.006 C 
BRANCH   5   6
ATOM      6  C   UNL     1      50.739   2.646  20.536  1.00  0.00     0.053 C 
BRANCH   6   7
ATOM      7  C   UNL     1      51.966   2.200  21.271  1.00  0.00     0.041 C 
ATOM      8  O   UNL     1      51.886   1.829  22.472  1.00  0.00    -0.550 OA
ATOM      9  O   UNL     1      53.192   2.165  20.620  1.00  0.00    -0.550 OA
ENDBRANCH   6   7
ENDBRANCH   5   6
ENDBRANCH   4   5
ENDBRANCH   3   4
ENDBRANCH   2   3
ENDBRANCH   1   2
BRANCH   1  10
ATOM     10  C   UNL     1      50.047   5.953  25.635  1.00  0.00     0.000 C 
BRANCH  10  11
ATOM     11  C   UNL     1      50.322   6.764  24.359  1.00  0.00    -0.000 C 
BRANCH  11  12
ATOM     12  C   UNL     1      49.819   8.213  24.456  1.00  0.00    -0.000 C 
BRANCH  12  13
ATOM     13  C   UNL     1      48.854   8.579  23.315  1.00  0.00    -0.000 C 
BRANCH  13  14
ATOM     14  C   UNL     1      48.322   7.347  22.562  1.00  0.00    -0.000 C 
BRANCH  14  15
ATOM     15  C   UNL     1      48.503   7.390  21.034  1.00  0.00    -0.003 C 
ATOM     16  C   UNL     1      49.968   7.481  20.606  1.00  0.00     0.004 C 
ENDBRANCH  14  15
ENDBRANCH  13  14
ENDBRANCH  12  13
ENDBRANCH  11  12
ENDBRANCH  10  11
ENDBRANCH   1  10
TORSDOF 12
ENDMDL
MODEL 5
REMARK VINA RESULT:    -3.706      2.868      5.110
REMARK INTER + INTRA:          -7.969
REMARK INTER:                  -6.587
REMARK INTRA:                  -1.382
REMARK UNBOUND:                -1.664
REMARK SMILES CCCCCCCCCCCCCC(=O)[O-]
REMARK SMILES IDX 8 1 9 2 10 3 11 4 12 5 13 6 14 7 15 8 16 9 7 10 6 11 5 12
REMARK SMILES IDX 4 13 3 14 2 15 1 16
REMARK H PARENT
REMARK Flexibility Score: inf
ROOT
ATOM      1  C   UNL     1      46.691   3.318  22.622  1.00  0.00     0.000 C 
ENDROOT
BRANCH   1   2
ATOM      2  C   UNL     1      46.672   4.846  22.786  1.00  0.00     0.000 C 
BRANCH   2   3
ATOM      3  C   UNL     1      48.069   5.472  22.655  1.00  0.00     0.000 C 
BRANCH   3   4
ATOM      4  C   UNL     1      48.208   6.355  21.406  1.00  0.00     0.000 C 
BRANCH   4   5
ATOM      5  C   UNL     1      49.640   6.895  21.272  1.00  0.00     0.006 C 
BRANCH   5   6
ATOM      6  C   UNL     1      49.687   8.244  20.542  1.00  0.00     0.053 C 
BRANCH   6   7
ATOM      7  C   UNL     1      50.567   8.190  19.332  1.00  0.00     0.041 C 
ATOM      8  O   UNL     1      50.454   9.057  18.425  1.00  0.00    -0.550 OA
ATOM      9  O   UNL     1      51.534   7.199  19.219  1.00  0.00    -0.550 OA
ENDBRANCH   6   7
ENDBRANCH   5   6
ENDBRANCH   4   5
ENDBRANCH   3   4
ENDBRANCH   2   3
ENDBRANCH   1   2
BRANCH   1  10
ATOM     10  C   UNL     1      46.385   2.918  21.174  1.00  0.00     0.000 C 
BRANCH  10  11
ATOM     11  C   UNL     1      47.681   2.679  20.384  1.00  0.00    -0.000 C 
BRANCH  11  12
ATOM     12  C   UNL     1      48.587   1.621  21.033  1.00  0.00    -0.000 C 
BRANCH  12  13
ATOM     13  C   UNL     1      50.054   2.076  21.123  1.00  0.00    -0.000 C 
BRANCH  13  14
ATOM     14  C   UNL     1      50.304   3.431  20.437  1.00  0.00    -0.000 C 
BRANCH  14  15
ATOM     15  C   UNL     1      51.353   3.406  19.310  1.00  0.00    -0.003 C 
ATOM     16  C   UNL     1      52.381   2.287  19.474  1.00  0.00     0.004 C 
ENDBRANCH  14  15
ENDBRANCH  13  14
ENDBRANCH  12  13
ENDBRANCH  11  12
ENDBRANCH  10  11
ENDBRANCH   1  10
TORSDOF 12
ENDMDL
MODEL 6
REMARK VINA RESULT:    -3.701      1.113      3.054
REMARK INTER + INTRA:          -7.961
REMARK INTER:                  -6.329
REMARK INTRA:                  -1.633
REMARK UNBOUND:                -1.664
REMARK SMILES CCCCCCCCCCCCCC(=O)[O-]
REMARK SMILES IDX 8 1 9 2 10 3 11 4 12 5 13 6 14 7 15 8 16 9 7 10 6 11 5 12
REMARK SMILES IDX 4 13 3 14 2 15 1 16
REMARK H PARENT
REMARK Flexibility Score: inf
ROOT
ATOM      1  C   UNL     1      45.832   4.383  21.530  1.00  0.00     0.000 C 
ENDROOT
BRANCH   1   2
ATOM      2  C   UNL     1      47.355   4.381  21.330  1.00  0.00     0.000 C 
BRANCH   2   3
ATOM      3  C   UNL     1      48.120   4.021  22.613  1.00  0.00     0.000 C 
BRANCH   3   4
ATOM      4  C   UNL     1      49.479   3.363  22.328  1.00  0.00     0.000 C 
BRANCH   4   5
ATOM      5  C   UNL     1      50.049   3.843  20.984  1.00  0.00     0.006 C 
BRANCH   5   6
ATOM      6  C   UNL     1      50.511   2.677  20.099  1.00  0.00     0.053 C 
BRANCH   6   7
ATOM      7  C   UNL     1      51.696   3.051  19.263  1.00  0.00     0.041 C 
ATOM      8  O   UNL     1      52.653   2.245  19.124  1.00  0.00    -0.550 OA
ATOM      9  O   UNL     1      51.729   4.277  18.613  1.00  0.00    -0.550 OA
ENDBRANCH   6   7
ENDBRANCH   5   6
ENDBRANCH   4   5
ENDBRANCH   3   4
ENDBRANCH   2   3
ENDBRANCH   1   2
BRANCH   1  10
ATOM     10  C   UNL     1      45.125   3.664  20.374  1.00  0.00     0.000 C 
BRANCH  10  11
ATOM     11  C   UNL     1      43.646   3.411  20.706  1.00  0.00    -0.000 C 
BRANCH  11  12
ATOM     12  C   UNL     1      43.429   2.115  21.502  1.00  0.00    -0.000 C 
BRANCH  12  13
ATOM     13  C   UNL     1      44.473   1.035  21.167  1.00  0.00    -0.000 C 
BRANCH  13  14
ATOM     14  C   UNL     1      45.328   0.632  22.382  1.00  0.00    -0.000 C 
BRANCH  14  15
ATOM     15  C   UNL     1      46.845   0.588  22.124  1.00  0.00    -0.003 C 
ATOM     16  C   UNL     1      47.203   0.669  20.641  1.00  0.00     0.004 C 
ENDBRANCH  14  15
ENDBRANCH  13  14
ENDBRANCH  12  13
ENDBRANCH  11  12
ENDBRANCH  10  11
ENDBRANCH   1  10
TORSDOF 12
ENDMDL
MODEL 7
REMARK VINA RESULT:    -3.677      3.349      4.845
REMARK INTER + INTRA:          -7.921
REMARK INTER:                  -6.086
REMARK INTRA:                  -1.835
REMARK UNBOUND:                -1.664
REMARK SMILES CCCCCCCCCCCCCC(=O)[O-]
REMARK SMILES IDX 8 1 9 2 10 3 11 4 12 5 13 6 14 7 15 8 16 9 7 10 6 11 5 12
REMARK SMILES IDX 4 13 3 14 2 15 1 16
REMARK H PARENT
REMARK Flexibility Score: inf
ROOT
ATOM      1  C   UNL     1      46.666   3.472  20.995  1.00  0.00     0.000 C 
ENDROOT
BRANCH   1   2
ATOM      2  C   UNL     1      46.582   2.354  19.944  1.00  0.00     0.000 C 
BRANCH   2   3
ATOM      3  C   UNL     1      47.255   1.053  20.407  1.00  0.00     0.000 C 
BRANCH   3   4
ATOM      4  C   UNL     1      48.146   1.254  21.643  1.00  0.00     0.000 C 
BRANCH   4   5
ATOM      5  C   UNL     1      48.866  -0.051  22.018  1.00  0.00     0.006 C 
BRANCH   5   6
ATOM      6  C   UNL     1      47.883  -1.197  22.294  1.00  0.00     0.053 C 
BRANCH   6   7
ATOM      7  C   UNL     1      48.593  -2.445  22.718  1.00  0.00     0.041 C 
ATOM      8  O   UNL     1      49.730  -2.719  22.249  1.00  0.00    -0.550 OA
ATOM      9  O   UNL     1      48.013  -3.292  23.653  1.00  0.00    -0.550 OA
ENDBRANCH   6   7
ENDBRANCH   5   6
ENDBRANCH   4   5
ENDBRANCH   3   4
ENDBRANCH   2   3
ENDBRANCH   1   2
BRANCH   1  10
ATOM     10  C   UNL     1      45.277   4.042  21.302  1.00  0.00     0.000 C 
BRANCH  10  11
ATOM     11  C   UNL     1      44.220   3.462  20.349  1.00  0.00    -0.000 C 
BRANCH  11  12
ATOM     12  C   UNL     1      43.091   2.728  21.089  1.00  0.00    -0.000 C 
BRANCH  12  13
ATOM     13  C   UNL     1      43.284   1.201  21.092  1.00  0.00    -0.000 C 
BRANCH  13  14
ATOM     14  C   UNL     1      43.214   0.591  22.504  1.00  0.00    -0.000 C 
BRANCH  14  15
ATOM     15  C   UNL     1      44.574   0.206  23.114  1.00  0.00    -0.003 C 
ATOM     16  C   UNL     1      45.226   1.347  23.895  1.00  0.00     0.004 C 
ENDBRANCH  14  15
ENDBRANCH  13  14
ENDBRANCH  12  13
ENDBRANCH  11  12
ENDBRANCH  10  11
ENDBRANCH   1  10
TORSDOF 12
ENDMDL
MODEL 8
REMARK VINA RESULT:    -3.650      2.352      4.163
REMARK INTER + INTRA:          -7.875
REMARK INTER:                  -6.508
REMARK INTRA:                  -1.366
REMARK UNBOUND:                -1.664
REMARK SMILES CCCCCCCCCCCCCC(=O)[O-]
REMARK SMILES IDX 8 1 9 2 10 3 11 4 12 5 13 6 14 7 15 8 16 9 7 10 6 11 5 12
REMARK SMILES IDX 4 13 3 14 2 15 1 16
REMARK H PARENT
REMARK Flexibility Score: inf
ROOT
ATOM      1  C   UNL     1      46.948   2.038  20.699  1.00  0.00     0.000 C 
ENDROOT
BRANCH   1   2
ATOM      2  C   UNL     1      47.777   1.767  21.965  1.00  0.00     0.000 C 
BRANCH   2   3
ATOM      3  C   UNL     1      49.125   1.097  21.657  1.00  0.00     0.000 C 
BRANCH   3   4
ATOM      4  C   UNL     1      50.317   1.869  22.242  1.00  0.00     0.000 C 
BRANCH   4   5
ATOM      5  C   UNL     1      50.553   3.179  21.474  1.00  0.00     0.006 C 
BRANCH   5   6
ATOM      6  C   UNL     1      50.484   2.981  19.954  1.00  0.00     0.053 C 
BRANCH   6   7
ATOM      7  C   UNL     1      51.843   3.030  19.327  1.00  0.00     0.041 C 
ATOM      8  O   UNL     1      52.544   1.987  19.248  1.00  0.00    -0.550 OA
ATOM      9  O   UNL     1      52.323   4.223  18.801  1.00  0.00    -0.550 OA
ENDBRANCH   6   7
ENDBRANCH   5   6
ENDBRANCH   4   5
ENDBRANCH   3   4
ENDBRANCH   2   3
ENDBRANCH   1   2
BRANCH   1  10
ATOM     10  C   UNL     1      46.368   3.458  20.717  1.00  0.00     0.000 C 
BRANCH  10  11
ATOM     11  C   UNL     1      47.110   4.343  21.731  1.00  0.00    -0.000 C 
BRANCH  11  12
ATOM     12  C   UNL     1      47.283   5.789  21.242  1.00  0.00    -0.000 C 
BRANCH  12  13
ATOM     13  C   UNL     1      48.341   6.562  22.050  1.00  0.00    -0.000 C 
BRANCH  13  14
ATOM     14  C   UNL     1      49.654   6.769  21.273  1.00  0.00    -0.000 C 
BRANCH  14  15
ATOM     15  C   UNL     1      49.667   7.985  20.330  1.00  0.00    -0.003 C 
ATOM     16  C   UNL     1      50.847   7.978  19.359  1.00  0.00     0.004 C 
ENDBRANCH  14  15
ENDBRANCH  13  14
ENDBRANCH  12  13
ENDBRANCH  11  12
ENDBRANCH  10  11
ENDBRANCH   1  10
TORSDOF 12
ENDMDL
MODEL 9
REMARK VINA RESULT:    -3.638      1.810      3.551
REMARK INTER + INTRA:          -7.855
REMARK INTER:                  -6.266
REMARK INTRA:                  -1.589
REMARK UNBOUND:                -1.664
REMARK SMILES CCCCCCCCCCCCCC(=O)[O-]
REMARK SMILES IDX 8 1 9 2 10 3 11 4 12 5 13 6 14 7 15 8 16 9 7 10 6 11 5 12
REMARK SMILES IDX 4 13 3 14 2 15 1 16
REMARK H PARENT
REMARK Flexibility Score: inf
ROOT
ATOM      1  C   UNL     1      45.719   3.065  21.044  1.00  0.00     0.000 C 
ENDROOT
BRANCH   1   2
ATOM      2  C   UNL     1      46.546   2.407  19.929  1.00  0.00     0.000 C 
BRANCH   2   3
ATOM      3  C   UNL     1      47.037   1.001  20.306  1.00  0.00     0.000 C 
BRANCH   3   4
ATOM      4  C   UNL     1      47.569   0.926  21.745  1.00  0.00     0.000 C 
BRANCH   4   5
ATOM      5  C   UNL     1      49.103   0.836  21.759  1.00  0.00     0.006 C 
BRANCH   5   6
ATOM      6  C   UNL     1      49.757   2.147  22.217  1.00  0.00     0.053 C 
BRANCH   6   7
ATOM      7  C   UNL     1      49.996   3.077  21.068  1.00  0.00     0.041 C 
ATOM      8  O   UNL     1      49.546   4.253  21.100  1.00  0.00    -0.550 OA
ATOM      9  O   UNL     1      50.742   2.656  19.975  1.00  0.00    -0.550 OA
ENDBRANCH   6   7
ENDBRANCH   5   6
ENDBRANCH   4   5
ENDBRANCH   3   4
ENDBRANCH   2   3
ENDBRANCH   1   2
BRANCH   1  10
ATOM     10  C   UNL     1      44.289   3.352  20.569  1.00  0.00     0.000 C 
BRANCH  10  11
ATOM     11  C   UNL     1      43.267   2.530  21.371  1.00  0.00    -0.000 C 
BRANCH  11  12
ATOM     12  C   UNL     1      43.278   1.040  20.997  1.00  0.00    -0.000 C 
BRANCH  12  13
ATOM     13  C   UNL     1      42.983   0.127  22.200  1.00  0.00    -0.000 C 
BRANCH  13  14
ATOM     14  C   UNL     1      44.232  -0.162  23.052  1.00  0.00    -0.000 C 
BRANCH  14  15
ATOM     15  C   UNL     1      44.238   0.500  24.442  1.00  0.00    -0.003 C 
ATOM     16  C   UNL     1      42.879   1.077  24.838  1.00  0.00     0.004 C 
ENDBRANCH  14  15
ENDBRANCH  13  14
ENDBRANCH  12  13
ENDBRANCH  11  12
ENDBRANCH  10  11
ENDBRANCH   1  10
TORSDOF 12
ENDMDL
