MODEL 1
REMARK VINA RESULT:    -3.134      0.000      0.000
REMARK INTER + INTRA:          -9.112
REMARK INTER:                  -6.065
REMARK INTRA:                  -3.047
REMARK UNBOUND:                -3.047
REMARK SMILES CCCCCCCCCCCCCCCCCC(=O)[O-]
REMARK SMILES IDX 10 1 11 2 12 3 13 4 14 5 15 6 16 7 17 8 18 9 19 10 20 11
REMARK SMILES IDX 9 12 8 13 7 14 6 15 5 16 4 17 3 18 2 19 1 20
REMARK H PARENT
REMARK Flexibility Score: inf
ROOT
ATOM      1  C   UNL     1      63.992  34.614  61.095  1.00  0.00     0.000 C 
ENDROOT
BRANCH   1   2
ATOM      2  C   UNL     1      62.761  35.478  60.793  1.00  0.00     0.000 C 
BRANCH   2   3
ATOM      3  C   UNL     1      61.624  34.632  60.209  1.00  0.00     0.000 C 
BRANCH   3   4
ATOM      4  C   UNL     1      61.923  33.135  60.350  1.00  0.00     0.000 C 
BRANCH   4   5
ATOM      5  C   UNL     1      61.160  32.319  59.300  1.00  0.00     0.000 C 
BRANCH   5   6
ATOM      6  C   UNL     1      60.519  31.073  59.930  1.00  0.00     0.000 C 
BRANCH   6   7
ATOM      7  C   UNL     1      61.119  30.724  61.304  1.00  0.00     0.006 C 
BRANCH   7   8
ATOM      8  C   UNL     1      61.813  29.355  61.363  1.00  0.00     0.053 C 
BRANCH   8   9
ATOM      9  C   UNL     1      63.268  29.447  61.020  1.00  0.00     0.041 C 
ATOM     10  O   UNL     1      63.853  28.476  60.472  1.00  0.00    -0.550 OA
ATOM     11  O   UNL     1      63.987  30.593  61.336  1.00  0.00    -0.550 OA
ENDBRANCH   8   9
ENDBRANCH   7   8
ENDBRANCH   6   7
ENDBRANCH   5   6
ENDBRANCH   4   5
ENDBRANCH   3   4
ENDBRANCH   2   3
ENDBRANCH   1   2
BRANCH   1  12
ATOM     12  C   UNL     1      65.286  35.426  60.936  1.00  0.00     0.000 C 
BRANCH  12  13
ATOM     13  C   UNL     1      65.362  36.160  59.587  1.00  0.00    -0.000 C 
BRANCH  13  14
ATOM     14  C   UNL     1      65.678  35.213  58.416  1.00  0.00    -0.000 C 
BRANCH  14  15
ATOM     15  C   UNL     1      64.488  35.041  57.458  1.00  0.00    -0.000 C 
BRANCH  15  16
ATOM     16  C   UNL     1      64.061  33.574  57.306  1.00  0.00    -0.000 C 
BRANCH  16  17
ATOM     17  C   UNL     1      64.975  32.647  58.121  1.00  0.00    -0.000 C 
BRANCH  17  18
ATOM     18  C   UNL     1      64.601  31.160  57.951  1.00  0.00    -0.000 C 
BRANCH  18  19
ATOM     19  C   UNL     1      63.493  30.918  56.912  1.00  0.00    -0.003 C 
ATOM     20  C   UNL     1      62.687  29.649  57.178  1.00  0.00     0.004 C 
ENDBRANCH  18  19
ENDBRANCH  17  18
ENDBRANCH  16  17
ENDBRANCH  15  16
ENDBRANCH  14  15
ENDBRANCH  13  14
ENDBRANCH  12  13
ENDBRANCH   1  12
TORSDOF 16
ENDMDL
MODEL 2
REMARK VINA RESULT:    -3.076      2.102      4.588
REMARK INTER + INTRA:          -9.000
REMARK INTER:                  -5.945
REMARK INTRA:                  -3.054
REMARK UNBOUND:                -3.047
REMARK SMILES CCCCCCCCCCCCCCCCCC(=O)[O-]
REMARK SMILES IDX 10 1 11 2 12 3 13 4 14 5 15 6 16 7 17 8 18 9 19 10 20 11
REMARK SMILES IDX 9 12 8 13 7 14 6 15 5 16 4 17 3 18 2 19 1 20
REMARK H PARENT
REMARK Flexibility Score: inf
ROOT
ATOM      1  C   UNL     1      60.961  31.613  58.326  1.00  0.00     0.000 C 
ENDROOT
BRANCH   1   2
ATOM      2  C   UNL     1      60.387  30.826  59.512  1.00  0.00     0.000 C 
BRANCH   2   3
ATOM      3  C   UNL     1      60.970  31.325  60.838  1.00  0.00     0.000 C 
BRANCH   3   4
ATOM      4  C   UNL     1      61.567  30.168  61.647  1.00  0.00     0.000 C 
BRANCH   4   5
ATOM      5  C   UNL     1      63.070  30.023  61.377  1.00  0.00     0.000 C 
BRANCH   5   6
ATOM      6  C   UNL     1      63.380  28.687  60.687  1.00  0.00     0.000 C 
BRANCH   6   7
ATOM      7  C   UNL     1      62.235  27.666  60.822  1.00  0.00     0.006 C 
BRANCH   7   8
ATOM      8  C   UNL     1      61.587  27.261  59.489  1.00  0.00     0.053 C 
BRANCH   8   9
ATOM      9  C   UNL     1      60.122  26.991  59.635  1.00  0.00     0.041 C 
ATOM     10  O   UNL     1      59.528  26.253  58.805  1.00  0.00    -0.550 OA
ATOM     11  O   UNL     1      59.405  27.579  60.670  1.00  0.00    -0.550 OA
ENDBRANCH   8   9
ENDBRANCH   7   8
ENDBRANCH   6   7
ENDBRANCH   5   6
ENDBRANCH   4   5
ENDBRANCH   3   4
ENDBRANCH   2   3
ENDBRANCH   1   2
BRANCH   1  12
ATOM     12  C   UNL     1      62.085  30.826  57.637  1.00  0.00     0.000 C 
BRANCH  12  13
ATOM     13  C   UNL     1      63.484  31.267  58.098  1.00  0.00    -0.000 C 
BRANCH  13  14
ATOM     14  C   UNL     1      63.595  32.792  58.272  1.00  0.00    -0.000 C 
BRANCH  14  15
ATOM     15  C   UNL     1      64.496  33.187  59.453  1.00  0.00    -0.000 C 
BRANCH  15  16
ATOM     16  C   UNL     1      63.697  33.717  60.653  1.00  0.00    -0.000 C 
BRANCH  16  17
ATOM     17  C   UNL     1      63.744  35.252  60.711  1.00  0.00    -0.000 C 
BRANCH  17  18
ATOM     18  C   UNL     1      62.336  35.876  60.810  1.00  0.00    -0.000 C 
BRANCH  18  19
ATOM     19  C   UNL     1      61.215  34.952  60.306  1.00  0.00    -0.003 C 
ATOM     20  C   UNL     1      60.776  35.265  58.878  1.00  0.00     0.004 C 
ENDBRANCH  18  19
ENDBRANCH  17  18
ENDBRANCH  16  17
ENDBRANCH  15  16
ENDBRANCH  14  15
ENDBRANCH  13  14
ENDBRANCH  12  13
ENDBRANCH   1  12
TORSDOF 16
ENDMDL
MODEL 3
REMARK VINA RESULT:    -3.003      2.134      5.518
REMARK INTER + INTRA:          -8.859
REMARK INTER:                  -6.086
REMARK INTRA:                  -2.773
REMARK UNBOUND:                -3.047
REMARK SMILES CCCCCCCCCCCCCCCCCC(=O)[O-]
REMARK SMILES IDX 10 1 11 2 12 3 13 4 14 5 15 6 16 7 17 8 18 9 19 10 20 11
REMARK SMILES IDX 9 12 8 13 7 14 6 15 5 16 4 17 3 18 2 19 1 20
REMARK H PARENT
REMARK Flexibility Score: inf
ROOT
ATOM      1  C   UNL     1      61.074  30.833  61.373  1.00  0.00     0.000 C 
ENDROOT
BRANCH   1   2
ATOM      2  C   UNL     1      60.528  31.063  59.958  1.00  0.00     0.000 C 
BRANCH   2   3
ATOM      3  C   UNL     1      61.208  32.265  59.293  1.00  0.00     0.000 C 
BRANCH   3   4
ATOM      4  C   UNL     1      62.040  33.058  60.308  1.00  0.00     0.000 C 
BRANCH   4   5
ATOM      5  C   UNL     1      61.581  34.519  60.377  1.00  0.00     0.000 C 
BRANCH   5   6
ATOM      6  C   UNL     1      62.737  35.441  60.791  1.00  0.00     0.000 C 
BRANCH   6   7
ATOM      7  C   UNL     1      64.044  34.673  61.063  1.00  0.00     0.006 C 
BRANCH   7   8
ATOM      8  C   UNL     1      65.310  35.380  60.556  1.00  0.00     0.053 C 
BRANCH   8   9
ATOM      9  C   UNL     1      65.558  35.116  59.103  1.00  0.00     0.041 C 
ATOM     10  O   UNL     1      65.064  34.098  58.550  1.00  0.00    -0.550 OA
ATOM     11  O   UNL     1      66.361  35.977  58.366  1.00  0.00    -0.550 OA
ENDBRANCH   8   9
ENDBRANCH   7   8
ENDBRANCH   6   7
ENDBRANCH   5   6
ENDBRANCH   4   5
ENDBRANCH   3   4
ENDBRANCH   2   3
ENDBRANCH   1   2
BRANCH   1  12
ATOM     12  C   UNL     1      61.857  29.515  61.453  1.00  0.00     0.000 C 
BRANCH  12  13
ATOM     13  C   UNL     1      61.137  28.355  60.747  1.00  0.00    -0.000 C 
BRANCH  13  14
ATOM     14  C   UNL     1      62.036  27.633  59.729  1.00  0.00    -0.000 C 
BRANCH  14  15
ATOM     15  C   UNL     1      61.564  27.829  58.280  1.00  0.00    -0.000 C 
BRANCH  15  16
ATOM     16  C   UNL     1      62.375  28.900  57.535  1.00  0.00    -0.000 C 
BRANCH  16  17
ATOM     17  C   UNL     1      63.773  29.059  58.152  1.00  0.00    -0.000 C 
BRANCH  17  18
ATOM     18  C   UNL     1      64.089  30.525  58.512  1.00  0.00    -0.000 C 
BRANCH  18  19
ATOM     19  C   UNL     1      64.982  30.675  59.756  1.00  0.00    -0.003 C 
ATOM     20  C   UNL     1      65.296  29.343  60.433  1.00  0.00     0.004 C 
ENDBRANCH  18  19
ENDBRANCH  17  18
ENDBRANCH  16  17
ENDBRANCH  15  16
ENDBRANCH  14  15
ENDBRANCH  13  14
ENDBRANCH  12  13
ENDBRANCH   1  12
TORSDOF 16
ENDMDL
MODEL 4
REMARK VINA RESULT:    -2.962      8.717     12.170
REMARK INTER + INTRA:          -8.780
REMARK INTER:                  -5.780
REMARK INTRA:                  -3.000
REMARK UNBOUND:                -3.047
REMARK SMILES CCCCCCCCCCCCCCCCCC(=O)[O-]
REMARK SMILES IDX 10 1 11 2 12 3 13 4 14 5 15 6 16 7 17 8 18 9 19 10 20 11
REMARK SMILES IDX 9 12 8 13 7 14 6 15 5 16 4 17 3 18 2 19 1 20
REMARK H PARENT
REMARK Flexibility Score: inf
ROOT
ATOM      1  C   UNL     1      59.585  25.852  50.056  1.00  0.00     0.000 C 
ENDROOT
BRANCH   1   2
ATOM      2  C   UNL     1      60.997  26.343  50.399  1.00  0.00     0.000 C 
BRANCH   2   3
ATOM      3  C   UNL     1      61.331  27.635  49.646  1.00  0.00     0.000 C 
BRANCH   3   4
ATOM      4  C   UNL     1      60.115  28.145  48.863  1.00  0.00     0.000 C 
BRANCH   4   5
ATOM      5  C   UNL     1      59.722  29.558  49.312  1.00  0.00     0.000 C 
BRANCH   5   6
ATOM      6  C   UNL     1      58.570  29.513  50.326  1.00  0.00     0.000 C 
BRANCH   6   7
ATOM      7  C   UNL     1      58.984  30.012  51.722  1.00  0.00     0.006 C 
BRANCH   7   8
ATOM      8  C   UNL     1      59.193  28.896  52.757  1.00  0.00     0.053 C 
BRANCH   8   9
ATOM      9  C   UNL     1      58.808  29.330  54.138  1.00  0.00     0.041 C 
ATOM     10  O   UNL     1      58.636  28.475  55.046  1.00  0.00    -0.550 OA
ATOM     11  O   UNL     1      58.608  30.677  54.414  1.00  0.00    -0.550 OA
ENDBRANCH   8   9
ENDBRANCH   7   8
ENDBRANCH   6   7
ENDBRANCH   5   6
ENDBRANCH   4   5
ENDBRANCH   3   4
ENDBRANCH   2   3
ENDBRANCH   1   2
BRANCH   1  12
ATOM     12  C   UNL     1      58.775  25.572  51.329  1.00  0.00     0.000 C 
BRANCH  12  13
ATOM     13  C   UNL     1      57.300  25.983  51.194  1.00  0.00    -0.000 C 
BRANCH  13  14
ATOM     14  C   UNL     1      56.916  26.339  49.747  1.00  0.00    -0.000 C 
BRANCH  14  15
ATOM     15  C   UNL     1      55.422  26.115  49.460  1.00  0.00    -0.000 C 
BRANCH  15  16
ATOM     16  C   UNL     1      54.514  26.971  50.355  1.00  0.00    -0.000 C 
BRANCH  16  17
ATOM     17  C   UNL     1      54.188  28.314  49.684  1.00  0.00    -0.000 C 
BRANCH  17  18
ATOM     18  C   UNL     1      54.709  29.516  50.499  1.00  0.00    -0.000 C 
BRANCH  18  19
ATOM     19  C   UNL     1      55.173  29.144  51.917  1.00  0.00    -0.003 C 
ATOM     20  C   UNL     1      55.464  30.362  52.792  1.00  0.00     0.004 C 
ENDBRANCH  18  19
ENDBRANCH  17  18
ENDBRANCH  16  17
ENDBRANCH  15  16
ENDBRANCH  14  15
ENDBRANCH  13  14
ENDBRANCH  12  13
ENDBRANCH   1  12
TORSDOF 16
ENDMDL
MODEL 5
REMARK VINA RESULT:    -2.941     10.067     12.780
REMARK INTER + INTRA:          -8.739
REMARK INTER:                  -5.875
REMARK INTRA:                  -2.864
REMARK UNBOUND:                -3.047
REMARK SMILES CCCCCCCCCCCCCCCCCC(=O)[O-]
REMARK SMILES IDX 10 1 11 2 12 3 13 4 14 5 15 6 16 7 17 8 18 9 19 10 20 11
REMARK SMILES IDX 9 12 8 13 7 14 6 15 5 16 4 17 3 18 2 19 1 20
REMARK H PARENT
REMARK Flexibility Score: inf
ROOT
ATOM      1  C   UNL     1      56.473  26.825  52.943  1.00  0.00     0.000 C 
ENDROOT
BRANCH   1   2
ATOM      2  C   UNL     1      57.847  26.993  52.282  1.00  0.00     0.000 C 
BRANCH   2   3
ATOM      3  C   UNL     1      58.436  28.377  52.579  1.00  0.00     0.000 C 
BRANCH   3   4
ATOM      4  C   UNL     1      57.872  29.432  51.619  1.00  0.00     0.000 C 
BRANCH   4   5
ATOM      5  C   UNL     1      58.125  29.041  50.158  1.00  0.00     0.000 C 
BRANCH   5   6
ATOM      6  C   UNL     1      59.547  29.425  49.724  1.00  0.00     0.000 C 
BRANCH   6   7
ATOM      7  C   UNL     1      60.243  28.318  48.911  1.00  0.00     0.006 C 
BRANCH   7   8
ATOM      8  C   UNL     1      59.742  26.898  49.218  1.00  0.00     0.053 C 
BRANCH   8   9
ATOM      9  C   UNL     1      60.769  26.085  49.944  1.00  0.00     0.041 C 
ATOM     10  O   UNL     1      61.550  26.636  50.764  1.00  0.00    -0.550 OA
ATOM     11  O   UNL     1      60.886  24.724  49.691  1.00  0.00    -0.550 OA
ENDBRANCH   8   9
ENDBRANCH   7   8
ENDBRANCH   6   7
ENDBRANCH   5   6
ENDBRANCH   4   5
ENDBRANCH   3   4
ENDBRANCH   2   3
ENDBRANCH   1   2
BRANCH   1  12
ATOM     12  C   UNL     1      55.508  26.067  52.020  1.00  0.00     0.000 C 
BRANCH  12  13
ATOM     13  C   UNL     1      56.039  25.943  50.583  1.00  0.00    -0.000 C 
BRANCH  13  14
ATOM     14  C   UNL     1      55.461  27.017  49.645  1.00  0.00    -0.000 C 
BRANCH  14  15
ATOM     15  C   UNL     1      53.923  27.031  49.639  1.00  0.00    -0.000 C 
BRANCH  15  16
ATOM     16  C   UNL     1      53.345  28.441  49.830  1.00  0.00    -0.000 C 
BRANCH  16  17
ATOM     17  C   UNL     1      54.462  29.462  50.098  1.00  0.00    -0.000 C 
BRANCH  17  18
ATOM     18  C   UNL     1      54.115  30.416  51.260  1.00  0.00    -0.000 C 
BRANCH  18  19
ATOM     19  C   UNL     1      53.725  29.688  52.558  1.00  0.00    -0.003 C 
ATOM     20  C   UNL     1      54.792  29.786  53.645  1.00  0.00     0.004 C 
ENDBRANCH  18  19
ENDBRANCH  17  18
ENDBRANCH  16  17
ENDBRANCH  15  16
ENDBRANCH  14  15
ENDBRANCH  13  14
ENDBRANCH  12  13
ENDBRANCH   1  12
TORSDOF 16
ENDMDL
MODEL 6
REMARK VINA RESULT:    -2.940      1.935      3.936
REMARK INTER + INTRA:          -8.737
REMARK INTER:                  -5.959
REMARK INTRA:                  -2.778
REMARK UNBOUND:                -3.047
REMARK SMILES CCCCCCCCCCCCCCCCCC(=O)[O-]
REMARK SMILES IDX 10 1 11 2 12 3 13 4 14 5 15 6 16 7 17 8 18 9 19 10 20 11
REMARK SMILES IDX 9 12 8 13 7 14 6 15 5 16 4 17 3 18 2 19 1 20
REMARK H PARENT
REMARK Flexibility Score: inf
ROOT
ATOM      1  C   UNL     1      62.783  32.373  58.753  1.00  0.00     0.000 C 
ENDROOT
BRANCH   1   2
ATOM      2  C   UNL     1      61.799  32.301  59.928  1.00  0.00     0.000 C 
BRANCH   2   3
ATOM      3  C   UNL     1      60.677  31.295  59.647  1.00  0.00     0.000 C 
BRANCH   3   4
ATOM      4  C   UNL     1      60.452  30.372  60.850  1.00  0.00     0.000 C 
BRANCH   4   5
ATOM      5  C   UNL     1      61.757  30.139  61.620  1.00  0.00     0.000 C 
BRANCH   5   6
ATOM      6  C   UNL     1      62.563  28.988  61.000  1.00  0.00     0.000 C 
BRANCH   6   7
ATOM      7  C   UNL     1      64.079  29.257  60.993  1.00  0.00     0.006 C 
BRANCH   7   8
ATOM      8  C   UNL     1      64.694  29.376  59.590  1.00  0.00     0.053 C 
BRANCH   8   9
ATOM      9  C   UNL     1      66.154  29.046  59.586  1.00  0.00     0.041 C 
ATOM     10  O   UNL     1      66.753  28.807  60.667  1.00  0.00    -0.550 OA
ATOM     11  O   UNL     1      66.863  29.035  58.390  1.00  0.00    -0.550 OA
ENDBRANCH   8   9
ENDBRANCH   7   8
ENDBRANCH   6   7
ENDBRANCH   5   6
ENDBRANCH   4   5
ENDBRANCH   3   4
ENDBRANCH   2   3
ENDBRANCH   1   2
BRANCH   1  12
ATOM     12  C   UNL     1      63.961  33.302  59.079  1.00  0.00     0.000 C 
BRANCH  12  13
ATOM     13  C   UNL     1      64.334  33.284  60.570  1.00  0.00    -0.000 C 
BRANCH  13  14
ATOM     14  C   UNL     1      64.295  34.685  61.206  1.00  0.00    -0.000 C 
BRANCH  14  15
ATOM     15  C   UNL     1      63.604  35.723  60.306  1.00  0.00    -0.000 C 
BRANCH  15  16
ATOM     16  C   UNL     1      62.227  36.144  60.841  1.00  0.00    -0.000 C 
BRANCH  16  17
ATOM     17  C   UNL     1      61.128  35.875  59.802  1.00  0.00    -0.000 C 
BRANCH  17  18
ATOM     18  C   UNL     1      61.645  36.012  58.355  1.00  0.00    -0.000 C 
BRANCH  18  19
ATOM     19  C   UNL     1      60.760  35.303  57.315  1.00  0.00    -0.003 C 
ATOM     20  C   UNL     1      59.625  34.498  57.943  1.00  0.00     0.004 C 
ENDBRANCH  18  19
ENDBRANCH  17  18
ENDBRANCH  16  17
ENDBRANCH  15  16
ENDBRANCH  14  15
ENDBRANCH  13  14
ENDBRANCH  12  13
ENDBRANCH   1  12
TORSDOF 16
ENDMDL
MODEL 7
REMARK VINA RESULT:    -2.938      1.558      2.458
REMARK INTER + INTRA:          -8.734
REMARK INTER:                  -5.946
REMARK INTRA:                  -2.788
REMARK UNBOUND:                -3.047
REMARK SMILES CCCCCCCCCCCCCCCCCC(=O)[O-]
REMARK SMILES IDX 10 1 11 2 12 3 13 4 14 5 15 6 16 7 17 8 18 9 19 10 20 11
REMARK SMILES IDX 9 12 8 13 7 14 6 15 5 16 4 17 3 18 2 19 1 20
REMARK H PARENT
REMARK Flexibility Score: inf
ROOT
ATOM      1  C   UNL     1      64.010  34.693  61.020  1.00  0.00     0.000 C 
ENDROOT
BRANCH   1   2
ATOM      2  C   UNL     1      62.809  35.577  60.660  1.00  0.00     0.000 C 
BRANCH   2   3
ATOM      3  C   UNL     1      61.591  34.727  60.284  1.00  0.00     0.000 C 
BRANCH   3   4
ATOM      4  C   UNL     1      61.874  33.235  60.498  1.00  0.00     0.000 C 
BRANCH   4   5
ATOM      5  C   UNL     1      61.359  32.401  59.318  1.00  0.00     0.000 C 
BRANCH   5   6
ATOM      6  C   UNL     1      60.690  31.109  59.808  1.00  0.00     0.000 C 
BRANCH   6   7
ATOM      7  C   UNL     1      61.010  30.792  61.280  1.00  0.00     0.006 C 
BRANCH   7   8
ATOM      8  C   UNL     1      61.879  29.541  61.484  1.00  0.00     0.053 C 
BRANCH   8   9
ATOM      9  C   UNL     1      63.217  29.672  60.823  1.00  0.00     0.041 C 
ATOM     10  O   UNL     1      63.583  28.831  59.960  1.00  0.00    -0.550 OA
ATOM     11  O   UNL     1      64.074  30.705  61.183  1.00  0.00    -0.550 OA
ENDBRANCH   8   9
ENDBRANCH   7   8
ENDBRANCH   6   7
ENDBRANCH   5   6
ENDBRANCH   4   5
ENDBRANCH   3   4
ENDBRANCH   2   3
ENDBRANCH   1   2
BRANCH   1  12
ATOM     12  C   UNL     1      65.325  35.336  60.556  1.00  0.00     0.000 C 
BRANCH  12  13
ATOM     13  C   UNL     1      65.443  35.402  59.025  1.00  0.00    -0.000 C 
BRANCH  13  14
ATOM     14  C   UNL     1      65.002  34.096  58.341  1.00  0.00    -0.000 C 
BRANCH  14  15
ATOM     15  C   UNL     1      63.895  34.321  57.298  1.00  0.00    -0.000 C 
BRANCH  15  16
ATOM     16  C   UNL     1      63.705  35.806  56.950  1.00  0.00    -0.000 C 
BRANCH  16  17
ATOM     17  C   UNL     1      62.214  36.156  56.831  1.00  0.00    -0.000 C 
BRANCH  17  18
ATOM     18  C   UNL     1      61.333  34.904  56.638  1.00  0.00    -0.000 C 
BRANCH  18  19
ATOM     19  C   UNL     1      59.831  35.172  56.832  1.00  0.00    -0.003 C 
ATOM     20  C   UNL     1      59.024  33.903  57.096  1.00  0.00     0.004 C 
ENDBRANCH  18  19
ENDBRANCH  17  18
ENDBRANCH  16  17
ENDBRANCH  15  16
ENDBRANCH  14  15
ENDBRANCH  13  14
ENDBRANCH  12  13
ENDBRANCH   1  12
TORSDOF 16
ENDMDL
MODEL 8
REMARK VINA RESULT:    -2.922      3.034      5.404
REMARK INTER + INTRA:          -8.702
REMARK INTER:                  -6.215
REMARK INTRA:                  -2.486
REMARK UNBOUND:                -3.047
REMARK SMILES CCCCCCCCCCCCCCCCCC(=O)[O-]
REMARK SMILES IDX 10 1 11 2 12 3 13 4 14 5 15 6 16 7 17 8 18 9 19 10 20 11
REMARK SMILES IDX 9 12 8 13 7 14 6 15 5 16 4 17 3 18 2 19 1 20
REMARK H PARENT
REMARK Flexibility Score: inf
ROOT
ATOM      1  C   UNL     1      64.181  34.387  60.012  1.00  0.00     0.000 C 
ENDROOT
BRANCH   1   2
ATOM      2  C   UNL     1      64.704  34.980  61.326  1.00  0.00     0.000 C 
BRANCH   2   3
ATOM      3  C   UNL     1      64.298  36.451  61.468  1.00  0.00     0.000 C 
BRANCH   3   4
ATOM      4  C   UNL     1      63.293  36.851  60.382  1.00  0.00     0.000 C 
BRANCH   4   5
ATOM      5  C   UNL     1      61.896  37.070  60.977  1.00  0.00     0.000 C 
BRANCH   5   6
ATOM      6  C   UNL     1      60.859  36.167  60.293  1.00  0.00     0.000 C 
BRANCH   6   7
ATOM      7  C   UNL     1      60.886  36.283  58.758  1.00  0.00     0.006 C 
BRANCH   7   8
ATOM      8  C   UNL     1      60.641  34.959  58.019  1.00  0.00     0.053 C 
BRANCH   8   9
ATOM      9  C   UNL     1      59.232  34.844  57.524  1.00  0.00     0.041 C 
ATOM     10  O   UNL     1      58.344  35.629  57.950  1.00  0.00    -0.550 OA
ATOM     11  O   UNL     1      58.892  33.848  56.618  1.00  0.00    -0.550 OA
ENDBRANCH   8   9
ENDBRANCH   7   8
ENDBRANCH   6   7
ENDBRANCH   5   6
ENDBRANCH   4   5
ENDBRANCH   3   4
ENDBRANCH   2   3
ENDBRANCH   1   2
BRANCH   1  12
ATOM     12  C   UNL     1      63.357  33.117  60.271  1.00  0.00     0.000 C 
BRANCH  12  13
ATOM     13  C   UNL     1      64.089  31.838  59.831  1.00  0.00    -0.000 C 
BRANCH  13  14
ATOM     14  C   UNL     1      64.087  30.752  60.921  1.00  0.00    -0.000 C 
BRANCH  14  15
ATOM     15  C   UNL     1      63.118  29.601  60.605  1.00  0.00    -0.000 C 
BRANCH  15  16
ATOM     16  C   UNL     1      61.958  29.514  61.608  1.00  0.00    -0.000 C 
BRANCH  16  17
ATOM     17  C   UNL     1      60.798  30.429  61.187  1.00  0.00    -0.000 C 
BRANCH  17  18
ATOM     18  C   UNL     1      60.336  30.160  59.740  1.00  0.00    -0.000 C 
BRANCH  18  19
ATOM     19  C   UNL     1      60.309  31.420  58.858  1.00  0.00    -0.003 C 
ATOM     20  C   UNL     1      61.168  31.293  57.602  1.00  0.00     0.004 C 
ENDBRANCH  18  19
ENDBRANCH  17  18
ENDBRANCH  16  17
ENDBRANCH  15  16
ENDBRANCH  14  15
ENDBRANCH  13  14
ENDBRANCH  12  13
ENDBRANCH   1  12
TORSDOF 16
ENDMDL
MODEL 9
REMARK VINA RESULT:    -2.885      3.026      5.628
REMARK INTER + INTRA:          -8.631
REMARK INTER:                  -5.886
REMARK INTRA:                  -2.745
REMARK UNBOUND:                -3.047
REMARK SMILES CCCCCCCCCCCCCCCCCC(=O)[O-]
REMARK SMILES IDX 10 1 11 2 12 3 13 4 14 5 15 6 16 7 17 8 18 9 19 10 20 11
REMARK SMILES IDX 9 12 8 13 7 14 6 15 5 16 4 17 3 18 2 19 1 20
REMARK H PARENT
REMARK Flexibility Score: inf
ROOT
ATOM      1  C   UNL     1      64.576  31.059  59.630  1.00  0.00     0.000 C 
ENDROOT
BRANCH   1   2
ATOM      2  C   UNL     1      64.491  32.581  59.464  1.00  0.00     0.000 C 
BRANCH   2   3
ATOM      3  C   UNL     1      63.773  33.226  60.655  1.00  0.00     0.000 C 
BRANCH   3   4
ATOM      4  C   UNL     1      64.409  34.573  61.017  1.00  0.00     0.000 C 
BRANCH   4   5
ATOM      5  C   UNL     1      63.375  35.705  60.959  1.00  0.00     0.000 C 
BRANCH   5   6
ATOM      6  C   UNL     1      61.988  35.165  60.582  1.00  0.00     0.000 C 
BRANCH   6   7
ATOM      7  C   UNL     1      61.431  35.797  59.294  1.00  0.00     0.006 C 
BRANCH   7   8
ATOM      8  C   UNL     1      59.924  36.091  59.333  1.00  0.00     0.053 C 
BRANCH   8   9
ATOM      9  C   UNL     1      59.260  35.804  58.021  1.00  0.00     0.041 C 
ATOM     10  O   UNL     1      58.557  34.769  57.879  1.00  0.00    -0.550 OA
ATOM     11  O   UNL     1      59.446  36.663  56.945  1.00  0.00    -0.550 OA
ENDBRANCH   8   9
ENDBRANCH   7   8
ENDBRANCH   6   7
ENDBRANCH   5   6
ENDBRANCH   4   5
ENDBRANCH   3   4
ENDBRANCH   2   3
ENDBRANCH   1   2
BRANCH   1  12
ATOM     12  C   UNL     1      64.151  30.634  61.043  1.00  0.00     0.000 C 
BRANCH  12  13
ATOM     13  C   UNL     1      63.006  29.609  61.033  1.00  0.00    -0.000 C 
BRANCH  13  14
ATOM     14  C   UNL     1      61.682  30.196  61.551  1.00  0.00    -0.000 C 
BRANCH  14  15
ATOM     15  C   UNL     1      60.469  29.738  60.724  1.00  0.00    -0.000 C 
BRANCH  15  16
ATOM     16  C   UNL     1      60.488  30.296  59.293  1.00  0.00    -0.000 C 
BRANCH  16  17
ATOM     17  C   UNL     1      60.630  31.826  59.301  1.00  0.00    -0.000 C 
BRANCH  17  18
ATOM     18  C   UNL     1      61.155  32.370  57.955  1.00  0.00    -0.000 C 
BRANCH  18  19
ATOM     19  C   UNL     1      61.885  31.315  57.107  1.00  0.00    -0.003 C 
ATOM     20  C   UNL     1      62.807  31.926  56.054  1.00  0.00     0.004 C 
ENDBRANCH  18  19
ENDBRANCH  17  18
ENDBRANCH  16  17
ENDBRANCH  15  16
ENDBRANCH  14  15
ENDBRANCH  13  14
ENDBRANCH  12  13
ENDBRANCH   1  12
TORSDOF 16
ENDMDL
