MODEL 1
REMARK VINA RESULT:     6.598      0.000      0.000
REMARK INTER + INTRA:          15.040
REMARK INTER:                  15.085
REMARK INTRA:                  -0.044
REMARK UNBOUND:                -0.044
REMARK SMILES CCCCCCCCCCCCCCCCCCCCCCCC(=O)[O-]
REMARK SMILES IDX 13 1 14 2 15 3 16 4 17 5 18 6 19 7 20 8 21 9 22 10 23 11
REMARK SMILES IDX 24 12 25 13 26 14 12 15 11 16 10 17 9 18 8 19 7 20 6 21 5 22
REMARK SMILES IDX 4 23 3 24 2 25 1 26
REMARK H PARENT
REMARK Flexibility Score: inf
ROOT
ATOM      1  C   UNL     1      -4.996  38.559  22.575  1.00  0.00     0.000 C 
ENDROOT
BRANCH   1   2
ATOM      2  C   UNL     1      -5.921  37.492  23.201  1.00  0.00     0.000 C 
BRANCH   2   3
ATOM      3  C   UNL     1      -5.480  36.032  22.988  1.00  0.00     0.000 C 
BRANCH   3   4
ATOM      4  C   UNL     1      -6.107  35.063  24.006  1.00  0.00     0.000 C 
BRANCH   4   5
ATOM      5  C   UNL     1      -5.825  35.468  25.461  1.00  0.00     0.000 C 
BRANCH   5   6
ATOM      6  C   UNL     1      -6.040  36.968  25.721  1.00  0.00     0.000 C 
BRANCH   6   7
ATOM      7  C   UNL     1      -4.731  37.637  26.167  1.00  0.00     0.000 C 
BRANCH   7   8
ATOM      8  C   UNL     1      -3.596  36.625  26.398  1.00  0.00     0.000 C 
BRANCH   8   9
ATOM      9  C   UNL     1      -2.467  37.191  27.273  1.00  0.00     0.000 C 
BRANCH   9  10
ATOM     10  C   UNL     1      -1.577  36.061  27.811  1.00  0.00     0.006 C 
BRANCH  10  11
ATOM     11  C   UNL     1      -2.396  34.913  28.415  1.00  0.00     0.053 C 
BRANCH  11  12
ATOM     12  C   UNL     1      -1.658  34.224  29.522  1.00  0.00     0.041 C 
ATOM     13  O   UNL     1      -0.415  34.383  29.649  1.00  0.00    -0.550 OA
ATOM     14  O   UNL     1      -2.346  33.420  30.424  1.00  0.00    -0.550 OA
ENDBRANCH  11  12
ENDBRANCH  10  11
ENDBRANCH   9  10
ENDBRANCH   8   9
ENDBRANCH   7   8
ENDBRANCH   6   7
ENDBRANCH   5   6
ENDBRANCH   4   5
ENDBRANCH   3   4
ENDBRANCH   2   3
ENDBRANCH   1   2
BRANCH   1  15
ATOM     15  C   UNL     1      -5.651  39.455  21.509  1.00  0.00     0.000 C 
BRANCH  15  16
ATOM     16  C   UNL     1      -5.920  38.771  20.153  1.00  0.00     0.000 C 
BRANCH  16  17
ATOM     17  C   UNL     1      -4.958  37.606  19.837  1.00  0.00     0.000 C 
BRANCH  17  18
ATOM     18  C   UNL     1      -5.683  36.252  19.717  1.00  0.00    -0.000 C 
BRANCH  18  19
ATOM     19  C   UNL     1      -4.756  35.136  19.207  1.00  0.00    -0.000 C 
BRANCH  19  20
ATOM     20  C   UNL     1      -4.941  34.857  17.706  1.00  0.00    -0.000 C 
BRANCH  20  21
ATOM     21  C   UNL     1      -4.288  35.937  16.826  1.00  0.00    -0.000 C 
BRANCH  21  22
ATOM     22  C   UNL     1      -3.419  35.335  15.707  1.00  0.00    -0.000 C 
BRANCH  22  23
ATOM     23  C   UNL     1      -3.830  35.831  14.311  1.00  0.00    -0.000 C 
BRANCH  23  24
ATOM     24  C   UNL     1      -3.526  37.323  14.103  1.00  0.00    -0.000 C 
BRANCH  24  25
ATOM     25  C   UNL     1      -4.818  38.116  13.875  1.00  0.00    -0.003 C 
ATOM     26  C   UNL     1      -4.677  39.554  14.366  1.00  0.00     0.004 C 
ENDBRANCH  24  25
ENDBRANCH  23  24
ENDBRANCH  22  23
ENDBRANCH  21  22
ENDBRANCH  20  21
ENDBRANCH  19  20
ENDBRANCH  18  19
ENDBRANCH  17  18
ENDBRANCH  16  17
ENDBRANCH  15  16
ENDBRANCH   1  15
TORSDOF 22
ENDMDL
MODEL 2
REMARK VINA RESULT:     8.056      3.535      5.216
REMARK INTER + INTRA:          18.373
REMARK INTER:                  18.444
REMARK INTRA:                  -0.071
REMARK UNBOUND:                -0.044
REMARK SMILES CCCCCCCCCCCCCCCCCCCCCCCC(=O)[O-]
REMARK SMILES IDX 13 1 14 2 15 3 16 4 17 5 18 6 19 7 20 8 21 9 22 10 23 11
REMARK SMILES IDX 24 12 25 13 26 14 12 15 11 16 10 17 9 18 8 19 7 20 6 21 5 22
REMARK SMILES IDX 4 23 3 24 2 25 1 26
REMARK H PARENT
REMARK Flexibility Score: inf
ROOT
ATOM      1  C   UNL     1      -5.213  35.491  20.903  1.00  0.00     0.000 C 
ENDROOT
BRANCH   1   2
ATOM      2  C   UNL     1      -4.953  35.129  22.383  1.00  0.00     0.000 C 
BRANCH   2   3
ATOM      3  C   UNL     1      -6.122  35.416  23.345  1.00  0.00     0.000 C 
BRANCH   3   4
ATOM      4  C   UNL     1      -5.789  35.075  24.807  1.00  0.00     0.000 C 
BRANCH   4   5
ATOM      5  C   UNL     1      -5.058  36.217  25.531  1.00  0.00     0.000 C 
BRANCH   5   6
ATOM      6  C   UNL     1      -3.831  36.729  24.760  1.00  0.00     0.000 C 
BRANCH   6   7
ATOM      7  C   UNL     1      -3.772  38.264  24.788  1.00  0.00     0.000 C 
BRANCH   7   8
ATOM      8  C   UNL     1      -5.024  38.895  25.419  1.00  0.00     0.000 C 
BRANCH   8   9
ATOM      9  C   UNL     1      -5.595  40.048  24.580  1.00  0.00     0.000 C 
BRANCH   9  10
ATOM     10  C   UNL     1      -5.136  39.937  23.119  1.00  0.00     0.006 C 
BRANCH  10  11
ATOM     11  C   UNL     1      -5.739  38.717  22.411  1.00  0.00     0.053 C 
BRANCH  11  12
ATOM     12  C   UNL     1      -5.339  38.657  20.968  1.00  0.00     0.041 C 
ATOM     13  O   UNL     1      -5.999  39.290  20.102  1.00  0.00    -0.550 OA
ATOM     14  O   UNL     1      -4.228  37.916  20.583  1.00  0.00    -0.550 OA
ENDBRANCH  11  12
ENDBRANCH  10  11
ENDBRANCH   9  10
ENDBRANCH   8   9
ENDBRANCH   7   8
ENDBRANCH   6   7
ENDBRANCH   5   6
ENDBRANCH   4   5
ENDBRANCH   3   4
ENDBRANCH   2   3
ENDBRANCH   1   2
BRANCH   1  15
ATOM     15  C   UNL     1      -6.105  34.503  20.131  1.00  0.00     0.000 C 
BRANCH  15  16
ATOM     16  C   UNL     1      -5.641  34.186  18.694  1.00  0.00     0.000 C 
BRANCH  16  17
ATOM     17  C   UNL     1      -4.464  35.059  18.210  1.00  0.00     0.000 C 
BRANCH  17  18
ATOM     18  C   UNL     1      -3.514  34.303  17.263  1.00  0.00    -0.000 C 
BRANCH  18  19
ATOM     19  C   UNL     1      -3.134  35.136  16.027  1.00  0.00    -0.000 C 
BRANCH  19  20
ATOM     20  C   UNL     1      -4.184  36.210  15.696  1.00  0.00    -0.000 C 
BRANCH  20  21
ATOM     21  C   UNL     1      -4.141  36.634  14.218  1.00  0.00    -0.000 C 
BRANCH  21  22
ATOM     22  C   UNL     1      -5.159  37.743  13.897  1.00  0.00    -0.000 C 
BRANCH  22  23
ATOM     23  C   UNL     1      -4.622  39.147  14.219  1.00  0.00    -0.000 C 
BRANCH  23  24
ATOM     24  C   UNL     1      -5.630  40.256  13.876  1.00  0.00    -0.000 C 
BRANCH  24  25
ATOM     25  C   UNL     1      -5.210  41.589  14.506  1.00  0.00    -0.003 C 
ATOM     26  C   UNL     1      -5.745  41.719  15.930  1.00  0.00     0.004 C 
ENDBRANCH  24  25
ENDBRANCH  23  24
ENDBRANCH  22  23
ENDBRANCH  21  22
ENDBRANCH  20  21
ENDBRANCH  19  20
ENDBRANCH  18  19
ENDBRANCH  17  18
ENDBRANCH  16  17
ENDBRANCH  15  16
ENDBRANCH   1  15
TORSDOF 22
ENDMDL
MODEL 3
REMARK VINA RESULT:     8.263      4.544     10.490
REMARK INTER + INTRA:          18.845
REMARK INTER:                  16.461
REMARK INTRA:                   2.384
REMARK UNBOUND:                -0.044
REMARK SMILES CCCCCCCCCCCCCCCCCCCCCCCC(=O)[O-]
REMARK SMILES IDX 13 1 14 2 15 3 16 4 17 5 18 6 19 7 20 8 21 9 22 10 23 11
REMARK SMILES IDX 24 12 25 13 26 14 12 15 11 16 10 17 9 18 8 19 7 20 6 21 5 22
REMARK SMILES IDX 4 23 3 24 2 25 1 26
REMARK H PARENT
REMARK Flexibility Score: inf
ROOT
ATOM      1  C   UNL     1      -5.723  37.990  23.335  1.00  0.00     0.000 C 
ENDROOT
BRANCH   1   2
ATOM      2  C   UNL     1      -5.043  39.122  22.533  1.00  0.00     0.000 C 
BRANCH   2   3
ATOM      3  C   UNL     1      -6.001  40.049  21.761  1.00  0.00     0.000 C 
BRANCH   3   4
ATOM      4  C   UNL     1      -6.077  39.714  20.262  1.00  0.00     0.000 C 
BRANCH   4   5
ATOM      5  C   UNL     1      -6.053  38.202  19.989  1.00  0.00     0.000 C 
BRANCH   5   6
ATOM      6  C   UNL     1      -4.691  37.704  19.480  1.00  0.00     0.000 C 
BRANCH   6   7
ATOM      7  C   UNL     1      -4.618  36.170  19.530  1.00  0.00     0.000 C 
BRANCH   7   8
ATOM      8  C   UNL     1      -5.368  35.502  18.365  1.00  0.00     0.000 C 
BRANCH   8   9
ATOM      9  C   UNL     1      -4.603  34.308  17.775  1.00  0.00     0.000 C 
BRANCH   9  10
ATOM     10  C   UNL     1      -3.926  34.694  16.452  1.00  0.00     0.006 C 
BRANCH  10  11
ATOM     11  C   UNL     1      -4.359  36.081  15.961  1.00  0.00     0.053 C 
BRANCH  11  12
ATOM     12  C   UNL     1      -3.609  36.496  14.732  1.00  0.00     0.041 C 
ATOM     13  O   UNL     1      -2.651  35.797  14.309  1.00  0.00    -0.550 OA
ATOM     14  O   UNL     1      -3.981  37.646  14.043  1.00  0.00    -0.550 OA
ENDBRANCH  11  12
ENDBRANCH  10  11
ENDBRANCH   9  10
ENDBRANCH   8   9
ENDBRANCH   7   8
ENDBRANCH   6   7
ENDBRANCH   5   6
ENDBRANCH   4   5
ENDBRANCH   3   4
ENDBRANCH   2   3
ENDBRANCH   1   2
BRANCH   1  15
ATOM     15  C   UNL     1      -5.715  36.608  22.658  1.00  0.00     0.000 C 
BRANCH  15  16
ATOM     16  C   UNL     1      -5.107  35.468  23.501  1.00  0.00     0.000 C 
BRANCH  16  17
ATOM     17  C   UNL     1      -5.896  35.155  24.791  1.00  0.00     0.000 C 
BRANCH  17  18
ATOM     18  C   UNL     1      -6.122  36.401  25.667  1.00  0.00    -0.000 C 
BRANCH  18  19
ATOM     19  C   UNL     1      -5.073  37.495  25.411  1.00  0.00    -0.000 C 
BRANCH  19  20
ATOM     20  C   UNL     1      -4.353  37.932  26.698  1.00  0.00    -0.000 C 
BRANCH  20  21
ATOM     21  C   UNL     1      -2.830  37.735  26.611  1.00  0.00    -0.000 C 
BRANCH  21  22
ATOM     22  C   UNL     1      -2.259  37.023  27.851  1.00  0.00    -0.000 C 
BRANCH  22  23
ATOM     23  C   UNL     1      -1.572  35.693  27.503  1.00  0.00    -0.000 C 
BRANCH  23  24
ATOM     24  C   UNL     1      -2.172  34.502  28.265  1.00  0.00    -0.000 C 
BRANCH  24  25
ATOM     25  C   UNL     1      -1.662  34.466  29.710  1.00  0.00    -0.003 C 
ATOM     26  C   UNL     1      -0.923  33.162  30.003  1.00  0.00     0.004 C 
ENDBRANCH  24  25
ENDBRANCH  23  24
ENDBRANCH  22  23
ENDBRANCH  21  22
ENDBRANCH  20  21
ENDBRANCH  19  20
ENDBRANCH  18  19
ENDBRANCH  17  18
ENDBRANCH  16  17
ENDBRANCH  15  16
ENDBRANCH   1  15
TORSDOF 22
ENDMDL
MODEL 4
REMARK VINA RESULT:     8.477      1.687      3.377
REMARK INTER + INTRA:          19.335
REMARK INTER:                  19.125
REMARK INTRA:                   0.210
REMARK UNBOUND:                -0.044
REMARK SMILES CCCCCCCCCCCCCCCCCCCCCCCC(=O)[O-]
REMARK SMILES IDX 13 1 14 2 15 3 16 4 17 5 18 6 19 7 20 8 21 9 22 10 23 11
REMARK SMILES IDX 24 12 25 13 26 14 12 15 11 16 10 17 9 18 8 19 7 20 6 21 5 22
REMARK SMILES IDX 4 23 3 24 2 25 1 26
REMARK H PARENT
REMARK Flexibility Score: inf
ROOT
ATOM      1  C   UNL     1      -6.005  35.928  22.925  1.00  0.00     0.000 C 
ENDROOT
BRANCH   1   2
ATOM      2  C   UNL     1      -6.125  36.594  21.537  1.00  0.00     0.000 C 
BRANCH   2   3
ATOM      3  C   UNL     1      -5.201  37.805  21.306  1.00  0.00     0.000 C 
BRANCH   3   4
ATOM      4  C   UNL     1      -5.965  39.138  21.254  1.00  0.00     0.000 C 
BRANCH   4   5
ATOM      5  C   UNL     1      -5.517  40.122  22.346  1.00  0.00     0.000 C 
BRANCH   5   6
ATOM      6  C   UNL     1      -4.058  39.916  22.780  1.00  0.00     0.000 C 
BRANCH   6   7
ATOM      7  C   UNL     1      -3.988  39.143  24.107  1.00  0.00     0.000 C 
BRANCH   7   8
ATOM      8  C   UNL     1      -5.372  38.921  24.738  1.00  0.00     0.000 C 
BRANCH   8   9
ATOM      9  C   UNL     1      -5.600  37.464  25.169  1.00  0.00     0.000 C 
BRANCH   9  10
ATOM     10  C   UNL     1      -4.307  36.853  25.727  1.00  0.00     0.006 C 
BRANCH  10  11
ATOM     11  C   UNL     1      -3.736  37.666  26.895  1.00  0.00     0.053 C 
BRANCH  11  12
ATOM     12  C   UNL     1      -2.325  37.273  27.211  1.00  0.00     0.041 C 
ATOM     13  O   UNL     1      -1.368  38.008  26.852  1.00  0.00    -0.550 OA
ATOM     14  O   UNL     1      -2.068  36.104  27.918  1.00  0.00    -0.550 OA
ENDBRANCH  11  12
ENDBRANCH  10  11
ENDBRANCH   9  10
ENDBRANCH   8   9
ENDBRANCH   7   8
ENDBRANCH   6   7
ENDBRANCH   5   6
ENDBRANCH   4   5
ENDBRANCH   3   4
ENDBRANCH   2   3
ENDBRANCH   1   2
BRANCH   1  15
ATOM     15  C   UNL     1      -6.092  34.391  22.928  1.00  0.00     0.000 C 
BRANCH  15  16
ATOM     16  C   UNL     1      -4.744  33.658  22.762  1.00  0.00     0.000 C 
BRANCH  16  17
ATOM     17  C   UNL     1      -3.712  34.431  21.914  1.00  0.00     0.000 C 
BRANCH  17  18
ATOM     18  C   UNL     1      -3.882  34.187  20.403  1.00  0.00    -0.000 C 
BRANCH  18  19
ATOM     19  C   UNL     1      -4.204  35.479  19.634  1.00  0.00    -0.000 C 
BRANCH  19  20
ATOM     20  C   UNL     1      -5.062  35.221  18.384  1.00  0.00    -0.000 C 
BRANCH  20  21
ATOM     21  C   UNL     1      -4.283  34.487  17.280  1.00  0.00    -0.000 C 
BRANCH  21  22
ATOM     22  C   UNL     1      -4.545  35.080  15.884  1.00  0.00    -0.000 C 
BRANCH  22  23
ATOM     23  C   UNL     1      -3.391  35.971  15.396  1.00  0.00    -0.000 C 
BRANCH  23  24
ATOM     24  C   UNL     1      -3.801  36.878  14.226  1.00  0.00    -0.000 C 
BRANCH  24  25
ATOM     25  C   UNL     1      -3.842  38.347  14.662  1.00  0.00    -0.003 C 
ATOM     26  C   UNL     1      -4.894  39.127  13.878  1.00  0.00     0.004 C 
ENDBRANCH  24  25
ENDBRANCH  23  24
ENDBRANCH  22  23
ENDBRANCH  21  22
ENDBRANCH  20  21
ENDBRANCH  19  20
ENDBRANCH  18  19
ENDBRANCH  17  18
ENDBRANCH  16  17
ENDBRANCH  15  16
ENDBRANCH   1  15
TORSDOF 22
ENDMDL
