MODEL 1
REMARK VINA RESULT:    -3.522      0.000      0.000
REMARK INTER + INTRA:          -4.705
REMARK INTER:                  -4.346
REMARK INTRA:                  -0.359
REMARK UNBOUND:                -0.359
REMARK SMILES Oc1cc(O)c2cc(O)c(-c3cc(O)c(O)c(O)c3)[o+]c2c1.[Cl-]
REMARK SMILES IDX 10 1 20 2 21 3 22 4 2 5 3 6 4 7 6 8 7 9 8 10 11 11 12 12
REMARK SMILES IDX 13 13 19 14 15 15 17 16 14 17 16 19 18 21 9 23 1 25 5 27
REMARK H PARENT 14 18 16 20 18 22 9 24 1 26 5 28
REMARK Flexibility Score: inf
ROOT
ATOM      1  C   UNL     1      38.240  36.544  19.116  1.00  0.00     0.402 A 
ATOM      2  O   UNL     1      38.279  35.776  18.031  1.00  0.00    -0.202 OA
ATOM      3  C   UNL     1      37.979  36.218  16.813  1.00  0.00     0.368 A 
ATOM      4  C   UNL     1      38.052  35.336  15.733  1.00  0.00     0.162 A 
ATOM      5  C   UNL     1      37.745  35.772  14.444  1.00  0.00     0.128 A 
ATOM      6  C   UNL     1      37.363  37.101  14.230  1.00  0.00     0.093 A 
ATOM      7  C   UNL     1      37.282  38.005  15.296  1.00  0.00     0.136 A 
ATOM      8  C   UNL     1      37.590  37.564  16.610  1.00  0.00     0.125 A 
ATOM      9  C   UNL     1      37.524  38.396  17.740  1.00  0.00     0.078 A 
ATOM     10  C   UNL     1      37.839  37.888  19.003  1.00  0.00     0.223 A 
ENDROOT
BRANCH   1  11
ATOM     11  C   UNL     1      38.607  35.938  20.417  1.00  0.00     0.091 A 
ATOM     12  C   UNL     1      37.627  35.476  21.312  1.00  0.00     0.068 A 
ATOM     13  C   UNL     1      37.994  34.927  22.549  1.00  0.00     0.162 A 
ATOM     14  C   UNL     1      39.958  35.875  20.791  1.00  0.00     0.068 A 
ATOM     15  C   UNL     1      39.351  34.846  22.903  1.00  0.00     0.200 A 
ATOM     16  C   UNL     1      40.332  35.325  22.024  1.00  0.00     0.162 A 
BRANCH  13  17
ATOM     17  O   UNL     1      37.015  34.465  23.427  1.00  0.00    -0.504 OA
ATOM     18  H   UNL     1      37.026  33.518  23.785  1.00  0.00     0.293 HD
ENDBRANCH  13  17
BRANCH  15  19
ATOM     19  O   UNL     1      39.741  34.300  24.127  1.00  0.00    -0.502 OA
ATOM     20  H   UNL     1      40.692  33.999  24.304  1.00  0.00     0.293 HD
ENDBRANCH  15  19
BRANCH  16  21
ATOM     21  O   UNL     1      41.676  35.251  22.384  1.00  0.00    -0.504 OA
ATOM     22  H   UNL     1      42.217  34.406  22.244  1.00  0.00     0.293 HD
ENDBRANCH  16  21
ENDBRANCH   1  11
BRANCH  10  23
ATOM     23  O   UNL     1      37.725  38.700  20.132  1.00  0.00    -0.500 OA
ATOM     24  H   UNL     1      36.842  38.821  20.615  1.00  0.00     0.294 HD
ENDBRANCH  10  23
BRANCH   5  25
ATOM     25  O   UNL     1      37.824  34.877  13.379  1.00  0.00    -0.507 OA
ATOM     26  H   UNL     1      38.486  34.109  13.380  1.00  0.00     0.293 HD
ENDBRANCH   5  25
BRANCH   7  27
ATOM     27  O   UNL     1      36.896  39.316  15.001  1.00  0.00    -0.507 OA
ATOM     28  H   UNL     1      36.510  39.963  15.674  1.00  0.00     0.293 HD
ENDBRANCH   7  27
TORSDOF 7
ENDMDL
MODEL 2
REMARK VINA RESULT:    -3.505      1.407      7.271
REMARK INTER + INTRA:          -4.684
REMARK INTER:                  -4.306
REMARK INTRA:                  -0.378
REMARK UNBOUND:                -0.359
REMARK SMILES Oc1cc(O)c2cc(O)c(-c3cc(O)c(O)c(O)c3)[o+]c2c1.[Cl-]
REMARK SMILES IDX 10 1 20 2 21 3 22 4 2 5 3 6 4 7 6 8 7 9 8 10 11 11 12 12
REMARK SMILES IDX 13 13 19 14 15 15 17 16 14 17 16 19 18 21 9 23 1 25 5 27
REMARK H PARENT 14 18 16 20 18 22 9 24 1 26 5 28
REMARK Flexibility Score: inf
ROOT
ATOM      1  C   UNL     1      39.161  35.755  19.084  1.00  0.00     0.402 A 
ATOM      2  O   UNL     1      38.270  35.578  20.056  1.00  0.00    -0.202 OA
ATOM      3  C   UNL     1      38.592  35.136  21.268  1.00  0.00     0.368 A 
ATOM      4  C   UNL     1      37.585  34.985  22.224  1.00  0.00     0.162 A 
ATOM      5  C   UNL     1      37.893  34.525  23.505  1.00  0.00     0.128 A 
ATOM      6  C   UNL     1      39.217  34.214  23.835  1.00  0.00     0.093 A 
ATOM      7  C   UNL     1      40.244  34.357  22.894  1.00  0.00     0.136 A 
ATOM      8  C   UNL     1      39.934  34.822  21.589  1.00  0.00     0.125 A 
ATOM      9  C   UNL     1      40.896  34.983  20.577  1.00  0.00     0.078 A 
ATOM     10  C   UNL     1      40.513  35.441  19.314  1.00  0.00     0.223 A 
ENDROOT
BRANCH   1  11
ATOM     11  C   UNL     1      38.681  36.263  17.778  1.00  0.00     0.091 A 
ATOM     12  C   UNL     1      38.300  35.388  16.747  1.00  0.00     0.068 A 
ATOM     13  C   UNL     1      37.870  35.889  15.509  1.00  0.00     0.162 A 
ATOM     14  C   UNL     1      38.660  37.647  17.543  1.00  0.00     0.068 A 
ATOM     15  C   UNL     1      37.830  37.277  15.292  1.00  0.00     0.200 A 
ATOM     16  C   UNL     1      38.229  38.154  16.309  1.00  0.00     0.162 A 
BRANCH  13  17
ATOM     17  O   UNL     1      37.488  35.012  14.495  1.00  0.00    -0.504 OA
ATOM     18  H   UNL     1      36.950  35.326  13.696  1.00  0.00     0.293 HD
ENDBRANCH  13  17
BRANCH  15  19
ATOM     19  O   UNL     1      37.403  37.799  14.071  1.00  0.00    -0.502 OA
ATOM     20  H   UNL     1      36.819  37.271  13.434  1.00  0.00     0.293 HD
ENDBRANCH  15  19
BRANCH  16  21
ATOM     21  O   UNL     1      38.196  39.529  16.086  1.00  0.00    -0.504 OA
ATOM     22  H   UNL     1      38.540  40.187  16.775  1.00  0.00     0.293 HD
ENDBRANCH  16  21
ENDBRANCH   1  11
BRANCH  10  23
ATOM     23  O   UNL     1      41.459  35.554  18.294  1.00  0.00    -0.500 OA
ATOM     24  H   UNL     1      41.806  34.742  17.797  1.00  0.00     0.294 HD
ENDBRANCH  10  23
BRANCH   5  25
ATOM     25  O   UNL     1      36.875  34.381  24.446  1.00  0.00    -0.507 OA
ATOM     26  H   UNL     1      35.929  34.144  24.171  1.00  0.00     0.293 HD
ENDBRANCH   5  25
BRANCH   7  27
ATOM     27  O   UNL     1      41.541  34.029  23.300  1.00  0.00    -0.507 OA
ATOM     28  H   UNL     1      42.361  34.118  22.718  1.00  0.00     0.293 HD
ENDBRANCH   7  27
TORSDOF 7
ENDMDL
MODEL 3
REMARK VINA RESULT:    -3.495      2.283      2.731
REMARK INTER + INTRA:          -4.671
REMARK INTER:                  -4.413
REMARK INTRA:                  -0.258
REMARK UNBOUND:                -0.359
REMARK SMILES Oc1cc(O)c2cc(O)c(-c3cc(O)c(O)c(O)c3)[o+]c2c1.[Cl-]
REMARK SMILES IDX 10 1 20 2 21 3 22 4 2 5 3 6 4 7 6 8 7 9 8 10 11 11 12 12
REMARK SMILES IDX 13 13 19 14 15 15 17 16 14 17 16 19 18 21 9 23 1 25 5 27
REMARK H PARENT 14 18 16 20 18 22 9 24 1 26 5 28
REMARK Flexibility Score: inf
ROOT
ATOM      1  C   UNL     1      39.208  35.593  19.939  1.00  0.00     0.402 A 
ATOM      2  O   UNL     1      40.090  35.793  18.964  1.00  0.00    -0.202 OA
ATOM      3  C   UNL     1      39.781  35.715  17.674  1.00  0.00     0.368 A 
ATOM      4  C   UNL     1      40.777  35.943  16.721  1.00  0.00     0.162 A 
ATOM      5  C   UNL     1      40.481  35.870  15.360  1.00  0.00     0.128 A 
ATOM      6  C   UNL     1      39.180  35.568  14.944  1.00  0.00     0.093 A 
ATOM      7  C   UNL     1      38.164  35.335  15.879  1.00  0.00     0.136 A 
ATOM      8  C   UNL     1      38.461  35.405  17.265  1.00  0.00     0.125 A 
ATOM      9  C   UNL     1      37.510  35.173  18.272  1.00  0.00     0.078 A 
ATOM     10  C   UNL     1      37.880  35.256  19.617  1.00  0.00     0.223 A 
ENDROOT
BRANCH   1  11
ATOM     11  C   UNL     1      39.671  35.719  21.340  1.00  0.00     0.091 A 
ATOM     12  C   UNL     1      39.177  36.725  22.188  1.00  0.00     0.068 A 
ATOM     13  C   UNL     1      39.646  36.841  23.504  1.00  0.00     0.162 A 
ATOM     14  C   UNL     1      40.668  34.853  21.816  1.00  0.00     0.068 A 
ATOM     15  C   UNL     1      40.626  35.954  23.979  1.00  0.00     0.200 A 
ATOM     16  C   UNL     1      41.139  34.962  23.132  1.00  0.00     0.162 A 
BRANCH  13  17
ATOM     17  O   UNL     1      39.144  37.838  24.339  1.00  0.00    -0.504 OA
ATOM     18  H   UNL     1      39.300  37.822  25.340  1.00  0.00     0.293 HD
ENDBRANCH  13  17
BRANCH  15  19
ATOM     19  O   UNL     1      41.106  36.048  25.286  1.00  0.00    -0.502 OA
ATOM     20  H   UNL     1      41.803  36.731  25.556  1.00  0.00     0.293 HD
ENDBRANCH  15  19
BRANCH  16  21
ATOM     21  O   UNL     1      42.117  34.090  23.605  1.00  0.00    -0.504 OA
ATOM     22  H   UNL     1      42.812  34.388  24.279  1.00  0.00     0.293 HD
ENDBRANCH  16  21
ENDBRANCH   1  11
BRANCH  10  23
ATOM     23  O   UNL     1      36.948  34.977  20.618  1.00  0.00    -0.500 OA
ATOM     24  H   UNL     1      36.212  35.631  20.858  1.00  0.00     0.294 HD
ENDBRANCH  10  23
BRANCH   5  25
ATOM     25  O   UNL     1      41.489  36.102  14.425  1.00  0.00    -0.507 OA
ATOM     26  H   UNL     1      41.287  36.169  13.434  1.00  0.00     0.293 HD
ENDBRANCH   5  25
BRANCH   7  27
ATOM     27  O   UNL     1      36.889  35.042  15.385  1.00  0.00    -0.507 OA
ATOM     28  H   UNL     1      36.565  34.114  15.154  1.00  0.00     0.293 HD
ENDBRANCH   7  27
TORSDOF 7
ENDMDL
MODEL 4
REMARK VINA RESULT:    -3.482      2.311      3.040
REMARK INTER + INTRA:          -4.656
REMARK INTER:                  -4.421
REMARK INTRA:                  -0.234
REMARK UNBOUND:                -0.359
REMARK SMILES Oc1cc(O)c2cc(O)c(-c3cc(O)c(O)c(O)c3)[o+]c2c1.[Cl-]
REMARK SMILES IDX 10 1 20 2 21 3 22 4 2 5 3 6 4 7 6 8 7 9 8 10 11 11 12 12
REMARK SMILES IDX 13 13 19 14 15 15 17 16 14 17 16 19 18 21 9 23 1 25 5 27
REMARK H PARENT 14 18 16 20 18 22 9 24 1 26 5 28
REMARK Flexibility Score: inf
ROOT
ATOM      1  C   UNL     1      39.419  35.582  19.713  1.00  0.00     0.402 A 
ATOM      2  O   UNL     1      40.321  35.826  18.765  1.00  0.00    -0.202 OA
ATOM      3  C   UNL     1      40.046  35.771  17.466  1.00  0.00     0.368 A 
ATOM      4  C   UNL     1      41.060  36.046  16.545  1.00  0.00     0.162 A 
ATOM      5  C   UNL     1      40.800  35.999  15.175  1.00  0.00     0.128 A 
ATOM      6  C   UNL     1      39.518  35.675  14.719  1.00  0.00     0.093 A 
ATOM      7  C   UNL     1      38.484  35.395  15.622  1.00  0.00     0.136 A 
ATOM      8  C   UNL     1      38.745  35.439  17.017  1.00  0.00     0.125 A 
ATOM      9  C   UNL     1      37.775  35.160  17.994  1.00  0.00     0.078 A 
ATOM     10  C   UNL     1      38.109  35.220  19.349  1.00  0.00     0.223 A 
ENDROOT
BRANCH   1  11
ATOM     11  C   UNL     1      39.845  35.685  21.128  1.00  0.00     0.091 A 
ATOM     12  C   UNL     1      40.769  34.784  21.682  1.00  0.00     0.068 A 
ATOM     13  C   UNL     1      41.142  34.883  23.030  1.00  0.00     0.162 A 
ATOM     14  C   UNL     1      39.271  36.667  21.950  1.00  0.00     0.068 A 
ATOM     15  C   UNL     1      40.579  35.886  23.839  1.00  0.00     0.200 A 
ATOM     16  C   UNL     1      39.641  36.774  23.298  1.00  0.00     0.162 A 
BRANCH  13  17
ATOM     17  O   UNL     1      42.065  33.988  23.568  1.00  0.00    -0.504 OA
ATOM     18  H   UNL     1      41.985  33.650  24.520  1.00  0.00     0.293 HD
ENDBRANCH  13  17
BRANCH  15  19
ATOM     19  O   UNL     1      40.937  36.007  25.182  1.00  0.00    -0.502 OA
ATOM     20  H   UNL     1      40.785  35.261  25.850  1.00  0.00     0.293 HD
ENDBRANCH  15  19
BRANCH  16  21
ATOM     21  O   UNL     1      39.079  37.760  24.106  1.00  0.00    -0.504 OA
ATOM     22  H   UNL     1      39.632  38.264  24.790  1.00  0.00     0.293 HD
ENDBRANCH  16  21
ENDBRANCH   1  11
BRANCH  10  23
ATOM     23  O   UNL     1      37.160  34.895  20.319  1.00  0.00    -0.500 OA
ATOM     24  H   UNL     1      37.429  34.627  21.259  1.00  0.00     0.294 HD
ENDBRANCH  10  23
BRANCH   5  25
ATOM     25  O   UNL     1      41.824  36.277  14.272  1.00  0.00    -0.507 OA
ATOM     26  H   UNL     1      42.444  35.549  13.934  1.00  0.00     0.293 HD
ENDBRANCH   5  25
BRANCH   7  27
ATOM     27  O   UNL     1      37.230  35.083  15.089  1.00  0.00    -0.507 OA
ATOM     28  H   UNL     1      36.809  35.559  14.305  1.00  0.00     0.293 HD
ENDBRANCH   7  27
TORSDOF 7
ENDMDL
MODEL 5
REMARK VINA RESULT:    -3.427      2.150      3.456
REMARK INTER + INTRA:          -4.587
REMARK INTER:                  -4.208
REMARK INTRA:                  -0.380
REMARK UNBOUND:                -0.359
REMARK SMILES Oc1cc(O)c2cc(O)c(-c3cc(O)c(O)c(O)c3)[o+]c2c1.[Cl-]
REMARK SMILES IDX 10 1 20 2 21 3 22 4 2 5 3 6 4 7 6 8 7 9 8 10 11 11 12 12
REMARK SMILES IDX 13 13 19 14 15 15 17 16 14 17 16 19 18 21 9 23 1 25 5 27
REMARK H PARENT 14 18 16 20 18 22 9 24 1 26 5 28
REMARK Flexibility Score: inf
ROOT
ATOM      1  C   UNL     1      39.298  35.171  20.592  1.00  0.00     0.402 A 
ATOM      2  O   UNL     1      38.424  35.456  19.630  1.00  0.00    -0.202 OA
ATOM      3  C   UNL     1      38.661  35.233  18.341  1.00  0.00     0.368 A 
ATOM      4  C   UNL     1      37.680  35.565  17.404  1.00  0.00     0.162 A 
ATOM      5  C   UNL     1      37.899  35.340  16.044  1.00  0.00     0.128 A 
ATOM      6  C   UNL     1      39.106  34.779  15.616  1.00  0.00     0.093 A 
ATOM      7  C   UNL     1      40.106  34.438  16.536  1.00  0.00     0.136 A 
ATOM      8  C   UNL     1      39.888  34.668  17.919  1.00  0.00     0.125 A 
ATOM      9  C   UNL     1      40.838  34.370  18.911  1.00  0.00     0.078 A 
ATOM     10  C   UNL     1      40.552  34.629  20.254  1.00  0.00     0.223 A 
ENDROOT
BRANCH   1  11
ATOM     11  C   UNL     1      38.915  35.456  21.994  1.00  0.00     0.091 A 
ATOM     12  C   UNL     1      38.207  34.518  22.765  1.00  0.00     0.068 A 
ATOM     13  C   UNL     1      37.832  34.816  24.083  1.00  0.00     0.162 A 
ATOM     14  C   UNL     1      39.213  36.710  22.548  1.00  0.00     0.068 A 
ATOM     15  C   UNL     1      38.157  36.066  24.636  1.00  0.00     0.200 A 
ATOM     16  C   UNL     1      38.843  37.014  23.866  1.00  0.00     0.162 A 
BRANCH  13  17
ATOM     17  O   UNL     1      37.136  33.876  24.841  1.00  0.00    -0.504 OA
ATOM     18  H   UNL     1      36.232  33.522  24.550  1.00  0.00     0.293 HD
ENDBRANCH  13  17
BRANCH  15  19
ATOM     19  O   UNL     1      37.798  36.384  25.947  1.00  0.00    -0.502 OA
ATOM     20  H   UNL     1      37.554  35.674  26.626  1.00  0.00     0.293 HD
ENDBRANCH  15  19
BRANCH  16  21
ATOM     21  O   UNL     1      39.155  38.255  24.416  1.00  0.00    -0.504 OA
ATOM     22  H   UNL     1      39.390  39.050  23.834  1.00  0.00     0.293 HD
ENDBRANCH  16  21
ENDBRANCH   1  11
BRANCH  10  23
ATOM     23  O   UNL     1      41.514  34.380  21.235  1.00  0.00    -0.500 OA
ATOM     24  H   UNL     1      41.438  34.772  22.166  1.00  0.00     0.294 HD
ENDBRANCH  10  23
BRANCH   5  25
ATOM     25  O   UNL     1      36.907  35.677  15.124  1.00  0.00    -0.507 OA
ATOM     26  H   UNL     1      35.987  35.253  15.158  1.00  0.00     0.293 HD
ENDBRANCH   5  25
BRANCH   7  27
ATOM     27  O   UNL     1      41.283  33.878  16.030  1.00  0.00    -0.507 OA
ATOM     28  H   UNL     1      41.594  33.971  15.074  1.00  0.00     0.293 HD
ENDBRANCH   7  27
TORSDOF 7
ENDMDL
MODEL 6
REMARK VINA RESULT:    -3.414      2.342      6.928
REMARK INTER + INTRA:          -4.572
REMARK INTER:                  -4.257
REMARK INTRA:                  -0.315
REMARK UNBOUND:                -0.359
REMARK SMILES Oc1cc(O)c2cc(O)c(-c3cc(O)c(O)c(O)c3)[o+]c2c1.[Cl-]
REMARK SMILES IDX 10 1 20 2 21 3 22 4 2 5 3 6 4 7 6 8 7 9 8 10 11 11 12 12
REMARK SMILES IDX 13 13 19 14 15 15 17 16 14 17 16 19 18 21 9 23 1 25 5 27
REMARK H PARENT 14 18 16 20 18 22 9 24 1 26 5 28
REMARK Flexibility Score: inf
ROOT
ATOM      1  C   UNL     1      38.648  36.097  20.175  1.00  0.00     0.402 A 
ATOM      2  O   UNL     1      38.530  35.220  21.168  1.00  0.00    -0.202 OA
ATOM      3  C   UNL     1      38.142  35.555  22.395  1.00  0.00     0.368 A 
ATOM      4  C   UNL     1      38.047  34.561  23.372  1.00  0.00     0.162 A 
ATOM      5  C   UNL     1      37.640  34.882  24.668  1.00  0.00     0.128 A 
ATOM      6  C   UNL     1      37.325  36.206  24.991  1.00  0.00     0.093 A 
ATOM      7  C   UNL     1      37.413  37.221  24.030  1.00  0.00     0.136 A 
ATOM      8  C   UNL     1      37.829  36.898  22.712  1.00  0.00     0.125 A 
ATOM      9  C   UNL     1      37.960  37.851  21.688  1.00  0.00     0.078 A 
ATOM     10  C   UNL     1      38.380  37.458  20.414  1.00  0.00     0.223 A 
ENDROOT
BRANCH   1  11
ATOM     11  C   UNL     1      39.079  35.600  18.849  1.00  0.00     0.091 A 
ATOM     12  C   UNL     1      40.418  35.255  18.596  1.00  0.00     0.068 A 
ATOM     13  C   UNL     1      40.812  34.808  17.326  1.00  0.00     0.162 A 
ATOM     14  C   UNL     1      38.146  35.525  17.804  1.00  0.00     0.068 A 
ATOM     15  C   UNL     1      39.864  34.714  16.293  1.00  0.00     0.200 A 
ATOM     16  C   UNL     1      38.532  35.077  16.533  1.00  0.00     0.162 A 
BRANCH  13  17
ATOM     17  O   UNL     1      42.141  34.463  17.088  1.00  0.00    -0.504 OA
ATOM     18  H   UNL     1      42.572  33.666  17.540  1.00  0.00     0.293 HD
ENDBRANCH  13  17
BRANCH  15  19
ATOM     19  O   UNL     1      40.230  34.269  15.023  1.00  0.00    -0.502 OA
ATOM     20  H   UNL     1      40.202  33.290  14.766  1.00  0.00     0.293 HD
ENDBRANCH  15  19
BRANCH  16  21
ATOM     21  O   UNL     1      37.598  34.990  15.503  1.00  0.00    -0.504 OA
ATOM     22  H   UNL     1      36.785  35.595  15.471  1.00  0.00     0.293 HD
ENDBRANCH  16  21
ENDBRANCH   1  11
BRANCH  10  23
ATOM     23  O   UNL     1      38.557  38.411  19.410  1.00  0.00    -0.500 OA
ATOM     24  H   UNL     1      37.906  39.176  19.281  1.00  0.00     0.294 HD
ENDBRANCH  10  23
BRANCH   5  25
ATOM     25  O   UNL     1      37.550  33.876  25.628  1.00  0.00    -0.507 OA
ATOM     26  H   UNL     1      37.528  32.897  25.369  1.00  0.00     0.293 HD
ENDBRANCH   5  25
BRANCH   7  27
ATOM     27  O   UNL     1      37.078  38.518  24.430  1.00  0.00    -0.507 OA
ATOM     28  H   UNL     1      36.796  39.254  23.800  1.00  0.00     0.293 HD
ENDBRANCH   7  27
TORSDOF 7
ENDMDL
MODEL 7
REMARK VINA RESULT:    -3.287      2.939      4.250
REMARK INTER + INTRA:          -4.415
REMARK INTER:                  -4.155
REMARK INTRA:                  -0.260
REMARK UNBOUND:                -0.359
REMARK SMILES Oc1cc(O)c2cc(O)c(-c3cc(O)c(O)c(O)c3)[o+]c2c1.[Cl-]
REMARK SMILES IDX 10 1 20 2 21 3 22 4 2 5 3 6 4 7 6 8 7 9 8 10 11 11 12 12
REMARK SMILES IDX 13 13 19 14 15 15 17 16 14 17 16 19 18 21 9 23 1 25 5 27
REMARK H PARENT 14 18 16 20 18 22 9 24 1 26 5 28
REMARK Flexibility Score: inf
ROOT
ATOM      1  C   UNL     1      39.225  35.195  20.714  1.00  0.00     0.402 A 
ATOM      2  O   UNL     1      40.489  34.955  20.374  1.00  0.00    -0.202 OA
ATOM      3  C   UNL     1      40.870  34.681  19.130  1.00  0.00     0.368 A 
ATOM      4  C   UNL     1      42.222  34.445  18.871  1.00  0.00     0.162 A 
ATOM      5  C   UNL     1      42.652  34.157  17.575  1.00  0.00     0.128 A 
ATOM      6  C   UNL     1      41.725  34.106  16.528  1.00  0.00     0.093 A 
ATOM      7  C   UNL     1      40.364  34.339  16.762  1.00  0.00     0.136 A 
ATOM      8  C   UNL     1      39.922  34.629  18.080  1.00  0.00     0.125 A 
ATOM      9  C   UNL     1      38.577  34.862  18.410  1.00  0.00     0.078 A 
ATOM     10  C   UNL     1      38.218  35.138  19.732  1.00  0.00     0.223 A 
ENDROOT
BRANCH   1  11
ATOM     11  C   UNL     1      38.927  35.500  22.132  1.00  0.00     0.091 A 
ATOM     12  C   UNL     1      39.369  36.690  22.734  1.00  0.00     0.068 A 
ATOM     13  C   UNL     1      39.096  36.949  24.085  1.00  0.00     0.162 A 
ATOM     14  C   UNL     1      38.238  34.555  22.909  1.00  0.00     0.068 A 
ATOM     15  C   UNL     1      38.385  36.007  24.848  1.00  0.00     0.200 A 
ATOM     16  C   UNL     1      37.961  34.809  24.260  1.00  0.00     0.162 A 
BRANCH  13  17
ATOM     17  O   UNL     1      39.534  38.136  24.672  1.00  0.00    -0.504 OA
ATOM     18  H   UNL     1      39.731  38.197  25.663  1.00  0.00     0.293 HD
ENDBRANCH  13  17
BRANCH  15  19
ATOM     19  O   UNL     1      38.099  36.244  26.194  1.00  0.00    -0.502 OA
ATOM     20  H   UNL     1      37.747  35.517  26.805  1.00  0.00     0.293 HD
ENDBRANCH  15  19
BRANCH  16  21
ATOM     21  O   UNL     1      37.263  33.875  25.023  1.00  0.00    -0.504 OA
ATOM     22  H   UNL     1      37.367  33.828  26.029  1.00  0.00     0.293 HD
ENDBRANCH  16  21
ENDBRANCH   1  11
BRANCH  10  23
ATOM     23  O   UNL     1      36.876  35.321  20.070  1.00  0.00    -0.500 OA
ATOM     24  H   UNL     1      36.450  34.825  20.844  1.00  0.00     0.294 HD
ENDBRANCH  10  23
BRANCH   5  25
ATOM     25  O   UNL     1      44.005  33.925  17.336  1.00  0.00    -0.507 OA
ATOM     26  H   UNL     1      44.390  32.987  17.341  1.00  0.00     0.293 HD
ENDBRANCH   5  25
BRANCH   7  27
ATOM     27  O   UNL     1      39.501  34.273  15.665  1.00  0.00    -0.507 OA
ATOM     28  H   UNL     1      39.280  33.426  15.161  1.00  0.00     0.293 HD
ENDBRANCH   7  27
TORSDOF 7
ENDMDL
MODEL 8
REMARK VINA RESULT:    -3.258     22.221     24.219
REMARK INTER + INTRA:          -4.378
REMARK INTER:                  -4.007
REMARK INTRA:                  -0.371
REMARK UNBOUND:                -0.359
REMARK SMILES Oc1cc(O)c2cc(O)c(-c3cc(O)c(O)c(O)c3)[o+]c2c1.[Cl-]
REMARK SMILES IDX 10 1 20 2 21 3 22 4 2 5 3 6 4 7 6 8 7 9 8 10 11 11 12 12
REMARK SMILES IDX 13 13 19 14 15 15 17 16 14 17 16 19 18 21 9 23 1 25 5 27
REMARK H PARENT 14 18 16 20 18 22 9 24 1 26 5 28
REMARK Flexibility Score: inf
ROOT
ATOM      1  C   UNL     1      55.657  52.100  19.386  1.00  0.00     0.402 A 
ATOM      2  O   UNL     1      55.161  51.005  19.957  1.00  0.00    -0.202 OA
ATOM      3  C   UNL     1      55.375  50.686  21.229  1.00  0.00     0.368 A 
ATOM      4  C   UNL     1      54.808  49.515  21.740  1.00  0.00     0.162 A 
ATOM      5  C   UNL     1      55.013  49.155  23.073  1.00  0.00     0.128 A 
ATOM      6  C   UNL     1      55.789  49.971  23.903  1.00  0.00     0.093 A 
ATOM      7  C   UNL     1      56.367  51.149  23.416  1.00  0.00     0.136 A 
ATOM      8  C   UNL     1      56.163  51.517  22.060  1.00  0.00     0.125 A 
ATOM      9  C   UNL     1      56.715  52.672  21.481  1.00  0.00     0.078 A 
ATOM     10  C   UNL     1      56.473  52.966  20.137  1.00  0.00     0.223 A 
ENDROOT
BRANCH   1  11
ATOM     11  C   UNL     1      55.340  52.352  17.962  1.00  0.00     0.091 A 
ATOM     12  C   UNL     1      56.212  51.952  16.935  1.00  0.00     0.068 A 
ATOM     13  C   UNL     1      55.905  52.221  15.594  1.00  0.00     0.162 A 
ATOM     14  C   UNL     1      54.172  53.057  17.630  1.00  0.00     0.068 A 
ATOM     15  C   UNL     1      54.722  52.906  15.271  1.00  0.00     0.200 A 
ATOM     16  C   UNL     1      53.859  53.327  16.291  1.00  0.00     0.162 A 
BRANCH  13  17
ATOM     17  O   UNL     1      56.774  51.814  14.583  1.00  0.00    -0.504 OA
ATOM     18  H   UNL     1      57.343  52.478  14.072  1.00  0.00     0.293 HD
ENDBRANCH  13  17
BRANCH  15  19
ATOM     19  O   UNL     1      54.393  53.182  13.943  1.00  0.00    -0.502 OA
ATOM     20  H   UNL     1      53.655  53.830  13.695  1.00  0.00     0.293 HD
ENDBRANCH  15  19
BRANCH  16  21
ATOM     21  O   UNL     1      52.691  54.014  15.966  1.00  0.00    -0.504 OA
ATOM     22  H   UNL     1      51.775  53.619  16.147  1.00  0.00     0.293 HD
ENDBRANCH  16  21
ENDBRANCH   1  11
BRANCH  10  23
ATOM     23  O   UNL     1      57.061  54.087  19.548  1.00  0.00    -0.500 OA
ATOM     24  H   UNL     1      56.516  54.758  19.020  1.00  0.00     0.294 HD
ENDBRANCH  10  23
BRANCH   5  25
ATOM     25  O   UNL     1      54.440  47.984  23.563  1.00  0.00    -0.507 OA
ATOM     26  H   UNL     1      55.004  47.252  23.979  1.00  0.00     0.293 HD
ENDBRANCH   5  25
BRANCH   7  27
ATOM     27  O   UNL     1      57.125  51.912  24.309  1.00  0.00    -0.507 OA
ATOM     28  H   UNL     1      57.256  51.687  25.284  1.00  0.00     0.293 HD
ENDBRANCH   7  27
TORSDOF 7
ENDMDL
MODEL 9
REMARK VINA RESULT:    -3.219     14.617     16.088
REMARK INTER + INTRA:          -4.331
REMARK INTER:                  -4.046
REMARK INTRA:                  -0.285
REMARK UNBOUND:                -0.359
REMARK SMILES Oc1cc(O)c2cc(O)c(-c3cc(O)c(O)c(O)c3)[o+]c2c1.[Cl-]
REMARK SMILES IDX 10 1 20 2 21 3 22 4 2 5 3 6 4 7 6 8 7 9 8 10 11 11 12 12
REMARK SMILES IDX 13 13 19 14 15 15 17 16 14 17 16 19 18 21 9 23 1 25 5 27
REMARK H PARENT 14 18 16 20 18 22 9 24 1 26 5 28
REMARK Flexibility Score: inf
ROOT
ATOM      1  C   UNL     1      40.103  52.337  18.848  1.00  0.00     0.402 A 
ATOM      2  O   UNL     1      39.293  51.496  18.211  1.00  0.00    -0.202 OA
ATOM      3  C   UNL     1      39.307  51.327  16.893  1.00  0.00     0.368 A 
ATOM      4  C   UNL     1      38.418  50.418  16.315  1.00  0.00     0.162 A 
ATOM      5  C   UNL     1      38.412  50.218  14.934  1.00  0.00     0.128 A 
ATOM      6  C   UNL     1      39.301  50.931  14.122  1.00  0.00     0.093 A 
ATOM      7  C   UNL     1      40.202  51.849  14.677  1.00  0.00     0.136 A 
ATOM      8  C   UNL     1      40.209  52.057  16.081  1.00  0.00     0.125 A 
ATOM      9  C   UNL     1      41.067  52.965  16.723  1.00  0.00     0.078 A 
ATOM     10  C   UNL     1      41.012  53.119  18.111  1.00  0.00     0.223 A 
ENDROOT
BRANCH   1  11
ATOM     11  C   UNL     1      39.999  52.429  20.322  1.00  0.00     0.091 A 
ATOM     12  C   UNL     1      41.039  51.989  21.158  1.00  0.00     0.068 A 
ATOM     13  C   UNL     1      40.913  52.063  22.553  1.00  0.00     0.162 A 
ATOM     14  C   UNL     1      38.815  52.912  20.901  1.00  0.00     0.068 A 
ATOM     15  C   UNL     1      39.732  52.571  23.122  1.00  0.00     0.200 A 
ATOM     16  C   UNL     1      38.683  52.991  22.294  1.00  0.00     0.162 A 
BRANCH  13  17
ATOM     17  O   UNL     1      41.953  51.631  23.374  1.00  0.00    -0.504 OA
ATOM     18  H   UNL     1      41.823  50.887  24.050  1.00  0.00     0.293 HD
ENDBRANCH  13  17
BRANCH  15  19
ATOM     19  O   UNL     1      39.583  52.658  24.507  1.00  0.00    -0.502 OA
ATOM     20  H   UNL     1      39.038  51.985  25.033  1.00  0.00     0.293 HD
ENDBRANCH  15  19
BRANCH  16  21
ATOM     21  O   UNL     1      37.511  53.485  22.863  1.00  0.00    -0.504 OA
ATOM     22  H   UNL     1      37.326  54.480  22.918  1.00  0.00     0.293 HD
ENDBRANCH  16  21
ENDBRANCH   1  11
BRANCH  10  23
ATOM     23  O   UNL     1      41.829  54.057  18.744  1.00  0.00    -0.500 OA
ATOM     24  H   UNL     1      42.827  53.913  18.845  1.00  0.00     0.294 HD
ENDBRANCH  10  23
BRANCH   5  25
ATOM     25  O   UNL     1      37.518  49.306  14.376  1.00  0.00    -0.507 OA
ATOM     26  H   UNL     1      36.604  49.593  14.047  1.00  0.00     0.293 HD
ENDBRANCH   5  25
BRANCH   7  27
ATOM     27  O   UNL     1      41.060  52.519  13.801  1.00  0.00    -0.507 OA
ATOM     28  H   UNL     1      42.061  52.584  13.920  1.00  0.00     0.293 HD
ENDBRANCH   7  27
TORSDOF 7
ENDMDL
