MODEL 1
REMARK VINA RESULT:    -5.009      0.000      0.000
REMARK INTER + INTRA:          -6.339
REMARK INTER:                  -6.034
REMARK INTRA:                  -0.306
REMARK UNBOUND:                -0.306
REMARK SMILES O=c1c(O)c(-c2ccc(O)c(O)c2)oc2cc(O)cc(O)c12
REMARK SMILES IDX 5 1 3 2 2 3 1 4 22 5 20 6 19 7 17 8 16 9 15 10 14 11 6 12
REMARK SMILES IDX 7 13 8 14 9 15 13 16 11 17 10 18 12 20 4 22 21 24 18 26
REMARK H PARENT 10 19 12 21 4 23 21 25 18 27
REMARK Flexibility Score: inf
ROOT
ATOM      1  C   UNL     1       8.046  -4.189  13.687  1.00  0.00     0.180 A 
ATOM      2  C   UNL     1       7.961  -2.885  14.204  1.00  0.00     0.208 A 
ATOM      3  C   UNL     1       8.491  -2.621  15.476  1.00  0.00     0.238 A 
ATOM      4  O   UNL     1       8.346  -1.470  15.964  1.00  0.00    -0.285 OA
ATOM      5  C   UNL     1       9.151  -3.649  16.193  1.00  0.00     0.111 A 
ATOM      6  C   UNL     1       9.765  -3.483  17.471  1.00  0.00     0.134 A 
ATOM      7  C   UNL     1      10.294  -4.599  18.133  1.00  0.00     0.093 A 
ATOM      8  C   UNL     1      10.289  -5.861  17.534  1.00  0.00     0.123 A 
ATOM      9  C   UNL     1       9.741  -6.023  16.265  1.00  0.00     0.094 A 
ATOM     10  C   UNL     1       9.171  -4.937  15.595  1.00  0.00     0.146 A 
ATOM     11  O   UNL     1       8.640  -5.141  14.396  1.00  0.00    -0.452 OA
ENDROOT
BRANCH   1  12
ATOM     12  C   UNL     1       7.497  -4.548  12.359  1.00  0.00     0.025 A 
ATOM     13  C   UNL     1       8.209  -4.284  11.177  1.00  0.00     0.016 A 
ATOM     14  C   UNL     1       7.659  -4.608   9.934  1.00  0.00     0.051 A 
ATOM     15  C   UNL     1       6.385  -5.187   9.853  1.00  0.00     0.157 A 
ATOM     16  C   UNL     1       6.212  -5.108  12.271  1.00  0.00     0.062 A 
ATOM     17  C   UNL     1       5.658  -5.435  11.029  1.00  0.00     0.158 A 
BRANCH  15  18
ATOM     18  O   UNL     1       5.840  -5.512   8.611  1.00  0.00    -0.504 OA
ATOM     19  H   UNL     1       6.365  -6.038   7.922  1.00  0.00     0.293 HD
ENDBRANCH  15  18
BRANCH  17  20
ATOM     20  O   UNL     1       4.386  -6.003  10.982  1.00  0.00    -0.504 OA
ATOM     21  H   UNL     1       4.227  -6.941  10.633  1.00  0.00     0.293 HD
ENDBRANCH  17  20
ENDBRANCH   1  12
BRANCH   2  22
ATOM     22  O   UNL     1       7.375  -1.865  13.448  1.00  0.00    -0.502 OA
ATOM     23  H   UNL     1       6.375  -1.812  13.289  1.00  0.00     0.293 HD
ENDBRANCH   2  22
BRANCH   6  24
ATOM     24  O   UNL     1       9.904  -2.253  18.120  1.00  0.00    -0.507 OA
ATOM     25  H   UNL     1       9.707  -2.087  19.094  1.00  0.00     0.293 HD
ENDBRANCH   6  24
BRANCH   8  26
ATOM     26  O   UNL     1      10.833  -6.962  18.193  1.00  0.00    -0.508 OA
ATOM     27  H   UNL     1      11.726  -7.355  17.921  1.00  0.00     0.293 HD
ENDBRANCH   8  26
TORSDOF 6
ENDMDL
MODEL 2
REMARK VINA RESULT:    -4.988      1.913      6.852
REMARK INTER + INTRA:          -6.315
REMARK INTER:                  -5.996
REMARK INTRA:                  -0.319
REMARK UNBOUND:                -0.306
REMARK SMILES O=c1c(O)c(-c2ccc(O)c(O)c2)oc2cc(O)cc(O)c12
REMARK SMILES IDX 5 1 3 2 2 3 1 4 22 5 20 6 19 7 17 8 16 9 15 10 14 11 6 12
REMARK SMILES IDX 7 13 8 14 9 15 13 16 11 17 10 18 12 20 4 22 21 24 18 26
REMARK H PARENT 10 19 12 21 4 23 21 25 18 27
REMARK Flexibility Score: inf
ROOT
ATOM      1  C   UNL     1       7.801  -4.754  13.011  1.00  0.00     0.180 A 
ATOM      2  C   UNL     1       8.102  -4.437  11.676  1.00  0.00     0.208 A 
ATOM      3  C   UNL     1       7.523  -5.197  10.648  1.00  0.00     0.238 A 
ATOM      4  O   UNL     1       7.855  -4.956   9.458  1.00  0.00    -0.285 OA
ATOM      5  C   UNL     1       6.605  -6.228  10.965  1.00  0.00     0.111 A 
ATOM      6  C   UNL     1       5.923  -7.033  10.002  1.00  0.00     0.134 A 
ATOM      7  C   UNL     1       5.119  -8.094  10.435  1.00  0.00     0.093 A 
ATOM      8  C   UNL     1       4.921  -8.340  11.796  1.00  0.00     0.123 A 
ATOM      9  C   UNL     1       5.539  -7.527  12.743  1.00  0.00     0.094 A 
ATOM     10  C   UNL     1       6.377  -6.484  12.343  1.00  0.00     0.146 A 
ATOM     11  O   UNL     1       6.963  -5.747  13.279  1.00  0.00    -0.452 OA
ENDROOT
BRANCH   1  12
ATOM     12  C   UNL     1       8.384  -4.007  14.150  1.00  0.00     0.025 A 
ATOM     13  C   UNL     1       7.800  -2.820  14.623  1.00  0.00     0.016 A 
ATOM     14  C   UNL     1       8.383  -2.119  15.682  1.00  0.00     0.051 A 
ATOM     15  C   UNL     1       9.565  -2.586  16.273  1.00  0.00     0.157 A 
ATOM     16  C   UNL     1       9.580  -4.458  14.731  1.00  0.00     0.062 A 
ATOM     17  C   UNL     1      10.167  -3.760  15.792  1.00  0.00     0.158 A 
BRANCH  15  18
ATOM     18  O   UNL     1      10.144  -1.885  17.331  1.00  0.00    -0.504 OA
ATOM     19  H   UNL     1      10.498  -0.942  17.212  1.00  0.00     0.293 HD
ENDBRANCH  15  18
BRANCH  17  20
ATOM     20  O   UNL     1      11.347  -4.246  16.354  1.00  0.00    -0.504 OA
ATOM     21  H   UNL     1      12.172  -3.668  16.458  1.00  0.00     0.293 HD
ENDBRANCH  17  20
ENDBRANCH   1  12
BRANCH   2  22
ATOM     22  O   UNL     1       8.951  -3.366  11.381  1.00  0.00    -0.502 OA
ATOM     23  H   UNL     1       9.111  -3.043  10.434  1.00  0.00     0.293 HD
ENDBRANCH   2  22
BRANCH   6  24
ATOM     24  O   UNL     1       5.979  -6.819   8.622  1.00  0.00    -0.507 OA
ATOM     25  H   UNL     1       6.071  -5.918   8.179  1.00  0.00     0.293 HD
ENDBRANCH   6  24
BRANCH   8  26
ATOM     26  O   UNL     1       4.106  -9.389  12.218  1.00  0.00    -0.508 OA
ATOM     27  H   UNL     1       4.493 -10.227  12.634  1.00  0.00     0.293 HD
ENDBRANCH   8  26
TORSDOF 6
ENDMDL
MODEL 3
REMARK VINA RESULT:    -4.927      1.939      2.998
REMARK INTER + INTRA:          -6.241
REMARK INTER:                  -5.918
REMARK INTRA:                  -0.324
REMARK UNBOUND:                -0.306
REMARK SMILES O=c1c(O)c(-c2ccc(O)c(O)c2)oc2cc(O)cc(O)c12
REMARK SMILES IDX 5 1 3 2 2 3 1 4 22 5 20 6 19 7 17 8 16 9 15 10 14 11 6 12
REMARK SMILES IDX 7 13 8 14 9 15 13 16 11 17 10 18 12 20 4 22 21 24 18 26
REMARK H PARENT 10 19 12 21 4 23 21 25 18 27
REMARK Flexibility Score: inf
ROOT
ATOM      1  C   UNL     1       8.382  -4.147  14.531  1.00  0.00     0.180 A 
ATOM      2  C   UNL     1       9.664  -4.361  15.065  1.00  0.00     0.208 A 
ATOM      3  C   UNL     1       9.925  -3.969  16.386  1.00  0.00     0.238 A 
ATOM      4  O   UNL     1      11.095  -4.095  16.833  1.00  0.00    -0.285 OA
ATOM      5  C   UNL     1       8.886  -3.420  17.178  1.00  0.00     0.111 A 
ATOM      6  C   UNL     1       9.026  -3.029  18.544  1.00  0.00     0.134 A 
ATOM      7  C   UNL     1       7.958  -2.399  19.194  1.00  0.00     0.093 A 
ATOM      8  C   UNL     1       6.735  -2.204  18.548  1.00  0.00     0.123 A 
ATOM      9  C   UNL     1       6.571  -2.630  17.233  1.00  0.00     0.094 A 
ATOM     10  C   UNL     1       7.630  -3.228  16.545  1.00  0.00     0.146 A 
ATOM     11  O   UNL     1       7.437  -3.600  15.285  1.00  0.00    -0.452 OA
ENDROOT
BRANCH   1  12
ATOM     12  C   UNL     1       8.035  -4.521  13.140  1.00  0.00     0.025 A 
ATOM     13  C   UNL     1       8.320  -3.669  12.060  1.00  0.00     0.016 A 
ATOM     14  C   UNL     1       7.960  -4.033  10.760  1.00  0.00     0.051 A 
ATOM     15  C   UNL     1       7.299  -5.245  10.521  1.00  0.00     0.157 A 
ATOM     16  C   UNL     1       7.352  -5.724  12.899  1.00  0.00     0.062 A 
ATOM     17  C   UNL     1       6.991  -6.092  11.598  1.00  0.00     0.158 A 
BRANCH  15  18
ATOM     18  O   UNL     1       6.943  -5.606   9.222  1.00  0.00    -0.504 OA
ATOM     19  H   UNL     1       6.483  -4.953   8.597  1.00  0.00     0.293 HD
ENDBRANCH  15  18
BRANCH  17  20
ATOM     20  O   UNL     1       6.327  -7.301  11.395  1.00  0.00    -0.504 OA
ATOM     21  H   UNL     1       5.382  -7.459  11.726  1.00  0.00     0.293 HD
ENDBRANCH  17  20
ENDBRANCH   1  12
BRANCH   2  22
ATOM     22  O   UNL     1      10.654  -4.975  14.292  1.00  0.00    -0.502 OA
ATOM     23  H   UNL     1      11.329  -4.445  13.752  1.00  0.00     0.293 HD
ENDBRANCH   2  22
BRANCH   6  24
ATOM     24  O   UNL     1      10.172  -3.257  19.311  1.00  0.00    -0.507 OA
ATOM     25  H   UNL     1      10.211  -3.223  20.318  1.00  0.00     0.293 HD
ENDBRANCH   6  24
BRANCH   8  26
ATOM     26  O   UNL     1       5.672  -1.590  19.209  1.00  0.00    -0.508 OA
ATOM     27  H   UNL     1       5.032  -0.972  18.724  1.00  0.00     0.293 HD
ENDBRANCH   8  26
TORSDOF 6
ENDMDL
MODEL 4
REMARK VINA RESULT:    -4.906      4.640      7.688
REMARK INTER + INTRA:          -6.216
REMARK INTER:                  -5.904
REMARK INTRA:                  -0.312
REMARK UNBOUND:                -0.306
REMARK SMILES O=c1c(O)c(-c2ccc(O)c(O)c2)oc2cc(O)cc(O)c12
REMARK SMILES IDX 5 1 3 2 2 3 1 4 22 5 20 6 19 7 17 8 16 9 15 10 14 11 6 12
REMARK SMILES IDX 7 13 8 14 9 15 13 16 11 17 10 18 12 20 4 22 21 24 18 26
REMARK H PARENT 10 19 12 21 4 23 21 25 18 27
REMARK Flexibility Score: inf
ROOT
ATOM      1  C   UNL     1      10.152  -4.746  20.631  1.00  0.00     0.180 A 
ATOM      2  C   UNL     1       8.974  -4.876  21.387  1.00  0.00     0.208 A 
ATOM      3  C   UNL     1       9.071  -5.037  22.778  1.00  0.00     0.238 A 
ATOM      4  O   UNL     1       8.017  -5.229  23.439  1.00  0.00    -0.285 OA
ATOM      5  C   UNL     1      10.341  -5.008  23.404  1.00  0.00     0.111 A 
ATOM      6  C   UNL     1      10.556  -5.116  24.812  1.00  0.00     0.134 A 
ATOM      7  C   UNL     1      11.864  -5.182  25.307  1.00  0.00     0.093 A 
ATOM      8  C   UNL     1      12.965  -5.078  24.453  1.00  0.00     0.123 A 
ATOM      9  C   UNL     1      12.766  -4.918  23.085  1.00  0.00     0.094 A 
ATOM     10  C   UNL     1      11.473  -4.888  22.555  1.00  0.00     0.146 A 
ATOM     11  O   UNL     1      11.330  -4.755  21.242  1.00  0.00    -0.452 OA
ENDROOT
BRANCH   1  12
ATOM     12  C   UNL     1      10.129  -4.587  19.159  1.00  0.00     0.025 A 
ATOM     13  C   UNL     1      10.350  -5.678  18.302  1.00  0.00     0.016 A 
ATOM     14  C   UNL     1      10.350  -5.499  16.916  1.00  0.00     0.051 A 
ATOM     15  C   UNL     1      10.142  -4.226  16.367  1.00  0.00     0.157 A 
ATOM     16  C   UNL     1       9.944  -3.310  18.605  1.00  0.00     0.062 A 
ATOM     17  C   UNL     1       9.942  -3.126  17.218  1.00  0.00     0.158 A 
BRANCH  15  18
ATOM     18  O   UNL     1      10.140  -4.051  14.984  1.00  0.00    -0.504 OA
ATOM     19  H   UNL     1       9.802  -3.195  14.558  1.00  0.00     0.293 HD
ENDBRANCH  15  18
BRANCH  17  20
ATOM     20  O   UNL     1       9.740  -1.846  16.704  1.00  0.00    -0.504 OA
ATOM     21  H   UNL     1       9.024  -1.649  16.015  1.00  0.00     0.293 HD
ENDBRANCH  17  20
ENDBRANCH   1  12
BRANCH   2  22
ATOM     22  O   UNL     1       7.726  -4.826  20.759  1.00  0.00    -0.502 OA
ATOM     23  H   UNL     1       7.230  -5.659  20.465  1.00  0.00     0.293 HD
ENDBRANCH   2  22
BRANCH   6  24
ATOM     24  O   UNL     1       9.530  -5.136  25.761  1.00  0.00    -0.507 OA
ATOM     25  H   UNL     1       8.608  -5.514  25.608  1.00  0.00     0.293 HD
ENDBRANCH   6  24
BRANCH   8  26
ATOM     26  O   UNL     1      14.263  -5.128  24.957  1.00  0.00    -0.508 OA
ATOM     27  H   UNL     1      14.948  -4.418  24.729  1.00  0.00     0.293 HD
ENDBRANCH   8  26
TORSDOF 6
ENDMDL
MODEL 5
REMARK VINA RESULT:    -4.887     12.015     14.086
REMARK INTER + INTRA:          -6.192
REMARK INTER:                  -5.876
REMARK INTRA:                  -0.316
REMARK UNBOUND:                -0.306
REMARK SMILES O=c1c(O)c(-c2ccc(O)c(O)c2)oc2cc(O)cc(O)c12
REMARK SMILES IDX 5 1 3 2 2 3 1 4 22 5 20 6 19 7 17 8 16 9 15 10 14 11 6 12
REMARK SMILES IDX 7 13 8 14 9 15 13 16 11 17 10 18 12 20 4 22 21 24 18 26
REMARK H PARENT 10 19 12 21 4 23 21 25 18 27
REMARK Flexibility Score: inf
ROOT
ATOM      1  C   UNL     1      18.702   3.953  16.002  1.00  0.00     0.180 A 
ATOM      2  C   UNL     1      20.016   4.439  16.113  1.00  0.00     0.208 A 
ATOM      3  C   UNL     1      20.284   5.478  17.017  1.00  0.00     0.238 A 
ATOM      4  O   UNL     1      21.446   5.960  17.058  1.00  0.00    -0.285 OA
ATOM      5  C   UNL     1      19.246   5.981  17.841  1.00  0.00     0.111 A 
ATOM      6  C   UNL     1      19.413   7.003  18.825  1.00  0.00     0.134 A 
ATOM      7  C   UNL     1      18.292   7.494  19.505  1.00  0.00     0.093 A 
ATOM      8  C   UNL     1      17.022   6.957  19.285  1.00  0.00     0.123 A 
ATOM      9  C   UNL     1      16.857   5.923  18.367  1.00  0.00     0.094 A 
ATOM     10  C   UNL     1      17.949   5.437  17.644  1.00  0.00     0.146 A 
ATOM     11  O   UNL     1      17.744   4.465  16.763  1.00  0.00    -0.452 OA
ENDROOT
BRANCH   1  12
ATOM     12  C   UNL     1      18.341   2.868  15.060  1.00  0.00     0.025 A 
ATOM     13  C   UNL     1      17.794   3.148  13.796  1.00  0.00     0.016 A 
ATOM     14  C   UNL     1      17.437   2.107  12.935  1.00  0.00     0.051 A 
ATOM     15  C   UNL     1      17.609   0.773  13.329  1.00  0.00     0.157 A 
ATOM     16  C   UNL     1      18.491   1.530  15.458  1.00  0.00     0.062 A 
ATOM     17  C   UNL     1      18.135   0.484  14.599  1.00  0.00     0.158 A 
BRANCH  15  18
ATOM     18  O   UNL     1      17.253  -0.264  12.466  1.00  0.00    -0.504 OA
ATOM     19  H   UNL     1      16.633  -1.010  12.761  1.00  0.00     0.293 HD
ENDBRANCH  15  18
BRANCH  17  20
ATOM     20  O   UNL     1      18.312  -0.832  15.023  1.00  0.00    -0.504 OA
ATOM     21  H   UNL     1      19.224  -1.273  15.046  1.00  0.00     0.293 HD
ENDBRANCH  17  20
ENDBRANCH   1  12
BRANCH   2  22
ATOM     22  O   UNL     1      21.042   3.878  15.347  1.00  0.00    -0.502 OA
ATOM     23  H   UNL     1      20.993   2.934  14.980  1.00  0.00     0.293 HD
ENDBRANCH   2  22
BRANCH   6  24
ATOM     24  O   UNL     1      20.648   7.547  19.187  1.00  0.00    -0.507 OA
ATOM     25  H   UNL     1      20.774   8.405  19.702  1.00  0.00     0.293 HD
ENDBRANCH   6  24
BRANCH   8  26
ATOM     26  O   UNL     1      15.915   7.441  19.979  1.00  0.00    -0.508 OA
ATOM     27  H   UNL     1      15.535   8.362  19.796  1.00  0.00     0.293 HD
ENDBRANCH   8  26
TORSDOF 6
ENDMDL
MODEL 6
REMARK VINA RESULT:    -4.802      1.642      2.991
REMARK INTER + INTRA:          -6.090
REMARK INTER:                  -5.764
REMARK INTRA:                  -0.327
REMARK UNBOUND:                -0.306
REMARK SMILES O=c1c(O)c(-c2ccc(O)c(O)c2)oc2cc(O)cc(O)c12
REMARK SMILES IDX 5 1 3 2 2 3 1 4 22 5 20 6 19 7 17 8 16 9 15 10 14 11 6 12
REMARK SMILES IDX 7 13 8 14 9 15 13 16 11 17 10 18 12 20 4 22 21 24 18 26
REMARK H PARENT 10 19 12 21 4 23 21 25 18 27
REMARK Flexibility Score: inf
ROOT
ATOM      1  C   UNL     1       7.758  -4.745  12.968  1.00  0.00     0.180 A 
ATOM      2  C   UNL     1       7.795  -6.080  13.406  1.00  0.00     0.208 A 
ATOM      3  C   UNL     1       8.315  -6.366  14.677  1.00  0.00     0.238 A 
ATOM      4  O   UNL     1       8.415  -7.570  15.032  1.00  0.00    -0.285 OA
ATOM      5  C   UNL     1       8.739  -5.309  15.519  1.00  0.00     0.111 A 
ATOM      6  C   UNL     1       9.242  -5.479  16.846  1.00  0.00     0.134 A 
ATOM      7  C   UNL     1       9.732  -4.369  17.545  1.00  0.00     0.093 A 
ATOM      8  C   UNL     1       9.678  -3.087  16.992  1.00  0.00     0.123 A 
ATOM      9  C   UNL     1       9.140  -2.904  15.721  1.00  0.00     0.094 A 
ATOM     10  C   UNL     1       8.679  -3.996  14.982  1.00  0.00     0.146 A 
ATOM     11  O   UNL     1       8.193  -3.779  13.766  1.00  0.00    -0.452 OA
ENDROOT
BRANCH   1  12
ATOM     12  C   UNL     1       7.236  -4.368  11.634  1.00  0.00     0.025 A 
ATOM     13  C   UNL     1       8.053  -4.405  10.491  1.00  0.00     0.016 A 
ATOM     14  C   UNL     1       7.545  -4.020   9.248  1.00  0.00     0.051 A 
ATOM     15  C   UNL     1       6.220  -3.578   9.131  1.00  0.00     0.157 A 
ATOM     16  C   UNL     1       5.916  -3.904  11.515  1.00  0.00     0.062 A 
ATOM     17  C   UNL     1       5.404  -3.517  10.272  1.00  0.00     0.158 A 
BRANCH  15  18
ATOM     18  O   UNL     1       5.716  -3.196   7.887  1.00  0.00    -0.504 OA
ATOM     19  H   UNL     1       4.719  -3.145   7.713  1.00  0.00     0.293 HD
ENDBRANCH  15  18
BRANCH  17  20
ATOM     20  O   UNL     1       4.084  -3.076  10.190  1.00  0.00    -0.504 OA
ATOM     21  H   UNL     1       3.300  -3.719  10.193  1.00  0.00     0.293 HD
ENDBRANCH  17  20
ENDBRANCH   1  12
BRANCH   2  22
ATOM     22  O   UNL     1       7.300  -7.102  12.590  1.00  0.00    -0.502 OA
ATOM     23  H   UNL     1       7.619  -7.242  11.639  1.00  0.00     0.293 HD
ENDBRANCH   2  22
BRANCH   6  24
ATOM     24  O   UNL     1       9.259  -6.699  17.526  1.00  0.00    -0.507 OA
ATOM     25  H   UNL     1       9.827  -7.494  17.275  1.00  0.00     0.293 HD
ENDBRANCH   6  24
BRANCH   8  26
ATOM     26  O   UNL     1      10.153  -1.986  17.702  1.00  0.00    -0.508 OA
ATOM     27  H   UNL     1       9.581  -1.513  18.391  1.00  0.00     0.293 HD
ENDBRANCH   8  26
TORSDOF 6
ENDMDL
MODEL 7
REMARK VINA RESULT:    -4.798      5.094      7.611
REMARK INTER + INTRA:          -6.086
REMARK INTER:                  -5.775
REMARK INTRA:                  -0.310
REMARK UNBOUND:                -0.306
REMARK SMILES O=c1c(O)c(-c2ccc(O)c(O)c2)oc2cc(O)cc(O)c12
REMARK SMILES IDX 5 1 3 2 2 3 1 4 22 5 20 6 19 7 17 8 16 9 15 10 14 11 6 12
REMARK SMILES IDX 7 13 8 14 9 15 13 16 11 17 10 18 12 20 4 22 21 24 18 26
REMARK H PARENT 10 19 12 21 4 23 21 25 18 27
REMARK Flexibility Score: inf
ROOT
ATOM      1  C   UNL     1       7.176  -2.578  19.569  1.00  0.00     0.180 A 
ATOM      2  C   UNL     1       7.319  -3.482  20.635  1.00  0.00     0.208 A 
ATOM      3  C   UNL     1       6.809  -3.135  21.895  1.00  0.00     0.238 A 
ATOM      4  O   UNL     1       7.006  -3.917  22.862  1.00  0.00    -0.285 OA
ATOM      5  C   UNL     1       6.112  -1.914  22.062  1.00  0.00     0.111 A 
ATOM      6  C   UNL     1       5.514  -1.480  23.285  1.00  0.00     0.134 A 
ATOM      7  C   UNL     1       4.942  -0.204  23.358  1.00  0.00     0.093 A 
ATOM      8  C   UNL     1       4.890   0.629  22.237  1.00  0.00     0.123 A 
ATOM      9  C   UNL     1       5.422   0.193  21.027  1.00  0.00     0.094 A 
ATOM     10  C   UNL     1       6.033  -1.059  20.931  1.00  0.00     0.146 A 
ATOM     11  O   UNL     1       6.547  -1.426  19.763  1.00  0.00    -0.452 OA
ENDROOT
BRANCH   1  12
ATOM     12  C   UNL     1       7.700  -2.867  18.214  1.00  0.00     0.025 A 
ATOM     13  C   UNL     1       6.888  -3.444  17.222  1.00  0.00     0.016 A 
ATOM     14  C   UNL     1       7.413  -3.731  15.960  1.00  0.00     0.051 A 
ATOM     15  C   UNL     1       8.758  -3.460  15.674  1.00  0.00     0.157 A 
ATOM     16  C   UNL     1       9.053  -2.618  17.929  1.00  0.00     0.062 A 
ATOM     17  C   UNL     1       9.581  -2.904  16.666  1.00  0.00     0.158 A 
BRANCH  15  18
ATOM     18  O   UNL     1       9.278  -3.746  14.411  1.00  0.00    -0.504 OA
ATOM     19  H   UNL     1      10.189  -3.406  14.124  1.00  0.00     0.293 HD
ENDBRANCH  15  18
BRANCH  17  20
ATOM     20  O   UNL     1      10.925  -2.629  16.416  1.00  0.00    -0.504 OA
ATOM     21  H   UNL     1      11.637  -3.349  16.443  1.00  0.00     0.293 HD
ENDBRANCH  17  20
ENDBRANCH   1  12
BRANCH   2  22
ATOM     22  O   UNL     1       7.942  -4.717  20.431  1.00  0.00    -0.502 OA
ATOM     23  H   UNL     1       8.697  -5.049  21.021  1.00  0.00     0.293 HD
ENDBRANCH   2  22
BRANCH   6  24
ATOM     24  O   UNL     1       5.431  -2.265  24.438  1.00  0.00    -0.507 OA
ATOM     25  H   UNL     1       5.725  -1.975  25.358  1.00  0.00     0.293 HD
ENDBRANCH   6  24
BRANCH   8  26
ATOM     26  O   UNL     1       4.304   1.891  22.316  1.00  0.00    -0.508 OA
ATOM     27  H   UNL     1       4.836   2.705  22.598  1.00  0.00     0.293 HD
ENDBRANCH   8  26
TORSDOF 6
ENDMDL
MODEL 8
REMARK VINA RESULT:    -4.783      4.705      8.377
REMARK INTER + INTRA:          -6.068
REMARK INTER:                  -5.853
REMARK INTRA:                  -0.215
REMARK UNBOUND:                -0.306
REMARK SMILES O=c1c(O)c(-c2ccc(O)c(O)c2)oc2cc(O)cc(O)c12
REMARK SMILES IDX 5 1 3 2 2 3 1 4 22 5 20 6 19 7 17 8 16 9 15 10 14 11 6 12
REMARK SMILES IDX 7 13 8 14 9 15 13 16 11 17 10 18 12 20 4 22 21 24 18 26
REMARK H PARENT 10 19 12 21 4 23 21 25 18 27
REMARK Flexibility Score: inf
ROOT
ATOM      1  C   UNL     1       6.487  -1.909  19.257  1.00  0.00     0.180 A 
ATOM      2  C   UNL     1       5.550  -1.902  18.209  1.00  0.00     0.208 A 
ATOM      3  C   UNL     1       5.979  -2.221  16.911  1.00  0.00     0.238 A 
ATOM      4  O   UNL     1       5.152  -2.141  15.965  1.00  0.00    -0.285 OA
ATOM      5  C   UNL     1       7.325  -2.599  16.685  1.00  0.00     0.111 A 
ATOM      6  C   UNL     1       7.859  -2.986  15.418  1.00  0.00     0.134 A 
ATOM      7  C   UNL     1       9.231  -3.236  15.295  1.00  0.00     0.093 A 
ATOM      8  C   UNL     1      10.078  -3.176  16.405  1.00  0.00     0.123 A 
ATOM      9  C   UNL     1       9.557  -2.852  17.655  1.00  0.00     0.094 A 
ATOM     10  C   UNL     1       8.199  -2.560  17.804  1.00  0.00     0.146 A 
ATOM     11  O   UNL     1       7.749  -2.235  19.010  1.00  0.00    -0.452 OA
ENDROOT
BRANCH   1  12
ATOM     12  C   UNL     1       6.113  -1.569  20.649  1.00  0.00     0.025 A 
ATOM     13  C   UNL     1       6.036  -2.554  21.648  1.00  0.00     0.016 A 
ATOM     14  C   UNL     1       5.657  -2.213  22.948  1.00  0.00     0.051 A 
ATOM     15  C   UNL     1       5.336  -0.887  23.267  1.00  0.00     0.157 A 
ATOM     16  C   UNL     1       5.769  -0.245  20.968  1.00  0.00     0.062 A 
ATOM     17  C   UNL     1       5.389   0.100  22.270  1.00  0.00     0.158 A 
BRANCH  15  18
ATOM     18  O   UNL     1       4.959  -0.549  24.567  1.00  0.00    -0.504 OA
ATOM     19  H   UNL     1       4.342   0.233  24.754  1.00  0.00     0.293 HD
ENDBRANCH  15  18
BRANCH  17  20
ATOM     20  O   UNL     1       5.069   1.427  22.552  1.00  0.00    -0.504 OA
ATOM     21  H   UNL     1       4.127   1.717  22.784  1.00  0.00     0.293 HD
ENDBRANCH  17  20
ENDBRANCH   1  12
BRANCH   2  22
ATOM     22  O   UNL     1       4.210  -1.601  18.465  1.00  0.00    -0.502 OA
ATOM     23  H   UNL     1       3.601  -2.225  18.982  1.00  0.00     0.293 HD
ENDBRANCH   2  22
BRANCH   6  24
ATOM     24  O   UNL     1       7.089  -3.164  14.266  1.00  0.00    -0.507 OA
ATOM     25  H   UNL     1       6.696  -4.042  13.962  1.00  0.00     0.293 HD
ENDBRANCH   6  24
BRANCH   8  26
ATOM     26  O   UNL     1      11.439  -3.442  16.276  1.00  0.00    -0.508 OA
ATOM     27  H   UNL     1      11.979  -3.829  17.041  1.00  0.00     0.293 HD
ENDBRANCH   8  26
TORSDOF 6
ENDMDL
MODEL 9
REMARK VINA RESULT:    -4.774      4.302     10.105
REMARK INTER + INTRA:          -6.056
REMARK INTER:                  -5.736
REMARK INTRA:                  -0.320
REMARK UNBOUND:                -0.306
REMARK SMILES O=c1c(O)c(-c2ccc(O)c(O)c2)oc2cc(O)cc(O)c12
REMARK SMILES IDX 5 1 3 2 2 3 1 4 22 5 20 6 19 7 17 8 16 9 15 10 14 11 6 12
REMARK SMILES IDX 7 13 8 14 9 15 13 16 11 17 10 18 12 20 4 22 21 24 18 26
REMARK H PARENT 10 19 12 21 4 23 21 25 18 27
REMARK Flexibility Score: inf
ROOT
ATOM      1  C   UNL     1      10.883  -5.083  21.036  1.00  0.00     0.180 A 
ATOM      2  C   UNL     1      10.968  -6.347  20.428  1.00  0.00     0.208 A 
ATOM      3  C   UNL     1      10.672  -6.468  19.062  1.00  0.00     0.238 A 
ATOM      4  O   UNL     1      10.677  -7.614  18.542  1.00  0.00    -0.285 OA
ATOM      5  C   UNL     1      10.351  -5.314  18.305  1.00  0.00     0.111 A 
ATOM      6  C   UNL     1      10.077  -5.312  16.903  1.00  0.00     0.134 A 
ATOM      7  C   UNL     1       9.666  -4.126  16.283  1.00  0.00     0.093 A 
ATOM      8  C   UNL     1       9.581  -2.929  16.999  1.00  0.00     0.123 A 
ATOM      9  C   UNL     1       9.898  -2.910  18.354  1.00  0.00     0.094 A 
ATOM     10  C   UNL     1      10.274  -4.084  19.011  1.00  0.00     0.146 A 
ATOM     11  O   UNL     1      10.547  -4.025  20.309  1.00  0.00    -0.452 OA
ENDROOT
BRANCH   1  12
ATOM     12  C   UNL     1      11.166  -4.880  22.475  1.00  0.00     0.025 A 
ATOM     13  C   UNL     1      10.134  -4.863  23.429  1.00  0.00     0.016 A 
ATOM     14  C   UNL     1      10.423  -4.644  24.778  1.00  0.00     0.051 A 
ATOM     15  C   UNL     1      11.744  -4.425  25.192  1.00  0.00     0.157 A 
ATOM     16  C   UNL     1      12.485  -4.638  22.892  1.00  0.00     0.062 A 
ATOM     17  C   UNL     1      12.779  -4.419  24.242  1.00  0.00     0.158 A 
BRANCH  15  18
ATOM     18  O   UNL     1      12.030  -4.209  26.540  1.00  0.00    -0.504 OA
ATOM     19  H   UNL     1      11.607  -4.773  27.269  1.00  0.00     0.293 HD
ENDBRANCH  15  18
BRANCH  17  20
ATOM     20  O   UNL     1      14.102  -4.198  24.621  1.00  0.00    -0.504 OA
ATOM     21  H   UNL     1      14.562  -4.760  25.327  1.00  0.00     0.293 HD
ENDBRANCH  17  20
ENDBRANCH   1  12
BRANCH   2  22
ATOM     22  O   UNL     1      11.361  -7.462  21.175  1.00  0.00    -0.502 OA
ATOM     23  H   UNL     1      10.751  -7.908  21.849  1.00  0.00     0.293 HD
ENDBRANCH   2  22
BRANCH   6  24
ATOM     24  O   UNL     1      10.217  -6.430  16.077  1.00  0.00    -0.507 OA
ATOM     25  H   UNL     1       9.823  -7.340  16.262  1.00  0.00     0.293 HD
ENDBRANCH   6  24
BRANCH   8  26
ATOM     26  O   UNL     1       9.187  -1.751  16.368  1.00  0.00    -0.508 OA
ATOM     27  H   UNL     1       8.799  -0.974  16.890  1.00  0.00     0.293 HD
ENDBRANCH   8  26
TORSDOF 6
ENDMDL
