MODEL 1
REMARK VINA RESULT:    -4.783      0.000      0.000
REMARK INTER + INTRA:          -9.084
REMARK INTER:                  -7.020
REMARK INTRA:                  -2.064
REMARK UNBOUND:                -2.064
REMARK SMILES O=c1c(O[C@@H]2O[C@@H](CO)[C@@H](O)[C@@H](O)[C@@H]2O)c(-c2ccc(O)c(O)c2)oc2cc(O)cc(O)c12
REMARK SMILES IDX 4 1 3 2 16 3 25 4 2 5 26 6 1 7 33 8 27 9 31 10 28 11 30 12
REMARK SMILES IDX 17 13 18 14 19 15 20 16 24 17 22 18 21 19 23 21 32 23 29 25
REMARK SMILES IDX 5 27 14 28 6 29 12 30 7 31 10 32 15 33 13 35 8 37 9 38 11 40
REMARK H PARENT 21 20 23 22 32 24 29 26 15 34 13 36 9 39 11 41
REMARK Flexibility Score: inf
ROOT
ATOM      1  O   UNL     1      -5.726  -5.281   7.907  1.00  0.00    -0.454 OA
ENDROOT
BRANCH   1   2
ATOM      2  C   UNL     1      -4.549  -6.023   8.110  1.00  0.00     0.214 A 
ATOM      3  C   UNL     1      -4.606  -7.430   8.024  1.00  0.00     0.180 A 
ATOM      4  O   UNL     1      -3.513  -8.154   8.244  1.00  0.00    -0.452 OA
ATOM      5  C   UNL     1      -3.307  -5.415   8.385  1.00  0.00     0.239 A 
ATOM      6  C   UNL     1      -2.329  -7.624   8.522  1.00  0.00     0.146 A 
ATOM      7  O   UNL     1      -3.212  -4.158   8.408  1.00  0.00    -0.285 OA
ATOM      8  C   UNL     1      -2.170  -6.221   8.604  1.00  0.00     0.111 A 
ATOM      9  C   UNL     1      -1.236  -8.472   8.725  1.00  0.00     0.094 A 
ATOM     10  C   UNL     1      -0.887  -5.688   8.892  1.00  0.00     0.134 A 
ATOM     11  C   UNL     1       0.028  -7.941   9.006  1.00  0.00     0.123 A 
ATOM     12  C   UNL     1       0.198  -6.555   9.090  1.00  0.00     0.093 A 
BRANCH   3  13
ATOM     13  C   UNL     1      -5.870  -8.145   7.734  1.00  0.00     0.025 A 
ATOM     14  C   UNL     1      -6.356  -8.277   6.421  1.00  0.00     0.016 A 
ATOM     15  C   UNL     1      -7.567  -8.931   6.180  1.00  0.00     0.051 A 
ATOM     16  C   UNL     1      -8.300  -9.479   7.242  1.00  0.00     0.157 A 
ATOM     17  C   UNL     1      -6.595  -8.716   8.792  1.00  0.00     0.062 A 
ATOM     18  C   UNL     1      -7.805  -9.376   8.554  1.00  0.00     0.158 A 
BRANCH  16  19
ATOM     19  O   UNL     1      -9.511 -10.125   7.001  1.00  0.00    -0.504 OA
ATOM     20  H   UNL     1      -9.925 -10.752   7.683  1.00  0.00     0.293 HD
ENDBRANCH  16  19
BRANCH  18  21
ATOM     21  O   UNL     1      -8.503  -9.920   9.631  1.00  0.00    -0.504 OA
ATOM     22  H   UNL     1      -8.874 -10.864   9.614  1.00  0.00     0.293 HD
ENDBRANCH  18  21
ENDBRANCH   3  13
BRANCH  10  23
ATOM     23  O   UNL     1      -0.685  -4.310   8.985  1.00  0.00    -0.507 OA
ATOM     24  H   UNL     1      -1.462  -3.658   9.035  1.00  0.00     0.293 HD
ENDBRANCH  10  23
BRANCH  11  25
ATOM     25  O   UNL     1       1.123  -8.779   9.204  1.00  0.00    -0.508 OA
ATOM     26  H   UNL     1       1.250  -9.290  10.071  1.00  0.00     0.293 HD
ENDBRANCH  11  25
ENDBRANCH   1   2
BRANCH   1  27
ATOM     27  C   UNL     1      -6.609  -4.826   8.939  1.00  0.00     0.339 C 
ATOM     28  C   UNL     1      -6.827  -3.300   8.829  1.00  0.00     0.214 C 
ATOM     29  O   UNL     1      -7.844  -5.530   8.904  1.00  0.00    -0.332 OA
ATOM     30  C   UNL     1      -7.659  -2.953   7.577  1.00  0.00     0.180 C 
ATOM     31  C   UNL     1      -8.543  -5.300   7.686  1.00  0.00     0.179 C 
ATOM     32  C   UNL     1      -8.939  -3.811   7.553  1.00  0.00     0.177 C 
BRANCH  28  33
ATOM     33  O   UNL     1      -5.599  -2.615   8.840  1.00  0.00    -0.384 OA
ATOM     34  H   UNL     1      -5.064  -2.937   8.068  1.00  0.00     0.211 HD
ENDBRANCH  28  33
BRANCH  30  35
ATOM     35  O   UNL     1      -7.996  -1.589   7.578  1.00  0.00    -0.387 OA
ATOM     36  H   UNL     1      -7.653  -1.207   8.429  1.00  0.00     0.211 HD
ENDBRANCH  30  35
BRANCH  31  37
ATOM     37  C   UNL     1      -9.770  -6.220   7.642  1.00  0.00     0.191 C 
BRANCH  37  38
ATOM     38  O   UNL     1     -10.091  -6.664   8.934  1.00  0.00    -0.394 OA
ATOM     39  H   UNL     1      -9.233  -6.924   9.361  1.00  0.00     0.210 HD
ENDBRANCH  37  38
ENDBRANCH  31  37
BRANCH  32  40
ATOM     40  O   UNL     1      -9.797  -3.452   8.608  1.00  0.00    -0.387 OA
ATOM     41  H   UNL     1      -9.298  -3.604   9.452  1.00  0.00     0.211 HD
ENDBRANCH  32  40
ENDBRANCH   1  27
TORSDOF 12
ENDMDL
MODEL 2
REMARK VINA RESULT:    -4.704     16.833     19.661
REMARK INTER + INTRA:          -8.968
REMARK INTER:                  -6.966
REMARK INTRA:                  -2.002
REMARK UNBOUND:                -2.064
REMARK SMILES O=c1c(O[C@@H]2O[C@@H](CO)[C@@H](O)[C@@H](O)[C@@H]2O)c(-c2ccc(O)c(O)c2)oc2cc(O)cc(O)c12
REMARK SMILES IDX 4 1 3 2 16 3 25 4 2 5 26 6 1 7 33 8 27 9 31 10 28 11 30 12
REMARK SMILES IDX 17 13 18 14 19 15 20 16 24 17 22 18 21 19 23 21 32 23 29 25
REMARK SMILES IDX 5 27 14 28 6 29 12 30 7 31 10 32 15 33 13 35 8 37 9 38 11 40
REMARK H PARENT 21 20 23 22 32 24 29 26 15 34 13 36 9 39 11 41
REMARK Flexibility Score: inf
ROOT
ATOM      1  O   UNL     1       8.487   6.081   5.207  1.00  0.00    -0.454 OA
ENDROOT
BRANCH   1   2
ATOM      2  C   UNL     1       8.662   4.894   5.940  1.00  0.00     0.214 A 
ATOM      3  C   UNL     1       8.471   4.921   7.337  1.00  0.00     0.180 A 
ATOM      4  O   UNL     1       8.663   3.820   8.056  1.00  0.00    -0.452 OA
ATOM      5  C   UNL     1       9.011   3.671   5.332  1.00  0.00     0.239 A 
ATOM      6  C   UNL     1       9.007   2.652   7.526  1.00  0.00     0.146 A 
ATOM      7  O   UNL     1       9.129   3.602   4.078  1.00  0.00    -0.285 OA
ATOM      8  C   UNL     1       9.197   2.523   6.130  1.00  0.00     0.111 A 
ATOM      9  C   UNL     1       9.173   1.548   8.366  1.00  0.00     0.094 A 
ATOM     10  C   UNL     1       9.554   1.259   5.597  1.00  0.00     0.134 A 
ATOM     11  C   UNL     1       9.523   0.301   7.834  1.00  0.00     0.123 A 
ATOM     12  C   UNL     1       9.713   0.161   6.456  1.00  0.00     0.093 A 
BRANCH   3  13
ATOM     13  C   UNL     1       8.099   6.164   8.052  1.00  0.00     0.025 A 
ATOM     14  C   UNL     1       6.755   6.540   8.224  1.00  0.00     0.016 A 
ATOM     15  C   UNL     1       6.435   7.733   8.877  1.00  0.00     0.051 A 
ATOM     16  C   UNL     1       7.449   8.558   9.383  1.00  0.00     0.157 A 
ATOM     17  C   UNL     1       9.111   6.981   8.582  1.00  0.00     0.062 A 
ATOM     18  C   UNL     1       8.794   8.174   9.240  1.00  0.00     0.158 A 
BRANCH  16  19
ATOM     19  O   UNL     1       7.128   9.751  10.027  1.00  0.00    -0.504 OA
ATOM     20  H   UNL     1       7.421  10.650   9.659  1.00  0.00     0.293 HD
ENDBRANCH  16  19
BRANCH  18  21
ATOM     21  O   UNL     1       9.826   8.966   9.742  1.00  0.00    -0.504 OA
ATOM     22  H   UNL     1       9.818   9.326  10.690  1.00  0.00     0.293 HD
ENDBRANCH  18  21
ENDBRANCH   3  13
BRANCH  10  23
ATOM     23  O   UNL     1       9.753   1.086   4.226  1.00  0.00    -0.507 OA
ATOM     24  H   UNL     1      10.405   1.664   3.704  1.00  0.00     0.293 HD
ENDBRANCH  10  23
BRANCH  11  25
ATOM     25  O   UNL     1       9.683  -0.806   8.665  1.00  0.00    -0.508 OA
ATOM     26  H   UNL     1       8.935  -1.130   9.268  1.00  0.00     0.293 HD
ENDBRANCH  11  25
ENDBRANCH   1   2
BRANCH   1  27
ATOM     27  C   UNL     1       9.540   6.876   4.650  1.00  0.00     0.339 C 
ATOM     28  C   UNL     1       9.274   7.154   3.153  1.00  0.00     0.214 C 
ATOM     29  O   UNL     1       9.710   8.086   5.379  1.00  0.00    -0.332 OA
ATOM     30  C   UNL     1       8.078   8.113   2.977  1.00  0.00     0.180 C 
ATOM     31  C   UNL     1       8.549   8.905   5.312  1.00  0.00     0.179 C 
ATOM     32  C   UNL     1       8.281   9.360   3.858  1.00  0.00     0.177 C 
BRANCH  28  33
ATOM     33  O   UNL     1       9.084   5.954   2.446  1.00  0.00    -0.384 OA
ATOM     34  H   UNL     1       9.904   5.782   1.912  1.00  0.00     0.211 HD
ENDBRANCH  28  33
BRANCH  30  35
ATOM     35  O   UNL     1       7.952   8.493   1.630  1.00  0.00    -0.387 OA
ATOM     36  H   UNL     1       7.385   9.310   1.612  1.00  0.00     0.211 HD
ENDBRANCH  30  35
BRANCH  31  37
ATOM     37  C   UNL     1       8.734  10.100   6.256  1.00  0.00     0.191 C 
BRANCH  37  38
ATOM     38  O   UNL     1      10.045  10.125   6.756  1.00  0.00    -0.394 OA
ATOM     39  H   UNL     1      10.580   9.531   6.166  1.00  0.00     0.210 HD
ENDBRANCH  37  38
ENDBRANCH  31  37
BRANCH  32  40
ATOM     40  O   UNL     1       9.366  10.125   3.394  1.00  0.00    -0.387 OA
ATOM     41  H   UNL     1       9.925   9.526   2.834  1.00  0.00     0.211 HD
ENDBRANCH  32  40
ENDBRANCH   1  27
TORSDOF 12
ENDMDL
MODEL 3
REMARK VINA RESULT:    -4.699     19.765     22.008
REMARK INTER + INTRA:          -8.960
REMARK INTER:                  -6.954
REMARK INTRA:                  -2.006
REMARK UNBOUND:                -2.064
REMARK SMILES O=c1c(O[C@@H]2O[C@@H](CO)[C@@H](O)[C@@H](O)[C@@H]2O)c(-c2ccc(O)c(O)c2)oc2cc(O)cc(O)c12
REMARK SMILES IDX 4 1 3 2 16 3 25 4 2 5 26 6 1 7 33 8 27 9 31 10 28 11 30 12
REMARK SMILES IDX 17 13 18 14 19 15 20 16 24 17 22 18 21 19 23 21 32 23 29 25
REMARK SMILES IDX 5 27 14 28 6 29 12 30 7 31 10 32 15 33 13 35 8 37 9 38 11 40
REMARK H PARENT 21 20 23 22 32 24 29 26 15 34 13 36 9 39 11 41
REMARK Flexibility Score: inf
ROOT
ATOM      1  O   UNL     1      -5.344   5.203  -8.921  1.00  0.00    -0.454 OA
ENDROOT
BRANCH   1   2
ATOM      2  C   UNL     1      -4.164   5.955  -9.062  1.00  0.00     0.214 A 
ATOM      3  C   UNL     1      -4.232   7.359  -8.952  1.00  0.00     0.180 A 
ATOM      4  O   UNL     1      -3.135   8.093  -9.114  1.00  0.00    -0.452 OA
ATOM      5  C   UNL     1      -2.909   5.358  -9.299  1.00  0.00     0.239 A 
ATOM      6  C   UNL     1      -1.938   7.573  -9.355  1.00  0.00     0.146 A 
ATOM      7  O   UNL     1      -2.806   4.102  -9.343  1.00  0.00    -0.285 OA
ATOM      8  C   UNL     1      -1.769   6.172  -9.457  1.00  0.00     0.111 A 
ATOM      9  C   UNL     1      -0.842   8.429  -9.498  1.00  0.00     0.094 A 
ATOM     10  C   UNL     1      -0.473   5.651  -9.705  1.00  0.00     0.134 A 
ATOM     11  C   UNL     1       0.434   7.909  -9.739  1.00  0.00     0.123 A 
ATOM     12  C   UNL     1       0.615   6.527  -9.842  1.00  0.00     0.093 A 
BRANCH   3  13
ATOM     13  C   UNL     1      -5.510   8.063  -8.698  1.00  0.00     0.025 A 
ATOM     14  C   UNL     1      -6.245   8.652  -9.742  1.00  0.00     0.016 A 
ATOM     15  C   UNL     1      -7.433   9.336  -9.470  1.00  0.00     0.051 A 
ATOM     16  C   UNL     1      -7.914   9.424  -8.156  1.00  0.00     0.157 A 
ATOM     17  C   UNL     1      -6.008   8.134  -7.387  1.00  0.00     0.062 A 
ATOM     18  C   UNL     1      -7.199   8.813  -7.111  1.00  0.00     0.158 A 
BRANCH  16  19
ATOM     19  O   UNL     1      -9.095  10.113  -7.884  1.00  0.00    -0.504 OA
ATOM     20  H   UNL     1      -9.981   9.630  -7.781  1.00  0.00     0.293 HD
ENDBRANCH  16  19
BRANCH  18  21
ATOM     21  O   UNL     1      -7.655   8.873  -5.795  1.00  0.00    -0.504 OA
ATOM     22  H   UNL     1      -8.616   9.103  -5.565  1.00  0.00     0.293 HD
ENDBRANCH  18  21
ENDBRANCH   3  13
BRANCH  10  23
ATOM     23  O   UNL     1      -0.260   4.276  -9.816  1.00  0.00    -0.507 OA
ATOM     24  H   UNL     1       0.299   3.880 -10.566  1.00  0.00     0.293 HD
ENDBRANCH  10  23
BRANCH  11  25
ATOM     25  O   UNL     1       1.532   8.756  -9.877  1.00  0.00    -0.508 OA
ATOM     26  H   UNL     1       1.436   9.690 -10.260  1.00  0.00     0.293 HD
ENDBRANCH  11  25
ENDBRANCH   1   2
BRANCH   1  27
ATOM     27  C   UNL     1      -6.236   4.849  -9.984  1.00  0.00     0.339 C 
ATOM     28  C   UNL     1      -6.440   3.318 -10.029  1.00  0.00     0.214 C 
ATOM     29  O   UNL     1      -7.476   5.534  -9.863  1.00  0.00    -0.332 OA
ATOM     30  C   UNL     1      -7.255   2.836  -8.811  1.00  0.00     0.180 C 
ATOM     31  C   UNL     1      -8.159   5.174  -8.668  1.00  0.00     0.179 C 
ATOM     32  C   UNL     1      -8.541   3.674  -8.685  1.00  0.00     0.177 C 
BRANCH  28  33
ATOM     33  O   UNL     1      -5.207   2.649 -10.125  1.00  0.00    -0.384 OA
ATOM     34  H   UNL     1      -5.014   2.504 -11.088  1.00  0.00     0.211 HD
ENDBRANCH  28  33
BRANCH  30  35
ATOM     35  O   UNL     1      -7.581   1.476  -8.949  1.00  0.00    -0.387 OA
ATOM     36  H   UNL     1      -7.395   1.229  -9.894  1.00  0.00     0.211 HD
ENDBRANCH  30  35
BRANCH  31  37
ATOM     37  C   UNL     1      -9.393   6.072  -8.516  1.00  0.00     0.191 C 
BRANCH  37  38
ATOM     38  O   UNL     1      -9.925   6.384  -9.776  1.00  0.00    -0.394 OA
ATOM     39  H   UNL     1     -10.523   7.166  -9.641  1.00  0.00     0.210 HD
ENDBRANCH  37  38
ENDBRANCH  31  37
BRANCH  32  40
ATOM     40  O   UNL     1      -9.408   3.418  -9.762  1.00  0.00    -0.387 OA
ATOM     41  H   UNL     1      -9.200   2.507 -10.093  1.00  0.00     0.211 HD
ENDBRANCH  32  40
ENDBRANCH   1  27
TORSDOF 12
ENDMDL
MODEL 4
REMARK VINA RESULT:    -4.589      3.548      6.963
REMARK INTER + INTRA:          -8.798
REMARK INTER:                  -6.725
REMARK INTRA:                  -2.073
REMARK UNBOUND:                -2.064
REMARK SMILES O=c1c(O[C@@H]2O[C@@H](CO)[C@@H](O)[C@@H](O)[C@@H]2O)c(-c2ccc(O)c(O)c2)oc2cc(O)cc(O)c12
REMARK SMILES IDX 4 1 3 2 16 3 25 4 2 5 26 6 1 7 33 8 27 9 31 10 28 11 30 12
REMARK SMILES IDX 17 13 18 14 19 15 20 16 24 17 22 18 21 19 23 21 32 23 29 25
REMARK SMILES IDX 5 27 14 28 6 29 12 30 7 31 10 32 15 33 13 35 8 37 9 38 11 40
REMARK H PARENT 21 20 23 22 32 24 29 26 15 34 13 36 9 39 11 41
REMARK Flexibility Score: inf
ROOT
ATOM      1  O   UNL     1      -5.231  -7.961   5.752  1.00  0.00    -0.454 OA
ENDROOT
BRANCH   1   2
ATOM      2  C   UNL     1      -5.957  -8.188   4.569  1.00  0.00     0.214 A 
ATOM      3  C   UNL     1      -7.365  -8.127   4.611  1.00  0.00     0.180 A 
ATOM      4  O   UNL     1      -8.074  -8.370   3.513  1.00  0.00    -0.452 OA
ATOM      5  C   UNL     1      -5.331  -8.463   3.336  1.00  0.00     0.239 A 
ATOM      6  C   UNL     1      -7.527  -8.648   2.336  1.00  0.00     0.146 A 
ATOM      7  O   UNL     1      -4.073  -8.463   3.254  1.00  0.00    -0.285 OA
ATOM      8  C   UNL     1      -6.120  -8.706   2.193  1.00  0.00     0.111 A 
ATOM      9  C   UNL     1      -8.359  -8.877   1.237  1.00  0.00     0.094 A 
ATOM     10  C   UNL     1      -5.569  -8.996   0.919  1.00  0.00     0.134 A 
ATOM     11  C   UNL     1      -7.810  -9.159  -0.019  1.00  0.00     0.123 A 
ATOM     12  C   UNL     1      -6.421  -9.219  -0.174  1.00  0.00     0.093 A 
BRANCH   3  13
ATOM     13  C   UNL     1      -8.099  -7.839   5.865  1.00  0.00     0.025 A 
ATOM     14  C   UNL     1      -8.318  -6.521   6.303  1.00  0.00     0.016 A 
ATOM     15  C   UNL     1      -8.988  -6.280   7.506  1.00  0.00     0.051 A 
ATOM     16  C   UNL     1      -9.464  -7.349   8.278  1.00  0.00     0.157 A 
ATOM     17  C   UNL     1      -8.598  -8.906   6.629  1.00  0.00     0.062 A 
ATOM     18  C   UNL     1      -9.273  -8.668   7.832  1.00  0.00     0.158 A 
BRANCH  16  19
ATOM     19  O   UNL     1     -10.125  -7.107   9.481  1.00  0.00    -0.504 OA
ATOM     20  H   UNL     1     -10.770  -7.782   9.879  1.00  0.00     0.293 HD
ENDBRANCH  16  19
BRANCH  18  21
ATOM     21  O   UNL     1      -9.745  -9.753   8.570  1.00  0.00    -0.504 OA
ATOM     22  H   UNL     1     -10.255  -9.636   9.438  1.00  0.00     0.293 HD
ENDBRANCH  18  21
ENDBRANCH   3  13
BRANCH  10  23
ATOM     23  O   UNL     1      -4.187  -9.065   0.731  1.00  0.00    -0.507 OA
ATOM     24  H   UNL     1      -3.706  -8.458   0.075  1.00  0.00     0.293 HD
ENDBRANCH  10  23
BRANCH  11  25
ATOM     25  O   UNL     1      -8.632  -9.382  -1.120  1.00  0.00    -0.508 OA
ATOM     26  H   UNL     1      -9.643  -9.328  -1.047  1.00  0.00     0.293 HD
ENDBRANCH  11  25
ENDBRANCH   1   2
BRANCH   1  27
ATOM     27  C   UNL     1      -4.726  -8.978   6.624  1.00  0.00     0.339 C 
ATOM     28  C   UNL     1      -3.208  -8.792   6.850  1.00  0.00     0.214 C 
ATOM     29  O   UNL     1      -5.435  -8.994   7.858  1.00  0.00    -0.332 OA
ATOM     30  C   UNL     1      -2.929  -7.534   7.697  1.00  0.00     0.180 C 
ATOM     31  C   UNL     1      -5.270  -7.775   8.572  1.00  0.00     0.179 C 
ATOM     32  C   UNL     1      -3.790  -7.570   8.974  1.00  0.00     0.177 C 
BRANCH  28  33
ATOM     33  O   UNL     1      -2.520  -8.754   5.624  1.00  0.00    -0.384 OA
ATOM     34  H   UNL     1      -2.668  -7.859   5.220  1.00  0.00     0.211 HD
ENDBRANCH  28  33
BRANCH  30  35
ATOM     35  O   UNL     1      -1.568  -7.469   8.040  1.00  0.00    -0.387 OA
ATOM     36  H   UNL     1      -1.416  -6.578   8.454  1.00  0.00     0.211 HD
ENDBRANCH  30  35
BRANCH  31  37
ATOM     37  C   UNL     1      -6.194  -7.792   9.796  1.00  0.00     0.191 C 
BRANCH  37  38
ATOM     38  O   UNL     1      -6.539  -9.112  10.125  1.00  0.00    -0.394 OA
ATOM     39  H   UNL     1      -7.531  -9.135  10.181  1.00  0.00     0.210 HD
ENDBRANCH  37  38
ENDBRANCH  31  37
BRANCH  32  40
ATOM     40  O   UNL     1      -3.381  -8.615   9.821  1.00  0.00    -0.387 OA
ATOM     41  H   UNL     1      -2.737  -8.229  10.469  1.00  0.00     0.211 HD
ENDBRANCH  32  40
ENDBRANCH   1  27
TORSDOF 12
ENDMDL
MODEL 5
REMARK VINA RESULT:    -4.474      3.250      6.677
REMARK INTER + INTRA:          -8.630
REMARK INTER:                  -6.616
REMARK INTRA:                  -2.014
REMARK UNBOUND:                -2.064
REMARK SMILES O=c1c(O[C@@H]2O[C@@H](CO)[C@@H](O)[C@@H](O)[C@@H]2O)c(-c2ccc(O)c(O)c2)oc2cc(O)cc(O)c12
REMARK SMILES IDX 4 1 3 2 16 3 25 4 2 5 26 6 1 7 33 8 27 9 31 10 28 11 30 12
REMARK SMILES IDX 17 13 18 14 19 15 20 16 24 17 22 18 21 19 23 21 32 23 29 25
REMARK SMILES IDX 5 27 14 28 6 29 12 30 7 31 10 32 15 33 13 35 8 37 9 38 11 40
REMARK H PARENT 21 20 23 22 32 24 29 26 15 34 13 36 9 39 11 41
REMARK Flexibility Score: inf
ROOT
ATOM      1  O   UNL     1      -7.916  -5.503   5.681  1.00  0.00    -0.454 OA
ENDROOT
BRANCH   1   2
ATOM      2  C   UNL     1      -8.005  -4.428   6.582  1.00  0.00     0.214 A 
ATOM      3  C   UNL     1      -7.887  -4.685   7.964  1.00  0.00     0.180 A 
ATOM      4  O   UNL     1      -8.000  -3.689   8.837  1.00  0.00    -0.452 OA
ATOM      5  C   UNL     1      -8.197  -3.098   6.158  1.00  0.00     0.239 A 
ATOM      6  C   UNL     1      -8.198  -2.425   8.483  1.00  0.00     0.146 A 
ATOM      7  O   UNL     1      -8.246  -2.829   4.927  1.00  0.00    -0.285 OA
ATOM      8  C   UNL     1      -8.304  -2.069   7.117  1.00  0.00     0.111 A 
ATOM      9  C   UNL     1      -8.292  -1.447   9.477  1.00  0.00     0.094 A 
ATOM     10  C   UNL     1      -8.504  -0.708   6.774  1.00  0.00     0.134 A 
ATOM     11  C   UNL     1      -8.486  -0.105   9.132  1.00  0.00     0.123 A 
ATOM     12  C   UNL     1      -8.593   0.260   7.787  1.00  0.00     0.093 A 
BRANCH   3  13
ATOM     13  C   UNL     1      -7.678  -6.053   8.490  1.00  0.00     0.025 A 
ATOM     14  C   UNL     1      -8.743  -6.812   9.009  1.00  0.00     0.016 A 
ATOM     15  C   UNL     1      -8.512  -8.090   9.526  1.00  0.00     0.051 A 
ATOM     16  C   UNL     1      -7.220  -8.635   9.516  1.00  0.00     0.157 A 
ATOM     17  C   UNL     1      -6.391  -6.613   8.461  1.00  0.00     0.062 A 
ATOM     18  C   UNL     1      -6.156  -7.893   8.974  1.00  0.00     0.158 A 
BRANCH  16  19
ATOM     19  O   UNL     1      -6.990  -9.906  10.040  1.00  0.00    -0.504 OA
ATOM     20  H   UNL     1      -6.107 -10.387   9.901  1.00  0.00     0.293 HD
ENDBRANCH  16  19
BRANCH  18  21
ATOM     21  O   UNL     1      -4.862  -8.410   8.938  1.00  0.00    -0.504 OA
ATOM     22  H   UNL     1      -4.536  -9.001   8.181  1.00  0.00     0.293 HD
ENDBRANCH  18  21
ENDBRANCH   3  13
BRANCH  10  23
ATOM     23  O   UNL     1      -8.617  -0.311   5.440  1.00  0.00    -0.507 OA
ATOM     24  H   UNL     1      -9.244   0.436   5.156  1.00  0.00     0.293 HD
ENDBRANCH  10  23
BRANCH  11  25
ATOM     25  O   UNL     1      -8.574   0.875  10.118  1.00  0.00    -0.508 OA
ATOM     26  H   UNL     1      -8.162   1.794   9.991  1.00  0.00     0.293 HD
ENDBRANCH  11  25
ENDBRANCH   1   2
BRANCH   1  27
ATOM     27  C   UNL     1      -9.020  -6.279   5.200  1.00  0.00     0.339 C 
ATOM     28  C   UNL     1      -9.059  -6.263   3.655  1.00  0.00     0.214 C 
ATOM     29  O   UNL     1      -8.971  -7.608   5.704  1.00  0.00    -0.332 OA
ATOM     30  C   UNL     1      -7.879  -7.065   3.068  1.00  0.00     0.180 C 
ATOM     31  C   UNL     1      -7.810  -8.296   5.255  1.00  0.00     0.179 C 
ATOM     32  C   UNL     1      -7.830  -8.461   3.717  1.00  0.00     0.177 C 
BRANCH  28  33
ATOM     33  O   UNL     1      -9.083  -4.945   3.167  1.00  0.00    -0.384 OA
ATOM     34  H   UNL     1      -9.838  -4.872   2.526  1.00  0.00     0.211 HD
ENDBRANCH  28  33
BRANCH  30  35
ATOM     35  O   UNL     1      -8.019  -7.189   1.675  1.00  0.00    -0.387 OA
ATOM     36  H   UNL     1      -8.994  -7.250   1.487  1.00  0.00     0.211 HD
ENDBRANCH  30  35
BRANCH  31  37
ATOM     37  C   UNL     1      -7.732  -9.650   5.971  1.00  0.00     0.191 C 
BRANCH  37  38
ATOM     38  O   UNL     1      -9.011 -10.059   6.377  1.00  0.00    -0.394 OA
ATOM     39  H   UNL     1      -8.887 -10.561   7.226  1.00  0.00     0.210 HD
ENDBRANCH  37  38
ENDBRANCH  31  37
BRANCH  32  40
ATOM     40  O   UNL     1      -8.948  -9.226   3.337  1.00  0.00    -0.387 OA
ATOM     41  H   UNL     1      -8.654 -10.173   3.304  1.00  0.00     0.211 HD
ENDBRANCH  32  40
ENDBRANCH   1  27
TORSDOF 12
ENDMDL
MODEL 6
REMARK VINA RESULT:    -4.409     16.281     19.244
REMARK INTER + INTRA:          -8.535
REMARK INTER:                  -6.536
REMARK INTRA:                  -1.999
REMARK UNBOUND:                -2.064
REMARK SMILES O=c1c(O[C@@H]2O[C@@H](CO)[C@@H](O)[C@@H](O)[C@@H]2O)c(-c2ccc(O)c(O)c2)oc2cc(O)cc(O)c12
REMARK SMILES IDX 4 1 3 2 16 3 25 4 2 5 26 6 1 7 33 8 27 9 31 10 28 11 30 12
REMARK SMILES IDX 17 13 18 14 19 15 20 16 24 17 22 18 21 19 23 21 32 23 29 25
REMARK SMILES IDX 5 27 14 28 6 29 12 30 7 31 10 32 15 33 13 35 8 37 9 38 11 40
REMARK H PARENT 21 20 23 22 32 24 29 26 15 34 13 36 9 39 11 41
REMARK Flexibility Score: inf
ROOT
ATOM      1  O   UNL     1       5.653  -8.616  -5.490  1.00  0.00    -0.454 OA
ENDROOT
BRANCH   1   2
ATOM      2  C   UNL     1       6.502  -8.659  -4.370  1.00  0.00     0.214 A 
ATOM      3  C   UNL     1       7.877  -8.401  -4.546  1.00  0.00     0.180 A 
ATOM      4  O   UNL     1       8.704  -8.469  -3.507  1.00  0.00    -0.452 OA
ATOM      5  C   UNL     1       6.030  -8.941  -3.072  1.00  0.00     0.239 A 
ATOM      6  C   UNL     1       8.305  -8.746  -2.272  1.00  0.00     0.146 A 
ATOM      7  O   UNL     1       4.797  -9.116  -2.873  1.00  0.00    -0.285 OA
ATOM      8  C   UNL     1       6.940  -8.995  -1.996  1.00  0.00     0.111 A 
ATOM      9  C   UNL     1       9.252  -8.782  -1.244  1.00  0.00     0.094 A 
ATOM     10  C   UNL     1       6.548  -9.277  -0.662  1.00  0.00     0.134 A 
ATOM     11  C   UNL     1       8.858  -9.058   0.070  1.00  0.00     0.123 A 
ATOM     12  C   UNL     1       7.512  -9.305   0.356  1.00  0.00     0.093 A 
BRANCH   3  13
ATOM     13  C   UNL     1       8.451  -8.093  -5.875  1.00  0.00     0.025 A 
ATOM     14  C   UNL     1       9.116  -9.071  -6.635  1.00  0.00     0.016 A 
ATOM     15  C   UNL     1       9.675  -8.744  -7.874  1.00  0.00     0.051 A 
ATOM     16  C   UNL     1       9.561  -7.442  -8.380  1.00  0.00     0.157 A 
ATOM     17  C   UNL     1       8.320  -6.795  -6.397  1.00  0.00     0.062 A 
ATOM     18  C   UNL     1       8.873  -6.465  -7.639  1.00  0.00     0.158 A 
BRANCH  16  19
ATOM     19  O   UNL     1      10.125  -7.115  -9.612  1.00  0.00    -0.504 OA
ATOM     20  H   UNL     1      10.906  -7.638  -9.995  1.00  0.00     0.293 HD
ENDBRANCH  16  19
BRANCH  18  21
ATOM     21  O   UNL     1       8.732  -5.164  -8.119  1.00  0.00    -0.504 OA
ATOM     22  H   UNL     1       9.515  -4.523  -8.181  1.00  0.00     0.293 HD
ENDBRANCH  18  21
ENDBRANCH   3  13
BRANCH  10  23
ATOM     23  O   UNL     1       5.212  -9.531  -0.344  1.00  0.00    -0.507 OA
ATOM     24  H   UNL     1       4.531  -9.780  -1.056  1.00  0.00     0.293 HD
ENDBRANCH  10  23
BRANCH  11  25
ATOM     25  O   UNL     1       9.795  -9.089   1.100  1.00  0.00    -0.508 OA
ATOM     26  H   UNL     1       9.667  -8.549   1.950  1.00  0.00     0.293 HD
ENDBRANCH  11  25
ENDBRANCH   1   2
BRANCH   1  27
ATOM     27  C   UNL     1       5.363  -9.719  -6.356  1.00  0.00     0.339 C 
ATOM     28  C   UNL     1       3.838  -9.954  -6.440  1.00  0.00     0.214 C 
ATOM     29  O   UNL     1       5.928  -9.520  -7.647  1.00  0.00    -0.332 OA
ATOM     30  C   UNL     1       3.147  -8.808  -7.207  1.00  0.00     0.180 C 
ATOM     31  C   UNL     1       5.370  -8.382  -8.293  1.00  0.00     0.179 C 
ATOM     32  C   UNL     1       3.859  -8.586  -8.555  1.00  0.00     0.177 C 
BRANCH  28  33
ATOM     33  O   UNL     1       3.286 -10.125  -5.158  1.00  0.00    -0.384 OA
ATOM     34  H   UNL     1       2.757  -9.312  -4.943  1.00  0.00     0.211 HD
ENDBRANCH  28  33
BRANCH  30  35
ATOM     35  O   UNL     1       1.793  -9.114  -7.425  1.00  0.00    -0.387 OA
ATOM     36  H   UNL     1       1.441  -8.433  -8.059  1.00  0.00     0.211 HD
ENDBRANCH  30  35
BRANCH  31  37
ATOM     37  C   UNL     1       6.143  -8.127  -9.593  1.00  0.00     0.191 C 
BRANCH  37  38
ATOM     38  O   UNL     1       6.715  -9.319 -10.061  1.00  0.00    -0.394 OA
ATOM     39  H   UNL     1       6.216 -10.059  -9.622  1.00  0.00     0.210 HD
ENDBRANCH  37  38
ENDBRANCH  31  37
BRANCH  32  40
ATOM     40  O   UNL     1       3.670  -9.690  -9.405  1.00  0.00    -0.387 OA
ATOM     41  H   UNL     1       4.543 -10.156  -9.474  1.00  0.00     0.211 HD
ENDBRANCH  32  40
ENDBRANCH   1  27
TORSDOF 12
ENDMDL
MODEL 7
REMARK VINA RESULT:    -4.376      4.450      7.913
REMARK INTER + INTRA:          -8.486
REMARK INTER:                  -6.568
REMARK INTRA:                  -1.918
REMARK UNBOUND:                -2.064
REMARK SMILES O=c1c(O[C@@H]2O[C@@H](CO)[C@@H](O)[C@@H](O)[C@@H]2O)c(-c2ccc(O)c(O)c2)oc2cc(O)cc(O)c12
REMARK SMILES IDX 4 1 3 2 16 3 25 4 2 5 26 6 1 7 33 8 27 9 31 10 28 11 30 12
REMARK SMILES IDX 17 13 18 14 19 15 20 16 24 17 22 18 21 19 23 21 32 23 29 25
REMARK SMILES IDX 5 27 14 28 6 29 12 30 7 31 10 32 15 33 13 35 8 37 9 38 11 40
REMARK H PARENT 21 20 23 22 32 24 29 26 15 34 13 36 9 39 11 41
REMARK Flexibility Score: inf
ROOT
ATOM      1  O   UNL     1      -9.073  -4.905   5.870  1.00  0.00    -0.454 OA
ENDROOT
BRANCH   1   2
ATOM      2  C   UNL     1      -9.132  -3.730   5.099  1.00  0.00     0.214 A 
ATOM      3  C   UNL     1      -9.120  -3.836   3.693  1.00  0.00     0.180 A 
ATOM      4  O   UNL     1      -9.142  -2.739   2.943  1.00  0.00    -0.452 OA
ATOM      5  C   UNL     1      -9.214  -2.447   5.677  1.00  0.00     0.239 A 
ATOM      6  C   UNL     1      -9.203  -1.512   3.445  1.00  0.00     0.146 A 
ATOM      7  O   UNL     1      -9.288  -2.323   6.930  1.00  0.00    -0.285 OA
ATOM      8  C   UNL     1      -9.244  -1.309   4.845  1.00  0.00     0.111 A 
ATOM      9  C   UNL     1      -9.233  -0.421   2.572  1.00  0.00     0.094 A 
ATOM     10  C   UNL     1      -9.319   0.016   5.347  1.00  0.00     0.134 A 
ATOM     11  C   UNL     1      -9.311   0.884   3.073  1.00  0.00     0.123 A 
ATOM     12  C   UNL     1      -9.352   1.098   4.454  1.00  0.00     0.093 A 
BRANCH   3  13
ATOM     13  C   UNL     1      -9.040  -5.147   3.008  1.00  0.00     0.025 A 
ATOM     14  C   UNL     1     -10.125  -6.042   3.003  1.00  0.00     0.016 A 
ATOM     15  C   UNL     1     -10.011  -7.285   2.373  1.00  0.00     0.051 A 
ATOM     16  C   UNL     1      -8.821  -7.643   1.724  1.00  0.00     0.157 A 
ATOM     17  C   UNL     1      -7.859  -5.501   2.336  1.00  0.00     0.062 A 
ATOM     18  C   UNL     1      -7.743  -6.742   1.701  1.00  0.00     0.158 A 
BRANCH  16  19
ATOM     19  O   UNL     1      -8.707  -8.886   1.104  1.00  0.00    -0.504 OA
ATOM     20  H   UNL     1      -8.743  -8.983   0.094  1.00  0.00     0.293 HD
ENDBRANCH  16  19
BRANCH  18  21
ATOM     21  O   UNL     1      -6.550  -7.063   1.055  1.00  0.00    -0.504 OA
ATOM     22  H   UNL     1      -6.253  -6.597   0.204  1.00  0.00     0.293 HD
ENDBRANCH  18  21
ENDBRANCH   3  13
BRANCH  10  23
ATOM     23  O   UNL     1      -9.359   0.263   6.721  1.00  0.00    -0.507 OA
ATOM     24  H   UNL     1      -8.820   1.012   7.144  1.00  0.00     0.293 HD
ENDBRANCH  10  23
BRANCH  11  25
ATOM     25  O   UNL     1      -9.349   1.975   2.209  1.00  0.00    -0.508 OA
ATOM     26  H   UNL     1     -10.159   2.165   1.629  1.00  0.00     0.293 HD
ENDBRANCH  11  25
ENDBRANCH   1   2
BRANCH   1  27
ATOM     27  C   UNL     1      -7.904  -5.409   6.527  1.00  0.00     0.339 C 
ATOM     28  C   UNL     1      -8.185  -5.638   8.029  1.00  0.00     0.214 C 
ATOM     29  O   UNL     1      -7.437  -6.598   5.900  1.00  0.00    -0.332 OA
ATOM     30  C   UNL     1      -9.153  -6.822   8.233  1.00  0.00     0.180 C 
ATOM     31  C   UNL     1      -8.395  -7.646   5.985  1.00  0.00     0.179 C 
ATOM     32  C   UNL     1      -8.637  -8.050   7.459  1.00  0.00     0.177 C 
BRANCH  28  33
ATOM     33  O   UNL     1      -8.669  -4.465   8.633  1.00  0.00    -0.384 OA
ATOM     34  H   UNL     1      -8.628  -4.590   9.618  1.00  0.00     0.211 HD
ENDBRANCH  28  33
BRANCH  30  35
ATOM     35  O   UNL     1      -9.267  -7.129   9.599  1.00  0.00    -0.387 OA
ATOM     36  H   UNL     1     -10.199  -6.910   9.868  1.00  0.00     0.211 HD
ENDBRANCH  30  35
BRANCH  31  37
ATOM     37  C   UNL     1      -7.905  -8.832   5.145  1.00  0.00     0.191 C 
BRANCH  37  38
ATOM     38  O   UNL     1      -8.437 -10.032   5.640  1.00  0.00    -0.394 OA
ATOM     39  H   UNL     1      -7.997 -10.191   6.517  1.00  0.00     0.210 HD
ENDBRANCH  37  38
ENDBRANCH  31  37
BRANCH  32  40
ATOM     40  O   UNL     1      -7.439  -8.525   8.023  1.00  0.00    -0.387 OA
ATOM     41  H   UNL     1      -6.978  -9.055   7.322  1.00  0.00     0.211 HD
ENDBRANCH  32  40
ENDBRANCH   1  27
TORSDOF 12
ENDMDL
MODEL 8
REMARK VINA RESULT:    -4.318      1.518      3.084
REMARK INTER + INTRA:          -8.401
REMARK INTER:                  -6.845
REMARK INTRA:                  -1.556
REMARK UNBOUND:                -2.064
REMARK SMILES O=c1c(O[C@@H]2O[C@@H](CO)[C@@H](O)[C@@H](O)[C@@H]2O)c(-c2ccc(O)c(O)c2)oc2cc(O)cc(O)c12
REMARK SMILES IDX 4 1 3 2 16 3 25 4 2 5 26 6 1 7 33 8 27 9 31 10 28 11 30 12
REMARK SMILES IDX 17 13 18 14 19 15 20 16 24 17 22 18 21 19 23 21 32 23 29 25
REMARK SMILES IDX 5 27 14 28 6 29 12 30 7 31 10 32 15 33 13 35 8 37 9 38 11 40
REMARK H PARENT 21 20 23 22 32 24 29 26 15 34 13 36 9 39 11 41
REMARK Flexibility Score: inf
ROOT
ATOM      1  O   UNL     1      -5.140  -5.149   9.347  1.00  0.00    -0.454 OA
ENDROOT
BRANCH   1   2
ATOM      2  C   UNL     1      -4.135  -6.114   9.156  1.00  0.00     0.214 A 
ATOM      3  C   UNL     1      -4.510  -7.450   8.909  1.00  0.00     0.180 A 
ATOM      4  O   UNL     1      -3.578  -8.386   8.758  1.00  0.00    -0.452 OA
ATOM      5  C   UNL     1      -2.762  -5.794   9.190  1.00  0.00     0.239 A 
ATOM      6  C   UNL     1      -2.275  -8.132   8.799  1.00  0.00     0.146 A 
ATOM      7  O   UNL     1      -2.397  -4.598   9.347  1.00  0.00    -0.285 OA
ATOM      8  C   UNL     1      -1.805  -6.815   9.016  1.00  0.00     0.111 A 
ATOM      9  C   UNL     1      -1.372  -9.184   8.617  1.00  0.00     0.094 A 
ATOM     10  C   UNL     1      -0.407  -6.579   9.043  1.00  0.00     0.134 A 
ATOM     11  C   UNL     1       0.006  -8.944   8.641  1.00  0.00     0.123 A 
ATOM     12  C   UNL     1       0.484  -7.647   8.854  1.00  0.00     0.093 A 
BRANCH   3  13
ATOM     13  C   UNL     1      -5.930  -7.867   8.853  1.00  0.00     0.025 A 
ATOM     14  C   UNL     1      -6.653  -8.177  10.019  1.00  0.00     0.016 A 
ATOM     15  C   UNL     1      -7.984  -8.596   9.933  1.00  0.00     0.051 A 
ATOM     16  C   UNL     1      -8.617  -8.693   8.686  1.00  0.00     0.157 A 
ATOM     17  C   UNL     1      -6.576  -7.942   7.608  1.00  0.00     0.062 A 
ATOM     18  C   UNL     1      -7.909  -8.357   7.519  1.00  0.00     0.158 A 
BRANCH  16  19
ATOM     19  O   UNL     1      -9.941  -9.118   8.601  1.00  0.00    -0.504 OA
ATOM     20  H   UNL     1     -10.263  -9.711   7.843  1.00  0.00     0.293 HD
ENDBRANCH  16  19
BRANCH  18  21
ATOM     21  O   UNL     1      -8.512  -8.431   6.264  1.00  0.00    -0.504 OA
ATOM     22  H   UNL     1      -8.187  -9.067   5.544  1.00  0.00     0.293 HD
ENDBRANCH  18  21
ENDBRANCH   3  13
BRANCH  10  23
ATOM     23  O   UNL     1       0.102  -5.296   9.257  1.00  0.00    -0.507 OA
ATOM     24  H   UNL     1       0.389  -4.700   8.487  1.00  0.00     0.293 HD
ENDBRANCH  10  23
BRANCH  11  25
ATOM     25  O   UNL     1       0.911  -9.985   8.453  1.00  0.00    -0.508 OA
ATOM     26  H   UNL     1       0.601 -10.921   8.215  1.00  0.00     0.293 HD
ENDBRANCH  11  25
ENDBRANCH   1   2
BRANCH   1  27
ATOM     27  C   UNL     1      -5.726  -4.345   8.316  1.00  0.00     0.339 C 
ATOM     28  C   UNL     1      -7.148  -3.896   8.724  1.00  0.00     0.214 C 
ATOM     29  O   UNL     1      -4.900  -3.230   8.004  1.00  0.00    -0.332 OA
ATOM     30  C   UNL     1      -7.091  -2.873   9.877  1.00  0.00     0.180 C 
ATOM     31  C   UNL     1      -4.754  -2.359   9.119  1.00  0.00     0.179 C 
ATOM     32  C   UNL     1      -6.115  -1.738   9.514  1.00  0.00     0.177 C 
BRANCH  28  33
ATOM     33  O   UNL     1      -7.949  -5.004   9.053  1.00  0.00    -0.384 OA
ATOM     34  H   UNL     1      -7.422  -5.592   9.656  1.00  0.00     0.211 HD
ENDBRANCH  28  33
BRANCH  30  35
ATOM     35  O   UNL     1      -8.370  -2.345  10.124  1.00  0.00    -0.387 OA
ATOM     36  H   UNL     1      -8.582  -2.535  11.077  1.00  0.00     0.211 HD
ENDBRANCH  30  35
BRANCH  31  37
ATOM     37  C   UNL     1      -3.719  -1.281   8.770  1.00  0.00     0.191 C 
BRANCH  37  38
ATOM     38  O   UNL     1      -2.519  -1.520   9.457  1.00  0.00    -0.394 OA
ATOM     39  H   UNL     1      -2.248  -0.651   9.856  1.00  0.00     0.210 HD
ENDBRANCH  37  38
ENDBRANCH  31  37
BRANCH  32  40
ATOM     40  O   UNL     1      -6.616  -0.976   8.444  1.00  0.00    -0.387 OA
ATOM     41  H   UNL     1      -5.871  -0.853   7.800  1.00  0.00     0.211 HD
ENDBRANCH  32  40
ENDBRANCH   1  27
TORSDOF 12
ENDMDL
MODEL 9
REMARK VINA RESULT:    -4.314      1.890      2.502
REMARK INTER + INTRA:          -8.395
REMARK INTER:                  -6.460
REMARK INTRA:                  -1.935
REMARK UNBOUND:                -2.064
REMARK SMILES O=c1c(O[C@@H]2O[C@@H](CO)[C@@H](O)[C@@H](O)[C@@H]2O)c(-c2ccc(O)c(O)c2)oc2cc(O)cc(O)c12
REMARK SMILES IDX 4 1 3 2 16 3 25 4 2 5 26 6 1 7 33 8 27 9 31 10 28 11 30 12
REMARK SMILES IDX 17 13 18 14 19 15 20 16 24 17 22 18 21 19 23 21 32 23 29 25
REMARK SMILES IDX 5 27 14 28 6 29 12 30 7 31 10 32 15 33 13 35 8 37 9 38 11 40
REMARK H PARENT 21 20 23 22 32 24 29 26 15 34 13 36 9 39 11 41
REMARK Flexibility Score: inf
ROOT
ATOM      1  O   UNL     1      -5.762  -6.431   7.661  1.00  0.00    -0.454 OA
ENDROOT
BRANCH   1   2
ATOM      2  C   UNL     1      -4.524  -7.095   7.616  1.00  0.00     0.214 A 
ATOM      3  C   UNL     1      -4.371  -8.195   6.746  1.00  0.00     0.180 A 
ATOM      4  O   UNL     1      -3.220  -8.859   6.710  1.00  0.00    -0.452 OA
ATOM      5  C   UNL     1      -3.421  -6.697   8.399  1.00  0.00     0.239 A 
ATOM      6  C   UNL     1      -2.163  -8.529   7.442  1.00  0.00     0.146 A 
ATOM      7  O   UNL     1      -3.508  -5.681   9.141  1.00  0.00    -0.285 OA
ATOM      8  C   UNL     1      -2.215  -7.425   8.325  1.00  0.00     0.111 A 
ATOM      9  C   UNL     1      -0.992  -9.284   7.323  1.00  0.00     0.094 A 
ATOM     10  C   UNL     1      -1.063  -7.094   9.083  1.00  0.00     0.134 A 
ATOM     11  C   UNL     1       0.142  -8.951   8.072  1.00  0.00     0.123 A 
ATOM     12  C   UNL     1       0.104  -7.862   8.948  1.00  0.00     0.093 A 
BRANCH   3  13
ATOM     13  C   UNL     1      -5.478  -8.672   5.887  1.00  0.00     0.025 A 
ATOM     14  C   UNL     1      -6.366  -9.673   6.319  1.00  0.00     0.016 A 
ATOM     15  C   UNL     1      -7.385 -10.125   5.475  1.00  0.00     0.051 A 
ATOM     16  C   UNL     1      -7.542  -9.572   4.197  1.00  0.00     0.157 A 
ATOM     17  C   UNL     1      -5.655  -8.105   4.615  1.00  0.00     0.062 A 
ATOM     18  C   UNL     1      -6.676  -8.551   3.769  1.00  0.00     0.158 A 
BRANCH  16  19
ATOM     19  O   UNL     1      -8.553 -10.029   3.353  1.00  0.00    -0.504 OA
ATOM     20  H   UNL     1      -9.285  -9.412   3.015  1.00  0.00     0.293 HD
ENDBRANCH  16  19
BRANCH  18  21
ATOM     21  O   UNL     1      -6.812  -7.972   2.508  1.00  0.00    -0.504 OA
ATOM     22  H   UNL     1      -7.717  -7.733   2.118  1.00  0.00     0.293 HD
ENDBRANCH  18  21
ENDBRANCH   3  13
BRANCH  10  23
ATOM     23  O   UNL     1      -1.070  -6.014   9.969  1.00  0.00    -0.507 OA
ATOM     24  H   UNL     1      -0.574  -6.046  10.854  1.00  0.00     0.293 HD
ENDBRANCH  10  23
BRANCH  11  25
ATOM     25  O   UNL     1       1.314  -9.695   7.954  1.00  0.00    -0.508 OA
ATOM     26  H   UNL     1       1.915  -9.868   8.753  1.00  0.00     0.293 HD
ENDBRANCH  11  25
ENDBRANCH   1   2
BRANCH   1  27
ATOM     27  C   UNL     1      -6.785  -6.646   8.641  1.00  0.00     0.339 C 
ATOM     28  C   UNL     1      -7.210  -5.305   9.282  1.00  0.00     0.214 C 
ATOM     29  O   UNL     1      -7.900  -7.326   8.077  1.00  0.00    -0.332 OA
ATOM     30  C   UNL     1      -7.974  -4.429   8.268  1.00  0.00     0.180 C 
ATOM     31  C   UNL     1      -8.519  -6.558   7.053  1.00  0.00     0.179 C 
ATOM     32  C   UNL     1      -9.111  -5.250   7.630  1.00  0.00     0.177 C 
BRANCH  28  33
ATOM     33  O   UNL     1      -6.098  -4.629   9.815  1.00  0.00    -0.384 OA
ATOM     34  H   UNL     1      -6.431  -3.973  10.481  1.00  0.00     0.211 HD
ENDBRANCH  28  33
BRANCH  30  35
ATOM     35  O   UNL     1      -8.502  -3.294   8.905  1.00  0.00    -0.387 OA
ATOM     36  H   UNL     1      -7.746  -2.847   9.372  1.00  0.00     0.211 HD
ENDBRANCH  30  35
BRANCH  31  37
ATOM     37  C   UNL     1      -9.594  -7.416   6.374  1.00  0.00     0.191 C 
BRANCH  37  38
ATOM     38  O   UNL     1      -9.931  -8.507   7.190  1.00  0.00    -0.394 OA
ATOM     39  H   UNL     1     -10.751  -8.243   7.685  1.00  0.00     0.210 HD
ENDBRANCH  37  38
ENDBRANCH  31  37
BRANCH  32  40
ATOM     40  O   UNL     1     -10.097  -5.558   8.585  1.00  0.00    -0.387 OA
ATOM     41  H   UNL     1      -9.666  -6.123   9.276  1.00  0.00     0.211 HD
ENDBRANCH  32  40
ENDBRANCH   1  27
TORSDOF 12
ENDMDL
