MODEL 1
REMARK VINA RESULT:    -2.154      0.000      0.000
REMARK INTER + INTRA:          -4.101
REMARK INTER:                  -3.413
REMARK INTRA:                  -0.688
REMARK UNBOUND:                -0.688
REMARK SMILES CCCCCCCCCCCC(=O)[O-]
REMARK SMILES IDX 7 1 8 2 9 3 10 4 11 5 12 6 13 7 14 8 6 9 5 10 4 11 3 12 2 13
REMARK SMILES IDX 1 14
REMARK H PARENT
REMARK Flexibility Score: inf
ROOT
ATOM      1  C   UNL     1     -28.212 -21.926 -23.438  1.00  0.00     0.000 C 
ENDROOT
BRANCH   1   2
ATOM      2  C   UNL     1     -28.636 -20.538 -23.947  1.00  0.00     0.000 C 
BRANCH   2   3
ATOM      3  C   UNL     1     -29.578 -20.608 -25.163  1.00  0.00     0.000 C 
BRANCH   3   4
ATOM      4  C   UNL     1     -31.038 -20.992 -24.844  1.00  0.00     0.006 C 
BRANCH   4   5
ATOM      5  C   UNL     1     -31.903 -19.836 -24.319  1.00  0.00     0.053 C 
BRANCH   5   6
ATOM      6  C   UNL     1     -32.106 -19.916 -22.838  1.00  0.00     0.041 C 
ATOM      7  O   UNL     1     -31.879 -20.991 -22.223  1.00  0.00    -0.550 OA
ATOM      8  O   UNL     1     -32.579 -18.811 -22.141  1.00  0.00    -0.550 OA
ENDBRANCH   5   6
ENDBRANCH   4   5
ENDBRANCH   3   4
ENDBRANCH   2   3
ENDBRANCH   1   2
BRANCH   1   9
ATOM      9  C   UNL     1     -28.453 -22.110 -21.928  1.00  0.00     0.000 C 
BRANCH   9  10
ATOM     10  C   UNL     1     -28.797 -20.820 -21.154  1.00  0.00    -0.000 C 
BRANCH  10  11
ATOM     11  C   UNL     1     -28.272 -20.767 -19.709  1.00  0.00    -0.000 C 
BRANCH  11  12
ATOM     12  C   UNL     1     -28.471 -22.094 -18.955  1.00  0.00    -0.000 C 
BRANCH  12  13
ATOM     13  C   UNL     1     -27.961 -22.030 -17.508  1.00  0.00    -0.003 C 
ATOM     14  C   UNL     1     -26.438 -22.125 -17.414  1.00  0.00     0.004 C 
ENDBRANCH  12  13
ENDBRANCH  11  12
ENDBRANCH  10  11
ENDBRANCH   9  10
ENDBRANCH   1   9
TORSDOF 10
ENDMDL
MODEL 2
REMARK VINA RESULT:    -1.715      2.735      5.991
REMARK INTER + INTRA:          -3.406
REMARK INTER:                  -3.569
REMARK INTRA:                   0.164
REMARK UNBOUND:                -0.688
REMARK SMILES CCCCCCCCCCCC(=O)[O-]
REMARK SMILES IDX 7 1 8 2 9 3 10 4 11 5 12 6 13 7 14 8 6 9 5 10 4 11 3 12 2 13
REMARK SMILES IDX 1 14
REMARK H PARENT
REMARK Flexibility Score: inf
ROOT
ATOM      1  C   UNL     1     -28.621 -21.051 -23.660  1.00  0.00     0.000 C 
ENDROOT
BRANCH   1   2
ATOM      2  C   UNL     1     -28.274 -21.706 -22.312  1.00  0.00     0.000 C 
BRANCH   2   3
ATOM      3  C   UNL     1     -29.502 -21.894 -21.403  1.00  0.00     0.000 C 
BRANCH   3   4
ATOM      4  C   UNL     1     -29.195 -21.990 -19.894  1.00  0.00     0.006 C 
BRANCH   4   5
ATOM      5  C   UNL     1     -27.703 -22.118 -19.551  1.00  0.00     0.053 C 
BRANCH   5   6
ATOM      6  C   UNL     1     -27.459 -22.046 -18.075  1.00  0.00     0.041 C 
ATOM      7  O   UNL     1     -26.285 -21.958 -17.630  1.00  0.00    -0.550 OA
ATOM      8  O   UNL     1     -28.528 -22.110 -17.191  1.00  0.00    -0.550 OA
ENDBRANCH   5   6
ENDBRANCH   4   5
ENDBRANCH   3   4
ENDBRANCH   2   3
ENDBRANCH   1   2
BRANCH   1   9
ATOM      9  C   UNL     1     -29.888 -21.644 -24.304  1.00  0.00     0.000 C 
BRANCH   9  10
ATOM     10  C   UNL     1     -30.182 -21.166 -25.742  1.00  0.00    -0.000 C 
BRANCH  10  11
ATOM     11  C   UNL     1     -30.766 -19.747 -25.851  1.00  0.00    -0.000 C 
BRANCH  11  12
ATOM     12  C   UNL     1     -30.774 -19.002 -24.504  1.00  0.00    -0.000 C 
BRANCH  12  13
ATOM     13  C   UNL     1     -32.134 -19.088 -23.794  1.00  0.00    -0.003 C 
ATOM     14  C   UNL     1     -32.213 -20.255 -22.810  1.00  0.00     0.004 C 
ENDBRANCH  12  13
ENDBRANCH  11  12
ENDBRANCH  10  11
ENDBRANCH   9  10
ENDBRANCH   1   9
TORSDOF 10
ENDMDL
MODEL 3
REMARK VINA RESULT:    -1.612      3.128      6.483
REMARK INTER + INTRA:          -3.242
REMARK INTER:                  -3.421
REMARK INTRA:                   0.179
REMARK UNBOUND:                -0.688
REMARK SMILES CCCCCCCCCCCC(=O)[O-]
REMARK SMILES IDX 7 1 8 2 9 3 10 4 11 5 12 6 13 7 14 8 6 9 5 10 4 11 3 12 2 13
REMARK SMILES IDX 1 14
REMARK H PARENT
REMARK Flexibility Score: inf
ROOT
ATOM      1  C   UNL     1     -30.002 -21.504 -21.626  1.00  0.00     0.000 C 
ENDROOT
BRANCH   1   2
ATOM      2  C   UNL     1     -28.542 -21.793 -22.016  1.00  0.00     0.000 C 
BRANCH   2   3
ATOM      3  C   UNL     1     -27.653 -22.124 -20.804  1.00  0.00     0.000 C 
BRANCH   3   4
ATOM      4  C   UNL     1     -28.367 -22.098 -19.436  1.00  0.00     0.006 C 
BRANCH   4   5
ATOM      5  C   UNL     1     -27.843 -21.033 -18.461  1.00  0.00     0.053 C 
BRANCH   5   6
ATOM      6  C   UNL     1     -27.130 -21.644 -17.294  1.00  0.00     0.041 C 
ATOM      7  O   UNL     1     -25.876 -21.753 -17.303  1.00  0.00    -0.550 OA
ATOM      8  O   UNL     1     -27.856 -22.124 -16.211  1.00  0.00    -0.550 OA
ENDBRANCH   5   6
ENDBRANCH   4   5
ENDBRANCH   3   4
ENDBRANCH   2   3
ENDBRANCH   1   2
BRANCH   1   9
ATOM      9  C   UNL     1     -30.939 -21.405 -22.844  1.00  0.00     0.000 C 
BRANCH   9  10
ATOM     10  C   UNL     1     -31.651 -20.048 -23.020  1.00  0.00    -0.000 C 
BRANCH  10  11
ATOM     11  C   UNL     1     -31.581 -19.452 -24.436  1.00  0.00    -0.000 C 
BRANCH  11  12
ATOM     12  C   UNL     1     -30.247 -19.757 -25.143  1.00  0.00    -0.000 C 
BRANCH  12  13
ATOM     13  C   UNL     1     -30.074 -21.251 -25.451  1.00  0.00    -0.003 C 
ATOM     14  C   UNL     1     -31.075 -21.760 -26.489  1.00  0.00     0.004 C 
ENDBRANCH  12  13
ENDBRANCH  11  12
ENDBRANCH  10  11
ENDBRANCH   9  10
ENDBRANCH   1   9
TORSDOF 10
ENDMDL
MODEL 4
REMARK VINA RESULT:    -1.457      1.928      2.560
REMARK INTER + INTRA:          -2.996
REMARK INTER:                  -2.594
REMARK INTRA:                  -0.403
REMARK UNBOUND:                -0.688
REMARK SMILES CCCCCCCCCCCC(=O)[O-]
REMARK SMILES IDX 7 1 8 2 9 3 10 4 11 5 12 6 13 7 14 8 6 9 5 10 4 11 3 12 2 13
REMARK SMILES IDX 1 14
REMARK H PARENT
REMARK Flexibility Score: inf
ROOT
ATOM      1  C   UNL     1     -29.231 -21.383 -22.592  1.00  0.00     0.000 C 
ENDROOT
BRANCH   1   2
ATOM      2  C   UNL     1     -30.700 -21.813 -22.435  1.00  0.00     0.000 C 
BRANCH   2   3
ATOM      3  C   UNL     1     -31.672 -20.620 -22.396  1.00  0.00     0.000 C 
BRANCH   3   4
ATOM      4  C   UNL     1     -32.328 -20.261 -23.745  1.00  0.00     0.006 C 
BRANCH   4   5
ATOM      5  C   UNL     1     -31.402 -19.536 -24.734  1.00  0.00     0.053 C 
BRANCH   5   6
ATOM      6  C   UNL     1     -30.890 -20.455 -25.799  1.00  0.00     0.041 C 
ATOM      7  O   UNL     1     -30.397 -19.987 -26.858  1.00  0.00    -0.550 OA
ATOM      8  O   UNL     1     -30.989 -21.832 -25.635  1.00  0.00    -0.550 OA
ENDBRANCH   5   6
ENDBRANCH   4   5
ENDBRANCH   3   4
ENDBRANCH   2   3
ENDBRANCH   1   2
BRANCH   1   9
ATOM      9  C   UNL     1     -28.284 -22.125 -21.631  1.00  0.00     0.000 C 
BRANCH   9  10
ATOM     10  C   UNL     1     -28.711 -22.117 -20.148  1.00  0.00    -0.000 C 
BRANCH  10  11
ATOM     11  C   UNL     1     -28.091 -20.996 -19.296  1.00  0.00    -0.000 C 
BRANCH  11  12
ATOM     12  C   UNL     1     -28.292 -21.216 -17.787  1.00  0.00    -0.000 C 
BRANCH  12  13
ATOM     13  C   UNL     1     -27.213 -22.123 -17.177  1.00  0.00    -0.003 C 
ATOM     14  C   UNL     1     -25.889 -22.062 -17.940  1.00  0.00     0.004 C 
ENDBRANCH  12  13
ENDBRANCH  11  12
ENDBRANCH  10  11
ENDBRANCH   9  10
ENDBRANCH   1   9
TORSDOF 10
ENDMDL
MODEL 5
REMARK VINA RESULT:    -1.009      1.927      4.817
REMARK INTER + INTRA:          -2.287
REMARK INTER:                  -2.202
REMARK INTRA:                  -0.085
REMARK UNBOUND:                -0.688
REMARK SMILES CCCCCCCCCCCC(=O)[O-]
REMARK SMILES IDX 7 1 8 2 9 3 10 4 11 5 12 6 13 7 14 8 6 9 5 10 4 11 3 12 2 13
REMARK SMILES IDX 1 14
REMARK H PARENT
REMARK Flexibility Score: inf
ROOT
ATOM      1  C   UNL     1     -28.717 -20.913 -21.330  1.00  0.00     0.000 C 
ENDROOT
BRANCH   1   2
ATOM      2  C   UNL     1     -29.448 -21.957 -20.469  1.00  0.00     0.000 C 
BRANCH   2   3
ATOM      3  C   UNL     1     -30.928 -22.125 -20.860  1.00  0.00     0.000 C 
BRANCH   3   4
ATOM      4  C   UNL     1     -31.348 -21.421 -22.167  1.00  0.00     0.006 C 
BRANCH   4   5
ATOM      5  C   UNL     1     -32.601 -20.540 -22.044  1.00  0.00     0.053 C 
BRANCH   5   6
ATOM      6  C   UNL     1     -32.420 -19.212 -22.714  1.00  0.00     0.041 C 
ATOM      7  O   UNL     1     -32.049 -19.153 -23.915  1.00  0.00    -0.550 OA
ATOM      8  O   UNL     1     -32.629 -18.040 -21.999  1.00  0.00    -0.550 OA
ENDBRANCH   5   6
ENDBRANCH   4   5
ENDBRANCH   3   4
ENDBRANCH   2   3
ENDBRANCH   1   2
BRANCH   1   9
ATOM      9  C   UNL     1     -27.611 -21.528 -22.207  1.00  0.00     0.000 C 
BRANCH   9  10
ATOM     10  C   UNL     1     -27.832 -21.408 -23.729  1.00  0.00    -0.000 C 
BRANCH  10  11
ATOM     11  C   UNL     1     -29.304 -21.375 -24.174  1.00  0.00    -0.000 C 
BRANCH  11  12
ATOM     12  C   UNL     1     -29.600 -20.237 -25.167  1.00  0.00    -0.000 C 
BRANCH  12  13
ATOM     13  C   UNL     1     -30.223 -20.746 -26.475  1.00  0.00    -0.003 C 
ATOM     14  C   UNL     1     -31.021 -22.037 -26.286  1.00  0.00     0.004 C 
ENDBRANCH  12  13
ENDBRANCH  11  12
ENDBRANCH  10  11
ENDBRANCH   9  10
ENDBRANCH   1   9
TORSDOF 10
ENDMDL
MODEL 6
REMARK VINA RESULT:    -0.648      2.175      4.390
REMARK INTER + INTRA:          -1.715
REMARK INTER:                  -0.860
REMARK INTRA:                  -0.856
REMARK UNBOUND:                -0.688
REMARK SMILES CCCCCCCCCCCC(=O)[O-]
REMARK SMILES IDX 7 1 8 2 9 3 10 4 11 5 12 6 13 7 14 8 6 9 5 10 4 11 3 12 2 13
REMARK SMILES IDX 1 14
REMARK H PARENT
REMARK Flexibility Score: inf
ROOT
ATOM      1  C   UNL     1     -28.192 -21.254 -20.543  1.00  0.00     0.000 C 
ENDROOT
BRANCH   1   2
ATOM      2  C   UNL     1     -27.560 -21.967 -21.751  1.00  0.00     0.000 C 
BRANCH   2   3
ATOM      3  C   UNL     1     -27.696 -21.166 -23.058  1.00  0.00     0.000 C 
BRANCH   3   4
ATOM      4  C   UNL     1     -29.005 -21.401 -23.841  1.00  0.00     0.006 C 
BRANCH   4   5
ATOM      5  C   UNL     1     -29.338 -20.311 -24.872  1.00  0.00     0.053 C 
BRANCH   5   6
ATOM      6  C   UNL     1     -30.491 -20.700 -25.745  1.00  0.00     0.041 C 
ATOM      7  O   UNL     1     -31.382 -19.859 -26.031  1.00  0.00    -0.550 OA
ATOM      8  O   UNL     1     -30.598 -22.003 -26.215  1.00  0.00    -0.550 OA
ENDBRANCH   5   6
ENDBRANCH   4   5
ENDBRANCH   3   4
ENDBRANCH   2   3
ENDBRANCH   1   2
BRANCH   1   9
ATOM      9  C   UNL     1     -29.246 -22.115 -19.824  1.00  0.00     0.000 C 
BRANCH   9  10
ATOM     10  C   UNL     1     -30.645 -22.125 -20.475  1.00  0.00    -0.000 C 
BRANCH  10  11
ATOM     11  C   UNL     1     -30.985 -20.879 -21.311  1.00  0.00    -0.000 C 
BRANCH  11  12
ATOM     12  C   UNL     1     -32.036 -21.162 -22.398  1.00  0.00    -0.000 C 
BRANCH  12  13
ATOM     13  C   UNL     1     -32.935 -19.948 -22.677  1.00  0.00    -0.003 C 
ATOM     14  C   UNL     1     -32.179 -18.621 -22.587  1.00  0.00     0.004 C 
ENDBRANCH  12  13
ENDBRANCH  11  12
ENDBRANCH  10  11
ENDBRANCH   9  10
ENDBRANCH   1   9
TORSDOF 10
ENDMDL
MODEL 7
REMARK VINA RESULT:     0.386      2.338      5.149
REMARK INTER + INTRA:          -0.076
REMARK INTER:                   0.283
REMARK INTRA:                  -0.359
REMARK UNBOUND:                -0.688
REMARK SMILES CCCCCCCCCCCC(=O)[O-]
REMARK SMILES IDX 7 1 8 2 9 3 10 4 11 5 12 6 13 7 14 8 6 9 5 10 4 11 3 12 2 13
REMARK SMILES IDX 1 14
REMARK H PARENT
REMARK Flexibility Score: inf
ROOT
ATOM      1  C   UNL     1     -29.115 -20.093 -24.715  1.00  0.00     0.000 C 
ENDROOT
BRANCH   1   2
ATOM      2  C   UNL     1     -27.926 -20.624 -23.896  1.00  0.00     0.000 C 
BRANCH   2   3
ATOM      3  C   UNL     1     -28.207 -21.993 -23.250  1.00  0.00     0.000 C 
BRANCH   3   4
ATOM      4  C   UNL     1     -27.779 -22.125 -21.774  1.00  0.00     0.006 C 
BRANCH   4   5
ATOM      5  C   UNL     1     -28.890 -21.826 -20.757  1.00  0.00     0.053 C 
BRANCH   5   6
ATOM      6  C   UNL     1     -28.409 -21.963 -19.345  1.00  0.00     0.041 C 
ATOM      7  O   UNL     1     -29.235 -22.055 -18.400  1.00  0.00    -0.550 OA
ATOM      8  O   UNL     1     -27.047 -21.956 -19.072  1.00  0.00    -0.550 OA
ENDBRANCH   5   6
ENDBRANCH   4   5
ENDBRANCH   3   4
ENDBRANCH   2   3
ENDBRANCH   1   2
BRANCH   1   9
ATOM      9  C   UNL     1     -29.833 -21.198 -25.513  1.00  0.00     0.000 C 
BRANCH   9  10
ATOM     10  C   UNL     1     -31.335 -21.366 -25.201  1.00  0.00    -0.000 C 
BRANCH  10  11
ATOM     11  C   UNL     1     -31.651 -22.029 -23.849  1.00  0.00    -0.000 C 
BRANCH  11  12
ATOM     12  C   UNL     1     -31.456 -21.073 -22.659  1.00  0.00    -0.000 C 
BRANCH  12  13
ATOM     13  C   UNL     1     -31.927 -19.644 -22.970  1.00  0.00    -0.003 C 
ATOM     14  C   UNL     1     -32.338 -18.872 -21.716  1.00  0.00     0.004 C 
ENDBRANCH  12  13
ENDBRANCH  11  12
ENDBRANCH  10  11
ENDBRANCH   9  10
ENDBRANCH   1   9
TORSDOF 10
ENDMDL
MODEL 8
REMARK VINA RESULT:     0.660      2.995      4.604
REMARK INTER + INTRA:           0.358
REMARK INTER:                  -0.946
REMARK INTRA:                   1.304
REMARK UNBOUND:                -0.688
REMARK SMILES CCCCCCCCCCCC(=O)[O-]
REMARK SMILES IDX 7 1 8 2 9 3 10 4 11 5 12 6 13 7 14 8 6 9 5 10 4 11 3 12 2 13
REMARK SMILES IDX 1 14
REMARK H PARENT
REMARK Flexibility Score: inf
ROOT
ATOM      1  C   UNL     1     -30.687 -19.376 -26.040  1.00  0.00     0.000 C 
ENDROOT
BRANCH   1   2
ATOM      2  C   UNL     1     -30.028 -20.741 -26.302  1.00  0.00     0.000 C 
BRANCH   2   3
ATOM      3  C   UNL     1     -30.451 -21.816 -25.285  1.00  0.00     0.000 C 
BRANCH   3   4
ATOM      4  C   UNL     1     -29.810 -21.689 -23.887  1.00  0.00     0.006 C 
BRANCH   4   5
ATOM      5  C   UNL     1     -28.344 -21.231 -23.896  1.00  0.00     0.053 C 
BRANCH   5   6
ATOM      6  C   UNL     1     -27.588 -21.751 -22.712  1.00  0.00     0.041 C 
ATOM      7  O   UNL     1     -26.393 -22.125 -22.836  1.00  0.00    -0.550 OA
ATOM      8  O   UNL     1     -28.216 -21.853 -21.477  1.00  0.00    -0.550 OA
ENDBRANCH   5   6
ENDBRANCH   4   5
ENDBRANCH   3   4
ENDBRANCH   2   3
ENDBRANCH   1   2
BRANCH   1   9
ATOM      9  C   UNL     1     -30.797 -19.043 -24.540  1.00  0.00     0.000 C 
BRANCH   9  10
ATOM     10  C   UNL     1     -32.231 -19.029 -23.971  1.00  0.00    -0.000 C 
BRANCH  10  11
ATOM     11  C   UNL     1     -32.330 -19.201 -22.446  1.00  0.00    -0.000 C 
BRANCH  11  12
ATOM     12  C   UNL     1     -32.696 -20.638 -22.033  1.00  0.00    -0.000 C 
BRANCH  12  13
ATOM     13  C   UNL     1     -31.465 -21.553 -21.937  1.00  0.00    -0.003 C 
ATOM     14  C   UNL     1     -31.261 -22.123 -20.533  1.00  0.00     0.004 C 
ENDBRANCH  12  13
ENDBRANCH  11  12
ENDBRANCH  10  11
ENDBRANCH   9  10
ENDBRANCH   1   9
TORSDOF 10
ENDMDL
