MODEL 1
REMARK VINA RESULT:    -4.999      0.000      0.000
REMARK INTER + INTRA:         -14.958
REMARK INTER:                 -11.427
REMARK INTRA:                  -3.530
REMARK UNBOUND:                -3.530
REMARK SMILES CCCCCCCCCCCCCCCCCCCCCCCC(=O)[O-]
REMARK SMILES IDX 13 1 14 2 15 3 16 4 17 5 18 6 19 7 20 8 21 9 22 10 23 11
REMARK SMILES IDX 24 12 25 13 26 14 12 15 11 16 10 17 9 18 8 19 7 20 6 21 5 22
REMARK SMILES IDX 4 23 3 24 2 25 1 26
REMARK H PARENT
REMARK Flexibility Score: inf
ROOT
ATOM      1  C   UNL     1     -21.232  42.150  86.416  1.00  0.00     0.000 C 
ENDROOT
BRANCH   1   2
ATOM      2  C   UNL     1     -21.723  41.774  87.822  1.00  0.00     0.000 C 
BRANCH   2   3
ATOM      3  C   UNL     1     -20.580  41.874  88.845  1.00  0.00     0.000 C 
BRANCH   3   4
ATOM      4  C   UNL     1     -21.012  41.481  90.270  1.00  0.00     0.000 C 
BRANCH   4   5
ATOM      5  C   UNL     1     -20.184  40.352  90.913  1.00  0.00     0.000 C 
BRANCH   5   6
ATOM      6  C   UNL     1     -20.590  38.927  90.492  1.00  0.00     0.000 C 
BRANCH   6   7
ATOM      7  C   UNL     1     -19.413  38.075  89.968  1.00  0.00     0.000 C 
BRANCH   7   8
ATOM      8  C   UNL     1     -19.774  37.294  88.693  1.00  0.00     0.000 C 
BRANCH   8   9
ATOM      9  C   UNL     1     -20.588  38.146  87.696  1.00  0.00     0.000 C 
BRANCH   9  10
ATOM     10  C   UNL     1     -19.769  38.634  86.488  1.00  0.00     0.006 C 
BRANCH  10  11
ATOM     11  C   UNL     1     -20.374  38.209  85.145  1.00  0.00     0.053 C 
BRANCH  11  12
ATOM     12  C   UNL     1     -19.386  37.411  84.356  1.00  0.00     0.041 C 
ATOM     13  O   UNL     1     -19.460  37.376  83.099  1.00  0.00    -0.550 OA
ATOM     14  O   UNL     1     -18.355  36.742  85.002  1.00  0.00    -0.550 OA
ENDBRANCH  11  12
ENDBRANCH  10  11
ENDBRANCH   9  10
ENDBRANCH   8   9
ENDBRANCH   7   8
ENDBRANCH   6   7
ENDBRANCH   5   6
ENDBRANCH   4   5
ENDBRANCH   3   4
ENDBRANCH   2   3
ENDBRANCH   1   2
BRANCH   1  15
ATOM     15  C   UNL     1     -19.741  42.522  86.387  1.00  0.00     0.000 C 
BRANCH  15  16
ATOM     16  C   UNL     1     -19.392  43.483  85.241  1.00  0.00     0.000 C 
BRANCH  16  17
ATOM     17  C   UNL     1     -18.264  44.437  85.651  1.00  0.00     0.000 C 
BRANCH  17  18
ATOM     18  C   UNL     1     -18.165  45.622  84.681  1.00  0.00    -0.000 C 
BRANCH  18  19
ATOM     19  C   UNL     1     -18.676  45.234  83.286  1.00  0.00    -0.000 C 
BRANCH  19  20
ATOM     20  C   UNL     1     -19.640  46.276  82.689  1.00  0.00    -0.000 C 
BRANCH  20  21
ATOM     21  C   UNL     1     -21.111  46.125  83.122  1.00  0.00    -0.000 C 
BRANCH  21  22
ATOM     22  C   UNL     1     -21.491  46.859  84.421  1.00  0.00    -0.000 C 
BRANCH  22  23
ATOM     23  C   UNL     1     -21.956  45.920  85.556  1.00  0.00    -0.000 C 
BRANCH  23  24
ATOM     24  C   UNL     1     -21.602  46.458  86.950  1.00  0.00    -0.000 C 
BRANCH  24  25
ATOM     25  C   UNL     1     -21.917  45.422  88.035  1.00  0.00    -0.003 C 
ATOM     26  C   UNL     1     -23.370  44.963  87.956  1.00  0.00     0.004 C 
ENDBRANCH  24  25
ENDBRANCH  23  24
ENDBRANCH  22  23
ENDBRANCH  21  22
ENDBRANCH  20  21
ENDBRANCH  19  20
ENDBRANCH  18  19
ENDBRANCH  17  18
ENDBRANCH  16  17
ENDBRANCH  15  16
ENDBRANCH   1  15
TORSDOF 22
ENDMDL
MODEL 2
REMARK VINA RESULT:    -4.965      4.299      8.134
REMARK INTER + INTRA:         -14.881
REMARK INTER:                 -11.858
REMARK INTRA:                  -3.023
REMARK UNBOUND:                -3.530
REMARK SMILES CCCCCCCCCCCCCCCCCCCCCCCC(=O)[O-]
REMARK SMILES IDX 13 1 14 2 15 3 16 4 17 5 18 6 19 7 20 8 21 9 22 10 23 11
REMARK SMILES IDX 24 12 25 13 26 14 12 15 11 16 10 17 9 18 8 19 7 20 6 21 5 22
REMARK SMILES IDX 4 23 3 24 2 25 1 26
REMARK H PARENT
REMARK Flexibility Score: inf
ROOT
ATOM      1  C   UNL     1     -21.740  42.541  89.847  1.00  0.00     0.000 C 
ENDROOT
BRANCH   1   2
ATOM      2  C   UNL     1     -22.996  43.390  89.595  1.00  0.00     0.000 C 
BRANCH   2   3
ATOM      3  C   UNL     1     -22.662  44.620  88.737  1.00  0.00     0.000 C 
BRANCH   3   4
ATOM      4  C   UNL     1     -23.546  44.735  87.480  1.00  0.00     0.000 C 
BRANCH   4   5
ATOM      5  C   UNL     1     -23.671  46.156  86.900  1.00  0.00     0.000 C 
BRANCH   5   6
ATOM      6  C   UNL     1     -25.092  46.557  86.462  1.00  0.00     0.000 C 
BRANCH   6   7
ATOM      7  C   UNL     1     -26.200  46.054  87.411  1.00  0.00     0.000 C 
BRANCH   7   8
ATOM      8  C   UNL     1     -26.363  46.948  88.652  1.00  0.00     0.000 C 
BRANCH   8   9
ATOM      9  C   UNL     1     -26.422  46.129  89.959  1.00  0.00     0.000 C 
BRANCH   9  10
ATOM     10  C   UNL     1     -26.488  44.608  89.732  1.00  0.00     0.006 C 
BRANCH  10  11
ATOM     11  C   UNL     1     -27.101  43.854  90.917  1.00  0.00     0.053 C 
BRANCH  11  12
ATOM     12  C   UNL     1     -28.260  43.023  90.465  1.00  0.00     0.041 C 
ATOM     13  O   UNL     1     -29.148  42.674  91.288  1.00  0.00    -0.550 OA
ATOM     14  O   UNL     1     -28.386  42.672  89.128  1.00  0.00    -0.550 OA
ENDBRANCH  11  12
ENDBRANCH  10  11
ENDBRANCH   9  10
ENDBRANCH   8   9
ENDBRANCH   7   8
ENDBRANCH   6   7
ENDBRANCH   5   6
ENDBRANCH   4   5
ENDBRANCH   3   4
ENDBRANCH   2   3
ENDBRANCH   1   2
BRANCH   1  15
ATOM     15  C   UNL     1     -21.791  41.791  91.187  1.00  0.00     0.000 C 
BRANCH  15  16
ATOM     16  C   UNL     1     -20.984  40.484  91.165  1.00  0.00     0.000 C 
BRANCH  16  17
ATOM     17  C   UNL     1     -19.514  40.754  90.820  1.00  0.00     0.000 C 
BRANCH  17  18
ATOM     18  C   UNL     1     -19.139  40.125  89.473  1.00  0.00    -0.000 C 
BRANCH  18  19
ATOM     19  C   UNL     1     -20.257  39.200  88.968  1.00  0.00    -0.000 C 
BRANCH  19  20
ATOM     20  C   UNL     1     -20.761  39.580  87.563  1.00  0.00    -0.000 C 
BRANCH  20  21
ATOM     21  C   UNL     1     -19.951  40.685  86.858  1.00  0.00    -0.000 C 
BRANCH  21  22
ATOM     22  C   UNL     1     -20.742  41.959  86.513  1.00  0.00    -0.000 C 
BRANCH  22  23
ATOM     23  C   UNL     1     -19.859  43.215  86.341  1.00  0.00    -0.000 C 
BRANCH  23  24
ATOM     24  C   UNL     1     -20.528  44.293  85.474  1.00  0.00    -0.000 C 
BRANCH  24  25
ATOM     25  C   UNL     1     -19.519  44.922  84.507  1.00  0.00    -0.003 C 
ATOM     26  C   UNL     1     -18.101  44.853  85.065  1.00  0.00     0.004 C 
ENDBRANCH  24  25
ENDBRANCH  23  24
ENDBRANCH  22  23
ENDBRANCH  21  22
ENDBRANCH  20  21
ENDBRANCH  19  20
ENDBRANCH  18  19
ENDBRANCH  17  18
ENDBRANCH  16  17
ENDBRANCH  15  16
ENDBRANCH   1  15
TORSDOF 22
ENDMDL
MODEL 3
REMARK VINA RESULT:    -4.927      1.879      3.440
REMARK INTER + INTRA:         -14.793
REMARK INTER:                 -12.138
REMARK INTRA:                  -2.655
REMARK UNBOUND:                -3.530
REMARK SMILES CCCCCCCCCCCCCCCCCCCCCCCC(=O)[O-]
REMARK SMILES IDX 13 1 14 2 15 3 16 4 17 5 18 6 19 7 20 8 21 9 22 10 23 11
REMARK SMILES IDX 24 12 25 13 26 14 12 15 11 16 10 17 9 18 8 19 7 20 6 21 5 22
REMARK SMILES IDX 4 23 3 24 2 25 1 26
REMARK H PARENT
REMARK Flexibility Score: inf
ROOT
ATOM      1  C   UNL     1     -21.430  41.612  88.657  1.00  0.00     0.000 C 
ENDROOT
BRANCH   1   2
ATOM      2  C   UNL     1     -20.073  41.312  89.313  1.00  0.00     0.000 C 
BRANCH   2   3
ATOM      3  C   UNL     1     -20.265  40.652  90.687  1.00  0.00     0.000 C 
BRANCH   3   4
ATOM      4  C   UNL     1     -20.467  39.127  90.599  1.00  0.00     0.000 C 
BRANCH   4   5
ATOM      5  C   UNL     1     -19.351  38.364  89.861  1.00  0.00     0.000 C 
BRANCH   5   6
ATOM      6  C   UNL     1     -19.840  37.368  88.793  1.00  0.00     0.000 C 
BRANCH   6   7
ATOM      7  C   UNL     1     -20.631  38.028  87.643  1.00  0.00     0.000 C 
BRANCH   7   8
ATOM      8  C   UNL     1     -19.728  38.439  86.468  1.00  0.00     0.000 C 
BRANCH   8   9
ATOM      9  C   UNL     1     -20.336  38.055  85.102  1.00  0.00     0.000 C 
BRANCH   9  10
ATOM     10  C   UNL     1     -19.291  37.612  84.063  1.00  0.00     0.006 C 
BRANCH  10  11
ATOM     11  C   UNL     1     -18.324  36.552  84.603  1.00  0.00     0.053 C 
BRANCH  11  12
ATOM     12  C   UNL     1     -17.186  36.349  83.653  1.00  0.00     0.041 C 
ATOM     13  O   UNL     1     -16.815  35.184  83.350  1.00  0.00    -0.550 OA
ATOM     14  O   UNL     1     -16.565  37.443  83.067  1.00  0.00    -0.550 OA
ENDBRANCH  11  12
ENDBRANCH  10  11
ENDBRANCH   9  10
ENDBRANCH   8   9
ENDBRANCH   7   8
ENDBRANCH   6   7
ENDBRANCH   5   6
ENDBRANCH   4   5
ENDBRANCH   3   4
ENDBRANCH   2   3
ENDBRANCH   1   2
BRANCH   1  15
ATOM     15  C   UNL     1     -21.337  41.723  87.127  1.00  0.00     0.000 C 
BRANCH  15  16
ATOM     16  C   UNL     1     -19.893  41.891  86.632  1.00  0.00     0.000 C 
BRANCH  16  17
ATOM     17  C   UNL     1     -19.772  43.097  85.694  1.00  0.00     0.000 C 
BRANCH  17  18
ATOM     18  C   UNL     1     -20.226  44.386  86.391  1.00  0.00    -0.000 C 
BRANCH  18  19
ATOM     19  C   UNL     1     -21.263  45.135  85.540  1.00  0.00    -0.000 C 
BRANCH  19  20
ATOM     20  C   UNL     1     -22.365  45.799  86.385  1.00  0.00    -0.000 C 
BRANCH  20  21
ATOM     21  C   UNL     1     -22.668  45.100  87.724  1.00  0.00    -0.000 C 
BRANCH  21  22
ATOM     22  C   UNL     1     -24.155  44.798  87.984  1.00  0.00    -0.000 C 
BRANCH  22  23
ATOM     23  C   UNL     1     -24.397  43.798  89.137  1.00  0.00    -0.000 C 
BRANCH  23  24
ATOM     24  C   UNL     1     -25.453  44.293  90.136  1.00  0.00    -0.000 C 
BRANCH  24  25
ATOM     25  C   UNL     1     -26.841  43.743  89.785  1.00  0.00    -0.003 C 
ATOM     26  C   UNL     1     -27.918  44.351  90.678  1.00  0.00     0.004 C 
ENDBRANCH  24  25
ENDBRANCH  23  24
ENDBRANCH  22  23
ENDBRANCH  21  22
ENDBRANCH  20  21
ENDBRANCH  19  20
ENDBRANCH  18  19
ENDBRANCH  17  18
ENDBRANCH  16  17
ENDBRANCH  15  16
ENDBRANCH   1  15
TORSDOF 22
ENDMDL
MODEL 4
REMARK VINA RESULT:    -4.881      3.737      8.069
REMARK INTER + INTRA:         -14.689
REMARK INTER:                 -11.987
REMARK INTRA:                  -2.702
REMARK UNBOUND:                -3.530
REMARK SMILES CCCCCCCCCCCCCCCCCCCCCCCC(=O)[O-]
REMARK SMILES IDX 13 1 14 2 15 3 16 4 17 5 18 6 19 7 20 8 21 9 22 10 23 11
REMARK SMILES IDX 24 12 25 13 26 14 12 15 11 16 10 17 9 18 8 19 7 20 6 21 5 22
REMARK SMILES IDX 4 23 3 24 2 25 1 26
REMARK H PARENT
REMARK Flexibility Score: inf
ROOT
ATOM      1  C   UNL     1     -17.794  45.200  84.545  1.00  0.00     0.000 C 
ENDROOT
BRANCH   1   2
ATOM      2  C   UNL     1     -18.754  45.580  83.407  1.00  0.00     0.000 C 
BRANCH   2   3
ATOM      3  C   UNL     1     -19.619  46.787  83.802  1.00  0.00     0.000 C 
BRANCH   3   4
ATOM      4  C   UNL     1     -21.116  46.442  83.918  1.00  0.00     0.000 C 
BRANCH   4   5
ATOM      5  C   UNL     1     -21.809  46.965  85.190  1.00  0.00     0.000 C 
BRANCH   5   6
ATOM      6  C   UNL     1     -22.370  45.873  86.121  1.00  0.00     0.000 C 
BRANCH   6   7
ATOM      7  C   UNL     1     -21.784  45.911  87.549  1.00  0.00     0.000 C 
BRANCH   7   8
ATOM      8  C   UNL     1     -22.493  44.934  88.502  1.00  0.00     0.000 C 
BRANCH   8   9
ATOM      9  C   UNL     1     -23.971  44.711  88.117  1.00  0.00     0.000 C 
BRANCH   9  10
ATOM     10  C   UNL     1     -24.966  45.157  89.203  1.00  0.00     0.006 C 
BRANCH  10  11
ATOM     11  C   UNL     1     -25.384  44.016  90.137  1.00  0.00     0.053 C 
BRANCH  11  12
ATOM     12  C   UNL     1     -26.874  43.897  90.183  1.00  0.00     0.041 C 
ATOM     13  O   UNL     1     -27.546  44.650  90.936  1.00  0.00    -0.550 OA
ATOM     14  O   UNL     1     -27.526  42.988  89.361  1.00  0.00    -0.550 OA
ENDBRANCH  11  12
ENDBRANCH  10  11
ENDBRANCH   9  10
ENDBRANCH   8   9
ENDBRANCH   7   8
ENDBRANCH   6   7
ENDBRANCH   5   6
ENDBRANCH   4   5
ENDBRANCH   3   4
ENDBRANCH   2   3
ENDBRANCH   1   2
BRANCH   1  15
ATOM     15  C   UNL     1     -18.509  44.514  85.720  1.00  0.00     0.000 C 
BRANCH  15  16
ATOM     16  C   UNL     1     -19.423  43.366  85.268  1.00  0.00     0.000 C 
BRANCH  16  17
ATOM     17  C   UNL     1     -20.245  42.825  86.444  1.00  0.00     0.000 C 
BRANCH  17  18
ATOM     18  C   UNL     1     -19.808  41.402  86.813  1.00  0.00    -0.000 C 
BRANCH  18  19
ATOM     19  C   UNL     1     -21.014  40.453  86.868  1.00  0.00    -0.000 C 
BRANCH  19  20
ATOM     20  C   UNL     1     -20.632  38.981  86.622  1.00  0.00    -0.000 C 
BRANCH  20  21
ATOM     21  C   UNL     1     -20.986  38.016  87.769  1.00  0.00    -0.000 C 
BRANCH  21  22
ATOM     22  C   UNL     1     -19.893  37.839  88.838  1.00  0.00    -0.000 C 
BRANCH  22  23
ATOM     23  C   UNL     1     -20.288  38.379  90.231  1.00  0.00    -0.000 C 
BRANCH  23  24
ATOM     24  C   UNL     1     -19.241  39.341  90.810  1.00  0.00    -0.000 C 
BRANCH  24  25
ATOM     25  C   UNL     1     -19.518  40.783  90.371  1.00  0.00    -0.003 C 
ATOM     26  C   UNL     1     -20.980  41.158  90.595  1.00  0.00     0.004 C 
ENDBRANCH  24  25
ENDBRANCH  23  24
ENDBRANCH  22  23
ENDBRANCH  21  22
ENDBRANCH  20  21
ENDBRANCH  19  20
ENDBRANCH  18  19
ENDBRANCH  17  18
ENDBRANCH  16  17
ENDBRANCH  15  16
ENDBRANCH   1  15
TORSDOF 22
ENDMDL
MODEL 5
REMARK VINA RESULT:    -4.865      1.867      4.204
REMARK INTER + INTRA:         -14.652
REMARK INTER:                 -12.611
REMARK INTRA:                  -2.041
REMARK UNBOUND:                -3.530
REMARK SMILES CCCCCCCCCCCCCCCCCCCCCCCC(=O)[O-]
REMARK SMILES IDX 13 1 14 2 15 3 16 4 17 5 18 6 19 7 20 8 21 9 22 10 23 11
REMARK SMILES IDX 24 12 25 13 26 14 12 15 11 16 10 17 9 18 8 19 7 20 6 21 5 22
REMARK SMILES IDX 4 23 3 24 2 25 1 26
REMARK H PARENT
REMARK Flexibility Score: inf
ROOT
ATOM      1  C   UNL     1     -18.276  45.053  83.857  1.00  0.00     0.000 C 
ENDROOT
BRANCH   1   2
ATOM      2  C   UNL     1     -18.116  44.599  85.316  1.00  0.00     0.000 C 
BRANCH   2   3
ATOM      3  C   UNL     1     -19.483  44.489  86.009  1.00  0.00     0.000 C 
BRANCH   3   4
ATOM      4  C   UNL     1     -20.202  43.158  85.714  1.00  0.00     0.000 C 
BRANCH   4   5
ATOM      5  C   UNL     1     -20.482  42.283  86.949  1.00  0.00     0.000 C 
BRANCH   5   6
ATOM      6  C   UNL     1     -19.874  40.869  86.896  1.00  0.00     0.000 C 
BRANCH   6   7
ATOM      7  C   UNL     1     -20.867  39.750  87.277  1.00  0.00     0.000 C 
BRANCH   7   8
ATOM      8  C   UNL     1     -20.573  38.427  86.549  1.00  0.00     0.000 C 
BRANCH   8   9
ATOM      9  C   UNL     1     -19.637  38.624  85.337  1.00  0.00     0.000 C 
BRANCH   9  10
ATOM     10  C   UNL     1     -19.582  37.409  84.395  1.00  0.00     0.006 C 
BRANCH  10  11
ATOM     11  C   UNL     1     -18.446  37.498  83.370  1.00  0.00     0.053 C 
BRANCH  11  12
ATOM     12  C   UNL     1     -17.260  36.712  83.834  1.00  0.00     0.041 C 
ATOM     13  O   UNL     1     -17.387  35.857  84.751  1.00  0.00    -0.550 OA
ATOM     14  O   UNL     1     -16.026  36.888  83.224  1.00  0.00    -0.550 OA
ENDBRANCH  11  12
ENDBRANCH  10  11
ENDBRANCH   9  10
ENDBRANCH   8   9
ENDBRANCH   7   8
ENDBRANCH   6   7
ENDBRANCH   5   6
ENDBRANCH   4   5
ENDBRANCH   3   4
ENDBRANCH   2   3
ENDBRANCH   1   2
BRANCH   1  15
ATOM     15  C   UNL     1     -18.801  46.492  83.738  1.00  0.00     0.000 C 
BRANCH  15  16
ATOM     16  C   UNL     1     -19.850  46.650  82.628  1.00  0.00     0.000 C 
BRANCH  16  17
ATOM     17  C   UNL     1     -21.263  46.403  83.170  1.00  0.00     0.000 C 
BRANCH  17  18
ATOM     18  C   UNL     1     -21.458  47.083  84.531  1.00  0.00    -0.000 C 
BRANCH  18  19
ATOM     19  C   UNL     1     -22.516  46.346  85.367  1.00  0.00    -0.000 C 
BRANCH  19  20
ATOM     20  C   UNL     1     -22.430  46.675  86.869  1.00  0.00    -0.000 C 
BRANCH  20  21
ATOM     21  C   UNL     1     -22.546  45.460  87.809  1.00  0.00    -0.000 C 
BRANCH  21  22
ATOM     22  C   UNL     1     -23.971  44.905  87.988  1.00  0.00    -0.000 C 
BRANCH  22  23
ATOM     23  C   UNL     1     -24.804  45.654  89.051  1.00  0.00    -0.000 C 
BRANCH  23  24
ATOM     24  C   UNL     1     -26.293  45.281  89.006  1.00  0.00    -0.000 C 
BRANCH  24  25
ATOM     25  C   UNL     1     -26.786  44.822  90.382  1.00  0.00    -0.003 C 
ATOM     26  C   UNL     1     -27.769  43.662  90.257  1.00  0.00     0.004 C 
ENDBRANCH  24  25
ENDBRANCH  23  24
ENDBRANCH  22  23
ENDBRANCH  21  22
ENDBRANCH  20  21
ENDBRANCH  19  20
ENDBRANCH  18  19
ENDBRANCH  17  18
ENDBRANCH  16  17
ENDBRANCH  15  16
ENDBRANCH   1  15
TORSDOF 22
ENDMDL
MODEL 6
REMARK VINA RESULT:    -4.844      3.993      8.294
REMARK INTER + INTRA:         -14.605
REMARK INTER:                 -11.803
REMARK INTRA:                  -2.802
REMARK UNBOUND:                -3.530
REMARK SMILES CCCCCCCCCCCCCCCCCCCCCCCC(=O)[O-]
REMARK SMILES IDX 13 1 14 2 15 3 16 4 17 5 18 6 19 7 20 8 21 9 22 10 23 11
REMARK SMILES IDX 24 12 25 13 26 14 12 15 11 16 10 17 9 18 8 19 7 20 6 21 5 22
REMARK SMILES IDX 4 23 3 24 2 25 1 26
REMARK H PARENT
REMARK Flexibility Score: inf
ROOT
ATOM      1  C   UNL     1     -18.451  44.822  84.873  1.00  0.00     0.000 C 
ENDROOT
BRANCH   1   2
ATOM      2  C   UNL     1     -19.436  45.737  84.128  1.00  0.00     0.000 C 
BRANCH   2   3
ATOM      3  C   UNL     1     -20.289  46.545  85.119  1.00  0.00     0.000 C 
BRANCH   3   4
ATOM      4  C   UNL     1     -21.802  46.389  84.877  1.00  0.00     0.000 C 
BRANCH   4   5
ATOM      5  C   UNL     1     -22.606  45.884  86.090  1.00  0.00     0.000 C 
BRANCH   5   6
ATOM      6  C   UNL     1     -22.304  46.605  87.417  1.00  0.00     0.000 C 
BRANCH   6   7
ATOM      7  C   UNL     1     -23.102  46.055  88.619  1.00  0.00     0.000 C 
BRANCH   7   8
ATOM      8  C   UNL     1     -24.188  45.052  88.195  1.00  0.00     0.000 C 
BRANCH   8   9
ATOM      9  C   UNL     1     -25.542  45.333  88.881  1.00  0.00     0.000 C 
BRANCH   9  10
ATOM     10  C   UNL     1     -25.913  44.303  89.962  1.00  0.00     0.006 C 
BRANCH  10  11
ATOM     11  C   UNL     1     -27.319  44.518  90.535  1.00  0.00     0.053 C 
BRANCH  11  12
ATOM     12  C   UNL     1     -28.169  43.309  90.302  1.00  0.00     0.041 C 
ATOM     13  O   UNL     1     -28.817  42.799  91.254  1.00  0.00    -0.550 OA
ATOM     14  O   UNL     1     -28.283  42.773  89.026  1.00  0.00    -0.550 OA
ENDBRANCH  11  12
ENDBRANCH  10  11
ENDBRANCH   9  10
ENDBRANCH   8   9
ENDBRANCH   7   8
ENDBRANCH   6   7
ENDBRANCH   5   6
ENDBRANCH   4   5
ENDBRANCH   3   4
ENDBRANCH   2   3
ENDBRANCH   1   2
BRANCH   1  15
ATOM     15  C   UNL     1     -19.082  44.149  86.102  1.00  0.00     0.000 C 
BRANCH  15  16
ATOM     16  C   UNL     1     -19.850  42.868  85.746  1.00  0.00     0.000 C 
BRANCH  16  17
ATOM     17  C   UNL     1     -21.054  42.675  86.676  1.00  0.00     0.000 C 
BRANCH  17  18
ATOM     18  C   UNL     1     -20.764  43.231  88.076  1.00  0.00    -0.000 C 
BRANCH  18  19
ATOM     19  C   UNL     1     -21.313  42.295  89.164  1.00  0.00    -0.000 C 
BRANCH  19  20
ATOM     20  C   UNL     1     -20.299  41.220  89.598  1.00  0.00    -0.000 C 
BRANCH  20  21
ATOM     21  C   UNL     1     -20.832  40.198  90.619  1.00  0.00    -0.000 C 
BRANCH  21  22
ATOM     22  C   UNL     1     -20.701  38.723  90.199  1.00  0.00    -0.000 C 
BRANCH  22  23
ATOM     23  C   UNL     1     -20.023  38.523  88.826  1.00  0.00    -0.000 C 
BRANCH  23  24
ATOM     24  C   UNL     1     -21.034  38.474  87.670  1.00  0.00    -0.000 C 
BRANCH  24  25
ATOM     25  C   UNL     1     -20.466  39.147  86.415  1.00  0.00    -0.003 C 
ATOM     26  C   UNL     1     -19.919  38.114  85.434  1.00  0.00     0.004 C 
ENDBRANCH  24  25
ENDBRANCH  23  24
ENDBRANCH  22  23
ENDBRANCH  21  22
ENDBRANCH  20  21
ENDBRANCH  19  20
ENDBRANCH  18  19
ENDBRANCH  17  18
ENDBRANCH  16  17
ENDBRANCH  15  16
ENDBRANCH   1  15
TORSDOF 22
ENDMDL
MODEL 7
REMARK VINA RESULT:    -4.833      4.087      7.825
REMARK INTER + INTRA:         -14.579
REMARK INTER:                 -11.895
REMARK INTRA:                  -2.685
REMARK UNBOUND:                -3.530
REMARK SMILES CCCCCCCCCCCCCCCCCCCCCCCC(=O)[O-]
REMARK SMILES IDX 13 1 14 2 15 3 16 4 17 5 18 6 19 7 20 8 21 9 22 10 23 11
REMARK SMILES IDX 24 12 25 13 26 14 12 15 11 16 10 17 9 18 8 19 7 20 6 21 5 22
REMARK SMILES IDX 4 23 3 24 2 25 1 26
REMARK H PARENT
REMARK Flexibility Score: inf
ROOT
ATOM      1  C   UNL     1     -20.217  46.686  84.546  1.00  0.00     0.000 C 
ENDROOT
BRANCH   1   2
ATOM      2  C   UNL     1     -21.717  46.690  84.211  1.00  0.00     0.000 C 
BRANCH   2   3
ATOM      3  C   UNL     1     -22.563  46.669  85.494  1.00  0.00     0.000 C 
BRANCH   3   4
ATOM      4  C   UNL     1     -21.713  46.719  86.777  1.00  0.00     0.000 C 
BRANCH   4   5
ATOM      5  C   UNL     1     -22.142  45.735  87.882  1.00  0.00     0.000 C 
BRANCH   5   6
ATOM      6  C   UNL     1     -23.516  45.073  87.665  1.00  0.00     0.000 C 
BRANCH   6   7
ATOM      7  C   UNL     1     -23.684  43.732  88.412  1.00  0.00     0.000 C 
BRANCH   7   8
ATOM      8  C   UNL     1     -24.647  43.841  89.607  1.00  0.00     0.000 C 
BRANCH   8   9
ATOM      9  C   UNL     1     -25.483  45.138  89.567  1.00  0.00     0.000 C 
BRANCH   9  10
ATOM     10  C   UNL     1     -26.776  45.066  90.398  1.00  0.00     0.006 C 
BRANCH  10  11
ATOM     11  C   UNL     1     -26.950  43.723  91.117  1.00  0.00     0.053 C 
BRANCH  11  12
ATOM     12  C   UNL     1     -28.126  42.983  90.563  1.00  0.00     0.041 C 
ATOM     13  O   UNL     1     -28.148  42.647  89.349  1.00  0.00    -0.550 OA
ATOM     14  O   UNL     1     -29.177  42.623  91.396  1.00  0.00    -0.550 OA
ENDBRANCH  11  12
ENDBRANCH  10  11
ENDBRANCH   9  10
ENDBRANCH   8   9
ENDBRANCH   7   8
ENDBRANCH   6   7
ENDBRANCH   5   6
ENDBRANCH   4   5
ENDBRANCH   3   4
ENDBRANCH   2   3
ENDBRANCH   1   2
BRANCH   1  15
ATOM     15  C   UNL     1     -19.391  45.851  83.555  1.00  0.00     0.000 C 
BRANCH  15  16
ATOM     16  C   UNL     1     -18.668  44.676  84.229  1.00  0.00     0.000 C 
BRANCH  16  17
ATOM     17  C   UNL     1     -19.291  44.360  85.594  1.00  0.00     0.000 C 
BRANCH  17  18
ATOM     18  C   UNL     1     -19.511  42.851  85.764  1.00  0.00    -0.000 C 
BRANCH  18  19
ATOM     19  C   UNL     1     -20.857  42.566  86.448  1.00  0.00    -0.000 C 
BRANCH  19  20
ATOM     20  C   UNL     1     -20.795  41.372  87.419  1.00  0.00    -0.000 C 
BRANCH  20  21
ATOM     21  C   UNL     1     -20.151  41.677  88.785  1.00  0.00    -0.000 C 
BRANCH  21  22
ATOM     22  C   UNL     1     -21.080  41.507  90.000  1.00  0.00    -0.000 C 
BRANCH  22  23
ATOM     23  C   UNL     1     -20.569  40.483  91.038  1.00  0.00    -0.000 C 
BRANCH  23  24
ATOM     24  C   UNL     1     -19.096  40.108  90.821  1.00  0.00    -0.000 C 
BRANCH  24  25
ATOM     25  C   UNL     1     -18.942  38.601  90.585  1.00  0.00    -0.003 C 
ATOM     26  C   UNL     1     -20.021  38.077  89.643  1.00  0.00     0.004 C 
ENDBRANCH  24  25
ENDBRANCH  23  24
ENDBRANCH  22  23
ENDBRANCH  21  22
ENDBRANCH  20  21
ENDBRANCH  19  20
ENDBRANCH  18  19
ENDBRANCH  17  18
ENDBRANCH  16  17
ENDBRANCH  15  16
ENDBRANCH   1  15
TORSDOF 22
ENDMDL
MODEL 8
REMARK VINA RESULT:    -4.820      3.454      5.768
REMARK INTER + INTRA:         -14.550
REMARK INTER:                 -11.673
REMARK INTRA:                  -2.877
REMARK UNBOUND:                -3.530
REMARK SMILES CCCCCCCCCCCCCCCCCCCCCCCC(=O)[O-]
REMARK SMILES IDX 13 1 14 2 15 3 16 4 17 5 18 6 19 7 20 8 21 9 22 10 23 11
REMARK SMILES IDX 24 12 25 13 26 14 12 15 11 16 10 17 9 18 8 19 7 20 6 21 5 22
REMARK SMILES IDX 4 23 3 24 2 25 1 26
REMARK H PARENT
REMARK Flexibility Score: inf
ROOT
ATOM      1  C   UNL     1     -21.813  42.722  89.879  1.00  0.00     0.000 C 
ENDROOT
BRANCH   1   2
ATOM      2  C   UNL     1     -22.134  41.880  91.124  1.00  0.00     0.000 C 
BRANCH   2   3
ATOM      3  C   UNL     1     -21.119  40.738  91.288  1.00  0.00     0.000 C 
BRANCH   3   4
ATOM      4  C   UNL     1     -19.772  41.026  90.598  1.00  0.00     0.000 C 
BRANCH   4   5
ATOM      5  C   UNL     1     -19.395  40.047  89.471  1.00  0.00     0.000 C 
BRANCH   5   6
ATOM      6  C   UNL     1     -20.590  39.404  88.741  1.00  0.00     0.000 C 
BRANCH   6   7
ATOM      7  C   UNL     1     -20.941  40.088  87.402  1.00  0.00     0.000 C 
BRANCH   7   8
ATOM      8  C   UNL     1     -19.831  41.036  86.916  1.00  0.00     0.000 C 
BRANCH   8   9
ATOM      9  C   UNL     1     -20.358  42.460  86.641  1.00  0.00     0.000 C 
BRANCH   9  10
ATOM     10  C   UNL     1     -19.701  43.140  85.428  1.00  0.00     0.006 C 
BRANCH  10  11
ATOM     11  C   UNL     1     -19.324  44.602  85.693  1.00  0.00     0.053 C 
BRANCH  11  12
ATOM     12  C   UNL     1     -18.451  45.124  84.595  1.00  0.00     0.041 C 
ATOM     13  O   UNL     1     -17.208  45.228  84.771  1.00  0.00    -0.550 OA
ATOM     14  O   UNL     1     -19.002  45.452  83.364  1.00  0.00    -0.550 OA
ENDBRANCH  11  12
ENDBRANCH  10  11
ENDBRANCH   9  10
ENDBRANCH   8   9
ENDBRANCH   7   8
ENDBRANCH   6   7
ENDBRANCH   5   6
ENDBRANCH   4   5
ENDBRANCH   3   4
ENDBRANCH   2   3
ENDBRANCH   1   2
BRANCH   1  15
ATOM     15  C   UNL     1     -23.023  43.529  89.381  1.00  0.00     0.000 C 
BRANCH  15  16
ATOM     16  C   UNL     1     -22.617  44.830  88.676  1.00  0.00     0.000 C 
BRANCH  16  17
ATOM     17  C   UNL     1     -23.256  44.923  87.285  1.00  0.00     0.000 C 
BRANCH  17  18
ATOM     18  C   UNL     1     -23.439  46.385  86.858  1.00  0.00    -0.000 C 
BRANCH  18  19
ATOM     19  C   UNL     1     -24.878  46.644  86.387  1.00  0.00    -0.000 C 
BRANCH  19  20
ATOM     20  C   UNL     1     -25.931  45.931  87.255  1.00  0.00    -0.000 C 
BRANCH  20  21
ATOM     21  C   UNL     1     -26.368  46.704  88.513  1.00  0.00    -0.000 C 
BRANCH  21  22
ATOM     22  C   UNL     1     -25.883  46.111  89.848  1.00  0.00    -0.000 C 
BRANCH  22  23
ATOM     23  C   UNL     1     -26.858  45.084  90.466  1.00  0.00    -0.000 C 
BRANCH  23  24
ATOM     24  C   UNL     1     -26.701  43.681  89.860  1.00  0.00    -0.000 C 
BRANCH  24  25
ATOM     25  C   UNL     1     -28.064  43.003  89.684  1.00  0.00    -0.003 C 
ATOM     26  C   UNL     1     -28.802  42.894  91.015  1.00  0.00     0.004 C 
ENDBRANCH  24  25
ENDBRANCH  23  24
ENDBRANCH  22  23
ENDBRANCH  21  22
ENDBRANCH  20  21
ENDBRANCH  19  20
ENDBRANCH  18  19
ENDBRANCH  17  18
ENDBRANCH  16  17
ENDBRANCH  15  16
ENDBRANCH   1  15
TORSDOF 22
ENDMDL
MODEL 9
REMARK VINA RESULT:    -4.810      4.251      8.471
REMARK INTER + INTRA:         -14.527
REMARK INTER:                 -11.518
REMARK INTRA:                  -3.008
REMARK UNBOUND:                -3.530
REMARK SMILES CCCCCCCCCCCCCCCCCCCCCCCC(=O)[O-]
REMARK SMILES IDX 13 1 14 2 15 3 16 4 17 5 18 6 19 7 20 8 21 9 22 10 23 11
REMARK SMILES IDX 24 12 25 13 26 14 12 15 11 16 10 17 9 18 8 19 7 20 6 21 5 22
REMARK SMILES IDX 4 23 3 24 2 25 1 26
REMARK H PARENT
REMARK Flexibility Score: inf
ROOT
ATOM      1  C   UNL     1     -21.355  41.865  90.196  1.00  0.00     0.000 C 
ENDROOT
BRANCH   1   2
ATOM      2  C   UNL     1     -22.476  42.914  90.150  1.00  0.00     0.000 C 
BRANCH   2   3
ATOM      3  C   UNL     1     -22.699  43.414  88.714  1.00  0.00     0.000 C 
BRANCH   3   4
ATOM      4  C   UNL     1     -22.878  44.941  88.629  1.00  0.00     0.000 C 
BRANCH   4   5
ATOM      5  C   UNL     1     -22.931  45.512  87.200  1.00  0.00     0.000 C 
BRANCH   5   6
ATOM      6  C   UNL     1     -24.244  46.230  86.834  1.00  0.00     0.000 C 
BRANCH   6   7
ATOM      7  C   UNL     1     -25.482  45.675  87.569  1.00  0.00     0.000 C 
BRANCH   7   8
ATOM      8  C   UNL     1     -26.104  46.700  88.534  1.00  0.00     0.000 C 
BRANCH   8   9
ATOM      9  C   UNL     1     -26.642  46.039  89.821  1.00  0.00     0.000 C 
BRANCH   9  10
ATOM     10  C   UNL     1     -26.312  44.541  89.931  1.00  0.00     0.006 C 
BRANCH  10  11
ATOM     11  C   UNL     1     -27.075  43.842  91.062  1.00  0.00     0.053 C 
BRANCH  11  12
ATOM     12  C   UNL     1     -28.209  43.038  90.509  1.00  0.00     0.041 C 
ATOM     13  O   UNL     1     -28.189  42.658  89.308  1.00  0.00    -0.550 OA
ATOM     14  O   UNL     1     -29.266  42.668  91.329  1.00  0.00    -0.550 OA
ENDBRANCH  11  12
ENDBRANCH  10  11
ENDBRANCH   9  10
ENDBRANCH   8   9
ENDBRANCH   7   8
ENDBRANCH   6   7
ENDBRANCH   5   6
ENDBRANCH   4   5
ENDBRANCH   3   4
ENDBRANCH   2   3
ENDBRANCH   1   2
BRANCH   1  15
ATOM     15  C   UNL     1     -21.413  40.990  91.459  1.00  0.00     0.000 C 
BRANCH  15  16
ATOM     16  C   UNL     1     -20.019  40.595  91.969  1.00  0.00     0.000 C 
BRANCH  16  17
ATOM     17  C   UNL     1     -18.924  41.111  91.029  1.00  0.00     0.000 C 
BRANCH  17  18
ATOM     18  C   UNL     1     -18.309  39.965  90.217  1.00  0.00    -0.000 C 
BRANCH  18  19
ATOM     19  C   UNL     1     -18.846  38.606  90.691  1.00  0.00    -0.000 C 
BRANCH  19  20
ATOM     20  C   UNL     1     -19.460  37.773  89.551  1.00  0.00    -0.000 C 
BRANCH  20  21
ATOM     21  C   UNL     1     -20.667  38.423  88.847  1.00  0.00    -0.000 C 
BRANCH  21  22
ATOM     22  C   UNL     1     -20.438  38.805  87.373  1.00  0.00    -0.000 C 
BRANCH  22  23
ATOM     23  C   UNL     1     -21.035  40.175  86.984  1.00  0.00    -0.000 C 
BRANCH  23  24
ATOM     24  C   UNL     1     -19.956  41.216  86.651  1.00  0.00    -0.000 C 
BRANCH  24  25
ATOM     25  C   UNL     1     -20.586  42.510  86.123  1.00  0.00    -0.003 C 
ATOM     26  C   UNL     1     -19.563  43.641  86.070  1.00  0.00     0.004 C 
ENDBRANCH  24  25
ENDBRANCH  23  24
ENDBRANCH  22  23
ENDBRANCH  21  22
ENDBRANCH  20  21
ENDBRANCH  19  20
ENDBRANCH  18  19
ENDBRANCH  17  18
ENDBRANCH  16  17
ENDBRANCH  15  16
ENDBRANCH   1  15
TORSDOF 22
ENDMDL
