MODEL 1
REMARK VINA RESULT:    -4.502      0.000      0.000
REMARK INTER + INTRA:         -13.253
REMARK INTER:                 -10.293
REMARK INTRA:                  -2.961
REMARK UNBOUND:                -2.961
REMARK SMILES CCCCCCCCCCCCCCCCCCCCCCCC(=O)[O-]
REMARK SMILES IDX 13 1 14 2 15 3 16 4 17 5 18 6 19 7 20 8 21 9 22 10 23 11
REMARK SMILES IDX 24 12 25 13 26 14 12 15 11 16 10 17 9 18 8 19 7 20 6 21 5 22
REMARK SMILES IDX 4 23 3 24 2 25 1 26
REMARK H PARENT
REMARK Flexibility Score: inf
ROOT
ATOM      1  C   UNL     1      39.550  -6.240   9.059  1.00  0.00     0.000 C 
ENDROOT
BRANCH   1   2
ATOM      2  C   UNL     1      38.585  -7.053   9.947  1.00  0.00     0.000 C 
BRANCH   2   3
ATOM      3  C   UNL     1      39.292  -7.745  11.127  1.00  0.00     0.000 C 
BRANCH   3   4
ATOM      4  C   UNL     1      39.442  -9.265  10.901  1.00  0.00     0.000 C 
BRANCH   4   5
ATOM      5  C   UNL     1      38.763  -9.759   9.613  1.00  0.00     0.000 C 
BRANCH   5   6
ATOM      6  C   UNL     1      37.980 -11.066   9.819  1.00  0.00     0.000 C 
BRANCH   6   7
ATOM      7  C   UNL     1      36.514 -10.822  10.217  1.00  0.00     0.000 C 
BRANCH   7   8
ATOM      8  C   UNL     1      36.335 -10.686  11.740  1.00  0.00     0.000 C 
BRANCH   8   9
ATOM      9  C   UNL     1      36.076  -9.236  12.178  1.00  0.00     0.000 C 
BRANCH   9  10
ATOM     10  C   UNL     1      36.488  -8.975  13.637  1.00  0.00     0.006 C 
BRANCH  10  11
ATOM     11  C   UNL     1      36.248  -7.518  14.054  1.00  0.00     0.053 C 
BRANCH  11  12
ATOM     12  C   UNL     1      35.050  -7.383  14.945  1.00  0.00     0.041 C 
ATOM     13  O   UNL     1      35.152  -6.819  16.065  1.00  0.00    -0.550 OA
ATOM     14  O   UNL     1      33.815  -7.858  14.524  1.00  0.00    -0.550 OA
ENDBRANCH  11  12
ENDBRANCH  10  11
ENDBRANCH   9  10
ENDBRANCH   8   9
ENDBRANCH   7   8
ENDBRANCH   6   7
ENDBRANCH   5   6
ENDBRANCH   4   5
ENDBRANCH   3   4
ENDBRANCH   2   3
ENDBRANCH   1   2
BRANCH   1  15
ATOM     15  C   UNL     1      39.617  -6.720   7.597  1.00  0.00     0.000 C 
BRANCH  15  16
ATOM     16  C   UNL     1      40.974  -7.293   7.147  1.00  0.00     0.000 C 
BRANCH  16  17
ATOM     17  C   UNL     1      41.721  -8.113   8.216  1.00  0.00     0.000 C 
BRANCH  17  18
ATOM     18  C   UNL     1      43.177  -8.414   7.825  1.00  0.00    -0.000 C 
BRANCH  18  19
ATOM     19  C   UNL     1      43.566  -7.785   6.477  1.00  0.00    -0.000 C 
BRANCH  19  20
ATOM     20  C   UNL     1      44.179  -8.809   5.506  1.00  0.00    -0.000 C 
BRANCH  20  21
ATOM     21  C   UNL     1      43.449  -8.852   4.154  1.00  0.00    -0.000 C 
BRANCH  21  22
ATOM     22  C   UNL     1      41.961  -9.216   4.299  1.00  0.00    -0.000 C 
BRANCH  22  23
ATOM     23  C   UNL     1      41.071  -8.510   3.263  1.00  0.00    -0.000 C 
BRANCH  23  24
ATOM     24  C   UNL     1      41.754  -7.374   2.476  1.00  0.00    -0.000 C 
BRANCH  24  25
ATOM     25  C   UNL     1      40.974  -6.043   2.493  1.00  0.00    -0.003 C 
ATOM     26  C   UNL     1      40.721  -5.530   3.911  1.00  0.00     0.004 C 
ENDBRANCH  24  25
ENDBRANCH  23  24
ENDBRANCH  22  23
ENDBRANCH  21  22
ENDBRANCH  20  21
ENDBRANCH  19  20
ENDBRANCH  18  19
ENDBRANCH  17  18
ENDBRANCH  16  17
ENDBRANCH  15  16
ENDBRANCH   1  15
TORSDOF 22
ENDMDL
MODEL 2
REMARK VINA RESULT:    -4.497      1.247      2.144
REMARK INTER + INTRA:         -13.242
REMARK INTER:                 -10.436
REMARK INTRA:                  -2.806
REMARK UNBOUND:                -2.961
REMARK SMILES CCCCCCCCCCCCCCCCCCCCCCCC(=O)[O-]
REMARK SMILES IDX 13 1 14 2 15 3 16 4 17 5 18 6 19 7 20 8 21 9 22 10 23 11
REMARK SMILES IDX 24 12 25 13 26 14 12 15 11 16 10 17 9 18 8 19 7 20 6 21 5 22
REMARK SMILES IDX 4 23 3 24 2 25 1 26
REMARK H PARENT
REMARK Flexibility Score: inf
ROOT
ATOM      1  C   UNL     1      40.165  -7.022   7.686  1.00  0.00     0.000 C 
ENDROOT
BRANCH   1   2
ATOM      2  C   UNL     1      39.011  -6.403   8.503  1.00  0.00     0.000 C 
BRANCH   2   3
ATOM      3  C   UNL     1      38.253  -7.438   9.354  1.00  0.00     0.000 C 
BRANCH   3   4
ATOM      4  C   UNL     1      38.226  -7.051  10.850  1.00  0.00     0.000 C 
BRANCH   4   5
ATOM      5  C   UNL     1      39.212  -7.862  11.706  1.00  0.00     0.000 C 
BRANCH   5   6
ATOM      6  C   UNL     1      39.401  -9.299  11.192  1.00  0.00     0.000 C 
BRANCH   6   7
ATOM      7  C   UNL     1      38.634 -10.334  12.032  1.00  0.00     0.000 C 
BRANCH   7   8
ATOM      8  C   UNL     1      37.293 -10.732  11.392  1.00  0.00     0.000 C 
BRANCH   8   9
ATOM      9  C   UNL     1      36.111  -9.912  11.934  1.00  0.00     0.000 C 
BRANCH   9  10
ATOM     10  C   UNL     1      36.185  -9.700  13.456  1.00  0.00     0.006 C 
BRANCH  10  11
ATOM     11  C   UNL     1      36.309  -8.217  13.828  1.00  0.00     0.053 C 
BRANCH  11  12
ATOM     12  C   UNL     1      35.035  -7.470  13.572  1.00  0.00     0.041 C 
ATOM     13  O   UNL     1      35.009  -6.521  12.746  1.00  0.00    -0.550 OA
ATOM     14  O   UNL     1      33.868  -7.842  14.228  1.00  0.00    -0.550 OA
ENDBRANCH  11  12
ENDBRANCH  10  11
ENDBRANCH   9  10
ENDBRANCH   8   9
ENDBRANCH   7   8
ENDBRANCH   6   7
ENDBRANCH   5   6
ENDBRANCH   4   5
ENDBRANCH   3   4
ENDBRANCH   2   3
ENDBRANCH   1   2
BRANCH   1  15
ATOM     15  C   UNL     1      41.352  -7.506   8.539  1.00  0.00     0.000 C 
BRANCH  15  16
ATOM     16  C   UNL     1      42.316  -8.485   7.842  1.00  0.00     0.000 C 
BRANCH  16  17
ATOM     17  C   UNL     1      43.537  -7.829   7.170  1.00  0.00     0.000 C 
BRANCH  17  18
ATOM     18  C   UNL     1      43.884  -8.467   5.814  1.00  0.00    -0.000 C 
BRANCH  18  19
ATOM     19  C   UNL     1      42.961  -9.647   5.466  1.00  0.00    -0.000 C 
BRANCH  19  20
ATOM     20  C   UNL     1      42.221  -9.441   4.133  1.00  0.00    -0.000 C 
BRANCH  20  21
ATOM     21  C   UNL     1      42.139  -7.961   3.724  1.00  0.00    -0.000 C 
BRANCH  21  22
ATOM     22  C   UNL     1      40.781  -7.327   4.075  1.00  0.00    -0.000 C 
BRANCH  22  23
ATOM     23  C   UNL     1      40.819  -5.790   4.060  1.00  0.00    -0.000 C 
BRANCH  23  24
ATOM     24  C   UNL     1      40.793  -5.147   2.659  1.00  0.00    -0.000 C 
BRANCH  24  25
ATOM     25  C   UNL     1      39.517  -4.330   2.368  1.00  0.00    -0.003 C 
ATOM     26  C   UNL     1      39.606  -2.897   2.894  1.00  0.00     0.004 C 
ENDBRANCH  24  25
ENDBRANCH  23  24
ENDBRANCH  22  23
ENDBRANCH  21  22
ENDBRANCH  20  21
ENDBRANCH  19  20
ENDBRANCH  18  19
ENDBRANCH  17  18
ENDBRANCH  16  17
ENDBRANCH  15  16
ENDBRANCH   1  15
TORSDOF 22
ENDMDL
MODEL 3
REMARK VINA RESULT:    -4.474      4.300     11.378
REMARK INTER + INTRA:         -13.188
REMARK INTER:                 -10.363
REMARK INTRA:                  -2.826
REMARK UNBOUND:                -2.961
REMARK SMILES CCCCCCCCCCCCCCCCCCCCCCCC(=O)[O-]
REMARK SMILES IDX 13 1 14 2 15 3 16 4 17 5 18 6 19 7 20 8 21 9 22 10 23 11
REMARK SMILES IDX 24 12 25 13 26 14 12 15 11 16 10 17 9 18 8 19 7 20 6 21 5 22
REMARK SMILES IDX 4 23 3 24 2 25 1 26
REMARK H PARENT
REMARK Flexibility Score: inf
ROOT
ATOM      1  C   UNL     1      36.804  -6.347  13.705  1.00  0.00     0.000 C 
ENDROOT
BRANCH   1   2
ATOM      2  C   UNL     1      37.627  -7.377  12.904  1.00  0.00     0.000 C 
BRANCH   2   3
ATOM      3  C   UNL     1      37.325  -7.346  11.395  1.00  0.00     0.000 C 
BRANCH   3   4
ATOM      4  C   UNL     1      36.572  -8.612  10.929  1.00  0.00     0.000 C 
BRANCH   4   5
ATOM      5  C   UNL     1      36.904  -9.859  11.765  1.00  0.00     0.000 C 
BRANCH   5   6
ATOM      6  C   UNL     1      37.973 -10.747  11.107  1.00  0.00     0.000 C 
BRANCH   6   7
ATOM      7  C   UNL     1      37.844 -10.793   9.575  1.00  0.00     0.000 C 
BRANCH   7   8
ATOM      8  C   UNL     1      39.134 -10.346   8.864  1.00  0.00     0.000 C 
BRANCH   8   9
ATOM      9  C   UNL     1      40.175  -9.766   9.835  1.00  0.00     0.000 C 
BRANCH   9  10
ATOM     10  C   UNL     1      40.274  -8.234   9.751  1.00  0.00     0.006 C 
BRANCH  10  11
ATOM     11  C   UNL     1      39.819  -7.698   8.388  1.00  0.00     0.053 C 
BRANCH  11  12
ATOM     12  C   UNL     1      40.976  -7.469   7.464  1.00  0.00     0.041 C 
ATOM     13  O   UNL     1      40.785  -7.013   6.306  1.00  0.00    -0.550 OA
ATOM     14  O   UNL     1      42.271  -7.734   7.893  1.00  0.00    -0.550 OA
ENDBRANCH  11  12
ENDBRANCH  10  11
ENDBRANCH   9  10
ENDBRANCH   8   9
ENDBRANCH   7   8
ENDBRANCH   6   7
ENDBRANCH   5   6
ENDBRANCH   4   5
ENDBRANCH   3   4
ENDBRANCH   2   3
ENDBRANCH   1   2
BRANCH   1  15
ATOM     15  C   UNL     1      35.764  -6.972  14.655  1.00  0.00     0.000 C 
BRANCH  15  16
ATOM     16  C   UNL     1      34.617  -7.740  13.971  1.00  0.00     0.000 C 
BRANCH  16  17
ATOM     17  C   UNL     1      33.770  -8.618  14.912  1.00  0.00     0.000 C 
BRANCH  17  18
ATOM     18  C   UNL     1      32.410  -7.986  15.252  1.00  0.00    -0.000 C 
BRANCH  18  19
ATOM     19  C   UNL     1      31.231  -8.773  14.657  1.00  0.00    -0.000 C 
BRANCH  19  20
ATOM     20  C   UNL     1      31.193 -10.232  15.143  1.00  0.00    -0.000 C 
BRANCH  20  21
ATOM     21  C   UNL     1      30.207 -10.444  16.302  1.00  0.00    -0.000 C 
BRANCH  21  22
ATOM     22  C   UNL     1      30.917 -10.599  17.659  1.00  0.00    -0.000 C 
BRANCH  22  23
ATOM     23  C   UNL     1      31.086  -9.262  18.399  1.00  0.00    -0.000 C 
BRANCH  23  24
ATOM     24  C   UNL     1      32.541  -8.875  18.730  1.00  0.00    -0.000 C 
BRANCH  24  25
ATOM     25  C   UNL     1      33.560 -10.011  18.500  1.00  0.00    -0.003 C 
ATOM     26  C   UNL     1      34.612 -10.087  19.607  1.00  0.00     0.004 C 
ENDBRANCH  24  25
ENDBRANCH  23  24
ENDBRANCH  22  23
ENDBRANCH  21  22
ENDBRANCH  20  21
ENDBRANCH  19  20
ENDBRANCH  18  19
ENDBRANCH  17  18
ENDBRANCH  16  17
ENDBRANCH  15  16
ENDBRANCH   1  15
TORSDOF 22
ENDMDL
MODEL 4
REMARK VINA RESULT:    -4.343      3.606     11.031
REMARK INTER + INTRA:         -12.889
REMARK INTER:                 -10.280
REMARK INTRA:                  -2.609
REMARK UNBOUND:                -2.961
REMARK SMILES CCCCCCCCCCCCCCCCCCCCCCCC(=O)[O-]
REMARK SMILES IDX 13 1 14 2 15 3 16 4 17 5 18 6 19 7 20 8 21 9 22 10 23 11
REMARK SMILES IDX 24 12 25 13 26 14 12 15 11 16 10 17 9 18 8 19 7 20 6 21 5 22
REMARK SMILES IDX 4 23 3 24 2 25 1 26
REMARK H PARENT
REMARK Flexibility Score: inf
ROOT
ATOM      1  C   UNL     1      36.485  -6.364  13.686  1.00  0.00     0.000 C 
ENDROOT
BRANCH   1   2
ATOM      2  C   UNL     1      37.473  -7.178  12.824  1.00  0.00     0.000 C 
BRANCH   2   3
ATOM      3  C   UNL     1      36.817  -7.789  11.572  1.00  0.00     0.000 C 
BRANCH   3   4
ATOM      4  C   UNL     1      36.631  -9.317  11.702  1.00  0.00     0.000 C 
BRANCH   4   5
ATOM      5  C   UNL     1      37.338  -9.912  12.931  1.00  0.00     0.000 C 
BRANCH   5   6
ATOM      6  C   UNL     1      38.603 -10.704  12.562  1.00  0.00     0.000 C 
BRANCH   6   7
ATOM      7  C   UNL     1      38.688 -11.017  11.058  1.00  0.00     0.000 C 
BRANCH   7   8
ATOM      8  C   UNL     1      39.905 -10.354  10.389  1.00  0.00     0.000 C 
BRANCH   8   9
ATOM      9  C   UNL     1      39.531  -9.578   9.115  1.00  0.00     0.000 C 
BRANCH   9  10
ATOM     10  C   UNL     1      40.738  -8.874   8.474  1.00  0.00     0.006 C 
BRANCH  10  11
ATOM     11  C   UNL     1      40.363  -7.512   7.875  1.00  0.00     0.053 C 
BRANCH  11  12
ATOM     12  C   UNL     1      39.726  -6.613   8.892  1.00  0.00     0.041 C 
ATOM     13  O   UNL     1      40.396  -6.181   9.866  1.00  0.00    -0.550 OA
ATOM     14  O   UNL     1      38.399  -6.230   8.746  1.00  0.00    -0.550 OA
ENDBRANCH  11  12
ENDBRANCH  10  11
ENDBRANCH   9  10
ENDBRANCH   8   9
ENDBRANCH   7   8
ENDBRANCH   6   7
ENDBRANCH   5   6
ENDBRANCH   4   5
ENDBRANCH   3   4
ENDBRANCH   2   3
ENDBRANCH   1   2
BRANCH   1  15
ATOM     15  C   UNL     1      35.049  -6.922  13.696  1.00  0.00     0.000 C 
BRANCH  15  16
ATOM     16  C   UNL     1      34.743  -7.947  14.804  1.00  0.00     0.000 C 
BRANCH  16  17
ATOM     17  C   UNL     1      33.340  -8.580  14.735  1.00  0.00     0.000 C 
BRANCH  17  18
ATOM     18  C   UNL     1      32.290  -7.788  15.532  1.00  0.00    -0.000 C 
BRANCH  18  19
ATOM     19  C   UNL     1      31.708  -8.597  16.703  1.00  0.00    -0.000 C 
BRANCH  19  20
ATOM     20  C   UNL     1      32.464  -9.917  16.939  1.00  0.00    -0.000 C 
BRANCH  20  21
ATOM     21  C   UNL     1      33.488  -9.815  18.080  1.00  0.00    -0.000 C 
BRANCH  21  22
ATOM     22  C   UNL     1      33.300  -8.547  18.931  1.00  0.00    -0.000 C 
BRANCH  22  23
ATOM     23  C   UNL     1      34.586  -7.714  19.053  1.00  0.00    -0.000 C 
BRANCH  23  24
ATOM     24  C   UNL     1      34.611  -6.418  18.219  1.00  0.00    -0.000 C 
BRANCH  24  25
ATOM     25  C   UNL     1      34.910  -5.148  19.043  1.00  0.00    -0.003 C 
ATOM     26  C   UNL     1      34.195  -5.145  20.394  1.00  0.00     0.004 C 
ENDBRANCH  24  25
ENDBRANCH  23  24
ENDBRANCH  22  23
ENDBRANCH  21  22
ENDBRANCH  20  21
ENDBRANCH  19  20
ENDBRANCH  18  19
ENDBRANCH  17  18
ENDBRANCH  16  17
ENDBRANCH  15  16
ENDBRANCH   1  15
TORSDOF 22
ENDMDL
MODEL 5
REMARK VINA RESULT:    -4.341      4.055      9.436
REMARK INTER + INTRA:         -12.885
REMARK INTER:                 -10.234
REMARK INTRA:                  -2.651
REMARK UNBOUND:                -2.961
REMARK SMILES CCCCCCCCCCCCCCCCCCCCCCCC(=O)[O-]
REMARK SMILES IDX 13 1 14 2 15 3 16 4 17 5 18 6 19 7 20 8 21 9 22 10 23 11
REMARK SMILES IDX 24 12 25 13 26 14 12 15 11 16 10 17 9 18 8 19 7 20 6 21 5 22
REMARK SMILES IDX 4 23 3 24 2 25 1 26
REMARK H PARENT
REMARK Flexibility Score: inf
ROOT
ATOM      1  C   UNL     1      40.288  -6.625   8.713  1.00  0.00     0.000 C 
ENDROOT
BRANCH   1   2
ATOM      2  C   UNL     1      40.623  -7.876   7.874  1.00  0.00     0.000 C 
BRANCH   2   3
ATOM      3  C   UNL     1      41.874  -8.620   8.376  1.00  0.00     0.000 C 
BRANCH   3   4
ATOM      4  C   UNL     1      43.156  -8.150   7.655  1.00  0.00     0.000 C 
BRANCH   4   5
ATOM      5  C   UNL     1      43.779  -9.231   6.756  1.00  0.00     0.000 C 
BRANCH   5   6
ATOM      6  C   UNL     1      43.751  -8.853   5.266  1.00  0.00     0.000 C 
BRANCH   6   7
ATOM      7  C   UNL     1      42.395  -9.153   4.604  1.00  0.00     0.000 C 
BRANCH   7   8
ATOM      8  C   UNL     1      41.861  -7.960   3.793  1.00  0.00     0.000 C 
BRANCH   8   9
ATOM      9  C   UNL     1      41.390  -6.800   4.686  1.00  0.00     0.000 C 
BRANCH   9  10
ATOM     10  C   UNL     1      40.267  -5.972   4.039  1.00  0.00     0.006 C 
BRANCH  10  11
ATOM     11  C   UNL     1      40.773  -5.134   2.858  1.00  0.00     0.053 C 
BRANCH  11  12
ATOM     12  C   UNL     1      40.842  -3.676   3.197  1.00  0.00     0.041 C 
ATOM     13  O   UNL     1      41.956  -3.115   3.367  1.00  0.00    -0.550 OA
ATOM     14  O   UNL     1      39.674  -2.931   3.299  1.00  0.00    -0.550 OA
ENDBRANCH  11  12
ENDBRANCH  10  11
ENDBRANCH   9  10
ENDBRANCH   8   9
ENDBRANCH   7   8
ENDBRANCH   6   7
ENDBRANCH   5   6
ENDBRANCH   4   5
ENDBRANCH   3   4
ENDBRANCH   2   3
ENDBRANCH   1   2
BRANCH   1  15
ATOM     15  C   UNL     1      38.781  -6.326   8.826  1.00  0.00     0.000 C 
BRANCH  15  16
ATOM     16  C   UNL     1      38.016  -7.157   9.873  1.00  0.00     0.000 C 
BRANCH  16  17
ATOM     17  C   UNL     1      38.819  -7.508  11.140  1.00  0.00     0.000 C 
BRANCH  17  18
ATOM     18  C   UNL     1      39.170  -9.002  11.228  1.00  0.00    -0.000 C 
BRANCH  18  19
ATOM     19  C   UNL     1      38.024  -9.905  10.743  1.00  0.00    -0.000 C 
BRANCH  19  20
ATOM     20  C   UNL     1      36.827  -9.905  11.710  1.00  0.00    -0.000 C 
BRANCH  20  21
ATOM     21  C   UNL     1      37.243 -10.170  13.166  1.00  0.00    -0.000 C 
BRANCH  21  22
ATOM     22  C   UNL     1      36.074 -10.004  14.153  1.00  0.00    -0.000 C 
BRANCH  22  23
ATOM     23  C   UNL     1      34.864  -9.288  13.530  1.00  0.00    -0.000 C 
BRANCH  23  24
ATOM     24  C   UNL     1      34.639  -7.841  14.009  1.00  0.00    -0.000 C 
BRANCH  24  25
ATOM     25  C   UNL     1      35.358  -6.778  13.153  1.00  0.00    -0.003 C 
ATOM     26  C   UNL     1      36.673  -6.314  13.779  1.00  0.00     0.004 C 
ENDBRANCH  24  25
ENDBRANCH  23  24
ENDBRANCH  22  23
ENDBRANCH  21  22
ENDBRANCH  20  21
ENDBRANCH  19  20
ENDBRANCH  18  19
ENDBRANCH  17  18
ENDBRANCH  16  17
ENDBRANCH  15  16
ENDBRANCH   1  15
TORSDOF 22
ENDMDL
MODEL 6
REMARK VINA RESULT:    -4.329      1.601      2.946
REMARK INTER + INTRA:         -12.856
REMARK INTER:                 -10.351
REMARK INTRA:                  -2.505
REMARK UNBOUND:                -2.961
REMARK SMILES CCCCCCCCCCCCCCCCCCCCCCCC(=O)[O-]
REMARK SMILES IDX 13 1 14 2 15 3 16 4 17 5 18 6 19 7 20 8 21 9 22 10 23 11
REMARK SMILES IDX 24 12 25 13 26 14 12 15 11 16 10 17 9 18 8 19 7 20 6 21 5 22
REMARK SMILES IDX 4 23 3 24 2 25 1 26
REMARK H PARENT
REMARK Flexibility Score: inf
ROOT
ATOM      1  C   UNL     1      43.084  -7.919   7.618  1.00  0.00     0.000 C 
ENDROOT
BRANCH   1   2
ATOM      2  C   UNL     1      41.857  -8.743   8.062  1.00  0.00     0.000 C 
BRANCH   2   3
ATOM      3  C   UNL     1      40.658  -7.866   8.467  1.00  0.00     0.000 C 
BRANCH   3   4
ATOM      4  C   UNL     1      39.400  -8.710   8.772  1.00  0.00     0.000 C 
BRANCH   4   5
ATOM      5  C   UNL     1      38.575  -8.167   9.951  1.00  0.00     0.000 C 
BRANCH   5   6
ATOM      6  C   UNL     1      38.867  -8.904  11.268  1.00  0.00     0.000 C 
BRANCH   6   7
ATOM      7  C   UNL     1      37.726  -8.766  12.290  1.00  0.00     0.000 C 
BRANCH   7   8
ATOM      8  C   UNL     1      37.081  -7.370  12.264  1.00  0.00     0.000 C 
BRANCH   8   9
ATOM      9  C   UNL     1      37.222  -6.628  13.603  1.00  0.00     0.000 C 
BRANCH   9  10
ATOM     10  C   UNL     1      35.922  -6.636  14.425  1.00  0.00     0.006 C 
BRANCH  10  11
ATOM     11  C   UNL     1      34.741  -7.212  13.634  1.00  0.00     0.053 C 
BRANCH  11  12
ATOM     12  C   UNL     1      34.145  -8.408  14.313  1.00  0.00     0.041 C 
ATOM     13  O   UNL     1      34.825  -9.457  14.463  1.00  0.00    -0.550 OA
ATOM     14  O   UNL     1      32.847  -8.354  14.805  1.00  0.00    -0.550 OA
ENDBRANCH  11  12
ENDBRANCH  10  11
ENDBRANCH   9  10
ENDBRANCH   8   9
ENDBRANCH   7   8
ENDBRANCH   6   7
ENDBRANCH   5   6
ENDBRANCH   4   5
ENDBRANCH   3   4
ENDBRANCH   2   3
ENDBRANCH   1   2
BRANCH   1  15
ATOM     15  C   UNL     1      44.438  -8.549   7.997  1.00  0.00     0.000 C 
BRANCH  15  16
ATOM     16  C   UNL     1      44.481 -10.089   7.985  1.00  0.00     0.000 C 
BRANCH  16  17
ATOM     17  C   UNL     1      45.605 -10.702   7.129  1.00  0.00     0.000 C 
BRANCH  17  18
ATOM     18  C   UNL     1      45.133 -11.096   5.719  1.00  0.00    -0.000 C 
BRANCH  18  19
ATOM     19  C   UNL     1      45.362  -9.978   4.689  1.00  0.00    -0.000 C 
BRANCH  19  20
ATOM     20  C   UNL     1      44.068  -9.215   4.353  1.00  0.00    -0.000 C 
BRANCH  20  21
ATOM     21  C   UNL     1      42.814 -10.093   4.479  1.00  0.00    -0.000 C 
BRANCH  21  22
ATOM     22  C   UNL     1      41.512  -9.275   4.415  1.00  0.00    -0.000 C 
BRANCH  22  23
ATOM     23  C   UNL     1      41.739  -7.830   3.941  1.00  0.00    -0.000 C 
BRANCH  23  24
ATOM     24  C   UNL     1      40.876  -6.765   4.646  1.00  0.00    -0.000 C 
BRANCH  24  25
ATOM     25  C   UNL     1      40.832  -5.408   3.913  1.00  0.00    -0.003 C 
ATOM     26  C   UNL     1      40.972  -5.556   2.397  1.00  0.00     0.004 C 
ENDBRANCH  24  25
ENDBRANCH  23  24
ENDBRANCH  22  23
ENDBRANCH  21  22
ENDBRANCH  20  21
ENDBRANCH  19  20
ENDBRANCH  18  19
ENDBRANCH  17  18
ENDBRANCH  16  17
ENDBRANCH  15  16
ENDBRANCH   1  15
TORSDOF 22
ENDMDL
MODEL 7
REMARK VINA RESULT:    -4.327      1.420      2.197
REMARK INTER + INTRA:         -12.853
REMARK INTER:                  -9.828
REMARK INTRA:                  -3.025
REMARK UNBOUND:                -2.961
REMARK SMILES CCCCCCCCCCCCCCCCCCCCCCCC(=O)[O-]
REMARK SMILES IDX 13 1 14 2 15 3 16 4 17 5 18 6 19 7 20 8 21 9 22 10 23 11
REMARK SMILES IDX 24 12 25 13 26 14 12 15 11 16 10 17 9 18 8 19 7 20 6 21 5 22
REMARK SMILES IDX 4 23 3 24 2 25 1 26
REMARK H PARENT
REMARK Flexibility Score: inf
ROOT
ATOM      1  C   UNL     1      40.390  -6.932   9.830  1.00  0.00     0.000 C 
ENDROOT
BRANCH   1   2
ATOM      2  C   UNL     1      38.928  -6.625   9.446  1.00  0.00     0.000 C 
BRANCH   2   3
ATOM      3  C   UNL     1      37.905  -7.331  10.355  1.00  0.00     0.000 C 
BRANCH   3   4
ATOM      4  C   UNL     1      38.542  -7.814  11.678  1.00  0.00     0.000 C 
BRANCH   4   5
ATOM      5  C   UNL     1      38.774  -9.333  11.722  1.00  0.00     0.000 C 
BRANCH   5   6
ATOM      6  C   UNL     1      37.690 -10.121  10.967  1.00  0.00     0.000 C 
BRANCH   6   7
ATOM      7  C   UNL     1      36.334 -10.107  11.692  1.00  0.00     0.000 C 
BRANCH   7   8
ATOM      8  C   UNL     1      36.451 -10.537  13.164  1.00  0.00     0.000 C 
BRANCH   8   9
ATOM      9  C   UNL     1      35.411  -9.852  14.066  1.00  0.00     0.000 C 
BRANCH   9  10
ATOM     10  C   UNL     1      35.113  -8.406  13.635  1.00  0.00     0.006 C 
BRANCH  10  11
ATOM     11  C   UNL     1      35.416  -7.396  14.750  1.00  0.00     0.053 C 
BRANCH  11  12
ATOM     12  C   UNL     1      34.332  -7.367  15.785  1.00  0.00     0.041 C 
ATOM     13  O   UNL     1      33.166  -7.741  15.495  1.00  0.00    -0.550 OA
ATOM     14  O   UNL     1      34.619  -6.952  17.079  1.00  0.00    -0.550 OA
ENDBRANCH  11  12
ENDBRANCH  10  11
ENDBRANCH   9  10
ENDBRANCH   8   9
ENDBRANCH   7   8
ENDBRANCH   6   7
ENDBRANCH   5   6
ENDBRANCH   4   5
ENDBRANCH   3   4
ENDBRANCH   2   3
ENDBRANCH   1   2
BRANCH   1  15
ATOM     15  C   UNL     1      41.169  -7.725   8.764  1.00  0.00     0.000 C 
BRANCH  15  16
ATOM     16  C   UNL     1      40.551  -9.076   8.357  1.00  0.00     0.000 C 
BRANCH  16  17
ATOM     17  C   UNL     1      41.238 -10.315   8.960  1.00  0.00     0.000 C 
BRANCH  17  18
ATOM     18  C   UNL     1      42.280 -10.937   8.016  1.00  0.00    -0.000 C 
BRANCH  18  19
ATOM     19  C   UNL     1      43.722 -10.716   8.503  1.00  0.00    -0.000 C 
BRANCH  19  20
ATOM     20  C   UNL     1      44.378  -9.484   7.855  1.00  0.00    -0.000 C 
BRANCH  20  21
ATOM     21  C   UNL     1      44.919  -9.775   6.446  1.00  0.00    -0.000 C 
BRANCH  21  22
ATOM     22  C   UNL     1      44.283  -8.875   5.372  1.00  0.00    -0.000 C 
BRANCH  22  23
ATOM     23  C   UNL     1      43.138  -9.568   4.615  1.00  0.00    -0.000 C 
BRANCH  23  24
ATOM     24  C   UNL     1      41.791  -8.819   4.632  1.00  0.00    -0.000 C 
BRANCH  24  25
ATOM     25  C   UNL     1      41.844  -7.451   5.345  1.00  0.00    -0.003 C 
ATOM     26  C   UNL     1      40.672  -6.546   4.963  1.00  0.00     0.004 C 
ENDBRANCH  24  25
ENDBRANCH  23  24
ENDBRANCH  22  23
ENDBRANCH  21  22
ENDBRANCH  20  21
ENDBRANCH  19  20
ENDBRANCH  18  19
ENDBRANCH  17  18
ENDBRANCH  16  17
ENDBRANCH  15  16
ENDBRANCH   1  15
TORSDOF 22
ENDMDL
MODEL 8
REMARK VINA RESULT:    -4.318      1.650      3.223
REMARK INTER + INTRA:         -12.832
REMARK INTER:                 -10.967
REMARK INTRA:                  -1.865
REMARK UNBOUND:                -2.961
REMARK SMILES CCCCCCCCCCCCCCCCCCCCCCCC(=O)[O-]
REMARK SMILES IDX 13 1 14 2 15 3 16 4 17 5 18 6 19 7 20 8 21 9 22 10 23 11
REMARK SMILES IDX 24 12 25 13 26 14 12 15 11 16 10 17 9 18 8 19 7 20 6 21 5 22
REMARK SMILES IDX 4 23 3 24 2 25 1 26
REMARK H PARENT
REMARK Flexibility Score: inf
ROOT
ATOM      1  C   UNL     1      40.179  -7.008   7.504  1.00  0.00     0.000 C 
ENDROOT
BRANCH   1   2
ATOM      2  C   UNL     1      39.629  -6.375   8.800  1.00  0.00     0.000 C 
BRANCH   2   3
ATOM      3  C   UNL     1      40.307  -6.920  10.070  1.00  0.00     0.000 C 
BRANCH   3   4
ATOM      4  C   UNL     1      39.309  -7.660  10.987  1.00  0.00     0.000 C 
BRANCH   4   5
ATOM      5  C   UNL     1      37.907  -7.800  10.372  1.00  0.00     0.000 C 
BRANCH   5   6
ATOM      6  C   UNL     1      36.830  -8.127  11.420  1.00  0.00     0.000 C 
BRANCH   6   7
ATOM      7  C   UNL     1      37.284  -7.812  12.855  1.00  0.00     0.000 C 
BRANCH   7   8
ATOM      8  C   UNL     1      36.817  -6.424  13.327  1.00  0.00     0.000 C 
BRANCH   8   9
ATOM      9  C   UNL     1      36.134  -6.465  14.703  1.00  0.00     0.000 C 
BRANCH   9  10
ATOM     10  C   UNL     1      35.345  -7.765  14.935  1.00  0.00     0.006 C 
BRANCH  10  11
ATOM     11  C   UNL     1      33.996  -7.761  14.204  1.00  0.00     0.053 C 
BRANCH  11  12
ATOM     12  C   UNL     1      32.870  -8.157  15.111  1.00  0.00     0.041 C 
ATOM     13  O   UNL     1      32.003  -8.983  14.725  1.00  0.00    -0.550 OA
ATOM     14  O   UNL     1      32.795  -7.632  16.395  1.00  0.00    -0.550 OA
ENDBRANCH  11  12
ENDBRANCH  10  11
ENDBRANCH   9  10
ENDBRANCH   8   9
ENDBRANCH   7   8
ENDBRANCH   6   7
ENDBRANCH   5   6
ENDBRANCH   4   5
ENDBRANCH   3   4
ENDBRANCH   2   3
ENDBRANCH   1   2
BRANCH   1  15
ATOM     15  C   UNL     1      41.439  -7.870   7.709  1.00  0.00     0.000 C 
BRANCH  15  16
ATOM     16  C   UNL     1      41.762  -8.856   6.570  1.00  0.00     0.000 C 
BRANCH  16  17
ATOM     17  C   UNL     1      43.097  -8.601   5.847  1.00  0.00     0.000 C 
BRANCH  17  18
ATOM     18  C   UNL     1      42.979  -8.720   4.318  1.00  0.00    -0.000 C 
BRANCH  18  19
ATOM     19  C   UNL     1      41.528  -8.578   3.829  1.00  0.00    -0.000 C 
BRANCH  19  20
ATOM     20  C   UNL     1      41.262  -7.215   3.166  1.00  0.00    -0.000 C 
BRANCH  20  21
ATOM     21  C   UNL     1      40.897  -6.123   4.184  1.00  0.00    -0.000 C 
BRANCH  21  22
ATOM     22  C   UNL     1      40.808  -4.726   3.545  1.00  0.00    -0.000 C 
BRANCH  22  23
ATOM     23  C   UNL     1      41.318  -4.700   2.095  1.00  0.00    -0.000 C 
BRANCH  23  24
ATOM     24  C   UNL     1      40.592  -3.711   1.162  1.00  0.00    -0.000 C 
BRANCH  24  25
ATOM     25  C   UNL     1      39.142  -3.398   1.586  1.00  0.00    -0.003 C 
ATOM     26  C   UNL     1      38.125  -4.335   0.935  1.00  0.00     0.004 C 
ENDBRANCH  24  25
ENDBRANCH  23  24
ENDBRANCH  22  23
ENDBRANCH  21  22
ENDBRANCH  20  21
ENDBRANCH  19  20
ENDBRANCH  18  19
ENDBRANCH  17  18
ENDBRANCH  16  17
ENDBRANCH  15  16
ENDBRANCH   1  15
TORSDOF 22
ENDMDL
MODEL 9
REMARK VINA RESULT:    -4.206      4.169     10.196
REMARK INTER + INTRA:         -12.577
REMARK INTER:                  -9.954
REMARK INTRA:                  -2.623
REMARK UNBOUND:                -2.961
REMARK SMILES CCCCCCCCCCCCCCCCCCCCCCCC(=O)[O-]
REMARK SMILES IDX 13 1 14 2 15 3 16 4 17 5 18 6 19 7 20 8 21 9 22 10 23 11
REMARK SMILES IDX 24 12 25 13 26 14 12 15 11 16 10 17 9 18 8 19 7 20 6 21 5 22
REMARK SMILES IDX 4 23 3 24 2 25 1 26
REMARK H PARENT
REMARK Flexibility Score: inf
ROOT
ATOM      1  C   UNL     1      37.944  -7.163  10.511  1.00  0.00     0.000 C 
ENDROOT
BRANCH   1   2
ATOM      2  C   UNL     1      38.465  -6.628   9.161  1.00  0.00     0.000 C 
BRANCH   2   3
ATOM      3  C   UNL     1      39.998  -6.484   9.122  1.00  0.00     0.000 C 
BRANCH   3   4
ATOM      4  C   UNL     1      40.637  -7.376   8.035  1.00  0.00     0.000 C 
BRANCH   4   5
ATOM      5  C   UNL     1      41.142  -8.724   8.575  1.00  0.00     0.000 C 
BRANCH   5   6
ATOM      6  C   UNL     1      42.517  -9.113   8.007  1.00  0.00     0.000 C 
BRANCH   6   7
ATOM      7  C   UNL     1      43.158  -7.984   7.181  1.00  0.00     0.000 C 
BRANCH   7   8
ATOM      8  C   UNL     1      43.438  -8.405   5.728  1.00  0.00     0.000 C 
BRANCH   8   9
ATOM      9  C   UNL     1      42.211  -9.033   5.047  1.00  0.00     0.000 C 
BRANCH   9  10
ATOM     10  C   UNL     1      41.714  -8.210   3.846  1.00  0.00     0.006 C 
BRANCH  10  11
ATOM     11  C   UNL     1      40.963  -6.945   4.284  1.00  0.00     0.053 C 
BRANCH  11  12
ATOM     12  C   UNL     1      40.904  -5.925   3.187  1.00  0.00     0.041 C 
ATOM     13  O   UNL     1      41.389  -6.180   2.054  1.00  0.00    -0.550 OA
ATOM     14  O   UNL     1      40.287  -4.700   3.411  1.00  0.00    -0.550 OA
ENDBRANCH  11  12
ENDBRANCH  10  11
ENDBRANCH   9  10
ENDBRANCH   8   9
ENDBRANCH   7   8
ENDBRANCH   6   7
ENDBRANCH   5   6
ENDBRANCH   4   5
ENDBRANCH   3   4
ENDBRANCH   2   3
ENDBRANCH   1   2
BRANCH   1  15
ATOM     15  C   UNL     1      39.044  -7.709  11.440  1.00  0.00     0.000 C 
BRANCH  15  16
ATOM     16  C   UNL     1      39.058  -9.238  11.626  1.00  0.00     0.000 C 
BRANCH  16  17
ATOM     17  C   UNL     1      37.981 -10.001  10.832  1.00  0.00     0.000 C 
BRANCH  17  18
ATOM     18  C   UNL     1      36.876 -10.579  11.731  1.00  0.00    -0.000 C 
BRANCH  18  19
ATOM     19  C   UNL     1      37.209 -10.453  13.227  1.00  0.00    -0.000 C 
BRANCH  19  20
ATOM     20  C   UNL     1      36.119  -9.700  14.010  1.00  0.00    -0.000 C 
BRANCH  20  21
ATOM     21  C   UNL     1      35.990  -8.230  13.579  1.00  0.00    -0.000 C 
BRANCH  21  22
ATOM     22  C   UNL     1      34.586  -7.660  13.844  1.00  0.00    -0.000 C 
BRANCH  22  23
ATOM     23  C   UNL     1      33.952  -8.209  15.132  1.00  0.00    -0.000 C 
BRANCH  23  24
ATOM     24  C   UNL     1      32.465  -7.855  15.335  1.00  0.00    -0.000 C 
BRANCH  24  25
ATOM     25  C   UNL     1      31.531  -9.081  15.393  1.00  0.00    -0.003 C 
ATOM     26  C   UNL     1      32.125 -10.304  14.694  1.00  0.00     0.004 C 
ENDBRANCH  24  25
ENDBRANCH  23  24
ENDBRANCH  22  23
ENDBRANCH  21  22
ENDBRANCH  20  21
ENDBRANCH  19  20
ENDBRANCH  18  19
ENDBRANCH  17  18
ENDBRANCH  16  17
ENDBRANCH  15  16
ENDBRANCH   1  15
TORSDOF 22
ENDMDL
