MODEL 1
REMARK VINA RESULT:    -5.294      0.000      0.000
REMARK INTER + INTRA:         -17.058
REMARK INTER:                 -13.961
REMARK INTRA:                  -3.098
REMARK UNBOUND:                -3.098
REMARK SMILES CCCCCCCCCCCCCCCCCCCCCCCCCCCCCC(=O)[O-]
REMARK SMILES IDX 16 1 17 2 18 3 19 4 20 5 21 6 22 7 23 8 24 9 25 10 26 11
REMARK SMILES IDX 27 12 28 13 29 14 30 15 31 16 32 17 15 18 14 19 13 20 12 21
REMARK SMILES IDX 11 22 10 23 9 24 8 25 7 26 6 27 5 28 4 29 3 30 2 31 1 32
REMARK H PARENT
REMARK Flexibility Score: inf
ROOT
ATOM      1  C   UNL     1      30.023  -3.243  30.344  1.00  0.00     0.000 C 
ENDROOT
BRANCH   1   2
ATOM      2  C   UNL     1      29.057  -4.356  29.874  1.00  0.00     0.000 C 
BRANCH   2   3
ATOM      3  C   UNL     1      27.916  -4.632  30.870  1.00  0.00     0.000 C 
BRANCH   3   4
ATOM      4  C   UNL     1      26.569  -4.996  30.216  1.00  0.00     0.000 C 
BRANCH   4   5
ATOM      5  C   UNL     1      25.460  -3.979  30.531  1.00  0.00     0.000 C 
BRANCH   5   6
ATOM      6  C   UNL     1      24.047  -4.527  30.249  1.00  0.00     0.000 C 
BRANCH   6   7
ATOM      7  C   UNL     1      22.885  -3.691  30.820  1.00  0.00     0.000 C 
BRANCH   7   8
ATOM      8  C   UNL     1      23.072  -2.176  30.618  1.00  0.00     0.000 C 
BRANCH   8   9
ATOM      9  C   UNL     1      21.874  -1.510  29.921  1.00  0.00     0.000 C 
BRANCH   9  10
ATOM     10  C   UNL     1      21.004  -2.455  29.074  1.00  0.00     0.000 C 
BRANCH  10  11
ATOM     11  C   UNL     1      21.195  -2.255  27.563  1.00  0.00     0.000 C 
BRANCH  11  12
ATOM     12  C   UNL     1      21.272  -0.763  27.216  1.00  0.00     0.000 C 
BRANCH  12  13
ATOM     13  C   UNL     1      22.192  -0.525  26.009  1.00  0.00     0.006 C 
BRANCH  13  14
ATOM     14  C   UNL     1      22.658   0.934  25.908  1.00  0.00     0.053 C 
BRANCH  14  15
ATOM     15  C   UNL     1      24.155   1.042  25.917  1.00  0.00     0.041 C 
ATOM     16  O   UNL     1      24.864   0.042  26.210  1.00  0.00    -0.550 OA
ATOM     17  O   UNL     1      24.767   2.259  25.643  1.00  0.00    -0.550 OA
ENDBRANCH  14  15
ENDBRANCH  13  14
ENDBRANCH  12  13
ENDBRANCH  11  12
ENDBRANCH  10  11
ENDBRANCH   9  10
ENDBRANCH   8   9
ENDBRANCH   7   8
ENDBRANCH   6   7
ENDBRANCH   5   6
ENDBRANCH   4   5
ENDBRANCH   3   4
ENDBRANCH   2   3
ENDBRANCH   1   2
BRANCH   1  18
ATOM     18  C   UNL     1      29.424  -1.846  30.120  1.00  0.00     0.000 C 
BRANCH  18  19
ATOM     19  C   UNL     1      29.394  -1.035  31.427  1.00  0.00     0.000 C 
BRANCH  19  20
ATOM     20  C   UNL     1      28.249   0.001  31.431  1.00  0.00     0.000 C 
BRANCH  20  21
ATOM     21  C   UNL     1      26.904  -0.563  30.929  1.00  0.00     0.000 C 
BRANCH  21  22
ATOM     22  C   UNL     1      26.431   0.001  29.576  1.00  0.00     0.000 C 
BRANCH  22  23
ATOM     23  C   UNL     1      27.399   1.041  28.985  1.00  0.00     0.000 C 
BRANCH  23  24
ATOM     24  C   UNL     1      26.693   2.354  28.610  1.00  0.00    -0.000 C 
BRANCH  24  25
ATOM     25  C   UNL     1      27.483   3.603  29.031  1.00  0.00    -0.000 C 
BRANCH  25  26
ATOM     26  C   UNL     1      27.778   3.587  30.534  1.00  0.00    -0.000 C 
BRANCH  26  27
ATOM     27  C   UNL     1      28.281   4.957  31.008  1.00  0.00    -0.000 C 
BRANCH  27  28
ATOM     28  C   UNL     1      28.565   5.880  29.819  1.00  0.00    -0.000 C 
BRANCH  28  29
ATOM     29  C   UNL     1      28.406   7.356  30.215  1.00  0.00    -0.000 C 
BRANCH  29  30
ATOM     30  C   UNL     1      26.980   7.696  30.683  1.00  0.00    -0.000 C 
BRANCH  30  31
ATOM     31  C   UNL     1      26.428   8.967  30.022  1.00  0.00    -0.003 C 
ATOM     32  C   UNL     1      27.543   9.763  29.345  1.00  0.00     0.004 C 
ENDBRANCH  30  31
ENDBRANCH  29  30
ENDBRANCH  28  29
ENDBRANCH  27  28
ENDBRANCH  26  27
ENDBRANCH  25  26
ENDBRANCH  24  25
ENDBRANCH  23  24
ENDBRANCH  22  23
ENDBRANCH  21  22
ENDBRANCH  20  21
ENDBRANCH  19  20
ENDBRANCH  18  19
ENDBRANCH   1  18
TORSDOF 28
ENDMDL
MODEL 2
REMARK VINA RESULT:    -5.126      4.090      8.303
REMARK INTER + INTRA:         -16.615
REMARK INTER:                 -13.140
REMARK INTRA:                  -3.475
REMARK UNBOUND:                -3.098
REMARK SMILES CCCCCCCCCCCCCCCCCCCCCCCCCCCCCC(=O)[O-]
REMARK SMILES IDX 16 1 17 2 18 3 19 4 20 5 21 6 22 7 23 8 24 9 25 10 26 11
REMARK SMILES IDX 27 12 28 13 29 14 30 15 31 16 32 17 15 18 14 19 13 20 12 21
REMARK SMILES IDX 11 22 10 23 9 24 8 25 7 26 6 27 5 28 4 29 3 30 2 31 1 32
REMARK H PARENT
REMARK Flexibility Score: inf
ROOT
ATOM      1  C   UNL     1      27.989   2.688  29.306  1.00  0.00     0.000 C 
ENDROOT
BRANCH   1   2
ATOM      2  C   UNL     1      28.345   2.972  30.784  1.00  0.00     0.000 C 
BRANCH   2   3
ATOM      3  C   UNL     1      28.287   1.719  31.676  1.00  0.00     0.000 C 
BRANCH   3   4
ATOM      4  C   UNL     1      29.586   0.891  31.703  1.00  0.00     0.000 C 
BRANCH   4   5
ATOM      5  C   UNL     1      29.344  -0.607  31.451  1.00  0.00     0.000 C 
BRANCH   5   6
ATOM      6  C   UNL     1      30.000  -1.110  30.151  1.00  0.00     0.000 C 
BRANCH   6   7
ATOM      7  C   UNL     1      29.265  -2.262  29.439  1.00  0.00     0.000 C 
BRANCH   7   8
ATOM      8  C   UNL     1      29.113  -3.518  30.317  1.00  0.00     0.000 C 
BRANCH   8   9
ATOM      9  C   UNL     1      27.645  -3.864  30.622  1.00  0.00     0.000 C 
BRANCH   9  10
ATOM     10  C   UNL     1      27.251  -5.327  30.354  1.00  0.00     0.000 C 
BRANCH  10  11
ATOM     11  C   UNL     1      28.423  -6.306  30.524  1.00  0.00     0.000 C 
BRANCH  11  12
ATOM     12  C   UNL     1      28.954  -6.762  29.159  1.00  0.00     0.000 C 
BRANCH  12  13
ATOM     13  C   UNL     1      29.079  -8.292  29.101  1.00  0.00     0.006 C 
BRANCH  13  14
ATOM     14  C   UNL     1      28.090  -8.996  30.039  1.00  0.00     0.053 C 
BRANCH  14  15
ATOM     15  C   UNL     1      28.792  -9.686  31.173  1.00  0.00     0.041 C 
ATOM     16  O   UNL     1      30.025  -9.935  31.101  1.00  0.00    -0.550 OA
ATOM     17  O   UNL     1      28.075 -10.093  32.291  1.00  0.00    -0.550 OA
ENDBRANCH  14  15
ENDBRANCH  13  14
ENDBRANCH  12  13
ENDBRANCH  11  12
ENDBRANCH  10  11
ENDBRANCH   9  10
ENDBRANCH   8   9
ENDBRANCH   7   8
ENDBRANCH   6   7
ENDBRANCH   5   6
ENDBRANCH   4   5
ENDBRANCH   3   4
ENDBRANCH   2   3
ENDBRANCH   1   2
BRANCH   1  18
ATOM     18  C   UNL     1      26.803   1.718  29.188  1.00  0.00     0.000 C 
BRANCH  18  19
ATOM     19  C   UNL     1      27.221   0.405  28.504  1.00  0.00     0.000 C 
BRANCH  19  20
ATOM     20  C   UNL     1      26.185  -0.716  28.737  1.00  0.00     0.000 C 
BRANCH  20  21
ATOM     21  C   UNL     1      25.557  -0.694  30.145  1.00  0.00     0.000 C 
BRANCH  21  22
ATOM     22  C   UNL     1      24.571  -1.843  30.431  1.00  0.00     0.000 C 
BRANCH  22  23
ATOM     23  C   UNL     1      23.102  -1.385  30.450  1.00  0.00     0.000 C 
BRANCH  23  24
ATOM     24  C   UNL     1      22.120  -2.558  30.295  1.00  0.00    -0.000 C 
BRANCH  24  25
ATOM     25  C   UNL     1      21.220  -2.429  29.057  1.00  0.00    -0.000 C 
BRANCH  25  26
ATOM     26  C   UNL     1      20.856  -0.965  28.790  1.00  0.00    -0.000 C 
BRANCH  26  27
ATOM     27  C   UNL     1      20.734  -0.695  27.285  1.00  0.00    -0.000 C 
BRANCH  27  28
ATOM     28  C   UNL     1      22.068  -0.946  26.573  1.00  0.00    -0.000 C 
BRANCH  28  29
ATOM     29  C   UNL     1      22.630   0.357  25.981  1.00  0.00    -0.000 C 
BRANCH  29  30
ATOM     30  C   UNL     1      24.150   0.298  25.750  1.00  0.00    -0.000 C 
BRANCH  30  31
ATOM     31  C   UNL     1      24.834   1.655  25.964  1.00  0.00    -0.003 C 
ATOM     32  C   UNL     1      23.888   2.806  25.627  1.00  0.00     0.004 C 
ENDBRANCH  30  31
ENDBRANCH  29  30
ENDBRANCH  28  29
ENDBRANCH  27  28
ENDBRANCH  26  27
ENDBRANCH  25  26
ENDBRANCH  24  25
ENDBRANCH  23  24
ENDBRANCH  22  23
ENDBRANCH  21  22
ENDBRANCH  20  21
ENDBRANCH  19  20
ENDBRANCH  18  19
ENDBRANCH   1  18
TORSDOF 28
ENDMDL
MODEL 3
REMARK VINA RESULT:    -5.089      2.455      8.829
REMARK INTER + INTRA:         -16.516
REMARK INTER:                 -13.932
REMARK INTRA:                  -2.584
REMARK UNBOUND:                -3.098
REMARK SMILES CCCCCCCCCCCCCCCCCCCCCCCCCCCCCC(=O)[O-]
REMARK SMILES IDX 16 1 17 2 18 3 19 4 20 5 21 6 22 7 23 8 24 9 25 10 26 11
REMARK SMILES IDX 27 12 28 13 29 14 30 15 31 16 32 17 15 18 14 19 13 20 12 21
REMARK SMILES IDX 11 22 10 23 9 24 8 25 7 26 6 27 5 28 4 29 3 30 2 31 1 32
REMARK H PARENT
REMARK Flexibility Score: inf
ROOT
ATOM      1  C   UNL     1      29.221   2.557  32.111  1.00  0.00     0.000 C 
ENDROOT
BRANCH   1   2
ATOM      2  C   UNL     1      28.223   3.709  31.845  1.00  0.00     0.000 C 
BRANCH   2   3
ATOM      3  C   UNL     1      28.865   4.923  31.150  1.00  0.00     0.000 C 
BRANCH   3   4
ATOM      4  C   UNL     1      28.143   5.383  29.868  1.00  0.00     0.000 C 
BRANCH   4   5
ATOM      5  C   UNL     1      26.936   4.499  29.514  1.00  0.00     0.000 C 
BRANCH   5   6
ATOM      6  C   UNL     1      27.275   3.409  28.478  1.00  0.00     0.000 C 
BRANCH   6   7
ATOM      7  C   UNL     1      26.115   2.466  28.103  1.00  0.00     0.000 C 
BRANCH   7   8
ATOM      8  C   UNL     1      25.213   3.028  26.989  1.00  0.00     0.000 C 
BRANCH   8   9
ATOM      9  C   UNL     1      24.912   2.000  25.884  1.00  0.00     0.000 C 
BRANCH   9  10
ATOM     10  C   UNL     1      24.789   0.543  26.365  1.00  0.00     0.000 C 
BRANCH  10  11
ATOM     11  C   UNL     1      23.668  -0.231  25.656  1.00  0.00     0.000 C 
BRANCH  11  12
ATOM     12  C   UNL     1      22.291   0.254  26.122  1.00  0.00     0.000 C 
BRANCH  12  13
ATOM     13  C   UNL     1      21.447  -0.912  26.658  1.00  0.00     0.006 C 
BRANCH  13  14
ATOM     14  C   UNL     1      20.873  -0.626  28.052  1.00  0.00     0.053 C 
BRANCH  14  15
ATOM     15  C   UNL     1      21.304  -1.657  29.055  1.00  0.00     0.041 C 
ATOM     16  O   UNL     1      22.042  -1.332  30.025  1.00  0.00    -0.550 OA
ATOM     17  O   UNL     1      20.928  -2.984  28.895  1.00  0.00    -0.550 OA
ENDBRANCH  14  15
ENDBRANCH  13  14
ENDBRANCH  12  13
ENDBRANCH  11  12
ENDBRANCH  10  11
ENDBRANCH   9  10
ENDBRANCH   8   9
ENDBRANCH   7   8
ENDBRANCH   6   7
ENDBRANCH   5   6
ENDBRANCH   4   5
ENDBRANCH   3   4
ENDBRANCH   2   3
ENDBRANCH   1   2
BRANCH   1  18
ATOM     18  C   UNL     1      28.757   1.248  31.456  1.00  0.00     0.000 C 
BRANCH  18  19
ATOM     19  C   UNL     1      29.888   0.206  31.427  1.00  0.00     0.000 C 
BRANCH  19  20
ATOM     20  C   UNL     1      30.273  -0.182  29.982  1.00  0.00     0.000 C 
BRANCH  20  21
ATOM     21  C   UNL     1      29.086  -0.149  28.997  1.00  0.00     0.000 C 
BRANCH  21  22
ATOM     22  C   UNL     1      28.403  -1.510  28.763  1.00  0.00     0.000 C 
BRANCH  22  23
ATOM     23  C   UNL     1      27.274  -1.798  29.769  1.00  0.00     0.000 C 
BRANCH  23  24
ATOM     24  C   UNL     1      27.732  -2.709  30.920  1.00  0.00    -0.000 C 
BRANCH  24  25
ATOM     25  C   UNL     1      27.821  -4.188  30.516  1.00  0.00    -0.000 C 
BRANCH  25  26
ATOM     26  C   UNL     1      29.230  -4.544  30.033  1.00  0.00    -0.000 C 
BRANCH  26  27
ATOM     27  C   UNL     1      29.643  -5.938  30.525  1.00  0.00    -0.000 C 
BRANCH  27  28
ATOM     28  C   UNL     1      28.613  -6.499  31.511  1.00  0.00    -0.000 C 
BRANCH  28  29
ATOM     29  C   UNL     1      28.578  -8.035  31.456  1.00  0.00    -0.000 C 
BRANCH  29  30
ATOM     30  C   UNL     1      29.808  -8.633  30.751  1.00  0.00    -0.000 C 
BRANCH  30  31
ATOM     31  C   UNL     1      29.432  -9.525  29.560  1.00  0.00    -0.003 C 
ATOM     32  C   UNL     1      27.937  -9.839  29.559  1.00  0.00     0.004 C 
ENDBRANCH  30  31
ENDBRANCH  29  30
ENDBRANCH  28  29
ENDBRANCH  27  28
ENDBRANCH  26  27
ENDBRANCH  25  26
ENDBRANCH  24  25
ENDBRANCH  23  24
ENDBRANCH  22  23
ENDBRANCH  21  22
ENDBRANCH  20  21
ENDBRANCH  19  20
ENDBRANCH  18  19
ENDBRANCH   1  18
TORSDOF 28
ENDMDL
MODEL 4
REMARK VINA RESULT:    -5.059      2.193      4.094
REMARK INTER + INTRA:         -16.438
REMARK INTER:                 -13.117
REMARK INTRA:                  -3.321
REMARK UNBOUND:                -3.098
REMARK SMILES CCCCCCCCCCCCCCCCCCCCCCCCCCCCCC(=O)[O-]
REMARK SMILES IDX 16 1 17 2 18 3 19 4 20 5 21 6 22 7 23 8 24 9 25 10 26 11
REMARK SMILES IDX 27 12 28 13 29 14 30 15 31 16 32 17 15 18 14 19 13 20 12 21
REMARK SMILES IDX 11 22 10 23 9 24 8 25 7 26 6 27 5 28 4 29 3 30 2 31 1 32
REMARK H PARENT
REMARK Flexibility Score: inf
ROOT
ATOM      1  C   UNL     1      27.375  -2.476  29.826  1.00  0.00     0.000 C 
ENDROOT
BRANCH   1   2
ATOM      2  C   UNL     1      26.600  -1.431  30.662  1.00  0.00     0.000 C 
BRANCH   2   3
ATOM      3  C   UNL     1      25.930  -0.341  29.806  1.00  0.00     0.000 C 
BRANCH   3   4
ATOM      4  C   UNL     1      26.361  -0.333  28.327  1.00  0.00     0.000 C 
BRANCH   4   5
ATOM      5  C   UNL     1      25.583   0.692  27.485  1.00  0.00     0.000 C 
BRANCH   5   6
ATOM      6  C   UNL     1      24.849   0.053  26.291  1.00  0.00     0.000 C 
BRANCH   6   7
ATOM      7  C   UNL     1      23.438   0.606  26.006  1.00  0.00     0.000 C 
BRANCH   7   8
ATOM      8  C   UNL     1      22.378  -0.498  25.839  1.00  0.00     0.000 C 
BRANCH   8   9
ATOM      9  C   UNL     1      21.439  -0.617  27.052  1.00  0.00     0.000 C 
BRANCH   9  10
ATOM     10  C   UNL     1      20.982  -2.049  27.384  1.00  0.00     0.000 C 
BRANCH  10  11
ATOM     11  C   UNL     1      21.015  -2.355  28.889  1.00  0.00     0.000 C 
BRANCH  11  12
ATOM     12  C   UNL     1      21.918  -1.361  29.628  1.00  0.00     0.000 C 
BRANCH  12  13
ATOM     13  C   UNL     1      22.845  -2.087  30.615  1.00  0.00     0.006 C 
BRANCH  13  14
ATOM     14  C   UNL     1      22.401  -3.532  30.879  1.00  0.00     0.053 C 
BRANCH  14  15
ATOM     15  C   UNL     1      23.393  -4.526  30.347  1.00  0.00     0.041 C 
ATOM     16  O   UNL     1      23.022  -5.433  29.554  1.00  0.00    -0.550 OA
ATOM     17  O   UNL     1      24.718  -4.477  30.761  1.00  0.00    -0.550 OA
ENDBRANCH  14  15
ENDBRANCH  13  14
ENDBRANCH  12  13
ENDBRANCH  11  12
ENDBRANCH  10  11
ENDBRANCH   9  10
ENDBRANCH   8   9
ENDBRANCH   7   8
ENDBRANCH   6   7
ENDBRANCH   5   6
ENDBRANCH   4   5
ENDBRANCH   3   4
ENDBRANCH   2   3
ENDBRANCH   1   2
BRANCH   1  18
ATOM     18  C   UNL     1      28.504  -3.125  30.641  1.00  0.00     0.000 C 
BRANCH  18  19
ATOM     19  C   UNL     1      29.883  -2.619  30.187  1.00  0.00     0.000 C 
BRANCH  19  20
ATOM     20  C   UNL     1      29.837  -1.136  29.759  1.00  0.00     0.000 C 
BRANCH  20  21
ATOM     21  C   UNL     1      30.472  -0.177  30.787  1.00  0.00     0.000 C 
BRANCH  21  22
ATOM     22  C   UNL     1      29.492   0.396  31.828  1.00  0.00     0.000 C 
BRANCH  22  23
ATOM     23  C   UNL     1      29.299   1.917  31.701  1.00  0.00     0.000 C 
BRANCH  23  24
ATOM     24  C   UNL     1      27.934   2.286  31.094  1.00  0.00    -0.000 C 
BRANCH  24  25
ATOM     25  C   UNL     1      28.022   2.683  29.613  1.00  0.00    -0.000 C 
BRANCH  25  26
ATOM     26  C   UNL     1      27.400   4.063  29.375  1.00  0.00    -0.000 C 
BRANCH  26  27
ATOM     27  C   UNL     1      27.506   4.937  30.631  1.00  0.00    -0.000 C 
BRANCH  27  28
ATOM     28  C   UNL     1      28.374   6.172  30.370  1.00  0.00    -0.000 C 
BRANCH  28  29
ATOM     29  C   UNL     1      27.531   7.331  29.814  1.00  0.00    -0.000 C 
BRANCH  29  30
ATOM     30  C   UNL     1      26.797   8.114  30.917  1.00  0.00    -0.000 C 
BRANCH  30  31
ATOM     31  C   UNL     1      27.362   9.528  31.115  1.00  0.00    -0.003 C 
ATOM     32  C   UNL     1      28.745   9.660  30.481  1.00  0.00     0.004 C 
ENDBRANCH  30  31
ENDBRANCH  29  30
ENDBRANCH  28  29
ENDBRANCH  27  28
ENDBRANCH  26  27
ENDBRANCH  25  26
ENDBRANCH  24  25
ENDBRANCH  23  24
ENDBRANCH  22  23
ENDBRANCH  21  22
ENDBRANCH  20  21
ENDBRANCH  19  20
ENDBRANCH  18  19
ENDBRANCH   1  18
TORSDOF 28
ENDMDL
MODEL 5
REMARK VINA RESULT:    -5.019      3.734      8.066
REMARK INTER + INTRA:         -16.333
REMARK INTER:                 -13.092
REMARK INTRA:                  -3.241
REMARK UNBOUND:                -3.098
REMARK SMILES CCCCCCCCCCCCCCCCCCCCCCCCCCCCCC(=O)[O-]
REMARK SMILES IDX 16 1 17 2 18 3 19 4 20 5 21 6 22 7 23 8 24 9 25 10 26 11
REMARK SMILES IDX 27 12 28 13 29 14 30 15 31 16 32 17 15 18 14 19 13 20 12 21
REMARK SMILES IDX 11 22 10 23 9 24 8 25 7 26 6 27 5 28 4 29 3 30 2 31 1 32
REMARK H PARENT
REMARK Flexibility Score: inf
ROOT
ATOM      1  C   UNL     1      29.468   1.559  31.796  1.00  0.00     0.000 C 
ENDROOT
BRANCH   1   2
ATOM      2  C   UNL     1      29.619   0.060  31.443  1.00  0.00     0.000 C 
BRANCH   2   3
ATOM      3  C   UNL     1      30.345  -0.181  30.107  1.00  0.00     0.000 C 
BRANCH   3   4
ATOM      4  C   UNL     1      29.485   0.075  28.855  1.00  0.00     0.000 C 
BRANCH   4   5
ATOM      5  C   UNL     1      28.463  -1.044  28.595  1.00  0.00     0.000 C 
BRANCH   5   6
ATOM      6  C   UNL     1      27.034  -0.662  29.027  1.00  0.00     0.000 C 
BRANCH   6   7
ATOM      7  C   UNL     1      26.510  -1.372  30.291  1.00  0.00     0.000 C 
BRANCH   7   8
ATOM      8  C   UNL     1      27.376  -2.572  30.714  1.00  0.00     0.000 C 
BRANCH   8   9
ATOM      9  C   UNL     1      26.620  -3.911  30.651  1.00  0.00     0.000 C 
BRANCH   9  10
ATOM     10  C   UNL     1      27.461  -5.152  30.995  1.00  0.00     0.000 C 
BRANCH  10  11
ATOM     11  C   UNL     1      27.397  -6.240  29.913  1.00  0.00     0.000 C 
BRANCH  11  12
ATOM     12  C   UNL     1      28.746  -6.380  29.199  1.00  0.00     0.000 C 
BRANCH  12  13
ATOM     13  C   UNL     1      29.454  -7.680  29.607  1.00  0.00     0.006 C 
BRANCH  13  14
ATOM     14  C   UNL     1      28.487  -8.707  30.211  1.00  0.00     0.053 C 
BRANCH  14  15
ATOM     15  C   UNL     1      28.948  -9.182  31.559  1.00  0.00     0.041 C 
ATOM     16  O   UNL     1      29.863 -10.045  31.651  1.00  0.00    -0.550 OA
ATOM     17  O   UNL     1      28.338  -8.705  32.712  1.00  0.00    -0.550 OA
ENDBRANCH  14  15
ENDBRANCH  13  14
ENDBRANCH  12  13
ENDBRANCH  11  12
ENDBRANCH  10  11
ENDBRANCH   9  10
ENDBRANCH   8   9
ENDBRANCH   7   8
ENDBRANCH   6   7
ENDBRANCH   5   6
ENDBRANCH   4   5
ENDBRANCH   3   4
ENDBRANCH   2   3
ENDBRANCH   1   2
BRANCH   1  18
ATOM     18  C   UNL     1      28.041   2.060  31.525  1.00  0.00     0.000 C 
BRANCH  18  19
ATOM     19  C   UNL     1      27.941   3.585  31.703  1.00  0.00     0.000 C 
BRANCH  19  20
ATOM     20  C   UNL     1      28.291   4.337  30.401  1.00  0.00     0.000 C 
BRANCH  20  21
ATOM     21  C   UNL     1      27.949   3.549  29.120  1.00  0.00     0.000 C 
BRANCH  21  22
ATOM     22  C   UNL     1      26.519   3.765  28.590  1.00  0.00     0.000 C 
BRANCH  22  23
ATOM     23  C   UNL     1      26.027   2.612  27.698  1.00  0.00     0.000 C 
BRANCH  23  24
ATOM     24  C   UNL     1      24.933   3.058  26.713  1.00  0.00    -0.000 C 
BRANCH  24  25
ATOM     25  C   UNL     1      24.544   1.962  25.709  1.00  0.00    -0.000 C 
BRANCH  25  26
ATOM     26  C   UNL     1      24.675   0.570  26.335  1.00  0.00    -0.000 C 
BRANCH  26  27
ATOM     27  C   UNL     1      23.552  -0.356  25.852  1.00  0.00    -0.000 C 
BRANCH  27  28
ATOM     28  C   UNL     1      22.191   0.343  25.934  1.00  0.00    -0.000 C 
BRANCH  28  29
ATOM     29  C   UNL     1      21.428  -0.081  27.199  1.00  0.00    -0.000 C 
BRANCH  29  30
ATOM     30  C   UNL     1      21.064  -1.576  27.202  1.00  0.00    -0.000 C 
BRANCH  30  31
ATOM     31  C   UNL     1      20.985  -2.163  28.618  1.00  0.00    -0.003 C 
ATOM     32  C   UNL     1      22.016  -1.514  29.540  1.00  0.00     0.004 C 
ENDBRANCH  30  31
ENDBRANCH  29  30
ENDBRANCH  28  29
ENDBRANCH  27  28
ENDBRANCH  26  27
ENDBRANCH  25  26
ENDBRANCH  24  25
ENDBRANCH  23  24
ENDBRANCH  22  23
ENDBRANCH  21  22
ENDBRANCH  20  21
ENDBRANCH  19  20
ENDBRANCH  18  19
ENDBRANCH   1  18
TORSDOF 28
ENDMDL
MODEL 6
REMARK VINA RESULT:    -4.996      2.630      8.059
REMARK INTER + INTRA:         -16.273
REMARK INTER:                 -13.838
REMARK INTRA:                  -2.435
REMARK UNBOUND:                -3.098
REMARK SMILES CCCCCCCCCCCCCCCCCCCCCCCCCCCCCC(=O)[O-]
REMARK SMILES IDX 16 1 17 2 18 3 19 4 20 5 21 6 22 7 23 8 24 9 25 10 26 11
REMARK SMILES IDX 27 12 28 13 29 14 30 15 31 16 32 17 15 18 14 19 13 20 12 21
REMARK SMILES IDX 11 22 10 23 9 24 8 25 7 26 6 27 5 28 4 29 3 30 2 31 1 32
REMARK H PARENT
REMARK Flexibility Score: inf
ROOT
ATOM      1  C   UNL     1      30.072  -3.859  29.510  1.00  0.00     0.000 C 
ENDROOT
BRANCH   1   2
ATOM      2  C   UNL     1      29.188  -2.596  29.647  1.00  0.00     0.000 C 
BRANCH   2   3
ATOM      3  C   UNL     1      29.467  -1.793  30.930  1.00  0.00     0.000 C 
BRANCH   3   4
ATOM      4  C   UNL     1      28.217  -1.171  31.581  1.00  0.00     0.000 C 
BRANCH   4   5
ATOM      5  C   UNL     1      26.954  -1.330  30.720  1.00  0.00     0.000 C 
BRANCH   5   6
ATOM      6  C   UNL     1      26.314   0.018  30.340  1.00  0.00     0.000 C 
BRANCH   6   7
ATOM      7  C   UNL     1      26.831   0.655  29.034  1.00  0.00     0.000 C 
BRANCH   7   8
ATOM      8  C   UNL     1      28.064   1.552  29.245  1.00  0.00     0.000 C 
BRANCH   8   9
ATOM      9  C   UNL     1      27.702   3.036  29.434  1.00  0.00     0.000 C 
BRANCH   9  10
ATOM     10  C   UNL     1      28.100   3.637  30.793  1.00  0.00     0.000 C 
BRANCH  10  11
ATOM     11  C   UNL     1      28.280   5.161  30.747  1.00  0.00     0.000 C 
BRANCH  11  12
ATOM     12  C   UNL     1      26.949   5.858  30.439  1.00  0.00     0.000 C 
BRANCH  12  13
ATOM     13  C   UNL     1      27.085   7.383  30.560  1.00  0.00     0.006 C 
BRANCH  13  14
ATOM     14  C   UNL     1      28.427   7.895  30.020  1.00  0.00     0.053 C 
BRANCH  14  15
ATOM     15  C   UNL     1      28.426   9.387  29.846  1.00  0.00     0.041 C 
ATOM     16  O   UNL     1      27.409   9.973  29.385  1.00  0.00    -0.550 OA
ATOM     17  O   UNL     1      29.562  10.125  30.151  1.00  0.00    -0.550 OA
ENDBRANCH  14  15
ENDBRANCH  13  14
ENDBRANCH  12  13
ENDBRANCH  11  12
ENDBRANCH  10  11
ENDBRANCH   9  10
ENDBRANCH   8   9
ENDBRANCH   7   8
ENDBRANCH   6   7
ENDBRANCH   5   6
ENDBRANCH   4   5
ENDBRANCH   3   4
ENDBRANCH   2   3
ENDBRANCH   1   2
BRANCH   1  18
ATOM     18  C   UNL     1      29.932  -4.779  30.732  1.00  0.00     0.000 C 
BRANCH  18  19
ATOM     19  C   UNL     1      29.732  -6.244  30.309  1.00  0.00     0.000 C 
BRANCH  19  20
ATOM     20  C   UNL     1      28.344  -6.776  30.724  1.00  0.00     0.000 C 
BRANCH  20  21
ATOM     21  C   UNL     1      27.193  -6.254  29.840  1.00  0.00     0.000 C 
BRANCH  21  22
ATOM     22  C   UNL     1      26.536  -4.952  30.336  1.00  0.00     0.000 C 
BRANCH  22  23
ATOM     23  C   UNL     1      25.022  -4.899  30.062  1.00  0.00     0.000 C 
BRANCH  23  24
ATOM     24  C   UNL     1      24.351  -3.679  30.715  1.00  0.00    -0.000 C 
BRANCH  24  25
ATOM     25  C   UNL     1      22.868  -3.536  30.339  1.00  0.00    -0.000 C 
BRANCH  25  26
ATOM     26  C   UNL     1      22.345  -2.138  30.683  1.00  0.00    -0.000 C 
BRANCH  26  27
ATOM     27  C   UNL     1      21.108  -1.794  29.843  1.00  0.00    -0.000 C 
BRANCH  27  28
ATOM     28  C   UNL     1      21.361  -2.063  28.356  1.00  0.00    -0.000 C 
BRANCH  28  29
ATOM     29  C   UNL     1      21.025  -0.827  27.506  1.00  0.00    -0.000 C 
BRANCH  29  30
ATOM     30  C   UNL     1      21.779  -0.805  26.165  1.00  0.00    -0.000 C 
BRANCH  30  31
ATOM     31  C   UNL     1      22.690   0.422  26.018  1.00  0.00    -0.003 C 
ATOM     32  C   UNL     1      24.136   0.003  25.754  1.00  0.00     0.004 C 
ENDBRANCH  30  31
ENDBRANCH  29  30
ENDBRANCH  28  29
ENDBRANCH  27  28
ENDBRANCH  26  27
ENDBRANCH  25  26
ENDBRANCH  24  25
ENDBRANCH  23  24
ENDBRANCH  22  23
ENDBRANCH  21  22
ENDBRANCH  20  21
ENDBRANCH  19  20
ENDBRANCH  18  19
ENDBRANCH   1  18
TORSDOF 28
ENDMDL
MODEL 7
REMARK VINA RESULT:    -4.863      1.934      7.770
REMARK INTER + INTRA:         -15.922
REMARK INTER:                 -12.672
REMARK INTRA:                  -3.250
REMARK UNBOUND:                -3.098
REMARK SMILES CCCCCCCCCCCCCCCCCCCCCCCCCCCCCC(=O)[O-]
REMARK SMILES IDX 16 1 17 2 18 3 19 4 20 5 21 6 22 7 23 8 24 9 25 10 26 11
REMARK SMILES IDX 27 12 28 13 29 14 30 15 31 16 32 17 15 18 14 19 13 20 12 21
REMARK SMILES IDX 11 22 10 23 9 24 8 25 7 26 6 27 5 28 4 29 3 30 2 31 1 32
REMARK H PARENT
REMARK Flexibility Score: inf
ROOT
ATOM      1  C   UNL     1      28.152   3.413  29.262  1.00  0.00     0.000 C 
ENDROOT
BRANCH   1   2
ATOM      2  C   UNL     1      26.704   3.367  28.719  1.00  0.00     0.000 C 
BRANCH   2   3
ATOM      3  C   UNL     1      26.196   1.938  28.460  1.00  0.00     0.000 C 
BRANCH   3   4
ATOM      4  C   UNL     1      27.277   0.844  28.564  1.00  0.00     0.000 C 
BRANCH   4   5
ATOM      5  C   UNL     1      26.707  -0.517  28.996  1.00  0.00     0.000 C 
BRANCH   5   6
ATOM      6  C   UNL     1      25.801  -0.421  30.237  1.00  0.00     0.000 C 
BRANCH   6   7
ATOM      7  C   UNL     1      24.763  -1.551  30.391  1.00  0.00     0.000 C 
BRANCH   7   8
ATOM      8  C   UNL     1      23.309  -1.043  30.381  1.00  0.00     0.000 C 
BRANCH   8   9
ATOM      9  C   UNL     1      22.275  -2.182  30.382  1.00  0.00     0.000 C 
BRANCH   9  10
ATOM     10  C   UNL     1      21.185  -2.074  29.302  1.00  0.00     0.000 C 
BRANCH  10  11
ATOM     11  C   UNL     1      21.421  -0.914  28.324  1.00  0.00     0.000 C 
BRANCH  11  12
ATOM     12  C   UNL     1      21.050  -1.322  26.893  1.00  0.00     0.000 C 
BRANCH  12  13
ATOM     13  C   UNL     1      22.071  -0.778  25.883  1.00  0.00     0.006 C 
BRANCH  13  14
ATOM     14  C   UNL     1      22.371   0.712  26.100  1.00  0.00     0.053 C 
BRANCH  14  15
ATOM     15  C   UNL     1      23.825   1.023  25.896  1.00  0.00     0.041 C 
ATOM     16  O   UNL     1      24.196   2.204  25.656  1.00  0.00    -0.550 OA
ATOM     17  O   UNL     1      24.767   0.002  25.926  1.00  0.00    -0.550 OA
ENDBRANCH  14  15
ENDBRANCH  13  14
ENDBRANCH  12  13
ENDBRANCH  11  12
ENDBRANCH  10  11
ENDBRANCH   9  10
ENDBRANCH   8   9
ENDBRANCH   7   8
ENDBRANCH   6   7
ENDBRANCH   5   6
ENDBRANCH   4   5
ENDBRANCH   3   4
ENDBRANCH   2   3
ENDBRANCH   1   2
BRANCH   1  18
ATOM     18  C   UNL     1      28.229   4.166  30.599  1.00  0.00     0.000 C 
BRANCH  18  19
ATOM     19  C   UNL     1      28.648   3.231  31.745  1.00  0.00     0.000 C 
BRANCH  19  20
ATOM     20  C   UNL     1      28.441   1.746  31.377  1.00  0.00     0.000 C 
BRANCH  20  21
ATOM     21  C   UNL     1      29.613   0.836  31.795  1.00  0.00     0.000 C 
BRANCH  21  22
ATOM     22  C   UNL     1      29.352  -0.674  31.630  1.00  0.00     0.000 C 
BRANCH  22  23
ATOM     23  C   UNL     1      29.965  -1.254  30.343  1.00  0.00     0.000 C 
BRANCH  23  24
ATOM     24  C   UNL     1      30.022  -2.790  30.362  1.00  0.00    -0.000 C 
BRANCH  24  25
ATOM     25  C   UNL     1      28.829  -3.445  29.649  1.00  0.00    -0.000 C 
BRANCH  25  26
ATOM     26  C   UNL     1      27.688  -3.729  30.633  1.00  0.00    -0.000 C 
BRANCH  26  27
ATOM     27  C   UNL     1      27.611  -5.224  30.966  1.00  0.00    -0.000 C 
BRANCH  27  28
ATOM     28  C   UNL     1      27.952  -6.078  29.740  1.00  0.00    -0.000 C 
BRANCH  28  29
ATOM     29  C   UNL     1      28.908  -7.222  30.114  1.00  0.00    -0.000 C 
BRANCH  29  30
ATOM     30  C   UNL     1      28.776  -7.650  31.586  1.00  0.00    -0.000 C 
BRANCH  30  31
ATOM     31  C   UNL     1      29.059  -9.144  31.795  1.00  0.00    -0.003 C 
ATOM     32  C   UNL     1      30.013  -9.678  30.728  1.00  0.00     0.004 C 
ENDBRANCH  30  31
ENDBRANCH  29  30
ENDBRANCH  28  29
ENDBRANCH  27  28
ENDBRANCH  26  27
ENDBRANCH  25  26
ENDBRANCH  24  25
ENDBRANCH  23  24
ENDBRANCH  22  23
ENDBRANCH  21  22
ENDBRANCH  20  21
ENDBRANCH  19  20
ENDBRANCH  18  19
ENDBRANCH   1  18
TORSDOF 28
ENDMDL
MODEL 8
REMARK VINA RESULT:    -4.859      4.439     11.020
REMARK INTER + INTRA:         -15.911
REMARK INTER:                 -12.730
REMARK INTRA:                  -3.182
REMARK UNBOUND:                -3.098
REMARK SMILES CCCCCCCCCCCCCCCCCCCCCCCCCCCCCC(=O)[O-]
REMARK SMILES IDX 16 1 17 2 18 3 19 4 20 5 21 6 22 7 23 8 24 9 25 10 26 11
REMARK SMILES IDX 27 12 28 13 29 14 30 15 31 16 32 17 15 18 14 19 13 20 12 21
REMARK SMILES IDX 11 22 10 23 9 24 8 25 7 26 6 27 5 28 4 29 3 30 2 31 1 32
REMARK H PARENT
REMARK Flexibility Score: inf
ROOT
ATOM      1  C   UNL     1      26.175   0.011  29.001  1.00  0.00     0.000 C 
ENDROOT
BRANCH   1   2
ATOM      2  C   UNL     1      27.302   1.071  29.020  1.00  0.00     0.000 C 
BRANCH   2   3
ATOM      3  C   UNL     1      26.856   2.444  28.486  1.00  0.00     0.000 C 
BRANCH   3   4
ATOM      4  C   UNL     1      27.782   3.613  28.872  1.00  0.00     0.000 C 
BRANCH   4   5
ATOM      5  C   UNL     1      27.125   4.594  29.857  1.00  0.00     0.000 C 
BRANCH   5   6
ATOM      6  C   UNL     1      28.150   5.355  30.718  1.00  0.00     0.000 C 
BRANCH   6   7
ATOM      7  C   UNL     1      29.242   4.487  31.375  1.00  0.00     0.000 C 
BRANCH   7   8
ATOM      8  C   UNL     1      28.688   3.205  32.022  1.00  0.00     0.000 C 
BRANCH   8   9
ATOM      9  C   UNL     1      29.735   2.457  32.865  1.00  0.00     0.000 C 
BRANCH   9  10
ATOM     10  C   UNL     1      30.646   3.354  33.721  1.00  0.00     0.000 C 
BRANCH  10  11
ATOM     11  C   UNL     1      31.363   2.587  34.842  1.00  0.00     0.000 C 
BRANCH  11  12
ATOM     12  C   UNL     1      31.603   1.128  34.438  1.00  0.00     0.000 C 
BRANCH  12  13
ATOM     13  C   UNL     1      32.915   0.598  35.035  1.00  0.00     0.006 C 
BRANCH  13  14
ATOM     14  C   UNL     1      34.142   1.363  34.519  1.00  0.00     0.053 C 
BRANCH  14  15
ATOM     15  C   UNL     1      35.108   0.457  33.813  1.00  0.00     0.041 C 
ATOM     16  O   UNL     1      35.678   0.836  32.754  1.00  0.00    -0.550 OA
ATOM     17  O   UNL     1      35.346  -0.822  34.299  1.00  0.00    -0.550 OA
ENDBRANCH  14  15
ENDBRANCH  13  14
ENDBRANCH  12  13
ENDBRANCH  11  12
ENDBRANCH  10  11
ENDBRANCH   9  10
ENDBRANCH   8   9
ENDBRANCH   7   8
ENDBRANCH   6   7
ENDBRANCH   5   6
ENDBRANCH   4   5
ENDBRANCH   3   4
ENDBRANCH   2   3
ENDBRANCH   1   2
BRANCH   1  18
ATOM     18  C   UNL     1      25.980  -0.628  30.384  1.00  0.00     0.000 C 
BRANCH  18  19
ATOM     19  C   UNL     1      26.951  -0.034  31.418  1.00  0.00     0.000 C 
BRANCH  19  20
ATOM     20  C   UNL     1      28.061  -1.036  31.803  1.00  0.00     0.000 C 
BRANCH  20  21
ATOM     21  C   UNL     1      29.469  -0.604  31.345  1.00  0.00     0.000 C 
BRANCH  21  22
ATOM     22  C   UNL     1      30.177  -1.599  30.406  1.00  0.00     0.000 C 
BRANCH  22  23
ATOM     23  C   UNL     1      29.239  -2.193  29.340  1.00  0.00     0.000 C 
BRANCH  23  24
ATOM     24  C   UNL     1      29.282  -3.730  29.311  1.00  0.00    -0.000 C 
BRANCH  24  25
ATOM     25  C   UNL     1      30.294  -4.322  30.303  1.00  0.00    -0.000 C 
BRANCH  25  26
ATOM     26  C   UNL     1      29.947  -5.775  30.642  1.00  0.00    -0.000 C 
BRANCH  26  27
ATOM     27  C   UNL     1      28.444  -5.933  30.909  1.00  0.00    -0.000 C 
BRANCH  27  28
ATOM     28  C   UNL     1      27.791  -6.831  29.853  1.00  0.00    -0.000 C 
BRANCH  28  29
ATOM     29  C   UNL     1      28.849  -7.645  29.091  1.00  0.00    -0.000 C 
BRANCH  29  30
ATOM     30  C   UNL     1      28.480  -9.134  28.968  1.00  0.00    -0.000 C 
BRANCH  30  31
ATOM     31  C   UNL     1      28.570  -9.878  30.308  1.00  0.00    -0.003 C 
ATOM     32  C   UNL     1      29.935  -9.669  30.962  1.00  0.00     0.004 C 
ENDBRANCH  30  31
ENDBRANCH  29  30
ENDBRANCH  28  29
ENDBRANCH  27  28
ENDBRANCH  26  27
ENDBRANCH  25  26
ENDBRANCH  24  25
ENDBRANCH  23  24
ENDBRANCH  22  23
ENDBRANCH  21  22
ENDBRANCH  20  21
ENDBRANCH  19  20
ENDBRANCH  18  19
ENDBRANCH   1  18
TORSDOF 28
ENDMDL
MODEL 9
REMARK VINA RESULT:    -4.828      2.655      8.505
REMARK INTER + INTRA:         -15.830
REMARK INTER:                 -13.106
REMARK INTRA:                  -2.723
REMARK UNBOUND:                -3.098
REMARK SMILES CCCCCCCCCCCCCCCCCCCCCCCCCCCCCC(=O)[O-]
REMARK SMILES IDX 16 1 17 2 18 3 19 4 20 5 21 6 22 7 23 8 24 9 25 10 26 11
REMARK SMILES IDX 27 12 28 13 29 14 30 15 31 16 32 17 15 18 14 19 13 20 12 21
REMARK SMILES IDX 11 22 10 23 9 24 8 25 7 26 6 27 5 28 4 29 3 30 2 31 1 32
REMARK H PARENT
REMARK Flexibility Score: inf
ROOT
ATOM      1  C   UNL     1      29.078  -1.947  28.905  1.00  0.00     0.000 C 
ENDROOT
BRANCH   1   2
ATOM      2  C   UNL     1      27.546  -1.734  28.892  1.00  0.00     0.000 C 
BRANCH   2   3
ATOM      3  C   UNL     1      26.985  -1.259  30.244  1.00  0.00     0.000 C 
BRANCH   3   4
ATOM      4  C   UNL     1      26.211   0.073  30.184  1.00  0.00     0.000 C 
BRANCH   4   5
ATOM      5  C   UNL     1      26.929   1.143  29.347  1.00  0.00     0.000 C 
BRANCH   5   6
ATOM      6  C   UNL     1      28.336   1.477  29.880  1.00  0.00     0.000 C 
BRANCH   6   7
ATOM      7  C   UNL     1      28.490   1.445  31.414  1.00  0.00     0.000 C 
BRANCH   7   8
ATOM      8  C   UNL     1      29.104   2.735  31.987  1.00  0.00     0.000 C 
BRANCH   8   9
ATOM      9  C   UNL     1      28.267   3.988  31.677  1.00  0.00     0.000 C 
BRANCH   9  10
ATOM     10  C   UNL     1      29.056   5.170  31.087  1.00  0.00     0.000 C 
BRANCH  10  11
ATOM     11  C   UNL     1      28.380   5.788  29.854  1.00  0.00     0.000 C 
BRANCH  11  12
ATOM     12  C   UNL     1      26.938   6.202  30.172  1.00  0.00     0.000 C 
BRANCH  12  13
ATOM     13  C   UNL     1      26.907   7.480  31.021  1.00  0.00     0.006 C 
BRANCH  13  14
ATOM     14  C   UNL     1      26.693   8.741  30.173  1.00  0.00     0.053 C 
BRANCH  14  15
ATOM     15  C   UNL     1      27.987   9.448  29.888  1.00  0.00     0.041 C 
ATOM     16  O   UNL     1      28.699   9.877  30.836  1.00  0.00    -0.550 OA
ATOM     17  O   UNL     1      28.386   9.670  28.577  1.00  0.00    -0.550 OA
ENDBRANCH  14  15
ENDBRANCH  13  14
ENDBRANCH  12  13
ENDBRANCH  11  12
ENDBRANCH  10  11
ENDBRANCH   9  10
ENDBRANCH   8   9
ENDBRANCH   7   8
ENDBRANCH   6   7
ENDBRANCH   5   6
ENDBRANCH   4   5
ENDBRANCH   3   4
ENDBRANCH   2   3
ENDBRANCH   1   2
BRANCH   1  18
ATOM     18  C   UNL     1      29.554  -2.527  30.246  1.00  0.00     0.000 C 
BRANCH  18  19
ATOM     19  C   UNL     1      30.537  -3.691  30.035  1.00  0.00     0.000 C 
BRANCH  19  20
ATOM     20  C   UNL     1      29.906  -4.830  29.205  1.00  0.00     0.000 C 
BRANCH  20  21
ATOM     21  C   UNL     1      29.546  -6.076  30.039  1.00  0.00     0.000 C 
BRANCH  21  22
ATOM     22  C   UNL     1      28.042  -6.405  30.096  1.00  0.00     0.000 C 
BRANCH  22  23
ATOM     23  C   UNL     1      27.201  -5.274  30.715  1.00  0.00     0.000 C 
BRANCH  23  24
ATOM     24  C   UNL     1      25.833  -5.119  30.031  1.00  0.00    -0.000 C 
BRANCH  24  25
ATOM     25  C   UNL     1      24.887  -4.174  30.787  1.00  0.00    -0.000 C 
BRANCH  25  26
ATOM     26  C   UNL     1      23.452  -4.297  30.265  1.00  0.00    -0.000 C 
BRANCH  26  27
ATOM     27  C   UNL     1      22.513  -3.337  31.009  1.00  0.00    -0.000 C 
BRANCH  27  28
ATOM     28  C   UNL     1      22.309  -2.044  30.213  1.00  0.00    -0.000 C 
BRANCH  28  29
ATOM     29  C   UNL     1      21.197  -2.211  29.166  1.00  0.00    -0.000 C 
BRANCH  29  30
ATOM     30  C   UNL     1      20.999  -0.953  28.302  1.00  0.00    -0.000 C 
BRANCH  30  31
ATOM     31  C   UNL     1      21.104  -1.245  26.799  1.00  0.00    -0.003 C 
ATOM     32  C   UNL     1      22.227  -0.430  26.158  1.00  0.00     0.004 C 
ENDBRANCH  30  31
ENDBRANCH  29  30
ENDBRANCH  28  29
ENDBRANCH  27  28
ENDBRANCH  26  27
ENDBRANCH  25  26
ENDBRANCH  24  25
ENDBRANCH  23  24
ENDBRANCH  22  23
ENDBRANCH  21  22
ENDBRANCH  20  21
ENDBRANCH  19  20
ENDBRANCH  18  19
ENDBRANCH   1  18
TORSDOF 28
ENDMDL
