MODEL 1
REMARK VINA RESULT:    -4.127      0.000      0.000
REMARK INTER + INTRA:         -12.628
REMARK INTER:                  -9.435
REMARK INTRA:                  -3.194
REMARK UNBOUND:                -3.194
REMARK SMILES CCCCCCCCCCCCCCCCCCCCCCCC(=O)[O-]
REMARK SMILES IDX 13 1 14 2 15 3 16 4 17 5 18 6 19 7 20 8 21 9 22 10 23 11
REMARK SMILES IDX 24 12 25 13 26 14 12 15 11 16 10 17 9 18 8 19 7 20 6 21 5 22
REMARK SMILES IDX 4 23 3 24 2 25 1 26
REMARK H PARENT
REMARK Flexibility Score: inf
ROOT
ATOM      1  C   UNL     1      18.248   5.766  -0.746  1.00  0.00     0.000 C 
ENDROOT
BRANCH   1   2
ATOM      2  C   UNL     1      19.460   4.976  -1.267  1.00  0.00     0.000 C 
BRANCH   2   3
ATOM      3  C   UNL     1      19.370   4.663  -2.770  1.00  0.00     0.000 C 
BRANCH   3   4
ATOM      4  C   UNL     1      19.075   3.181  -3.050  1.00  0.00     0.000 C 
BRANCH   4   5
ATOM      5  C   UNL     1      17.571   2.872  -3.088  1.00  0.00     0.000 C 
BRANCH   5   6
ATOM      6  C   UNL     1      17.182   2.188  -4.404  1.00  0.00     0.000 C 
BRANCH   6   7
ATOM      7  C   UNL     1      18.307   2.314  -5.442  1.00  0.00     0.000 C 
BRANCH   7   8
ATOM      8  C   UNL     1      17.778   2.419  -6.882  1.00  0.00     0.000 C 
BRANCH   8   9
ATOM      9  C   UNL     1      18.053   3.794  -7.515  1.00  0.00     0.000 C 
BRANCH   9  10
ATOM     10  C   UNL     1      17.595   4.959  -6.623  1.00  0.00     0.006 C 
BRANCH  10  11
ATOM     11  C   UNL     1      16.446   5.764  -7.244  1.00  0.00     0.053 C 
BRANCH  11  12
ATOM     12  C   UNL     1      15.131   5.296  -6.708  1.00  0.00     0.041 C 
ATOM     13  O   UNL     1      14.972   4.091  -6.378  1.00  0.00    -0.550 OA
ATOM     14  O   UNL     1      14.092   6.200  -6.528  1.00  0.00    -0.550 OA
ENDBRANCH  11  12
ENDBRANCH  10  11
ENDBRANCH   9  10
ENDBRANCH   8   9
ENDBRANCH   7   8
ENDBRANCH   6   7
ENDBRANCH   5   6
ENDBRANCH   4   5
ENDBRANCH   3   4
ENDBRANCH   2   3
ENDBRANCH   1   2
BRANCH   1  15
ATOM     15  C   UNL     1      18.339   6.123   0.753  1.00  0.00     0.000 C 
BRANCH  15  16
ATOM     16  C   UNL     1      19.604   5.546   1.410  1.00  0.00     0.000 C 
BRANCH  16  17
ATOM     17  C   UNL     1      19.562   5.601   2.948  1.00  0.00     0.000 C 
BRANCH  17  18
ATOM     18  C   UNL     1      20.099   4.347   3.662  1.00  0.00    -0.000 C 
BRANCH  18  19
ATOM     19  C   UNL     1      19.239   3.928   4.866  1.00  0.00    -0.000 C 
BRANCH  19  20
ATOM     20  C   UNL     1      17.832   4.546   4.829  1.00  0.00    -0.000 C 
BRANCH  20  21
ATOM     21  C   UNL     1      16.720   3.485   4.827  1.00  0.00    -0.000 C 
BRANCH  21  22
ATOM     22  C   UNL     1      17.153   2.240   4.039  1.00  0.00    -0.000 C 
BRANCH  22  23
ATOM     23  C   UNL     1      16.345   2.044   2.745  1.00  0.00    -0.000 C 
BRANCH  23  24
ATOM     24  C   UNL     1      16.736   3.049   1.648  1.00  0.00    -0.000 C 
BRANCH  24  25
ATOM     25  C   UNL     1      17.481   2.384   0.479  1.00  0.00    -0.003 C 
ATOM     26  C   UNL     1      18.882   1.909   0.865  1.00  0.00     0.004 C 
ENDBRANCH  24  25
ENDBRANCH  23  24
ENDBRANCH  22  23
ENDBRANCH  21  22
ENDBRANCH  20  21
ENDBRANCH  19  20
ENDBRANCH  18  19
ENDBRANCH  17  18
ENDBRANCH  16  17
ENDBRANCH  15  16
ENDBRANCH   1  15
TORSDOF 22
ENDMDL
MODEL 2
REMARK VINA RESULT:    -4.108      1.093      2.756
REMARK INTER + INTRA:         -12.584
REMARK INTER:                  -9.627
REMARK INTRA:                  -2.958
REMARK UNBOUND:                -3.194
REMARK SMILES CCCCCCCCCCCCCCCCCCCCCCCC(=O)[O-]
REMARK SMILES IDX 13 1 14 2 15 3 16 4 17 5 18 6 19 7 20 8 21 9 22 10 23 11
REMARK SMILES IDX 24 12 25 13 26 14 12 15 11 16 10 17 9 18 8 19 7 20 6 21 5 22
REMARK SMILES IDX 4 23 3 24 2 25 1 26
REMARK H PARENT
REMARK Flexibility Score: inf
ROOT
ATOM      1  C   UNL     1      16.462   3.074   0.048  1.00  0.00     0.000 C 
ENDROOT
BRANCH   1   2
ATOM      2  C   UNL     1      16.647   4.007  -1.161  1.00  0.00     0.000 C 
BRANCH   2   3
ATOM      3  C   UNL     1      17.698   3.491  -2.159  1.00  0.00     0.000 C 
BRANCH   3   4
ATOM      4  C   UNL     1      17.118   3.264  -3.564  1.00  0.00     0.000 C 
BRANCH   4   5
ATOM      5  C   UNL     1      17.343   1.832  -4.073  1.00  0.00     0.000 C 
BRANCH   5   6
ATOM      6  C   UNL     1      16.961   1.708  -5.553  1.00  0.00     0.000 C 
BRANCH   6   7
ATOM      7  C   UNL     1      18.001   2.395  -6.449  1.00  0.00     0.000 C 
BRANCH   7   8
ATOM      8  C   UNL     1      17.469   2.686  -7.862  1.00  0.00     0.000 C 
BRANCH   8   9
ATOM      9  C   UNL     1      17.490   4.186  -8.206  1.00  0.00     0.000 C 
BRANCH   9  10
ATOM     10  C   UNL     1      17.296   5.079  -6.971  1.00  0.00     0.006 C 
BRANCH  10  11
ATOM     11  C   UNL     1      16.139   6.073  -7.135  1.00  0.00     0.053 C 
BRANCH  11  12
ATOM     12  C   UNL     1      14.861   5.473  -6.641  1.00  0.00     0.041 C 
ATOM     13  O   UNL     1      14.865   4.350  -6.071  1.00  0.00    -0.550 OA
ATOM     14  O   UNL     1      13.668   6.174  -6.767  1.00  0.00    -0.550 OA
ENDBRANCH  11  12
ENDBRANCH  10  11
ENDBRANCH   9  10
ENDBRANCH   8   9
ENDBRANCH   7   8
ENDBRANCH   6   7
ENDBRANCH   5   6
ENDBRANCH   4   5
ENDBRANCH   3   4
ENDBRANCH   2   3
ENDBRANCH   1   2
BRANCH   1  15
ATOM     15  C   UNL     1      17.745   2.312   0.444  1.00  0.00     0.000 C 
BRANCH  15  16
ATOM     16  C   UNL     1      17.649   1.712   1.857  1.00  0.00     0.000 C 
BRANCH  16  17
ATOM     17  C   UNL     1      16.337   2.072   2.577  1.00  0.00     0.000 C 
BRANCH  17  18
ATOM     18  C   UNL     1      16.355   1.876   4.104  1.00  0.00    -0.000 C 
BRANCH  18  19
ATOM     19  C   UNL     1      17.710   1.367   4.627  1.00  0.00    -0.000 C 
BRANCH  19  20
ATOM     20  C   UNL     1      18.251   2.220   5.786  1.00  0.00    -0.000 C 
BRANCH  20  21
ATOM     21  C   UNL     1      19.284   3.260   5.323  1.00  0.00    -0.000 C 
BRANCH  21  22
ATOM     22  C   UNL     1      18.589   4.536   4.825  1.00  0.00    -0.000 C 
BRANCH  22  23
ATOM     23  C   UNL     1      19.162   5.044   3.493  1.00  0.00    -0.000 C 
BRANCH  23  24
ATOM     24  C   UNL     1      18.064   5.373   2.466  1.00  0.00    -0.000 C 
BRANCH  24  25
ATOM     25  C   UNL     1      18.611   6.122   1.239  1.00  0.00    -0.003 C 
ATOM     26  C   UNL     1      19.724   5.354   0.525  1.00  0.00     0.004 C 
ENDBRANCH  24  25
ENDBRANCH  23  24
ENDBRANCH  22  23
ENDBRANCH  21  22
ENDBRANCH  20  21
ENDBRANCH  19  20
ENDBRANCH  18  19
ENDBRANCH  17  18
ENDBRANCH  16  17
ENDBRANCH  15  16
ENDBRANCH   1  15
TORSDOF 22
ENDMDL
MODEL 3
REMARK VINA RESULT:    -4.095      1.430      1.765
REMARK INTER + INTRA:         -12.555
REMARK INTER:                  -9.622
REMARK INTRA:                  -2.933
REMARK UNBOUND:                -3.194
REMARK SMILES CCCCCCCCCCCCCCCCCCCCCCCC(=O)[O-]
REMARK SMILES IDX 13 1 14 2 15 3 16 4 17 5 18 6 19 7 20 8 21 9 22 10 23 11
REMARK SMILES IDX 24 12 25 13 26 14 12 15 11 16 10 17 9 18 8 19 7 20 6 21 5 22
REMARK SMILES IDX 4 23 3 24 2 25 1 26
REMARK H PARENT
REMARK Flexibility Score: inf
ROOT
ATOM      1  C   UNL     1      18.231   5.834  -0.260  1.00  0.00     0.000 C 
ENDROOT
BRANCH   1   2
ATOM      2  C   UNL     1      19.426   5.078  -0.865  1.00  0.00     0.000 C 
BRANCH   2   3
ATOM      3  C   UNL     1      19.595   5.336  -2.373  1.00  0.00     0.000 C 
BRANCH   3   4
ATOM      4  C   UNL     1      19.470   4.053  -3.210  1.00  0.00     0.000 C 
BRANCH   4   5
ATOM      5  C   UNL     1      18.977   2.853  -2.387  1.00  0.00     0.000 C 
BRANCH   5   6
ATOM      6  C   UNL     1      17.674   2.287  -2.965  1.00  0.00     0.000 C 
BRANCH   6   7
ATOM      7  C   UNL     1      17.269   3.035  -4.244  1.00  0.00     0.000 C 
BRANCH   7   8
ATOM      8  C   UNL     1      16.683   2.103  -5.316  1.00  0.00     0.000 C 
BRANCH   8   9
ATOM      9  C   UNL     1      15.883   2.863  -6.389  1.00  0.00     0.000 C 
BRANCH   9  10
ATOM     10  C   UNL     1      15.612   4.325  -6.000  1.00  0.00     0.006 C 
BRANCH  10  11
ATOM     11  C   UNL     1      15.914   5.306  -7.141  1.00  0.00     0.053 C 
BRANCH  11  12
ATOM     12  C   UNL     1      17.347   5.197  -7.557  1.00  0.00     0.041 C 
ATOM     13  O   UNL     1      18.268   5.426  -6.729  1.00  0.00    -0.550 OA
ATOM     14  O   UNL     1      17.667   4.798  -8.848  1.00  0.00    -0.550 OA
ENDBRANCH  11  12
ENDBRANCH  10  11
ENDBRANCH   9  10
ENDBRANCH   8   9
ENDBRANCH   7   8
ENDBRANCH   6   7
ENDBRANCH   5   6
ENDBRANCH   4   5
ENDBRANCH   3   4
ENDBRANCH   2   3
ENDBRANCH   1   2
BRANCH   1  15
ATOM     15  C   UNL     1      18.480   6.338   1.177  1.00  0.00     0.000 C 
BRANCH  15  16
ATOM     16  C   UNL     1      19.697   5.657   1.827  1.00  0.00     0.000 C 
BRANCH  16  17
ATOM     17  C   UNL     1      19.589   5.569   3.360  1.00  0.00     0.000 C 
BRANCH  17  18
ATOM     18  C   UNL     1      20.070   4.241   3.973  1.00  0.00    -0.000 C 
BRANCH  18  19
ATOM     19  C   UNL     1      19.067   3.645   4.976  1.00  0.00    -0.000 C 
BRANCH  19  20
ATOM     20  C   UNL     1      17.675   4.288   4.869  1.00  0.00    -0.000 C 
BRANCH  20  21
ATOM     21  C   UNL     1      16.538   3.262   4.990  1.00  0.00    -0.000 C 
BRANCH  21  22
ATOM     22  C   UNL     1      17.025   1.857   4.605  1.00  0.00    -0.000 C 
BRANCH  22  23
ATOM     23  C   UNL     1      16.469   1.384   3.253  1.00  0.00    -0.000 C 
BRANCH  23  24
ATOM     24  C   UNL     1      17.297   1.899   2.062  1.00  0.00    -0.000 C 
BRANCH  24  25
ATOM     25  C   UNL     1      16.720   3.190   1.459  1.00  0.00    -0.003 C 
ATOM     26  C   UNL     1      15.866   2.934   0.217  1.00  0.00     0.004 C 
ENDBRANCH  24  25
ENDBRANCH  23  24
ENDBRANCH  22  23
ENDBRANCH  21  22
ENDBRANCH  20  21
ENDBRANCH  19  20
ENDBRANCH  18  19
ENDBRANCH  17  18
ENDBRANCH  16  17
ENDBRANCH  15  16
ENDBRANCH   1  15
TORSDOF 22
ENDMDL
MODEL 4
REMARK VINA RESULT:    -4.018      2.024      7.884
REMARK INTER + INTRA:         -12.379
REMARK INTER:                  -9.525
REMARK INTRA:                  -2.854
REMARK UNBOUND:                -3.194
REMARK SMILES CCCCCCCCCCCCCCCCCCCCCCCC(=O)[O-]
REMARK SMILES IDX 13 1 14 2 15 3 16 4 17 5 18 6 19 7 20 8 21 9 22 10 23 11
REMARK SMILES IDX 24 12 25 13 26 14 12 15 11 16 10 17 9 18 8 19 7 20 6 21 5 22
REMARK SMILES IDX 4 23 3 24 2 25 1 26
REMARK H PARENT
REMARK Flexibility Score: inf
ROOT
ATOM      1  C   UNL     1      18.323   6.077   1.322  1.00  0.00     0.000 C 
ENDROOT
BRANCH   1   2
ATOM      2  C   UNL     1      19.742   5.947   1.902  1.00  0.00     0.000 C 
BRANCH   2   3
ATOM      3  C   UNL     1      19.748   5.737   3.426  1.00  0.00     0.000 C 
BRANCH   3   4
ATOM      4  C   UNL     1      19.471   4.279   3.823  1.00  0.00     0.000 C 
BRANCH   4   5
ATOM      5  C   UNL     1      18.073   4.085   4.428  1.00  0.00     0.000 C 
BRANCH   5   6
ATOM      6  C   UNL     1      17.969   2.738   5.156  1.00  0.00     0.000 C 
BRANCH   6   7
ATOM      7  C   UNL     1      18.756   1.650   4.412  1.00  0.00     0.000 C 
BRANCH   7   8
ATOM      8  C   UNL     1      17.971   1.048   3.236  1.00  0.00     0.000 C 
BRANCH   8   9
ATOM      9  C   UNL     1      18.722   1.168   1.898  1.00  0.00     0.000 C 
BRANCH   9  10
ATOM     10  C   UNL     1      18.030   2.125   0.915  1.00  0.00     0.006 C 
BRANCH  10  11
ATOM     11  C   UNL     1      16.661   2.601   1.418  1.00  0.00     0.053 C 
BRANCH  11  12
ATOM     12  C   UNL     1      15.768   2.936   0.266  1.00  0.00     0.041 C 
ATOM     13  O   UNL     1      14.520   2.989   0.424  1.00  0.00    -0.550 OA
ATOM     14  O   UNL     1      16.316   3.235  -0.975  1.00  0.00    -0.550 OA
ENDBRANCH  11  12
ENDBRANCH  10  11
ENDBRANCH   9  10
ENDBRANCH   8   9
ENDBRANCH   7   8
ENDBRANCH   6   7
ENDBRANCH   5   6
ENDBRANCH   4   5
ENDBRANCH   3   4
ENDBRANCH   2   3
ENDBRANCH   1   2
BRANCH   1  15
ATOM     15  C   UNL     1      18.251   5.830  -0.199  1.00  0.00     0.000 C 
BRANCH  15  16
ATOM     16  C   UNL     1      19.530   5.169  -0.740  1.00  0.00     0.000 C 
BRANCH  16  17
ATOM     17  C   UNL     1      19.614   5.191  -2.278  1.00  0.00     0.000 C 
BRANCH  17  18
ATOM     18  C   UNL     1      18.938   4.003  -2.986  1.00  0.00    -0.000 C 
BRANCH  18  19
ATOM     19  C   UNL     1      19.696   3.542  -4.243  1.00  0.00    -0.000 C 
BRANCH  19  20
ATOM     20  C   UNL     1      18.771   2.895  -5.285  1.00  0.00    -0.000 C 
BRANCH  20  21
ATOM     21  C   UNL     1      17.597   2.139  -4.645  1.00  0.00    -0.000 C 
BRANCH  21  22
ATOM     22  C   UNL     1      16.466   1.922  -5.661  1.00  0.00    -0.000 C 
BRANCH  22  23
ATOM     23  C   UNL     1      16.407   3.025  -6.730  1.00  0.00    -0.000 C 
BRANCH  23  24
ATOM     24  C   UNL     1      15.401   4.136  -6.378  1.00  0.00    -0.000 C 
BRANCH  24  25
ATOM     25  C   UNL     1      15.899   5.531  -6.790  1.00  0.00    -0.003 C 
ATOM     26  C   UNL     1      17.152   5.479  -7.664  1.00  0.00     0.004 C 
ENDBRANCH  24  25
ENDBRANCH  23  24
ENDBRANCH  22  23
ENDBRANCH  21  22
ENDBRANCH  20  21
ENDBRANCH  19  20
ENDBRANCH  18  19
ENDBRANCH  17  18
ENDBRANCH  16  17
ENDBRANCH  15  16
ENDBRANCH   1  15
TORSDOF 22
ENDMDL
MODEL 5
REMARK VINA RESULT:    -3.849      1.346      2.677
REMARK INTER + INTRA:         -11.993
REMARK INTER:                  -8.686
REMARK INTRA:                  -3.308
REMARK UNBOUND:                -3.194
REMARK SMILES CCCCCCCCCCCCCCCCCCCCCCCC(=O)[O-]
REMARK SMILES IDX 13 1 14 2 15 3 16 4 17 5 18 6 19 7 20 8 21 9 22 10 23 11
REMARK SMILES IDX 24 12 25 13 26 14 12 15 11 16 10 17 9 18 8 19 7 20 6 21 5 22
REMARK SMILES IDX 4 23 3 24 2 25 1 26
REMARK H PARENT
REMARK Flexibility Score: inf
ROOT
ATOM      1  C   UNL     1      18.588   5.583   2.833  1.00  0.00     0.000 C 
ENDROOT
BRANCH   1   2
ATOM      2  C   UNL     1      18.595   6.204   1.426  1.00  0.00     0.000 C 
BRANCH   2   3
ATOM      3  C   UNL     1      19.532   5.469   0.453  1.00  0.00     0.000 C 
BRANCH   3   4
ATOM      4  C   UNL     1      18.877   5.202  -0.912  1.00  0.00     0.000 C 
BRANCH   4   5
ATOM      5  C   UNL     1      17.427   4.710  -0.787  1.00  0.00     0.000 C 
BRANCH   5   6
ATOM      6  C   UNL     1      17.210   3.425  -1.596  1.00  0.00     0.000 C 
BRANCH   6   7
ATOM      7  C   UNL     1      18.545   2.867  -2.110  1.00  0.00     0.000 C 
BRANCH   7   8
ATOM      8  C   UNL     1      18.534   2.602  -3.624  1.00  0.00     0.000 C 
BRANCH   8   9
ATOM      9  C   UNL     1      17.111   2.454  -4.190  1.00  0.00     0.000 C 
BRANCH   9  10
ATOM     10  C   UNL     1      17.093   2.326  -5.721  1.00  0.00     0.006 C 
BRANCH  10  11
ATOM     11  C   UNL     1      15.783   2.829  -6.341  1.00  0.00     0.053 C 
BRANCH  11  12
ATOM     12  C   UNL     1      15.791   4.321  -6.442  1.00  0.00     0.041 C 
ATOM     13  O   UNL     1      16.873   4.940  -6.617  1.00  0.00    -0.550 OA
ATOM     14  O   UNL     1      14.596   5.028  -6.390  1.00  0.00    -0.550 OA
ENDBRANCH  11  12
ENDBRANCH  10  11
ENDBRANCH   9  10
ENDBRANCH   8   9
ENDBRANCH   7   8
ENDBRANCH   6   7
ENDBRANCH   5   6
ENDBRANCH   4   5
ENDBRANCH   3   4
ENDBRANCH   2   3
ENDBRANCH   1   2
BRANCH   1  15
ATOM     15  C   UNL     1      19.993   5.437   3.453  1.00  0.00     0.000 C 
BRANCH  15  16
ATOM     16  C   UNL     1      20.003   5.772   4.954  1.00  0.00     0.000 C 
BRANCH  16  17
ATOM     17  C   UNL     1      19.500   4.613   5.833  1.00  0.00     0.000 C 
BRANCH  17  18
ATOM     18  C   UNL     1      19.977   3.214   5.404  1.00  0.00    -0.000 C 
BRANCH  18  19
ATOM     19  C   UNL     1      19.292   2.080   6.188  1.00  0.00    -0.000 C 
BRANCH  19  20
ATOM     20  C   UNL     1      18.292   1.291   5.329  1.00  0.00    -0.000 C 
BRANCH  20  21
ATOM     21  C   UNL     1      16.831   1.655   5.637  1.00  0.00    -0.000 C 
BRANCH  21  22
ATOM     22  C   UNL     1      16.074   2.013   4.349  1.00  0.00    -0.000 C 
BRANCH  22  23
ATOM     23  C   UNL     1      16.925   2.832   3.365  1.00  0.00    -0.000 C 
BRANCH  23  24
ATOM     24  C   UNL     1      16.851   2.288   1.927  1.00  0.00    -0.000 C 
BRANCH  24  25
ATOM     25  C   UNL     1      18.088   1.456   1.550  1.00  0.00    -0.003 C 
ATOM     26  C   UNL     1      19.402   2.166   1.877  1.00  0.00     0.004 C 
ENDBRANCH  24  25
ENDBRANCH  23  24
ENDBRANCH  22  23
ENDBRANCH  21  22
ENDBRANCH  20  21
ENDBRANCH  19  20
ENDBRANCH  18  19
ENDBRANCH  17  18
ENDBRANCH  16  17
ENDBRANCH  15  16
ENDBRANCH   1  15
TORSDOF 22
ENDMDL
MODEL 6
REMARK VINA RESULT:    -3.830      6.705     11.163
REMARK INTER + INTRA:         -11.949
REMARK INTER:                  -9.071
REMARK INTRA:                  -2.878
REMARK UNBOUND:                -3.194
REMARK SMILES CCCCCCCCCCCCCCCCCCCCCCCC(=O)[O-]
REMARK SMILES IDX 13 1 14 2 15 3 16 4 17 5 18 6 19 7 20 8 21 9 22 10 23 11
REMARK SMILES IDX 24 12 25 13 26 14 12 15 11 16 10 17 9 18 8 19 7 20 6 21 5 22
REMARK SMILES IDX 4 23 3 24 2 25 1 26
REMARK H PARENT
REMARK Flexibility Score: inf
ROOT
ATOM      1  C   UNL     1      17.892  11.821  -5.737  1.00  0.00     0.000 C 
ENDROOT
BRANCH   1   2
ATOM      2  C   UNL     1      19.291  11.523  -6.302  1.00  0.00     0.000 C 
BRANCH   2   3
ATOM      3  C   UNL     1      19.288  11.312  -7.826  1.00  0.00     0.000 C 
BRANCH   3   4
ATOM      4  C   UNL     1      20.125  10.097  -8.257  1.00  0.00     0.000 C 
BRANCH   4   5
ATOM      5  C   UNL     1      20.070   8.948  -7.239  1.00  0.00     0.000 C 
BRANCH   5   6
ATOM      6  C   UNL     1      20.124   7.586  -7.942  1.00  0.00     0.000 C 
BRANCH   6   7
ATOM      7  C   UNL     1      19.835   6.446  -6.955  1.00  0.00     0.000 C 
BRANCH   7   8
ATOM      8  C   UNL     1      18.988   5.324  -7.575  1.00  0.00     0.000 C 
BRANCH   8   9
ATOM      9  C   UNL     1      17.485   5.487  -7.285  1.00  0.00     0.000 C 
BRANCH   9  10
ATOM     10  C   UNL     1      16.859   4.221  -6.679  1.00  0.00     0.006 C 
BRANCH  10  11
ATOM     11  C   UNL     1      17.417   3.894  -5.288  1.00  0.00     0.053 C 
BRANCH  11  12
ATOM     12  C   UNL     1      17.104   2.479  -4.918  1.00  0.00     0.041 C 
ATOM     13  O   UNL     1      17.519   2.000  -3.830  1.00  0.00    -0.550 OA
ATOM     14  O   UNL     1      16.314   1.701  -5.754  1.00  0.00    -0.550 OA
ENDBRANCH  11  12
ENDBRANCH  10  11
ENDBRANCH   9  10
ENDBRANCH   8   9
ENDBRANCH   7   8
ENDBRANCH   6   7
ENDBRANCH   5   6
ENDBRANCH   4   5
ENDBRANCH   3   4
ENDBRANCH   2   3
ENDBRANCH   1   2
BRANCH   1  15
ATOM     15  C   UNL     1      16.773  11.774  -6.798  1.00  0.00     0.000 C 
BRANCH  15  16
ATOM     16  C   UNL     1      15.663  12.801  -6.516  1.00  0.00     0.000 C 
BRANCH  16  17
ATOM     17  C   UNL     1      14.907  13.235  -7.785  1.00  0.00     0.000 C 
BRANCH  17  18
ATOM     18  C   UNL     1      15.692  13.073  -9.100  1.00  0.00    -0.000 C 
BRANCH  18  19
ATOM     19  C   UNL     1      16.318  14.391  -9.590  1.00  0.00    -0.000 C 
BRANCH  19  20
ATOM     20  C   UNL     1      17.855  14.364  -9.548  1.00  0.00    -0.000 C 
BRANCH  20  21
ATOM     21  C   UNL     1      18.445  15.533  -8.745  1.00  0.00    -0.000 C 
BRANCH  21  22
ATOM     22  C   UNL     1      18.803  15.090  -7.318  1.00  0.00    -0.000 C 
BRANCH  22  23
ATOM     23  C   UNL     1      17.678  15.370  -6.308  1.00  0.00    -0.000 C 
BRANCH  23  24
ATOM     24  C   UNL     1      18.208  15.575  -4.877  1.00  0.00    -0.000 C 
BRANCH  24  25
ATOM     25  C   UNL     1      19.561  14.883  -4.647  1.00  0.00    -0.003 C 
ATOM     26  C   UNL     1      19.588  14.048  -3.366  1.00  0.00     0.004 C 
ENDBRANCH  24  25
ENDBRANCH  23  24
ENDBRANCH  22  23
ENDBRANCH  21  22
ENDBRANCH  20  21
ENDBRANCH  19  20
ENDBRANCH  18  19
ENDBRANCH  17  18
ENDBRANCH  16  17
ENDBRANCH  15  16
ENDBRANCH   1  15
TORSDOF 22
ENDMDL
MODEL 7
REMARK VINA RESULT:    -3.694      1.175      3.019
REMARK INTER + INTRA:         -11.638
REMARK INTER:                  -9.167
REMARK INTRA:                  -2.471
REMARK UNBOUND:                -3.194
REMARK SMILES CCCCCCCCCCCCCCCCCCCCCCCC(=O)[O-]
REMARK SMILES IDX 13 1 14 2 15 3 16 4 17 5 18 6 19 7 20 8 21 9 22 10 23 11
REMARK SMILES IDX 24 12 25 13 26 14 12 15 11 16 10 17 9 18 8 19 7 20 6 21 5 22
REMARK SMILES IDX 4 23 3 24 2 25 1 26
REMARK H PARENT
REMARK Flexibility Score: inf
ROOT
ATOM      1  C   UNL     1      18.273   5.330  -0.532  1.00  0.00     0.000 C 
ENDROOT
BRANCH   1   2
ATOM      2  C   UNL     1      19.059   5.442  -1.850  1.00  0.00     0.000 C 
BRANCH   2   3
ATOM      3  C   UNL     1      19.031   4.143  -2.675  1.00  0.00     0.000 C 
BRANCH   3   4
ATOM      4  C   UNL     1      17.647   3.476  -2.683  1.00  0.00     0.000 C 
BRANCH   4   5
ATOM      5  C   UNL     1      17.380   2.679  -3.968  1.00  0.00     0.000 C 
BRANCH   5   6
ATOM      6  C   UNL     1      18.656   2.543  -4.807  1.00  0.00     0.000 C 
BRANCH   6   7
ATOM      7  C   UNL     1      18.440   3.084  -6.228  1.00  0.00     0.000 C 
BRANCH   7   8
ATOM      8  C   UNL     1      19.072   4.469  -6.439  1.00  0.00     0.000 C 
BRANCH   8   9
ATOM      9  C   UNL     1      18.593   5.149  -7.733  1.00  0.00     0.000 C 
BRANCH   9  10
ATOM     10  C   UNL     1      17.075   5.025  -7.940  1.00  0.00     0.006 C 
BRANCH  10  11
ATOM     11  C   UNL     1      16.276   5.974  -7.038  1.00  0.00     0.053 C 
BRANCH  11  12
ATOM     12  C   UNL     1      14.992   5.336  -6.614  1.00  0.00     0.041 C 
ATOM     13  O   UNL     1      13.924   6.002  -6.605  1.00  0.00    -0.550 OA
ATOM     14  O   UNL     1      14.964   3.989  -6.273  1.00  0.00    -0.550 OA
ENDBRANCH  11  12
ENDBRANCH  10  11
ENDBRANCH   9  10
ENDBRANCH   8   9
ENDBRANCH   7   8
ENDBRANCH   6   7
ENDBRANCH   5   6
ENDBRANCH   4   5
ENDBRANCH   3   4
ENDBRANCH   2   3
ENDBRANCH   1   2
BRANCH   1  15
ATOM     15  C   UNL     1      19.077   4.680   0.614  1.00  0.00     0.000 C 
BRANCH  15  16
ATOM     16  C   UNL     1      18.312   3.519   1.272  1.00  0.00     0.000 C 
BRANCH  16  17
ATOM     17  C   UNL     1      16.813   3.508   0.918  1.00  0.00     0.000 C 
BRANCH  17  18
ATOM     18  C   UNL     1      15.996   2.379   1.572  1.00  0.00    -0.000 C 
BRANCH  18  19
ATOM     19  C   UNL     1      16.680   1.789   2.818  1.00  0.00    -0.000 C 
BRANCH  19  20
ATOM     20  C   UNL     1      16.291   2.527   4.109  1.00  0.00    -0.000 C 
BRANCH  20  21
ATOM     21  C   UNL     1      17.312   2.320   5.238  1.00  0.00    -0.000 C 
BRANCH  21  22
ATOM     22  C   UNL     1      18.746   2.329   4.688  1.00  0.00    -0.000 C 
BRANCH  22  23
ATOM     23  C   UNL     1      19.591   3.486   5.246  1.00  0.00    -0.000 C 
BRANCH  23  24
ATOM     24  C   UNL     1      19.316   4.818   4.525  1.00  0.00    -0.000 C 
BRANCH  24  25
ATOM     25  C   UNL     1      19.845   6.030   5.308  1.00  0.00    -0.003 C 
ATOM     26  C   UNL     1      19.100   6.256   6.624  1.00  0.00     0.004 C 
ENDBRANCH  24  25
ENDBRANCH  23  24
ENDBRANCH  22  23
ENDBRANCH  21  22
ENDBRANCH  20  21
ENDBRANCH  19  20
ENDBRANCH  18  19
ENDBRANCH  17  18
ENDBRANCH  16  17
ENDBRANCH  15  16
ENDBRANCH   1  15
TORSDOF 22
ENDMDL
MODEL 8
REMARK VINA RESULT:    -3.590      1.745      3.140
REMARK INTER + INTRA:         -11.400
REMARK INTER:                  -8.133
REMARK INTRA:                  -3.267
REMARK UNBOUND:                -3.194
REMARK SMILES CCCCCCCCCCCCCCCCCCCCCCCC(=O)[O-]
REMARK SMILES IDX 13 1 14 2 15 3 16 4 17 5 18 6 19 7 20 8 21 9 22 10 23 11
REMARK SMILES IDX 24 12 25 13 26 14 12 15 11 16 10 17 9 18 8 19 7 20 6 21 5 22
REMARK SMILES IDX 4 23 3 24 2 25 1 26
REMARK H PARENT
REMARK Flexibility Score: inf
ROOT
ATOM      1  C   UNL     1      17.682   4.749   1.435  1.00  0.00     0.000 C 
ENDROOT
BRANCH   1   2
ATOM      2  C   UNL     1      17.147   4.132   0.131  1.00  0.00     0.000 C 
BRANCH   2   3
ATOM      3  C   UNL     1      17.418   2.621   0.030  1.00  0.00     0.000 C 
BRANCH   3   4
ATOM      4  C   UNL     1      18.896   2.268   0.260  1.00  0.00     0.000 C 
BRANCH   4   5
ATOM      5  C   UNL     1      19.833   2.957  -0.742  1.00  0.00     0.000 C 
BRANCH   5   6
ATOM      6  C   UNL     1      19.547   2.492  -2.175  1.00  0.00     0.000 C 
BRANCH   6   7
ATOM      7  C   UNL     1      19.480   3.687  -3.137  1.00  0.00     0.000 C 
BRANCH   7   8
ATOM      8  C   UNL     1      18.362   3.546  -4.183  1.00  0.00     0.000 C 
BRANCH   8   9
ATOM      9  C   UNL     1      17.458   2.328  -3.923  1.00  0.00     0.000 C 
BRANCH   9  10
ATOM     10  C   UNL     1      16.980   1.658  -5.221  1.00  0.00     0.006 C 
BRANCH  10  11
ATOM     11  C   UNL     1      16.232   2.627  -6.146  1.00  0.00     0.053 C 
BRANCH  11  12
ATOM     12  C   UNL     1      17.031   2.893  -7.382  1.00  0.00     0.041 C 
ATOM     13  O   UNL     1      17.140   2.008  -8.270  1.00  0.00    -0.550 OA
ATOM     14  O   UNL     1      17.620   4.136  -7.575  1.00  0.00    -0.550 OA
ENDBRANCH  11  12
ENDBRANCH  10  11
ENDBRANCH   9  10
ENDBRANCH   8   9
ENDBRANCH   7   8
ENDBRANCH   6   7
ENDBRANCH   5   6
ENDBRANCH   4   5
ENDBRANCH   3   4
ENDBRANCH   2   3
ENDBRANCH   1   2
BRANCH   1  15
ATOM     15  C   UNL     1      18.550   6.005   1.215  1.00  0.00     0.000 C 
BRANCH  15  16
ATOM     16  C   UNL     1      19.706   6.095   2.226  1.00  0.00     0.000 C 
BRANCH  16  17
ATOM     17  C   UNL     1      19.706   4.940   3.244  1.00  0.00     0.000 C 
BRANCH  17  18
ATOM     18  C   UNL     1      19.380   5.347   4.693  1.00  0.00    -0.000 C 
BRANCH  18  19
ATOM     19  C   UNL     1      19.206   4.140   5.631  1.00  0.00    -0.000 C 
BRANCH  19  20
ATOM     20  C   UNL     1      20.063   2.937   5.206  1.00  0.00    -0.000 C 
BRANCH  20  21
ATOM     21  C   UNL     1      19.253   1.633   5.124  1.00  0.00    -0.000 C 
BRANCH  21  22
ATOM     22  C   UNL     1      18.734   1.400   3.698  1.00  0.00    -0.000 C 
BRANCH  22  23
ATOM     23  C   UNL     1      17.221   1.131   3.651  1.00  0.00    -0.000 C 
BRANCH  23  24
ATOM     24  C   UNL     1      16.388   2.409   3.853  1.00  0.00    -0.000 C 
BRANCH  24  25
ATOM     25  C   UNL     1      15.620   2.405   5.185  1.00  0.00    -0.003 C 
ATOM     26  C   UNL     1      15.610   1.032   5.858  1.00  0.00     0.004 C 
ENDBRANCH  24  25
ENDBRANCH  23  24
ENDBRANCH  22  23
ENDBRANCH  21  22
ENDBRANCH  20  21
ENDBRANCH  19  20
ENDBRANCH  18  19
ENDBRANCH  17  18
ENDBRANCH  16  17
ENDBRANCH  15  16
ENDBRANCH   1  15
TORSDOF 22
ENDMDL
MODEL 9
REMARK VINA RESULT:    -3.566      1.425      3.336
REMARK INTER + INTRA:         -11.345
REMARK INTER:                  -8.506
REMARK INTRA:                  -2.839
REMARK UNBOUND:                -3.194
REMARK SMILES CCCCCCCCCCCCCCCCCCCCCCCC(=O)[O-]
REMARK SMILES IDX 13 1 14 2 15 3 16 4 17 5 18 6 19 7 20 8 21 9 22 10 23 11
REMARK SMILES IDX 24 12 25 13 26 14 12 15 11 16 10 17 9 18 8 19 7 20 6 21 5 22
REMARK SMILES IDX 4 23 3 24 2 25 1 26
REMARK H PARENT
REMARK Flexibility Score: inf
ROOT
ATOM      1  C   UNL     1      18.634   5.177   1.751  1.00  0.00     0.000 C 
ENDROOT
BRANCH   1   2
ATOM      2  C   UNL     1      18.430   6.114   0.548  1.00  0.00     0.000 C 
BRANCH   2   3
ATOM      3  C   UNL     1      18.116   5.356  -0.753  1.00  0.00     0.000 C 
BRANCH   3   4
ATOM      4  C   UNL     1      19.227   5.501  -1.805  1.00  0.00     0.000 C 
BRANCH   4   5
ATOM      5  C   UNL     1      19.506   4.191  -2.557  1.00  0.00     0.000 C 
BRANCH   5   6
ATOM      6  C   UNL     1      18.204   3.437  -2.853  1.00  0.00     0.000 C 
BRANCH   6   7
ATOM      7  C   UNL     1      18.313   2.645  -4.164  1.00  0.00     0.000 C 
BRANCH   7   8
ATOM      8  C   UNL     1      17.082   1.763  -4.429  1.00  0.00     0.000 C 
BRANCH   8   9
ATOM      9  C   UNL     1      16.522   1.939  -5.852  1.00  0.00     0.000 C 
BRANCH   9  10
ATOM     10  C   UNL     1      17.576   2.457  -6.843  1.00  0.00     0.006 C 
BRANCH  10  11
ATOM     11  C   UNL     1      17.040   3.578  -7.743  1.00  0.00     0.053 C 
BRANCH  11  12
ATOM     12  C   UNL     1      17.120   4.896  -7.041  1.00  0.00     0.041 C 
ATOM     13  O   UNL     1      16.113   5.650  -6.991  1.00  0.00    -0.550 OA
ATOM     14  O   UNL     1      18.293   5.272  -6.399  1.00  0.00    -0.550 OA
ENDBRANCH  11  12
ENDBRANCH  10  11
ENDBRANCH   9  10
ENDBRANCH   8   9
ENDBRANCH   7   8
ENDBRANCH   6   7
ENDBRANCH   5   6
ENDBRANCH   4   5
ENDBRANCH   3   4
ENDBRANCH   2   3
ENDBRANCH   1   2
BRANCH   1  15
ATOM     15  C   UNL     1      19.509   3.946   1.435  1.00  0.00     0.000 C 
BRANCH  15  16
ATOM     16  C   UNL     1      18.798   2.626   1.780  1.00  0.00     0.000 C 
BRANCH  16  17
ATOM     17  C   UNL     1      17.484   2.429   1.002  1.00  0.00     0.000 C 
BRANCH  17  18
ATOM     18  C   UNL     1      16.217   2.341   1.873  1.00  0.00    -0.000 C 
BRANCH  18  19
ATOM     19  C   UNL     1      16.432   1.536   3.166  1.00  0.00    -0.000 C 
BRANCH  19  20
ATOM     20  C   UNL     1      15.973   2.299   4.418  1.00  0.00    -0.000 C 
BRANCH  20  21
ATOM     21  C   UNL     1      16.379   1.596   5.722  1.00  0.00    -0.000 C 
BRANCH  21  22
ATOM     22  C   UNL     1      17.725   0.875   5.559  1.00  0.00    -0.000 C 
BRANCH  22  23
ATOM     23  C   UNL     1      18.877   1.595   6.279  1.00  0.00    -0.000 C 
BRANCH  23  24
ATOM     24  C   UNL     1      19.635   2.566   5.355  1.00  0.00    -0.000 C 
BRANCH  24  25
ATOM     25  C   UNL     1      19.650   4.003   5.900  1.00  0.00    -0.003 C 
ATOM     26  C   UNL     1      18.535   4.870   5.314  1.00  0.00     0.004 C 
ENDBRANCH  24  25
ENDBRANCH  23  24
ENDBRANCH  22  23
ENDBRANCH  21  22
ENDBRANCH  20  21
ENDBRANCH  19  20
ENDBRANCH  18  19
ENDBRANCH  17  18
ENDBRANCH  16  17
ENDBRANCH  15  16
ENDBRANCH   1  15
TORSDOF 22
ENDMDL
