MODEL 1
REMARK VINA RESULT:    -3.927      0.000      0.000
REMARK INTER + INTRA:         -11.862
REMARK INTER:                  -8.519
REMARK INTRA:                  -3.343
REMARK UNBOUND:                -3.343
REMARK SMILES CCCCCCCCCCCCCCCCCCCCCC(=O)[O-]
REMARK SMILES IDX 12 1 11 2 10 3 9 4 8 5 7 6 6 7 5 8 4 9 3 10 2 11 1 12 13 13
REMARK SMILES IDX 14 14 15 15 16 16 17 17 18 18 19 19 20 20 21 21 22 22 23 23
REMARK SMILES IDX 24 24
REMARK H PARENT
REMARK Flexibility Score: inf
ROOT
ATOM      1  C   UNL     1       6.040  31.852   6.738  1.00  0.00     0.000 C 
ENDROOT
BRANCH   1   2
ATOM      2  C   UNL     1       6.829  33.170   6.672  1.00  0.00     0.000 C 
BRANCH   2   3
ATOM      3  C   UNL     1       6.025  34.367   7.206  1.00  0.00     0.000 C 
BRANCH   3   4
ATOM      4  C   UNL     1       4.739  34.627   6.402  1.00  0.00    -0.000 C 
BRANCH   4   5
ATOM      5  C   UNL     1       4.967  35.178   4.980  1.00  0.00    -0.000 C 
BRANCH   5   6
ATOM      6  C   UNL     1       3.735  35.134   4.051  1.00  0.00    -0.000 C 
BRANCH   6   7
ATOM      7  C   UNL     1       3.393  33.746   3.479  1.00  0.00    -0.000 C 
BRANCH   7   8
ATOM      8  C   UNL     1       3.497  33.691   1.946  1.00  0.00    -0.000 C 
BRANCH   8   9
ATOM      9  C   UNL     1       4.400  32.547   1.447  1.00  0.00    -0.000 C 
BRANCH   9  10
ATOM     10  C   UNL     1       5.730  32.991   0.811  1.00  0.00    -0.000 C 
BRANCH  10  11
ATOM     11  C   UNL     1       6.426  34.111   1.597  1.00  0.00    -0.003 C 
ATOM     12  C   UNL     1       7.305  34.960   0.682  1.00  0.00     0.004 C 
ENDBRANCH  10  11
ENDBRANCH   9  10
ENDBRANCH   8   9
ENDBRANCH   7   8
ENDBRANCH   6   7
ENDBRANCH   5   6
ENDBRANCH   4   5
ENDBRANCH   3   4
ENDBRANCH   2   3
ENDBRANCH   1   2
BRANCH   1  13
ATOM     13  C   UNL     1       5.794  31.245   5.349  1.00  0.00     0.000 C 
BRANCH  13  14
ATOM     14  C   UNL     1       6.684  31.914   4.290  1.00  0.00     0.000 C 
BRANCH  14  15
ATOM     15  C   UNL     1       7.410  30.899   3.388  1.00  0.00     0.000 C 
BRANCH  15  16
ATOM     16  C   UNL     1       8.882  30.633   3.754  1.00  0.00     0.000 C 
BRANCH  16  17
ATOM     17  C   UNL     1       9.043  29.570   4.854  1.00  0.00     0.000 C 
BRANCH  17  18
ATOM     18  C   UNL     1       9.314  30.188   6.236  1.00  0.00     0.000 C 
BRANCH  18  19
ATOM     19  C   UNL     1      10.642  30.964   6.285  1.00  0.00     0.000 C 
BRANCH  19  20
ATOM     20  C   UNL     1      10.439  32.472   6.518  1.00  0.00     0.006 C 
BRANCH  20  21
ATOM     21  C   UNL     1      10.277  32.870   7.994  1.00  0.00     0.053 C 
BRANCH  21  22
ATOM     22  C   UNL     1      11.485  33.582   8.520  1.00  0.00     0.041 C 
ATOM     23  O   UNL     1      12.461  32.925   8.969  1.00  0.00    -0.550 OA
ATOM     24  O   UNL     1      11.545  34.969   8.489  1.00  0.00    -0.550 OA
ENDBRANCH  21  22
ENDBRANCH  20  21
ENDBRANCH  19  20
ENDBRANCH  18  19
ENDBRANCH  17  18
ENDBRANCH  16  17
ENDBRANCH  15  16
ENDBRANCH  14  15
ENDBRANCH  13  14
ENDBRANCH   1  13
TORSDOF 20
ENDMDL
MODEL 2
REMARK VINA RESULT:    -3.820      2.478      5.408
REMARK INTER + INTRA:         -11.629
REMARK INTER:                  -7.508
REMARK INTRA:                  -4.121
REMARK UNBOUND:                -3.343
REMARK SMILES CCCCCCCCCCCCCCCCCCCCCC(=O)[O-]
REMARK SMILES IDX 12 1 11 2 10 3 9 4 8 5 7 6 6 7 5 8 4 9 3 10 2 11 1 12 13 13
REMARK SMILES IDX 14 14 15 15 16 16 17 17 18 18 19 19 20 20 21 21 22 22 23 23
REMARK SMILES IDX 24 24
REMARK H PARENT
REMARK Flexibility Score: inf
ROOT
ATOM      1  C   UNL     1       9.954  33.989   8.194  1.00  0.00     0.000 C 
ENDROOT
BRANCH   1   2
ATOM      2  C   UNL     1      10.549  33.221   7.002  1.00  0.00     0.000 C 
BRANCH   2   3
ATOM      3  C   UNL     1      11.202  31.894   7.422  1.00  0.00     0.000 C 
BRANCH   3   4
ATOM      4  C   UNL     1      10.618  30.681   6.675  1.00  0.00    -0.000 C 
BRANCH   4   5
ATOM      5  C   UNL     1       9.906  31.020   5.350  1.00  0.00    -0.000 C 
BRANCH   5   6
ATOM      6  C   UNL     1       8.960  29.926   4.812  1.00  0.00    -0.000 C 
BRANCH   6   7
ATOM      7  C   UNL     1       8.396  30.182   3.403  1.00  0.00    -0.000 C 
BRANCH   7   8
ATOM      8  C   UNL     1       7.682  31.539   3.283  1.00  0.00    -0.000 C 
BRANCH   8   9
ATOM      9  C   UNL     1       6.250  31.417   2.729  1.00  0.00    -0.000 C 
BRANCH   9  10
ATOM     10  C   UNL     1       5.214  32.351   3.381  1.00  0.00    -0.000 C 
BRANCH  10  11
ATOM     11  C   UNL     1       5.456  33.833   3.059  1.00  0.00    -0.003 C 
ATOM     12  C   UNL     1       4.388  34.716   3.700  1.00  0.00     0.004 C 
ENDBRANCH  10  11
ENDBRANCH   9  10
ENDBRANCH   8   9
ENDBRANCH   7   8
ENDBRANCH   6   7
ENDBRANCH   5   6
ENDBRANCH   4   5
ENDBRANCH   3   4
ENDBRANCH   2   3
ENDBRANCH   1   2
BRANCH   1  13
ATOM     13  C   UNL     1      10.083  33.214   9.514  1.00  0.00     0.000 C 
BRANCH  13  14
ATOM     14  C   UNL     1       8.703  32.799  10.046  1.00  0.00     0.000 C 
BRANCH  14  15
ATOM     15  C   UNL     1       8.394  31.309   9.813  1.00  0.00     0.000 C 
BRANCH  15  16
ATOM     16  C   UNL     1       7.004  31.013   9.220  1.00  0.00     0.000 C 
BRANCH  16  17
ATOM     17  C   UNL     1       7.044  30.736   7.707  1.00  0.00     0.000 C 
BRANCH  17  18
ATOM     18  C   UNL     1       6.161  31.708   6.906  1.00  0.00     0.000 C 
BRANCH  18  19
ATOM     19  C   UNL     1       6.870  33.042   6.610  1.00  0.00     0.000 C 
BRANCH  19  20
ATOM     20  C   UNL     1       5.999  34.265   6.953  1.00  0.00     0.006 C 
BRANCH  20  21
ATOM     21  C   UNL     1       6.378  34.964   8.269  1.00  0.00     0.053 C 
BRANCH  21  22
ATOM     22  C   UNL     1       5.333  34.778   9.325  1.00  0.00     0.041 C 
ATOM     23  O   UNL     1       4.337  34.040   9.106  1.00  0.00    -0.550 OA
ATOM     24  O   UNL     1       5.474  35.396  10.560  1.00  0.00    -0.550 OA
ENDBRANCH  21  22
ENDBRANCH  20  21
ENDBRANCH  19  20
ENDBRANCH  18  19
ENDBRANCH  17  18
ENDBRANCH  16  17
ENDBRANCH  15  16
ENDBRANCH  14  15
ENDBRANCH  13  14
ENDBRANCH   1  13
TORSDOF 20
ENDMDL
MODEL 3
REMARK VINA RESULT:    -3.777      9.118     12.846
REMARK INTER + INTRA:         -11.536
REMARK INTER:                  -8.398
REMARK INTRA:                  -3.137
REMARK UNBOUND:                -3.343
REMARK SMILES CCCCCCCCCCCCCCCCCCCCCC(=O)[O-]
REMARK SMILES IDX 12 1 11 2 10 3 9 4 8 5 7 6 6 7 5 8 4 9 3 10 2 11 1 12 13 13
REMARK SMILES IDX 14 14 15 15 16 16 17 17 18 18 19 19 20 20 21 21 22 22 23 23
REMARK SMILES IDX 24 24
REMARK H PARENT
REMARK Flexibility Score: inf
ROOT
ATOM      1  C   UNL     1       4.937  36.994  -4.538  1.00  0.00     0.000 C 
ENDROOT
BRANCH   1   2
ATOM      2  C   UNL     1       3.467  36.564  -4.403  1.00  0.00     0.000 C 
BRANCH   2   3
ATOM      3  C   UNL     1       2.490  37.739  -4.568  1.00  0.00     0.000 C 
BRANCH   3   4
ATOM      4  C   UNL     1       1.178  37.330  -5.260  1.00  0.00    -0.000 C 
BRANCH   4   5
ATOM      5  C   UNL     1       0.719  35.886  -4.973  1.00  0.00    -0.000 C 
BRANCH   5   6
ATOM      6  C   UNL     1      -0.411  35.748  -3.932  1.00  0.00    -0.000 C 
BRANCH   6   7
ATOM      7  C   UNL     1       0.029  35.234  -2.549  1.00  0.00    -0.000 C 
BRANCH   7   8
ATOM      8  C   UNL     1       0.605  36.344  -1.655  1.00  0.00    -0.000 C 
BRANCH   8   9
ATOM      9  C   UNL     1       0.215  36.185  -0.174  1.00  0.00    -0.000 C 
BRANCH   9  10
ATOM     10  C   UNL     1      -0.272  37.472   0.518  1.00  0.00    -0.000 C 
BRANCH  10  11
ATOM     11  C   UNL     1       0.482  37.776   1.820  1.00  0.00    -0.003 C 
ATOM     12  C   UNL     1       0.911  36.488   2.519  1.00  0.00     0.004 C 
ENDBRANCH  10  11
ENDBRANCH   9  10
ENDBRANCH   8   9
ENDBRANCH   7   8
ENDBRANCH   6   7
ENDBRANCH   5   6
ENDBRANCH   4   5
ENDBRANCH   3   4
ENDBRANCH   2   3
ENDBRANCH   1   2
BRANCH   1  13
ATOM     13  C   UNL     1       5.080  38.461  -4.973  1.00  0.00     0.000 C 
BRANCH  13  14
ATOM     14  C   UNL     1       6.109  38.601  -6.105  1.00  0.00     0.000 C 
BRANCH  14  15
ATOM     15  C   UNL     1       5.526  39.261  -7.367  1.00  0.00     0.000 C 
BRANCH  15  16
ATOM     16  C   UNL     1       4.038  39.648  -7.277  1.00  0.00     0.000 C 
BRANCH  16  17
ATOM     17  C   UNL     1       3.136  38.770  -8.160  1.00  0.00     0.000 C 
BRANCH  17  18
ATOM     18  C   UNL     1       3.907  37.620  -8.831  1.00  0.00     0.000 C 
BRANCH  18  19
ATOM     19  C   UNL     1       3.746  36.286  -8.080  1.00  0.00     0.000 C 
BRANCH  19  20
ATOM     20  C   UNL     1       5.077  35.528  -7.924  1.00  0.00     0.006 C 
BRANCH  20  21
ATOM     21  C   UNL     1       4.995  34.280  -7.030  1.00  0.00     0.053 C 
BRANCH  21  22
ATOM     22  C   UNL     1       6.344  33.854  -6.535  1.00  0.00     0.041 C 
ATOM     23  O   UNL     1       7.157  34.711  -6.100  1.00  0.00    -0.550 OA
ATOM     24  O   UNL     1       6.690  32.510  -6.530  1.00  0.00    -0.550 OA
ENDBRANCH  21  22
ENDBRANCH  20  21
ENDBRANCH  19  20
ENDBRANCH  18  19
ENDBRANCH  17  18
ENDBRANCH  16  17
ENDBRANCH  15  16
ENDBRANCH  14  15
ENDBRANCH  13  14
ENDBRANCH   1  13
TORSDOF 20
ENDMDL
MODEL 4
REMARK VINA RESULT:    -3.759      1.426      4.635
REMARK INTER + INTRA:         -11.497
REMARK INTER:                  -8.382
REMARK INTRA:                  -3.115
REMARK UNBOUND:                -3.343
REMARK SMILES CCCCCCCCCCCCCCCCCCCCCC(=O)[O-]
REMARK SMILES IDX 12 1 11 2 10 3 9 4 8 5 7 6 6 7 5 8 4 9 3 10 2 11 1 12 13 13
REMARK SMILES IDX 14 14 15 15 16 16 17 17 18 18 19 19 20 20 21 21 22 22 23 23
REMARK SMILES IDX 24 24
REMARK H PARENT
REMARK Flexibility Score: inf
ROOT
ATOM      1  C   UNL     1       4.093  35.030   4.369  1.00  0.00     0.000 C 
ENDROOT
BRANCH   1   2
ATOM      2  C   UNL     1       4.327  34.306   3.034  1.00  0.00     0.000 C 
BRANCH   2   3
ATOM      3  C   UNL     1       5.793  34.377   2.573  1.00  0.00     0.000 C 
BRANCH   3   4
ATOM      4  C   UNL     1       6.055  33.557   1.297  1.00  0.00    -0.000 C 
BRANCH   4   5
ATOM      5  C   UNL     1       5.328  32.199   1.240  1.00  0.00    -0.000 C 
BRANCH   5   6
ATOM      6  C   UNL     1       5.921  31.096   2.141  1.00  0.00    -0.000 C 
BRANCH   6   7
ATOM      7  C   UNL     1       5.081  30.738   3.380  1.00  0.00    -0.000 C 
BRANCH   7   8
ATOM      8  C   UNL     1       5.753  31.157   4.698  1.00  0.00    -0.000 C 
BRANCH   8   9
ATOM      9  C   UNL     1       7.230  31.556   4.518  1.00  0.00    -0.000 C 
BRANCH   9  10
ATOM     10  C   UNL     1       8.188  31.034   5.605  1.00  0.00    -0.000 C 
BRANCH  10  11
ATOM     11  C   UNL     1       9.664  31.307   5.285  1.00  0.00    -0.003 C 
ATOM     12  C   UNL     1      10.582  30.606   6.283  1.00  0.00     0.004 C 
ENDBRANCH  10  11
ENDBRANCH   9  10
ENDBRANCH   8   9
ENDBRANCH   7   8
ENDBRANCH   6   7
ENDBRANCH   5   6
ENDBRANCH   4   5
ENDBRANCH   3   4
ENDBRANCH   2   3
ENDBRANCH   1   2
BRANCH   1  13
ATOM     13  C   UNL     1       5.304  34.934   5.309  1.00  0.00     0.000 C 
BRANCH  13  14
ATOM     14  C   UNL     1       4.929  34.227   6.621  1.00  0.00     0.000 C 
BRANCH  14  15
ATOM     15  C   UNL     1       5.206  35.088   7.867  1.00  0.00     0.000 C 
BRANCH  15  16
ATOM     16  C   UNL     1       6.448  34.682   8.681  1.00  0.00     0.000 C 
BRANCH  16  17
ATOM     17  C   UNL     1       6.798  33.191   8.537  1.00  0.00     0.000 C 
BRANCH  17  18
ATOM     18  C   UNL     1       8.315  32.938   8.544  1.00  0.00     0.000 C 
BRANCH  18  19
ATOM     19  C   UNL     1       9.128  34.225   8.323  1.00  0.00     0.000 C 
BRANCH  19  20
ATOM     20  C   UNL     1      10.518  33.953   7.718  1.00  0.00     0.006 C 
BRANCH  20  21
ATOM     21  C   UNL     1      11.682  34.104   8.711  1.00  0.00     0.053 C 
BRANCH  21  22
ATOM     22  C   UNL     1      12.195  32.778   9.183  1.00  0.00     0.041 C 
ATOM     23  O   UNL     1      11.460  32.026   9.874  1.00  0.00    -0.550 OA
ATOM     24  O   UNL     1      13.473  32.363   8.835  1.00  0.00    -0.550 OA
ENDBRANCH  21  22
ENDBRANCH  20  21
ENDBRANCH  19  20
ENDBRANCH  18  19
ENDBRANCH  17  18
ENDBRANCH  16  17
ENDBRANCH  15  16
ENDBRANCH  14  15
ENDBRANCH  13  14
ENDBRANCH   1  13
TORSDOF 20
ENDMDL
MODEL 5
REMARK VINA RESULT:    -3.752     10.425     13.212
REMARK INTER + INTRA:         -11.482
REMARK INTER:                  -7.788
REMARK INTRA:                  -3.694
REMARK UNBOUND:                -3.343
REMARK SMILES CCCCCCCCCCCCCCCCCCCCCC(=O)[O-]
REMARK SMILES IDX 12 1 11 2 10 3 9 4 8 5 7 6 6 7 5 8 4 9 3 10 2 11 1 12 13 13
REMARK SMILES IDX 14 14 15 15 16 16 17 17 18 18 19 19 20 20 21 21 22 22 23 23
REMARK SMILES IDX 24 24
REMARK H PARENT
REMARK Flexibility Score: inf
ROOT
ATOM      1  C   UNL     1       5.413  38.171  -5.178  1.00  0.00     0.000 C 
ENDROOT
BRANCH   1   2
ATOM      2  C   UNL     1       5.155  36.658  -5.089  1.00  0.00     0.000 C 
BRANCH   2   3
ATOM      3  C   UNL     1       5.629  35.904  -6.343  1.00  0.00     0.000 C 
BRANCH   3   4
ATOM      4  C   UNL     1       4.476  35.215  -7.094  1.00  0.00    -0.000 C 
BRANCH   4   5
ATOM      5  C   UNL     1       3.656  34.220  -6.247  1.00  0.00    -0.000 C 
BRANCH   5   6
ATOM      6  C   UNL     1       3.406  32.847  -6.903  1.00  0.00    -0.000 C 
BRANCH   6   7
ATOM      7  C   UNL     1       4.128  31.660  -6.239  1.00  0.00    -0.000 C 
BRANCH   7   8
ATOM      8  C   UNL     1       5.011  32.087  -5.054  1.00  0.00    -0.000 C 
BRANCH   8   9
ATOM      9  C   UNL     1       6.476  32.338  -5.457  1.00  0.00    -0.000 C 
BRANCH   9  10
ATOM     10  C   UNL     1       6.866  31.834  -6.859  1.00  0.00    -0.000 C 
BRANCH  10  11
ATOM     11  C   UNL     1       7.458  32.936  -7.749  1.00  0.00    -0.003 C 
ATOM     12  C   UNL     1       8.027  32.353  -9.040  1.00  0.00     0.004 C 
ENDBRANCH  10  11
ENDBRANCH   9  10
ENDBRANCH   8   9
ENDBRANCH   7   8
ENDBRANCH   6   7
ENDBRANCH   5   6
ENDBRANCH   4   5
ENDBRANCH   3   4
ENDBRANCH   2   3
ENDBRANCH   1   2
BRANCH   1  13
ATOM     13  C   UNL     1       6.258  38.551  -6.404  1.00  0.00     0.000 C 
BRANCH  13  14
ATOM     14  C   UNL     1       5.585  39.673  -7.209  1.00  0.00     0.000 C 
BRANCH  14  15
ATOM     15  C   UNL     1       4.048  39.596  -7.177  1.00  0.00     0.000 C 
BRANCH  15  16
ATOM     16  C   UNL     1       3.414  38.685  -8.245  1.00  0.00     0.000 C 
BRANCH  16  17
ATOM     17  C   UNL     1       2.147  37.970  -7.747  1.00  0.00     0.000 C 
BRANCH  17  18
ATOM     18  C   UNL     1       1.848  38.261  -6.267  1.00  0.00     0.000 C 
BRANCH  18  19
ATOM     19  C   UNL     1       1.307  37.029  -5.521  1.00  0.00     0.000 C 
BRANCH  19  20
ATOM     20  C   UNL     1       1.633  37.055  -4.017  1.00  0.00     0.006 C 
BRANCH  20  21
ATOM     21  C   UNL     1       1.770  35.665  -3.374  1.00  0.00     0.053 C 
BRANCH  21  22
ATOM     22  C   UNL     1       0.970  35.547  -2.113  1.00  0.00     0.041 C 
ATOM     23  O   UNL     1       0.718  36.572  -1.426  1.00  0.00    -0.550 OA
ATOM     24  O   UNL     1       0.481  34.312  -1.712  1.00  0.00    -0.550 OA
ENDBRANCH  21  22
ENDBRANCH  20  21
ENDBRANCH  19  20
ENDBRANCH  18  19
ENDBRANCH  17  18
ENDBRANCH  16  17
ENDBRANCH  15  16
ENDBRANCH  14  15
ENDBRANCH  13  14
ENDBRANCH   1  13
TORSDOF 20
ENDMDL
MODEL 6
REMARK VINA RESULT:    -3.719      2.879      6.711
REMARK INTER + INTRA:         -11.411
REMARK INTER:                  -7.643
REMARK INTRA:                  -3.768
REMARK UNBOUND:                -3.343
REMARK SMILES CCCCCCCCCCCCCCCCCCCCCC(=O)[O-]
REMARK SMILES IDX 12 1 11 2 10 3 9 4 8 5 7 6 6 7 5 8 4 9 3 10 2 11 1 12 13 13
REMARK SMILES IDX 14 14 15 15 16 16 17 17 18 18 19 19 20 20 21 21 22 22 23 23
REMARK SMILES IDX 24 24
REMARK H PARENT
REMARK Flexibility Score: inf
ROOT
ATOM      1  C   UNL     1      11.426  32.543   7.827  1.00  0.00     0.000 C 
ENDROOT
BRANCH   1   2
ATOM      2  C   UNL     1      10.722  31.206   7.546  1.00  0.00     0.000 C 
BRANCH   2   3
ATOM      3  C   UNL     1      10.535  30.941   6.043  1.00  0.00     0.000 C 
BRANCH   3   4
ATOM      4  C   UNL     1       9.410  29.932   5.752  1.00  0.00    -0.000 C 
BRANCH   4   5
ATOM      5  C   UNL     1       8.961  29.872   4.279  1.00  0.00    -0.000 C 
BRANCH   5   6
ATOM      6  C   UNL     1       8.190  31.110   3.774  1.00  0.00    -0.000 C 
BRANCH   6   7
ATOM      7  C   UNL     1       7.088  31.627   4.718  1.00  0.00    -0.000 C 
BRANCH   7   8
ATOM      8  C   UNL     1       5.771  30.846   4.582  1.00  0.00    -0.000 C 
BRANCH   8   9
ATOM      9  C   UNL     1       5.325  30.186   5.901  1.00  0.00    -0.000 C 
BRANCH   9  10
ATOM     10  C   UNL     1       5.997  30.740   7.171  1.00  0.00    -0.000 C 
BRANCH  10  11
ATOM     11  C   UNL     1       6.634  29.645   8.038  1.00  0.00    -0.003 C 
ATOM     12  C   UNL     1       7.508  30.251   9.133  1.00  0.00     0.004 C 
ENDBRANCH  10  11
ENDBRANCH   9  10
ENDBRANCH   8   9
ENDBRANCH   7   8
ENDBRANCH   6   7
ENDBRANCH   5   6
ENDBRANCH   4   5
ENDBRANCH   3   4
ENDBRANCH   2   3
ENDBRANCH   1   2
BRANCH   1  13
ATOM     13  C   UNL     1      10.550  33.754   7.467  1.00  0.00     0.000 C 
BRANCH  13  14
ATOM     14  C   UNL     1       9.278  33.788   8.327  1.00  0.00     0.000 C 
BRANCH  14  15
ATOM     15  C   UNL     1       7.987  33.752   7.489  1.00  0.00     0.000 C 
BRANCH  15  16
ATOM     16  C   UNL     1       6.724  34.259   8.209  1.00  0.00     0.000 C 
BRANCH  16  17
ATOM     17  C   UNL     1       5.783  35.049   7.283  1.00  0.00     0.000 C 
BRANCH  17  18
ATOM     18  C   UNL     1       4.774  34.143   6.557  1.00  0.00     0.000 C 
BRANCH  18  19
ATOM     19  C   UNL     1       4.276  34.756   5.236  1.00  0.00     0.000 C 
BRANCH  19  20
ATOM     20  C   UNL     1       5.333  34.697   4.118  1.00  0.00     0.006 C 
BRANCH  20  21
ATOM     21  C   UNL     1       4.796  34.205   2.764  1.00  0.00     0.053 C 
BRANCH  21  22
ATOM     22  C   UNL     1       5.900  33.799   1.836  1.00  0.00     0.041 C 
ATOM     23  O   UNL     1       6.009  32.599   1.469  1.00  0.00    -0.550 OA
ATOM     24  O   UNL     1       6.791  34.749   1.357  1.00  0.00    -0.550 OA
ENDBRANCH  21  22
ENDBRANCH  20  21
ENDBRANCH  19  20
ENDBRANCH  18  19
ENDBRANCH  17  18
ENDBRANCH  16  17
ENDBRANCH  15  16
ENDBRANCH  14  15
ENDBRANCH  13  14
ENDBRANCH   1  13
TORSDOF 20
ENDMDL
MODEL 7
REMARK VINA RESULT:    -3.698     10.078     12.710
REMARK INTER + INTRA:         -11.365
REMARK INTER:                  -7.420
REMARK INTRA:                  -3.945
REMARK UNBOUND:                -3.343
REMARK SMILES CCCCCCCCCCCCCCCCCCCCCC(=O)[O-]
REMARK SMILES IDX 12 1 11 2 10 3 9 4 8 5 7 6 6 7 5 8 4 9 3 10 2 11 1 12 13 13
REMARK SMILES IDX 14 14 15 15 16 16 17 17 18 18 19 19 20 20 21 21 22 22 23 23
REMARK SMILES IDX 24 24
REMARK H PARENT
REMARK Flexibility Score: inf
ROOT
ATOM      1  C   UNL     1       6.319  35.243  -7.103  1.00  0.00     0.000 C 
ENDROOT
BRANCH   1   2
ATOM      2  C   UNL     1       5.234  35.131  -8.187  1.00  0.00     0.000 C 
BRANCH   2   3
ATOM      3  C   UNL     1       3.918  35.811  -7.776  1.00  0.00     0.000 C 
BRANCH   3   4
ATOM      4  C   UNL     1       3.465  36.885  -8.781  1.00  0.00    -0.000 C 
BRANCH   4   5
ATOM      5  C   UNL     1       2.946  38.190  -8.142  1.00  0.00    -0.000 C 
BRANCH   5   6
ATOM      6  C   UNL     1       3.798  39.445  -8.422  1.00  0.00    -0.000 C 
BRANCH   6   7
ATOM      7  C   UNL     1       4.596  39.978  -7.218  1.00  0.00    -0.000 C 
BRANCH   7   8
ATOM      8  C   UNL     1       5.892  39.191  -6.966  1.00  0.00    -0.000 C 
BRANCH   8   9
ATOM      9  C   UNL     1       5.809  38.280  -5.726  1.00  0.00    -0.000 C 
BRANCH   9  10
ATOM     10  C   UNL     1       4.672  38.612  -4.743  1.00  0.00    -0.000 C 
BRANCH  10  11
ATOM     11  C   UNL     1       3.680  37.454  -4.561  1.00  0.00    -0.003 C 
ATOM     12  C   UNL     1       2.238  37.953  -4.608  1.00  0.00     0.004 C 
ENDBRANCH  10  11
ENDBRANCH   9  10
ENDBRANCH   8   9
ENDBRANCH   7   8
ENDBRANCH   6   7
ENDBRANCH   5   6
ENDBRANCH   4   5
ENDBRANCH   3   4
ENDBRANCH   2   3
ENDBRANCH   1   2
BRANCH   1  13
ATOM     13  C   UNL     1       7.087  33.927  -6.904  1.00  0.00     0.000 C 
BRANCH  13  14
ATOM     14  C   UNL     1       6.729  33.279  -5.557  1.00  0.00     0.000 C 
BRANCH  14  15
ATOM     15  C   UNL     1       6.173  34.288  -4.536  1.00  0.00     0.000 C 
BRANCH  15  16
ATOM     16  C   UNL     1       4.775  33.957  -3.981  1.00  0.00     0.000 C 
BRANCH  16  17
ATOM     17  C   UNL     1       4.215  32.631  -4.523  1.00  0.00     0.000 C 
BRANCH  17  18
ATOM     18  C   UNL     1       2.894  32.818  -5.289  1.00  0.00     0.000 C 
BRANCH  18  19
ATOM     19  C   UNL     1       2.237  34.181  -5.007  1.00  0.00     0.000 C 
BRANCH  19  20
ATOM     20  C   UNL     1       1.113  34.092  -3.959  1.00  0.00     0.006 C 
BRANCH  20  21
ATOM     21  C   UNL     1       1.496  34.630  -2.571  1.00  0.00     0.053 C 
BRANCH  21  22
ATOM     22  C   UNL     1       0.593  35.742  -2.130  1.00  0.00     0.041 C 
ATOM     23  O   UNL     1      -0.349  36.123  -2.873  1.00  0.00    -0.550 OA
ATOM     24  O   UNL     1       0.775  36.336  -0.889  1.00  0.00    -0.550 OA
ENDBRANCH  21  22
ENDBRANCH  20  21
ENDBRANCH  19  20
ENDBRANCH  18  19
ENDBRANCH  17  18
ENDBRANCH  16  17
ENDBRANCH  15  16
ENDBRANCH  14  15
ENDBRANCH  13  14
ENDBRANCH   1  13
TORSDOF 20
ENDMDL
MODEL 8
REMARK VINA RESULT:    -3.695      3.741      6.710
REMARK INTER + INTRA:         -11.358
REMARK INTER:                  -8.095
REMARK INTRA:                  -3.263
REMARK UNBOUND:                -3.343
REMARK SMILES CCCCCCCCCCCCCCCCCCCCCC(=O)[O-]
REMARK SMILES IDX 12 1 11 2 10 3 9 4 8 5 7 6 6 7 5 8 4 9 3 10 2 11 1 12 13 13
REMARK SMILES IDX 14 14 15 15 16 16 17 17 18 18 19 19 20 20 21 21 22 22 23 23
REMARK SMILES IDX 24 24
REMARK H PARENT
REMARK Flexibility Score: inf
ROOT
ATOM      1  C   UNL     1       9.017  31.147  10.178  1.00  0.00     0.000 C 
ENDROOT
BRANCH   1   2
ATOM      2  C   UNL     1      10.517  30.878  10.383  1.00  0.00     0.000 C 
BRANCH   2   3
ATOM      3  C   UNL     1      11.377  32.134  10.169  1.00  0.00     0.000 C 
BRANCH   3   4
ATOM      4  C   UNL     1      12.036  32.173   8.779  1.00  0.00    -0.000 C 
BRANCH   4   5
ATOM      5  C   UNL     1      11.260  32.977   7.717  1.00  0.00    -0.000 C 
BRANCH   5   6
ATOM      6  C   UNL     1      10.766  34.365   8.173  1.00  0.00    -0.000 C 
BRANCH   6   7
ATOM      7  C   UNL     1       9.269  34.446   8.527  1.00  0.00    -0.000 C 
BRANCH   7   8
ATOM      8  C   UNL     1       8.378  33.697   7.523  1.00  0.00    -0.000 C 
BRANCH   8   9
ATOM      9  C   UNL     1       6.882  33.755   7.889  1.00  0.00    -0.000 C 
BRANCH   9  10
ATOM     10  C   UNL     1       5.916  33.800   6.691  1.00  0.00    -0.000 C 
BRANCH  10  11
ATOM     11  C   UNL     1       6.043  32.578   5.771  1.00  0.00    -0.003 C 
ATOM     12  C   UNL     1       5.934  32.981   4.303  1.00  0.00     0.004 C 
ENDBRANCH  10  11
ENDBRANCH   9  10
ENDBRANCH   8   9
ENDBRANCH   7   8
ENDBRANCH   6   7
ENDBRANCH   5   6
ENDBRANCH   4   5
ENDBRANCH   3   4
ENDBRANCH   2   3
ENDBRANCH   1   2
BRANCH   1  13
ATOM     13  C   UNL     1       8.449  30.403   8.960  1.00  0.00     0.000 C 
BRANCH  13  14
ATOM     14  C   UNL     1       9.440  29.346   8.449  1.00  0.00     0.000 C 
BRANCH  14  15
ATOM     15  C   UNL     1       9.914  29.615   7.009  1.00  0.00     0.000 C 
BRANCH  15  16
ATOM     16  C   UNL     1       8.916  30.382   6.122  1.00  0.00     0.000 C 
BRANCH  16  17
ATOM     17  C   UNL     1       9.604  31.211   5.024  1.00  0.00     0.000 C 
BRANCH  17  18
ATOM     18  C   UNL     1       9.097  30.860   3.615  1.00  0.00     0.000 C 
BRANCH  18  19
ATOM     19  C   UNL     1       8.561  29.420   3.523  1.00  0.00     0.000 C 
BRANCH  19  20
ATOM     20  C   UNL     1       9.018  28.697   2.243  1.00  0.00     0.006 C 
BRANCH  20  21
ATOM     21  C   UNL     1       8.672  27.200   2.203  1.00  0.00     0.053 C 
BRANCH  21  22
ATOM     22  C   UNL     1       9.674  26.413   1.414  1.00  0.00     0.041 C 
ATOM     23  O   UNL     1       9.581  25.160   1.345  1.00  0.00    -0.550 OA
ATOM     24  O   UNL     1      10.693  27.067   0.734  1.00  0.00    -0.550 OA
ENDBRANCH  21  22
ENDBRANCH  20  21
ENDBRANCH  19  20
ENDBRANCH  18  19
ENDBRANCH  17  18
ENDBRANCH  16  17
ENDBRANCH  15  16
ENDBRANCH  14  15
ENDBRANCH  13  14
ENDBRANCH   1  13
TORSDOF 20
ENDMDL
MODEL 9
REMARK VINA RESULT:    -3.677     10.234     13.740
REMARK INTER + INTRA:         -11.319
REMARK INTER:                  -7.166
REMARK INTRA:                  -4.153
REMARK UNBOUND:                -3.343
REMARK SMILES CCCCCCCCCCCCCCCCCCCCCC(=O)[O-]
REMARK SMILES IDX 12 1 11 2 10 3 9 4 8 5 7 6 6 7 5 8 4 9 3 10 2 11 1 12 13 13
REMARK SMILES IDX 14 14 15 15 16 16 17 17 18 18 19 19 20 20 21 21 22 22 23 23
REMARK SMILES IDX 24 24
REMARK H PARENT
REMARK Flexibility Score: inf
ROOT
ATOM      1  C   UNL     1       5.059  37.698  -4.627  1.00  0.00     0.000 C 
ENDROOT
BRANCH   1   2
ATOM      2  C   UNL     1       5.213  36.241  -5.092  1.00  0.00     0.000 C 
BRANCH   2   3
ATOM      3  C   UNL     1       6.092  36.111  -6.347  1.00  0.00     0.000 C 
BRANCH   3   4
ATOM      4  C   UNL     1       6.832  34.764  -6.418  1.00  0.00    -0.000 C 
BRANCH   4   5
ATOM      5  C   UNL     1       6.594  33.964  -7.715  1.00  0.00    -0.000 C 
BRANCH   5   6
ATOM      6  C   UNL     1       5.141  33.971  -8.235  1.00  0.00    -0.000 C 
BRANCH   6   7
ATOM      7  C   UNL     1       4.196  32.962  -7.558  1.00  0.00    -0.000 C 
BRANCH   7   8
ATOM      8  C   UNL     1       3.180  33.634  -6.619  1.00  0.00    -0.000 C 
BRANCH   8   9
ATOM      9  C   UNL     1       2.854  32.781  -5.379  1.00  0.00    -0.000 C 
BRANCH   9  10
ATOM     10  C   UNL     1       3.454  33.291  -4.056  1.00  0.00    -0.000 C 
BRANCH  10  11
ATOM     11  C   UNL     1       4.909  32.847  -3.847  1.00  0.00    -0.003 C 
ATOM     12  C   UNL     1       5.115  31.406  -4.308  1.00  0.00     0.004 C 
ENDBRANCH  10  11
ENDBRANCH   9  10
ENDBRANCH   8   9
ENDBRANCH   7   8
ENDBRANCH   6   7
ENDBRANCH   5   6
ENDBRANCH   4   5
ENDBRANCH   3   4
ENDBRANCH   2   3
ENDBRANCH   1   2
BRANCH   1  13
ATOM     13  C   UNL     1       5.627  38.701  -5.643  1.00  0.00     0.000 C 
BRANCH  13  14
ATOM     14  C   UNL     1       4.530  39.649  -6.152  1.00  0.00     0.000 C 
BRANCH  14  15
ATOM     15  C   UNL     1       4.681  39.994  -7.645  1.00  0.00     0.000 C 
BRANCH  15  16
ATOM     16  C   UNL     1       3.635  39.351  -8.574  1.00  0.00     0.000 C 
BRANCH  16  17
ATOM     17  C   UNL     1       3.839  37.836  -8.748  1.00  0.00     0.000 C 
BRANCH  17  18
ATOM     18  C   UNL     1       2.764  37.009  -8.022  1.00  0.00     0.000 C 
BRANCH  18  19
ATOM     19  C   UNL     1       1.356  37.610  -8.172  1.00  0.00     0.000 C 
BRANCH  19  20
ATOM     20  C   UNL     1       0.605  37.703  -6.831  1.00  0.00     0.006 C 
BRANCH  20  21
ATOM     21  C   UNL     1       1.516  37.716  -5.593  1.00  0.00     0.053 C 
BRANCH  21  22
ATOM     22  C   UNL     1       1.244  36.557  -4.683  1.00  0.00     0.041 C 
ATOM     23  O   UNL     1       0.478  35.629  -5.053  1.00  0.00    -0.550 OA
ATOM     24  O   UNL     1       1.856  36.490  -3.439  1.00  0.00    -0.550 OA
ENDBRANCH  21  22
ENDBRANCH  20  21
ENDBRANCH  19  20
ENDBRANCH  18  19
ENDBRANCH  17  18
ENDBRANCH  16  17
ENDBRANCH  15  16
ENDBRANCH  14  15
ENDBRANCH  13  14
ENDBRANCH   1  13
TORSDOF 20
ENDMDL
