MODEL 1
REMARK VINA RESULT:    -5.973      0.000      0.000
REMARK INTER + INTRA:         -17.943
REMARK INTER:                 -15.052
REMARK INTRA:                  -2.890
REMARK UNBOUND:                -2.890
REMARK SMILES CCCCCCCCCCCCCCCCCCCCCCCCCCCC(=O)[O-]
REMARK SMILES IDX 15 1 16 2 17 3 18 4 19 5 20 6 21 7 22 8 23 9 24 10 25 11
REMARK SMILES IDX 26 12 27 13 28 14 29 15 30 16 14 17 13 18 12 19 11 20 10 21
REMARK SMILES IDX 9 22 8 23 7 24 6 25 5 26 4 27 3 28 2 29 1 30
REMARK H PARENT
REMARK Flexibility Score: inf
ROOT
ATOM      1  C   UNL     1      89.251 324.854 198.880  1.00  0.00     0.000 C 
ENDROOT
BRANCH   1   2
ATOM      2  C   UNL     1      89.218 326.263 199.498  1.00  0.00     0.000 C 
BRANCH   2   3
ATOM      3  C   UNL     1      90.056 326.425 200.781  1.00  0.00     0.000 C 
BRANCH   3   4
ATOM      4  C   UNL     1      89.195 326.481 202.054  1.00  0.00     0.000 C 
BRANCH   4   5
ATOM      5  C   UNL     1      90.004 326.884 203.294  1.00  0.00     0.000 C 
BRANCH   5   6
ATOM      6  C   UNL     1      89.124 327.493 204.398  1.00  0.00     0.000 C 
BRANCH   6   7
ATOM      7  C   UNL     1      89.655 327.206 205.812  1.00  0.00     0.000 C 
BRANCH   7   8
ATOM      8  C   UNL     1      88.683 326.380 206.686  1.00  0.00     0.000 C 
BRANCH   8   9
ATOM      9  C   UNL     1      88.232 325.074 206.009  1.00  0.00     0.000 C 
BRANCH   9  10
ATOM     10  C   UNL     1      86.698 324.894 206.015  1.00  0.00     0.000 C 
BRANCH  10  11
ATOM     11  C   UNL     1      86.247 323.873 204.958  1.00  0.00     0.000 C 
BRANCH  11  12
ATOM     12  C   UNL     1      87.226 323.831 203.777  1.00  0.00     0.006 C 
BRANCH  12  13
ATOM     13  C   UNL     1      86.500 323.777 202.426  1.00  0.00     0.053 C 
BRANCH  13  14
ATOM     14  C   UNL     1      86.669 322.447 201.759  1.00  0.00     0.041 C 
ATOM     15  O   UNL     1      86.532 321.382 202.418  1.00  0.00    -0.550 OA
ATOM     16  O   UNL     1      86.994 322.383 200.410  1.00  0.00    -0.550 OA
ENDBRANCH  13  14
ENDBRANCH  12  13
ENDBRANCH  11  12
ENDBRANCH  10  11
ENDBRANCH   9  10
ENDBRANCH   8   9
ENDBRANCH   7   8
ENDBRANCH   6   7
ENDBRANCH   5   6
ENDBRANCH   4   5
ENDBRANCH   3   4
ENDBRANCH   2   3
ENDBRANCH   1   2
BRANCH   1  17
ATOM     17  C   UNL     1      88.878 324.843 197.388  1.00  0.00     0.000 C 
BRANCH  17  18
ATOM     18  C   UNL     1      88.488 326.237 196.873  1.00  0.00     0.000 C 
BRANCH  18  19
ATOM     19  C   UNL     1      88.037 326.209 195.401  1.00  0.00     0.000 C 
BRANCH  19  20
ATOM     20  C   UNL     1      86.784 325.344 195.179  1.00  0.00     0.000 C 
BRANCH  20  21
ATOM     21  C   UNL     1      86.062 325.584 193.839  1.00  0.00     0.000 C 
BRANCH  21  22
ATOM     22  C   UNL     1      86.487 324.647 192.689  1.00  0.00    -0.000 C 
BRANCH  22  23
ATOM     23  C   UNL     1      87.949 324.802 192.231  1.00  0.00    -0.000 C 
BRANCH  23  24
ATOM     24  C   UNL     1      88.271 323.966 190.984  1.00  0.00    -0.000 C 
BRANCH  24  25
ATOM     25  C   UNL     1      87.465 322.657 190.972  1.00  0.00    -0.000 C 
BRANCH  25  26
ATOM     26  C   UNL     1      88.339 321.411 191.201  1.00  0.00    -0.000 C 
BRANCH  26  27
ATOM     27  C   UNL     1      89.058 321.361 192.561  1.00  0.00    -0.000 C 
BRANCH  27  28
ATOM     28  C   UNL     1      88.084 321.287 193.749  1.00  0.00    -0.000 C 
BRANCH  28  29
ATOM     29  C   UNL     1      88.522 322.176 194.923  1.00  0.00    -0.003 C 
ATOM     30  C   UNL     1      89.761 321.634 195.639  1.00  0.00     0.004 C 
ENDBRANCH  28  29
ENDBRANCH  27  28
ENDBRANCH  26  27
ENDBRANCH  25  26
ENDBRANCH  24  25
ENDBRANCH  23  24
ENDBRANCH  22  23
ENDBRANCH  21  22
ENDBRANCH  20  21
ENDBRANCH  19  20
ENDBRANCH  18  19
ENDBRANCH  17  18
ENDBRANCH   1  17
TORSDOF 26
ENDMDL
MODEL 2
REMARK VINA RESULT:    -5.934      1.404      2.606
REMARK INTER + INTRA:         -17.844
REMARK INTER:                 -15.529
REMARK INTRA:                  -2.315
REMARK UNBOUND:                -2.890
REMARK SMILES CCCCCCCCCCCCCCCCCCCCCCCCCCCC(=O)[O-]
REMARK SMILES IDX 15 1 16 2 17 3 18 4 19 5 20 6 21 7 22 8 23 9 24 10 25 11
REMARK SMILES IDX 26 12 27 13 28 14 29 15 30 16 14 17 13 18 12 19 11 20 10 21
REMARK SMILES IDX 9 22 8 23 7 24 6 25 5 26 4 27 3 28 2 29 1 30
REMARK H PARENT
REMARK Flexibility Score: inf
ROOT
ATOM      1  C   UNL     1      89.245 325.698 199.220  1.00  0.00     0.000 C 
ENDROOT
BRANCH   1   2
ATOM      2  C   UNL     1      89.057 325.296 200.694  1.00  0.00     0.000 C 
BRANCH   2   3
ATOM      3  C   UNL     1      89.136 326.463 201.697  1.00  0.00     0.000 C 
BRANCH   3   4
ATOM      4  C   UNL     1      90.581 326.821 202.083  1.00  0.00     0.000 C 
BRANCH   4   5
ATOM      5  C   UNL     1      90.700 327.290 203.540  1.00  0.00     0.000 C 
BRANCH   5   6
ATOM      6  C   UNL     1      89.351 327.259 204.279  1.00  0.00     0.000 C 
BRANCH   6   7
ATOM      7  C   UNL     1      89.509 327.280 205.809  1.00  0.00     0.000 C 
BRANCH   7   8
ATOM      8  C   UNL     1      88.656 326.213 206.536  1.00  0.00     0.000 C 
BRANCH   8   9
ATOM      9  C   UNL     1      88.118 325.128 205.587  1.00  0.00     0.000 C 
BRANCH   9  10
ATOM     10  C   UNL     1      86.658 324.732 205.897  1.00  0.00     0.000 C 
BRANCH  10  11
ATOM     11  C   UNL     1      86.062 323.861 204.780  1.00  0.00     0.000 C 
BRANCH  11  12
ATOM     12  C   UNL     1      87.052 323.699 203.618  1.00  0.00     0.006 C 
BRANCH  12  13
ATOM     13  C   UNL     1      86.350 323.718 202.253  1.00  0.00     0.053 C 
BRANCH  13  14
ATOM     14  C   UNL     1      86.500 322.413 201.534  1.00  0.00     0.041 C 
ATOM     15  O   UNL     1      86.856 322.389 200.326  1.00  0.00    -0.550 OA
ATOM     16  O   UNL     1      86.230 321.221 202.195  1.00  0.00    -0.550 OA
ENDBRANCH  13  14
ENDBRANCH  12  13
ENDBRANCH  11  12
ENDBRANCH  10  11
ENDBRANCH   9  10
ENDBRANCH   8   9
ENDBRANCH   7   8
ENDBRANCH   6   7
ENDBRANCH   5   6
ENDBRANCH   4   5
ENDBRANCH   3   4
ENDBRANCH   2   3
ENDBRANCH   1   2
BRANCH   1  17
ATOM     17  C   UNL     1      89.214 324.497 198.260  1.00  0.00     0.000 C 
BRANCH  17  18
ATOM     18  C   UNL     1      88.902 324.914 196.814  1.00  0.00     0.000 C 
BRANCH  18  19
ATOM     19  C   UNL     1      88.128 326.243 196.746  1.00  0.00     0.000 C 
BRANCH  19  20
ATOM     20  C   UNL     1      87.024 326.234 195.674  1.00  0.00     0.000 C 
BRANCH  20  21
ATOM     21  C   UNL     1      87.430 326.856 194.323  1.00  0.00     0.000 C 
BRANCH  21  22
ATOM     22  C   UNL     1      87.806 325.843 193.222  1.00  0.00    -0.000 C 
BRANCH  22  23
ATOM     23  C   UNL     1      86.913 324.591 193.157  1.00  0.00    -0.000 C 
BRANCH  23  24
ATOM     24  C   UNL     1      87.699 323.319 192.807  1.00  0.00    -0.000 C 
BRANCH  24  25
ATOM     25  C   UNL     1      88.434 323.475 191.467  1.00  0.00    -0.000 C 
BRANCH  25  26
ATOM     26  C   UNL     1      87.595 323.007 190.264  1.00  0.00    -0.000 C 
BRANCH  26  27
ATOM     27  C   UNL     1      88.370 322.886 188.939  1.00  0.00    -0.000 C 
BRANCH  27  28
ATOM     28  C   UNL     1      89.734 323.594 188.977  1.00  0.00    -0.000 C 
BRANCH  28  29
ATOM     29  C   UNL     1      90.833 322.790 188.266  1.00  0.00    -0.003 C 
ATOM     30  C   UNL     1      90.322 321.455 187.721  1.00  0.00     0.004 C 
ENDBRANCH  28  29
ENDBRANCH  27  28
ENDBRANCH  26  27
ENDBRANCH  25  26
ENDBRANCH  24  25
ENDBRANCH  23  24
ENDBRANCH  22  23
ENDBRANCH  21  22
ENDBRANCH  20  21
ENDBRANCH  19  20
ENDBRANCH  18  19
ENDBRANCH  17  18
ENDBRANCH   1  17
TORSDOF 26
ENDMDL
MODEL 3
REMARK VINA RESULT:    -5.872      3.850     11.161
REMARK INTER + INTRA:         -17.689
REMARK INTER:                 -14.943
REMARK INTRA:                  -2.746
REMARK UNBOUND:                -2.890
REMARK SMILES CCCCCCCCCCCCCCCCCCCCCCCCCCCC(=O)[O-]
REMARK SMILES IDX 15 1 16 2 17 3 18 4 19 5 20 6 21 7 22 8 23 9 24 10 25 11
REMARK SMILES IDX 26 12 27 13 28 14 29 15 30 16 14 17 13 18 12 19 11 20 10 21
REMARK SMILES IDX 9 22 8 23 7 24 6 25 5 26 4 27 3 28 2 29 1 30
REMARK H PARENT
REMARK Flexibility Score: inf
ROOT
ATOM      1  C   UNL     1      90.319 323.879 198.982  1.00  0.00     0.000 C 
ENDROOT
BRANCH   1   2
ATOM      2  C   UNL     1      88.896 323.324 198.789  1.00  0.00     0.000 C 
BRANCH   2   3
ATOM      3  C   UNL     1      88.288 323.574 197.396  1.00  0.00     0.000 C 
BRANCH   3   4
ATOM      4  C   UNL     1      88.993 324.707 196.632  1.00  0.00     0.000 C 
BRANCH   4   5
ATOM      5  C   UNL     1      88.272 326.053 196.780  1.00  0.00     0.000 C 
BRANCH   5   6
ATOM      6  C   UNL     1      87.729 326.579 195.440  1.00  0.00     0.000 C 
BRANCH   6   7
ATOM      7  C   UNL     1      86.294 326.108 195.152  1.00  0.00     0.000 C 
BRANCH   7   8
ATOM      8  C   UNL     1      86.131 325.422 193.775  1.00  0.00     0.000 C 
BRANCH   8   9
ATOM      9  C   UNL     1      87.474 325.000 193.153  1.00  0.00     0.000 C 
BRANCH   9  10
ATOM     10  C   UNL     1      87.303 324.209 191.837  1.00  0.00     0.000 C 
BRANCH  10  11
ATOM     11  C   UNL     1      88.603 324.192 191.018  1.00  0.00     0.000 C 
BRANCH  11  12
ATOM     12  C   UNL     1      88.667 322.957 190.108  1.00  0.00     0.006 C 
BRANCH  12  13
ATOM     13  C   UNL     1      89.178 323.301 188.703  1.00  0.00     0.053 C 
BRANCH  13  14
ATOM     14  C   UNL     1      90.377 322.482 188.333  1.00  0.00     0.041 C 
ATOM     15  O   UNL     1      90.237 321.302 187.916  1.00  0.00    -0.550 OA
ATOM     16  O   UNL     1      91.651 323.018 188.464  1.00  0.00    -0.550 OA
ENDBRANCH  13  14
ENDBRANCH  12  13
ENDBRANCH  11  12
ENDBRANCH  10  11
ENDBRANCH   9  10
ENDBRANCH   8   9
ENDBRANCH   7   8
ENDBRANCH   6   7
ENDBRANCH   5   6
ENDBRANCH   4   5
ENDBRANCH   3   4
ENDBRANCH   2   3
ENDBRANCH   1   2
BRANCH   1  17
ATOM     17  C   UNL     1      90.452 324.779 200.222  1.00  0.00     0.000 C 
BRANCH  17  18
ATOM     18  C   UNL     1      89.603 326.055 200.110  1.00  0.00     0.000 C 
BRANCH  18  19
ATOM     19  C   UNL     1      88.492 326.109 201.175  1.00  0.00     0.000 C 
BRANCH  19  20
ATOM     20  C   UNL     1      89.012 325.810 202.593  1.00  0.00     0.000 C 
BRANCH  20  21
ATOM     21  C   UNL     1      89.798 326.962 203.249  1.00  0.00     0.000 C 
BRANCH  21  22
ATOM     22  C   UNL     1      89.148 327.561 204.514  1.00  0.00    -0.000 C 
BRANCH  22  23
ATOM     23  C   UNL     1      89.735 327.061 205.846  1.00  0.00    -0.000 C 
BRANCH  23  24
ATOM     24  C   UNL     1      88.700 326.331 206.714  1.00  0.00    -0.000 C 
BRANCH  24  25
ATOM     25  C   UNL     1      88.233 325.031 206.041  1.00  0.00    -0.000 C 
BRANCH  25  26
ATOM     26  C   UNL     1      86.700 324.908 205.969  1.00  0.00    -0.000 C 
BRANCH  26  27
ATOM     27  C   UNL     1      86.175 323.945 204.889  1.00  0.00    -0.000 C 
BRANCH  27  28
ATOM     28  C   UNL     1      87.069 322.708 204.705  1.00  0.00    -0.000 C 
BRANCH  28  29
ATOM     29  C   UNL     1      87.561 322.549 203.258  1.00  0.00    -0.003 C 
ATOM     30  C   UNL     1      86.550 323.067 202.235  1.00  0.00     0.004 C 
ENDBRANCH  28  29
ENDBRANCH  27  28
ENDBRANCH  26  27
ENDBRANCH  25  26
ENDBRANCH  24  25
ENDBRANCH  23  24
ENDBRANCH  22  23
ENDBRANCH  21  22
ENDBRANCH  20  21
ENDBRANCH  19  20
ENDBRANCH  18  19
ENDBRANCH  17  18
ENDBRANCH   1  17
TORSDOF 26
ENDMDL
MODEL 4
REMARK VINA RESULT:    -5.858      3.122     10.452
REMARK INTER + INTRA:         -17.653
REMARK INTER:                 -13.617
REMARK INTRA:                  -4.036
REMARK UNBOUND:                -2.890
REMARK SMILES CCCCCCCCCCCCCCCCCCCCCCCCCCCC(=O)[O-]
REMARK SMILES IDX 15 1 16 2 17 3 18 4 19 5 20 6 21 7 22 8 23 9 24 10 25 11
REMARK SMILES IDX 26 12 27 13 28 14 29 15 30 16 14 17 13 18 12 19 11 20 10 21
REMARK SMILES IDX 9 22 8 23 7 24 6 25 5 26 4 27 3 28 2 29 1 30
REMARK H PARENT
REMARK Flexibility Score: inf
ROOT
ATOM      1  C   UNL     1      89.252 325.913 200.095  1.00  0.00     0.000 C 
ENDROOT
BRANCH   1   2
ATOM      2  C   UNL     1      90.141 324.665 199.944  1.00  0.00     0.000 C 
BRANCH   2   3
ATOM      3  C   UNL     1      90.079 323.992 198.560  1.00  0.00     0.000 C 
BRANCH   3   4
ATOM      4  C   UNL     1      88.725 323.316 198.284  1.00  0.00     0.000 C 
BRANCH   4   5
ATOM      5  C   UNL     1      88.153 323.686 196.909  1.00  0.00     0.000 C 
BRANCH   5   6
ATOM      6  C   UNL     1      88.839 324.921 196.301  1.00  0.00     0.000 C 
BRANCH   6   7
ATOM      7  C   UNL     1      87.904 326.139 196.212  1.00  0.00     0.000 C 
BRANCH   7   8
ATOM      8  C   UNL     1      87.411 326.440 194.777  1.00  0.00     0.000 C 
BRANCH   8   9
ATOM      9  C   UNL     1      86.187 325.598 194.375  1.00  0.00     0.000 C 
BRANCH   9  10
ATOM     10  C   UNL     1      86.339 324.946 192.983  1.00  0.00     0.000 C 
BRANCH  10  11
ATOM     11  C   UNL     1      87.812 324.887 192.547  1.00  0.00     0.000 C 
BRANCH  11  12
ATOM     12  C   UNL     1      88.407 323.494 192.797  1.00  0.00     0.006 C 
BRANCH  12  13
ATOM     13  C   UNL     1      87.503 322.376 192.263  1.00  0.00     0.053 C 
BRANCH  13  14
ATOM     14  C   UNL     1      87.838 322.020 190.847  1.00  0.00     0.041 C 
ATOM     15  O   UNL     1      88.683 321.119 190.600  1.00  0.00    -0.550 OA
ATOM     16  O   UNL     1      87.229 322.698 189.799  1.00  0.00    -0.550 OA
ENDBRANCH  13  14
ENDBRANCH  12  13
ENDBRANCH  11  12
ENDBRANCH  10  11
ENDBRANCH   9  10
ENDBRANCH   8   9
ENDBRANCH   7   8
ENDBRANCH   6   7
ENDBRANCH   5   6
ENDBRANCH   4   5
ENDBRANCH   3   4
ENDBRANCH   2   3
ENDBRANCH   1   2
BRANCH   1  17
ATOM     17  C   UNL     1      88.251 325.802 201.258  1.00  0.00     0.000 C 
BRANCH  17  18
ATOM     18  C   UNL     1      88.293 324.423 201.935  1.00  0.00     0.000 C 
BRANCH  18  19
ATOM     19  C   UNL     1      86.892 323.934 202.346  1.00  0.00     0.000 C 
BRANCH  19  20
ATOM     20  C   UNL     1      86.929 322.597 203.108  1.00  0.00     0.000 C 
BRANCH  20  21
ATOM     21  C   UNL     1      86.903 322.728 204.643  1.00  0.00     0.000 C 
BRANCH  21  22
ATOM     22  C   UNL     1      86.254 324.021 205.179  1.00  0.00    -0.000 C 
BRANCH  22  23
ATOM     23  C   UNL     1      87.199 324.941 205.974  1.00  0.00    -0.000 C 
BRANCH  23  24
ATOM     24  C   UNL     1      88.651 324.441 205.977  1.00  0.00    -0.000 C 
BRANCH  24  25
ATOM     25  C   UNL     1      89.620 325.557 205.555  1.00  0.00    -0.000 C 
BRANCH  25  26
ATOM     26  C   UNL     1      88.901 326.802 205.007  1.00  0.00    -0.000 C 
BRANCH  26  27
ATOM     27  C   UNL     1      89.719 327.636 204.004  1.00  0.00    -0.000 C 
BRANCH  27  28
ATOM     28  C   UNL     1      91.203 327.237 203.965  1.00  0.00    -0.000 C 
BRANCH  28  29
ATOM     29  C   UNL     1      91.706 326.985 202.535  1.00  0.00    -0.003 C 
ATOM     30  C   UNL     1      92.644 325.780 202.448  1.00  0.00     0.004 C 
ENDBRANCH  28  29
ENDBRANCH  27  28
ENDBRANCH  26  27
ENDBRANCH  25  26
ENDBRANCH  24  25
ENDBRANCH  23  24
ENDBRANCH  22  23
ENDBRANCH  21  22
ENDBRANCH  20  21
ENDBRANCH  19  20
ENDBRANCH  18  19
ENDBRANCH  17  18
ENDBRANCH   1  17
TORSDOF 26
ENDMDL
MODEL 5
REMARK VINA RESULT:    -5.744      3.706     11.664
REMARK INTER + INTRA:         -17.366
REMARK INTER:                 -14.701
REMARK INTRA:                  -2.666
REMARK UNBOUND:                -2.890
REMARK SMILES CCCCCCCCCCCCCCCCCCCCCCCCCCCC(=O)[O-]
REMARK SMILES IDX 15 1 16 2 17 3 18 4 19 5 20 6 21 7 22 8 23 9 24 10 25 11
REMARK SMILES IDX 26 12 27 13 28 14 29 15 30 16 14 17 13 18 12 19 11 20 10 21
REMARK SMILES IDX 9 22 8 23 7 24 6 25 5 26 4 27 3 28 2 29 1 30
REMARK H PARENT
REMARK Flexibility Score: inf
ROOT
ATOM      1  C   UNL     1      89.423 324.560 199.227  1.00  0.00     0.000 C 
ENDROOT
BRANCH   1   2
ATOM      2  C   UNL     1      89.683 324.404 197.718  1.00  0.00     0.000 C 
BRANCH   2   3
ATOM      3  C   UNL     1      88.428 324.521 196.832  1.00  0.00     0.000 C 
BRANCH   3   4
ATOM      4  C   UNL     1      88.241 325.930 196.245  1.00  0.00     0.000 C 
BRANCH   4   5
ATOM      5  C   UNL     1      86.806 326.179 195.762  1.00  0.00     0.000 C 
BRANCH   5   6
ATOM      6  C   UNL     1      86.749 326.604 194.285  1.00  0.00     0.000 C 
BRANCH   6   7
ATOM      7  C   UNL     1      86.562 325.415 193.328  1.00  0.00     0.000 C 
BRANCH   7   8
ATOM      8  C   UNL     1      87.848 325.029 192.559  1.00  0.00     0.000 C 
BRANCH   8   9
ATOM      9  C   UNL     1      88.317 323.595 192.859  1.00  0.00     0.000 C 
BRANCH   9  10
ATOM     10  C   UNL     1      88.604 322.778 191.580  1.00  0.00     0.000 C 
BRANCH  10  11
ATOM     11  C   UNL     1      87.688 323.206 190.422  1.00  0.00     0.000 C 
BRANCH  11  12
ATOM     12  C   UNL     1      88.334 322.899 189.064  1.00  0.00     0.006 C 
BRANCH  12  13
ATOM     13  C   UNL     1      89.671 323.630 188.882  1.00  0.00     0.053 C 
BRANCH  13  14
ATOM     14  C   UNL     1      90.809 322.670 188.710  1.00  0.00     0.041 C 
ATOM     15  O   UNL     1      90.625 321.432 188.862  1.00  0.00    -0.550 OA
ATOM     16  O   UNL     1      92.076 323.144 188.399  1.00  0.00    -0.550 OA
ENDBRANCH  13  14
ENDBRANCH  12  13
ENDBRANCH  11  12
ENDBRANCH  10  11
ENDBRANCH   9  10
ENDBRANCH   8   9
ENDBRANCH   7   8
ENDBRANCH   6   7
ENDBRANCH   5   6
ENDBRANCH   4   5
ENDBRANCH   3   4
ENDBRANCH   2   3
ENDBRANCH   1   2
BRANCH   1  17
ATOM     17  C   UNL     1      89.211 326.022 199.654  1.00  0.00     0.000 C 
BRANCH  17  18
ATOM     18  C   UNL     1      88.655 326.138 201.082  1.00  0.00     0.000 C 
BRANCH  18  19
ATOM     19  C   UNL     1      89.771 326.143 202.143  1.00  0.00     0.000 C 
BRANCH  19  20
ATOM     20  C   UNL     1      91.016 326.929 201.693  1.00  0.00     0.000 C 
BRANCH  20  21
ATOM     21  C   UNL     1      92.169 326.952 202.715  1.00  0.00     0.000 C 
BRANCH  21  22
ATOM     22  C   UNL     1      92.251 325.718 203.638  1.00  0.00    -0.000 C 
BRANCH  22  23
ATOM     23  C   UNL     1      92.223 326.031 205.145  1.00  0.00    -0.000 C 
BRANCH  23  24
ATOM     24  C   UNL     1      91.596 327.398 205.456  1.00  0.00    -0.000 C 
BRANCH  24  25
ATOM     25  C   UNL     1      90.433 327.258 206.451  1.00  0.00    -0.000 C 
BRANCH  25  26
ATOM     26  C   UNL     1      89.177 326.625 205.822  1.00  0.00    -0.000 C 
BRANCH  26  27
ATOM     27  C   UNL     1      88.769 325.265 206.416  1.00  0.00    -0.000 C 
BRANCH  27  28
ATOM     28  C   UNL     1      88.816 324.124 205.386  1.00  0.00    -0.000 C 
BRANCH  28  29
ATOM     29  C   UNL     1      87.597 324.129 204.450  1.00  0.00    -0.003 C 
ATOM     30  C   UNL     1      86.272 324.098 205.213  1.00  0.00     0.004 C 
ENDBRANCH  28  29
ENDBRANCH  27  28
ENDBRANCH  26  27
ENDBRANCH  25  26
ENDBRANCH  24  25
ENDBRANCH  23  24
ENDBRANCH  22  23
ENDBRANCH  21  22
ENDBRANCH  20  21
ENDBRANCH  19  20
ENDBRANCH  18  19
ENDBRANCH  17  18
ENDBRANCH   1  17
TORSDOF 26
ENDMDL
MODEL 6
REMARK VINA RESULT:    -5.742      1.547      9.845
REMARK INTER + INTRA:         -17.360
REMARK INTER:                 -13.979
REMARK INTRA:                  -3.381
REMARK UNBOUND:                -2.890
REMARK SMILES CCCCCCCCCCCCCCCCCCCCCCCCCCCC(=O)[O-]
REMARK SMILES IDX 15 1 16 2 17 3 18 4 19 5 20 6 21 7 22 8 23 9 24 10 25 11
REMARK SMILES IDX 26 12 27 13 28 14 29 15 30 16 14 17 13 18 12 19 11 20 10 21
REMARK SMILES IDX 9 22 8 23 7 24 6 25 5 26 4 27 3 28 2 29 1 30
REMARK H PARENT
REMARK Flexibility Score: inf
ROOT
ATOM      1  C   UNL     1      89.547 324.978 199.687  1.00  0.00     0.000 C 
ENDROOT
BRANCH   1   2
ATOM      2  C   UNL     1      89.154 325.022 198.199  1.00  0.00     0.000 C 
BRANCH   2   3
ATOM      3  C   UNL     1      88.587 326.372 197.721  1.00  0.00     0.000 C 
BRANCH   3   4
ATOM      4  C   UNL     1      88.366 326.422 196.200  1.00  0.00     0.000 C 
BRANCH   4   5
ATOM      5  C   UNL     1      86.879 326.423 195.822  1.00  0.00     0.000 C 
BRANCH   5   6
ATOM      6  C   UNL     1      86.659 326.456 194.300  1.00  0.00     0.000 C 
BRANCH   6   7
ATOM      7  C   UNL     1      87.894 325.992 193.509  1.00  0.00     0.000 C 
BRANCH   7   8
ATOM      8  C   UNL     1      87.634 324.751 192.622  1.00  0.00     0.000 C 
BRANCH   8   9
ATOM      9  C   UNL     1      88.443 323.519 193.063  1.00  0.00     0.000 C 
BRANCH   9  10
ATOM     10  C   UNL     1      88.393 323.284 194.589  1.00  0.00     0.000 C 
BRANCH  10  11
ATOM     11  C   UNL     1      87.001 322.816 195.041  1.00  0.00     0.000 C 
BRANCH  11  12
ATOM     12  C   UNL     1      87.075 321.449 195.735  1.00  0.00     0.006 C 
BRANCH  12  13
ATOM     13  C   UNL     1      88.054 321.454 196.916  1.00  0.00     0.053 C 
BRANCH  13  14
ATOM     14  C   UNL     1      87.342 321.317 198.227  1.00  0.00     0.041 C 
ATOM     15  O   UNL     1      87.498 322.182 199.130  1.00  0.00    -0.550 OA
ATOM     16  O   UNL     1      86.517 320.223 198.458  1.00  0.00    -0.550 OA
ENDBRANCH  13  14
ENDBRANCH  12  13
ENDBRANCH  11  12
ENDBRANCH  10  11
ENDBRANCH   9  10
ENDBRANCH   8   9
ENDBRANCH   7   8
ENDBRANCH   6   7
ENDBRANCH   5   6
ENDBRANCH   4   5
ENDBRANCH   3   4
ENDBRANCH   2   3
ENDBRANCH   1   2
BRANCH   1  17
ATOM     17  C   UNL     1      89.024 326.184 200.484  1.00  0.00     0.000 C 
BRANCH  17  18
ATOM     18  C   UNL     1      88.150 325.762 201.676  1.00  0.00     0.000 C 
BRANCH  18  19
ATOM     19  C   UNL     1      88.226 324.248 201.945  1.00  0.00     0.000 C 
BRANCH  19  20
ATOM     20  C   UNL     1      86.976 323.708 202.663  1.00  0.00     0.000 C 
BRANCH  20  21
ATOM     21  C   UNL     1      87.230 323.175 204.087  1.00  0.00     0.000 C 
BRANCH  21  22
ATOM     22  C   UNL     1      86.287 323.733 205.173  1.00  0.00    -0.000 C 
BRANCH  22  23
ATOM     23  C   UNL     1      86.803 324.988 205.900  1.00  0.00    -0.000 C 
BRANCH  23  24
ATOM     24  C   UNL     1      88.336 325.036 205.985  1.00  0.00    -0.000 C 
BRANCH  24  25
ATOM     25  C   UNL     1      88.832 326.469 206.233  1.00  0.00    -0.000 C 
BRANCH  25  26
ATOM     26  C   UNL     1      89.236 327.198 204.939  1.00  0.00    -0.000 C 
BRANCH  26  27
ATOM     27  C   UNL     1      90.750 327.253 204.670  1.00  0.00    -0.000 C 
BRANCH  27  28
ATOM     28  C   UNL     1      91.089 327.364 203.174  1.00  0.00    -0.000 C 
BRANCH  28  29
ATOM     29  C   UNL     1      92.449 326.735 202.832  1.00  0.00    -0.003 C 
ATOM     30  C   UNL     1      92.313 325.484 201.963  1.00  0.00     0.004 C 
ENDBRANCH  28  29
ENDBRANCH  27  28
ENDBRANCH  26  27
ENDBRANCH  25  26
ENDBRANCH  24  25
ENDBRANCH  23  24
ENDBRANCH  22  23
ENDBRANCH  21  22
ENDBRANCH  20  21
ENDBRANCH  19  20
ENDBRANCH  18  19
ENDBRANCH  17  18
ENDBRANCH   1  17
TORSDOF 26
ENDMDL
MODEL 7
REMARK VINA RESULT:    -5.729      1.460      3.093
REMARK INTER + INTRA:         -17.327
REMARK INTER:                 -14.219
REMARK INTRA:                  -3.108
REMARK UNBOUND:                -2.890
REMARK SMILES CCCCCCCCCCCCCCCCCCCCCCCCCCCC(=O)[O-]
REMARK SMILES IDX 15 1 16 2 17 3 18 4 19 5 20 6 21 7 22 8 23 9 24 10 25 11
REMARK SMILES IDX 26 12 27 13 28 14 29 15 30 16 14 17 13 18 12 19 11 20 10 21
REMARK SMILES IDX 9 22 8 23 7 24 6 25 5 26 4 27 3 28 2 29 1 30
REMARK H PARENT
REMARK Flexibility Score: inf
ROOT
ATOM      1  C   UNL     1      90.358 324.263 199.756  1.00  0.00     0.000 C 
ENDROOT
BRANCH   1   2
ATOM      2  C   UNL     1      89.383 325.358 199.286  1.00  0.00     0.000 C 
BRANCH   2   3
ATOM      3  C   UNL     1      89.272 326.570 200.230  1.00  0.00     0.000 C 
BRANCH   3   4
ATOM      4  C   UNL     1      88.878 326.177 201.664  1.00  0.00     0.000 C 
BRANCH   4   5
ATOM      5  C   UNL     1      89.922 326.614 202.700  1.00  0.00     0.000 C 
BRANCH   5   6
ATOM      6  C   UNL     1      89.281 327.227 203.957  1.00  0.00     0.000 C 
BRANCH   6   7
ATOM      7  C   UNL     1      90.254 327.306 205.145  1.00  0.00     0.000 C 
BRANCH   7   8
ATOM      8  C   UNL     1      89.824 326.447 206.358  1.00  0.00     0.000 C 
BRANCH   8   9
ATOM      9  C   UNL     1      88.306 326.206 206.412  1.00  0.00     0.000 C 
BRANCH   9  10
ATOM     10  C   UNL     1      87.930 324.715 206.259  1.00  0.00     0.000 C 
BRANCH  10  11
ATOM     11  C   UNL     1      86.699 324.535 205.356  1.00  0.00     0.000 C 
BRANCH  11  12
ATOM     12  C   UNL     1      86.726 323.173 204.649  1.00  0.00     0.006 C 
BRANCH  12  13
ATOM     13  C   UNL     1      87.230 323.283 203.204  1.00  0.00     0.053 C 
BRANCH  13  14
ATOM     14  C   UNL     1      88.496 322.509 202.998  1.00  0.00     0.041 C 
ATOM     15  O   UNL     1      89.613 323.090 203.055  1.00  0.00    -0.550 OA
ATOM     16  O   UNL     1      88.442 321.149 202.726  1.00  0.00    -0.550 OA
ENDBRANCH  13  14
ENDBRANCH  12  13
ENDBRANCH  11  12
ENDBRANCH  10  11
ENDBRANCH   9  10
ENDBRANCH   8   9
ENDBRANCH   7   8
ENDBRANCH   6   7
ENDBRANCH   5   6
ENDBRANCH   4   5
ENDBRANCH   3   4
ENDBRANCH   2   3
ENDBRANCH   1   2
BRANCH   1  17
ATOM     17  C   UNL     1      89.801 322.841 199.568  1.00  0.00     0.000 C 
BRANCH  17  18
ATOM     18  C   UNL     1      88.343 322.844 199.085  1.00  0.00     0.000 C 
BRANCH  18  19
ATOM     19  C   UNL     1      88.192 322.224 197.684  1.00  0.00     0.000 C 
BRANCH  19  20
ATOM     20  C   UNL     1      89.231 322.757 196.682  1.00  0.00     0.000 C 
BRANCH  20  21
ATOM     21  C   UNL     1      88.651 323.631 195.553  1.00  0.00     0.000 C 
BRANCH  21  22
ATOM     22  C   UNL     1      87.746 324.789 196.020  1.00  0.00    -0.000 C 
BRANCH  22  23
ATOM     23  C   UNL     1      88.144 326.179 195.492  1.00  0.00    -0.000 C 
BRANCH  23  24
ATOM     24  C   UNL     1      87.789 326.376 194.011  1.00  0.00    -0.000 C 
BRANCH  24  25
ATOM     25  C   UNL     1      86.481 325.651 193.656  1.00  0.00    -0.000 C 
BRANCH  25  26
ATOM     26  C   UNL     1      86.639 324.665 192.485  1.00  0.00    -0.000 C 
BRANCH  26  27
ATOM     27  C   UNL     1      88.036 324.641 191.839  1.00  0.00    -0.000 C 
BRANCH  27  28
ATOM     28  C   UNL     1      88.414 323.259 191.281  1.00  0.00    -0.000 C 
BRANCH  28  29
ATOM     29  C   UNL     1      88.288 323.190 189.751  1.00  0.00    -0.003 C 
ATOM     30  C   UNL     1      89.572 323.617 189.038  1.00  0.00     0.004 C 
ENDBRANCH  28  29
ENDBRANCH  27  28
ENDBRANCH  26  27
ENDBRANCH  25  26
ENDBRANCH  24  25
ENDBRANCH  23  24
ENDBRANCH  22  23
ENDBRANCH  21  22
ENDBRANCH  20  21
ENDBRANCH  19  20
ENDBRANCH  18  19
ENDBRANCH  17  18
ENDBRANCH   1  17
TORSDOF 26
ENDMDL
MODEL 8
REMARK VINA RESULT:    -5.676      3.209     11.128
REMARK INTER + INTRA:         -17.194
REMARK INTER:                 -13.909
REMARK INTRA:                  -3.285
REMARK UNBOUND:                -2.890
REMARK SMILES CCCCCCCCCCCCCCCCCCCCCCCCCCCC(=O)[O-]
REMARK SMILES IDX 15 1 16 2 17 3 18 4 19 5 20 6 21 7 22 8 23 9 24 10 25 11
REMARK SMILES IDX 26 12 27 13 28 14 29 15 30 16 14 17 13 18 12 19 11 20 10 21
REMARK SMILES IDX 9 22 8 23 7 24 6 25 5 26 4 27 3 28 2 29 1 30
REMARK H PARENT
REMARK Flexibility Score: inf
ROOT
ATOM      1  C   UNL     1      89.250 325.852 199.244  1.00  0.00     0.000 C 
ENDROOT
BRANCH   1   2
ATOM      2  C   UNL     1      88.865 326.956 198.244  1.00  0.00     0.000 C 
BRANCH   2   3
ATOM      3  C   UNL     1      88.508 326.453 196.833  1.00  0.00     0.000 C 
BRANCH   3   4
ATOM      4  C   UNL     1      88.702 324.936 196.673  1.00  0.00     0.000 C 
BRANCH   4   5
ATOM      5  C   UNL     1      87.704 324.317 195.684  1.00  0.00     0.000 C 
BRANCH   5   6
ATOM      6  C   UNL     1      86.812 325.374 195.011  1.00  0.00     0.000 C 
BRANCH   6   7
ATOM      7  C   UNL     1      87.193 325.629 193.543  1.00  0.00     0.000 C 
BRANCH   7   8
ATOM      8  C   UNL     1      88.160 324.572 192.960  1.00  0.00     0.000 C 
BRANCH   8   9
ATOM      9  C   UNL     1      87.794 324.152 191.526  1.00  0.00     0.000 C 
BRANCH   9  10
ATOM     10  C   UNL     1      86.427 323.437 191.442  1.00  0.00     0.000 C 
BRANCH  10  11
ATOM     11  C   UNL     1      86.418 322.367 190.338  1.00  0.00     0.000 C 
BRANCH  11  12
ATOM     12  C   UNL     1      87.487 322.660 189.275  1.00  0.00     0.006 C 
BRANCH  12  13
ATOM     13  C   UNL     1      88.277 321.403 188.890  1.00  0.00     0.053 C 
BRANCH  13  14
ATOM     14  C   UNL     1      89.351 321.096 189.888  1.00  0.00     0.041 C 
ATOM     15  O   UNL     1      89.170 320.210 190.766  1.00  0.00    -0.550 OA
ATOM     16  O   UNL     1      90.548 321.801 189.859  1.00  0.00    -0.550 OA
ENDBRANCH  13  14
ENDBRANCH  12  13
ENDBRANCH  11  12
ENDBRANCH  10  11
ENDBRANCH   9  10
ENDBRANCH   8   9
ENDBRANCH   7   8
ENDBRANCH   6   7
ENDBRANCH   5   6
ENDBRANCH   4   5
ENDBRANCH   3   4
ENDBRANCH   2   3
ENDBRANCH   1   2
BRANCH   1  17
ATOM     17  C   UNL     1      89.269 326.340 200.703  1.00  0.00     0.000 C 
BRANCH  17  18
ATOM     18  C   UNL     1      90.697 326.490 201.250  1.00  0.00     0.000 C 
BRANCH  18  19
ATOM     19  C   UNL     1      90.714 327.017 202.696  1.00  0.00     0.000 C 
BRANCH  19  20
ATOM     20  C   UNL     1      89.336 326.935 203.376  1.00  0.00     0.000 C 
BRANCH  20  21
ATOM     21  C   UNL     1      89.362 327.083 204.910  1.00  0.00     0.000 C 
BRANCH  21  22
ATOM     22  C   UNL     1      89.899 325.857 205.677  1.00  0.00    -0.000 C 
BRANCH  22  23
ATOM     23  C   UNL     1      88.857 325.120 206.536  1.00  0.00    -0.000 C 
BRANCH  23  24
ATOM     24  C   UNL     1      87.428 325.637 206.310  1.00  0.00    -0.000 C 
BRANCH  24  25
ATOM     25  C   UNL     1      86.524 324.531 205.743  1.00  0.00    -0.000 C 
BRANCH  25  26
ATOM     26  C   UNL     1      87.260 323.593 204.770  1.00  0.00    -0.000 C 
BRANCH  26  27
ATOM     27  C   UNL     1      86.980 323.854 203.279  1.00  0.00    -0.000 C 
BRANCH  27  28
ATOM     28  C   UNL     1      88.157 323.460 202.371  1.00  0.00    -0.000 C 
BRANCH  28  29
ATOM     29  C   UNL     1      89.215 322.626 203.111  1.00  0.00    -0.003 C 
ATOM     30  C   UNL     1      90.603 323.267 203.066  1.00  0.00     0.004 C 
ENDBRANCH  28  29
ENDBRANCH  27  28
ENDBRANCH  26  27
ENDBRANCH  25  26
ENDBRANCH  24  25
ENDBRANCH  23  24
ENDBRANCH  22  23
ENDBRANCH  21  22
ENDBRANCH  20  21
ENDBRANCH  19  20
ENDBRANCH  18  19
ENDBRANCH  17  18
ENDBRANCH   1  17
TORSDOF 26
ENDMDL
MODEL 9
REMARK VINA RESULT:    -5.651      2.256      3.911
REMARK INTER + INTRA:         -17.131
REMARK INTER:                 -14.439
REMARK INTRA:                  -2.691
REMARK UNBOUND:                -2.890
REMARK SMILES CCCCCCCCCCCCCCCCCCCCCCCCCCCC(=O)[O-]
REMARK SMILES IDX 15 1 16 2 17 3 18 4 19 5 20 6 21 7 22 8 23 9 24 10 25 11
REMARK SMILES IDX 26 12 27 13 28 14 29 15 30 16 14 17 13 18 12 19 11 20 10 21
REMARK SMILES IDX 9 22 8 23 7 24 6 25 5 26 4 27 3 28 2 29 1 30
REMARK H PARENT
REMARK Flexibility Score: inf
ROOT
ATOM      1  C   UNL     1      89.106 324.105 198.876  1.00  0.00     0.000 C 
ENDROOT
BRANCH   1   2
ATOM      2  C   UNL     1      89.601 325.269 199.753  1.00  0.00     0.000 C 
BRANCH   2   3
ATOM      3  C   UNL     1      88.632 325.692 200.873  1.00  0.00     0.000 C 
BRANCH   3   4
ATOM      4  C   UNL     1      88.391 324.577 201.906  1.00  0.00     0.000 C 
BRANCH   4   5
ATOM      5  C   UNL     1      86.899 324.320 202.155  1.00  0.00     0.000 C 
BRANCH   5   6
ATOM      6  C   UNL     1      86.625 322.892 202.654  1.00  0.00     0.000 C 
BRANCH   6   7
ATOM      7  C   UNL     1      86.969 322.704 204.141  1.00  0.00     0.000 C 
BRANCH   7   8
ATOM      8  C   UNL     1      86.695 323.957 205.006  1.00  0.00     0.000 C 
BRANCH   8   9
ATOM      9  C   UNL     1      87.956 324.486 205.710  1.00  0.00     0.000 C 
BRANCH   9  10
ATOM     10  C   UNL     1      87.754 325.887 206.328  1.00  0.00     0.000 C 
BRANCH  10  11
ATOM     11  C   UNL     1      88.899 326.840 205.947  1.00  0.00     0.000 C 
BRANCH  11  12
ATOM     12  C   UNL     1      89.307 326.655 204.479  1.00  0.00     0.006 C 
BRANCH  12  13
ATOM     13  C   UNL     1      90.467 327.577 204.081  1.00  0.00     0.053 C 
BRANCH  13  14
ATOM     14  C   UNL     1      91.461 326.872 203.209  1.00  0.00     0.041 C 
ATOM     15  O   UNL     1      91.605 327.214 202.005  1.00  0.00    -0.550 OA
ATOM     16  O   UNL     1      92.217 325.826 203.722  1.00  0.00    -0.550 OA
ENDBRANCH  13  14
ENDBRANCH  12  13
ENDBRANCH  11  12
ENDBRANCH  10  11
ENDBRANCH   9  10
ENDBRANCH   8   9
ENDBRANCH   7   8
ENDBRANCH   6   7
ENDBRANCH   5   6
ENDBRANCH   4   5
ENDBRANCH   3   4
ENDBRANCH   2   3
ENDBRANCH   1   2
BRANCH   1  17
ATOM     17  C   UNL     1      88.885 324.509 197.408  1.00  0.00     0.000 C 
BRANCH  17  18
ATOM     18  C   UNL     1      88.906 326.032 197.212  1.00  0.00     0.000 C 
BRANCH  18  19
ATOM     19  C   UNL     1      88.356 326.450 195.836  1.00  0.00     0.000 C 
BRANCH  19  20
ATOM     20  C   UNL     1      86.853 326.156 195.681  1.00  0.00     0.000 C 
BRANCH  20  21
ATOM     21  C   UNL     1      86.272 326.473 194.289  1.00  0.00     0.000 C 
BRANCH  21  22
ATOM     22  C   UNL     1      86.000 325.243 193.398  1.00  0.00    -0.000 C 
BRANCH  22  23
ATOM     23  C   UNL     1      86.742 323.960 193.816  1.00  0.00    -0.000 C 
BRANCH  23  24
ATOM     24  C   UNL     1      88.100 323.805 193.115  1.00  0.00    -0.000 C 
BRANCH  24  25
ATOM     25  C   UNL     1      88.162 324.655 191.837  1.00  0.00    -0.000 C 
BRANCH  25  26
ATOM     26  C   UNL     1      88.463 323.824 190.576  1.00  0.00    -0.000 C 
BRANCH  26  27
ATOM     27  C   UNL     1      88.863 322.362 190.842  1.00  0.00    -0.000 C 
BRANCH  27  28
ATOM     28  C   UNL     1      88.012 321.355 190.051  1.00  0.00    -0.000 C 
BRANCH  28  29
ATOM     29  C   UNL     1      86.598 321.882 189.760  1.00  0.00    -0.003 C 
ATOM     30  C   UNL     1      86.231 321.786 188.279  1.00  0.00     0.004 C 
ENDBRANCH  28  29
ENDBRANCH  27  28
ENDBRANCH  26  27
ENDBRANCH  25  26
ENDBRANCH  24  25
ENDBRANCH  23  24
ENDBRANCH  22  23
ENDBRANCH  21  22
ENDBRANCH  20  21
ENDBRANCH  19  20
ENDBRANCH  18  19
ENDBRANCH  17  18
ENDBRANCH   1  17
TORSDOF 26
ENDMDL
