MODEL 1
REMARK VINA RESULT:    -5.439      0.000      0.000
REMARK INTER + INTRA:          -6.524
REMARK INTER:                  -6.393
REMARK INTRA:                  -0.131
REMARK UNBOUND:                -0.131
REMARK SMILES O=C([O-])C=Cc1ccc(O)c(O)c1
REMARK SMILES IDX 6 1 13 2 7 3 11 4 8 5 9 6 5 7 4 8 2 9 1 10 3 11 12 12 10 14
REMARK H PARENT 12 13 10 15
REMARK Flexibility Score: inf
ROOT
ATOM      1  C   UNL     1      20.107  23.785  39.757  1.00  0.00    -0.022 A 
ATOM      2  C   UNL     1      19.606  23.766  38.439  1.00  0.00     0.058 A 
ATOM      3  C   UNL     1      20.744  22.637  40.256  1.00  0.00     0.012 A 
ATOM      4  C   UNL     1      19.719  22.616  37.650  1.00  0.00     0.157 A 
ATOM      5  C   UNL     1      20.855  21.487  39.470  1.00  0.00     0.051 A 
ATOM      6  C   UNL     1      20.342  21.468  38.167  1.00  0.00     0.157 A 
ENDROOT
BRANCH   1   7
ATOM      7  C   UNL     1      20.022  24.983  40.628  1.00  0.00     0.010 C 
ATOM      8  C   UNL     1      20.963  25.936  40.676  1.00  0.00     0.025 C 
BRANCH   8   9
ATOM      9  C   UNL     1      20.833  27.115  41.546  1.00  0.00     0.064 C 
ATOM     10  O   UNL     1      20.017  27.095  42.503  1.00  0.00    -0.545 OA
ATOM     11  O   UNL     1      21.599  28.256  41.328  1.00  0.00    -0.545 OA
ENDBRANCH   8   9
ENDBRANCH   1   7
BRANCH   4  12
ATOM     12  O   UNL     1      19.208  22.634  36.352  1.00  0.00    -0.504 OA
ATOM     13  H   UNL     1      18.337  22.177  36.109  1.00  0.00     0.293 HD
ENDBRANCH   4  12
BRANCH   6  14
ATOM     14  O   UNL     1      20.453  20.320  37.386  1.00  0.00    -0.504 OA
ATOM     15  H   UNL     1      19.651  19.733  37.189  1.00  0.00     0.293 HD
ENDBRANCH   6  14
TORSDOF 4
ENDMDL
MODEL 2
REMARK VINA RESULT:    -5.285      1.102      6.083
REMARK INTER + INTRA:          -6.344
REMARK INTER:                  -6.210
REMARK INTRA:                  -0.133
REMARK UNBOUND:                -0.131
REMARK SMILES O=C([O-])C=Cc1ccc(O)c(O)c1
REMARK SMILES IDX 6 1 13 2 7 3 11 4 8 5 9 6 5 7 4 8 2 9 1 10 3 11 12 12 10 14
REMARK H PARENT 12 13 10 15
REMARK Flexibility Score: inf
ROOT
ATOM      1  C   UNL     1      20.035  25.385  40.487  1.00  0.00    -0.022 A 
ATOM      2  C   UNL     1      21.149  26.244  40.584  1.00  0.00     0.058 A 
ATOM      3  C   UNL     1      19.052  25.436  41.487  1.00  0.00     0.012 A 
ATOM      4  C   UNL     1      21.285  27.115  41.671  1.00  0.00     0.157 A 
ATOM      5  C   UNL     1      19.187  26.303  42.574  1.00  0.00     0.051 A 
ATOM      6  C   UNL     1      20.302  27.144  42.674  1.00  0.00     0.157 A 
ENDROOT
BRANCH   1   7
ATOM      7  C   UNL     1      19.841  24.453  39.348  1.00  0.00     0.010 C 
ATOM      8  C   UNL     1      20.100  23.140  39.409  1.00  0.00     0.025 C 
BRANCH   8   9
ATOM      9  C   UNL     1      19.882  22.250  38.258  1.00  0.00     0.064 C 
ATOM     10  O   UNL     1      19.069  22.584  37.358  1.00  0.00    -0.545 OA
ATOM     11  O   UNL     1      20.559  21.040  38.149  1.00  0.00    -0.545 OA
ENDBRANCH   8   9
ENDBRANCH   1   7
BRANCH   4  12
ATOM     12  O   UNL     1      22.402  27.947  41.734  1.00  0.00    -0.504 OA
ATOM     13  H   UNL     1      23.197  27.831  41.116  1.00  0.00     0.293 HD
ENDBRANCH   4  12
BRANCH   6  14
ATOM     14  O   UNL     1      20.436  28.007  43.760  1.00  0.00    -0.504 OA
ATOM     15  H   UNL     1      21.336  28.180  44.192  1.00  0.00     0.293 HD
ENDBRANCH   6  14
TORSDOF 4
ENDMDL
MODEL 3
REMARK VINA RESULT:    -5.259      1.589      2.598
REMARK INTER + INTRA:          -6.312
REMARK INTER:                  -6.188
REMARK INTRA:                  -0.124
REMARK UNBOUND:                -0.131
REMARK SMILES O=C([O-])C=Cc1ccc(O)c(O)c1
REMARK SMILES IDX 6 1 13 2 7 3 11 4 8 5 9 6 5 7 4 8 2 9 1 10 3 11 12 12 10 14
REMARK H PARENT 12 13 10 15
REMARK Flexibility Score: inf
ROOT
ATOM      1  C   UNL     1      19.702  24.125  39.905  1.00  0.00    -0.022 A 
ATOM      2  C   UNL     1      20.472  23.084  40.464  1.00  0.00     0.058 A 
ATOM      3  C   UNL     1      19.266  24.005  38.576  1.00  0.00     0.012 A 
ATOM      4  C   UNL     1      20.819  21.964  39.700  1.00  0.00     0.157 A 
ATOM      5  C   UNL     1      19.613  22.889  37.811  1.00  0.00     0.051 A 
ATOM      6  C   UNL     1      20.391  21.865  38.366  1.00  0.00     0.157 A 
ENDROOT
BRANCH   1   7
ATOM      7  C   UNL     1      19.299  25.326  40.678  1.00  0.00     0.010 C 
ATOM      8  C   UNL     1      18.793  25.277  41.918  1.00  0.00     0.025 C 
BRANCH   8   9
ATOM      9  C   UNL     1      18.417  26.495  42.653  1.00  0.00     0.064 C 
ATOM     10  O   UNL     1      19.239  27.020  43.448  1.00  0.00    -0.545 OA
ATOM     11  O   UNL     1      17.165  27.077  42.485  1.00  0.00    -0.545 OA
ENDBRANCH   8   9
ENDBRANCH   1   7
BRANCH   4  12
ATOM     12  O   UNL     1      21.585  20.957  40.286  1.00  0.00    -0.504 OA
ATOM     13  H   UNL     1      21.978  20.195  39.745  1.00  0.00     0.293 HD
ENDBRANCH   4  12
BRANCH   6  14
ATOM     14  O   UNL     1      20.737  20.753  37.601  1.00  0.00    -0.504 OA
ATOM     15  H   UNL     1      21.426  20.813  36.859  1.00  0.00     0.293 HD
ENDBRANCH   6  14
TORSDOF 4
ENDMDL
MODEL 4
REMARK VINA RESULT:    -5.207      3.300      7.132
REMARK INTER + INTRA:          -6.252
REMARK INTER:                  -6.128
REMARK INTRA:                  -0.124
REMARK UNBOUND:                -0.131
REMARK SMILES O=C([O-])C=Cc1ccc(O)c(O)c1
REMARK SMILES IDX 6 1 13 2 7 3 11 4 8 5 9 6 5 7 4 8 2 9 1 10 3 11 12 12 10 14
REMARK H PARENT 12 13 10 15
REMARK Flexibility Score: inf
ROOT
ATOM      1  C   UNL     1      18.792  26.113  43.038  1.00  0.00    -0.022 A 
ATOM      2  C   UNL     1      19.782  27.013  43.484  1.00  0.00     0.058 A 
ATOM      3  C   UNL     1      17.534  26.129  43.659  1.00  0.00     0.012 A 
ATOM      4  C   UNL     1      19.522  27.889  44.545  1.00  0.00     0.157 A 
ATOM      5  C   UNL     1      17.273  27.000  44.719  1.00  0.00     0.051 A 
ATOM      6  C   UNL     1      18.264  27.882  45.169  1.00  0.00     0.157 A 
ENDROOT
BRANCH   1   7
ATOM      7  C   UNL     1      19.016  25.175  41.910  1.00  0.00     0.010 C 
ATOM      8  C   UNL     1      19.889  25.397  40.919  1.00  0.00     0.025 C 
BRANCH   8   9
ATOM      9  C   UNL     1      20.088  24.433  39.825  1.00  0.00     0.064 C 
ATOM     10  O   UNL     1      19.804  24.764  38.645  1.00  0.00    -0.545 OA
ATOM     11  O   UNL     1      20.583  23.158  40.075  1.00  0.00    -0.545 OA
ENDBRANCH   8   9
ENDBRANCH   1   7
BRANCH   4  12
ATOM     12  O   UNL     1      20.527  28.763  44.961  1.00  0.00    -0.504 OA
ATOM     13  H   UNL     1      21.304  29.015  44.362  1.00  0.00     0.293 HD
ENDBRANCH   4  12
BRANCH   6  14
ATOM     14  O   UNL     1      18.003  28.750  46.227  1.00  0.00    -0.504 OA
ATOM     15  H   UNL     1      18.448  28.635  47.130  1.00  0.00     0.293 HD
ENDBRANCH   6  14
TORSDOF 4
ENDMDL
MODEL 5
REMARK VINA RESULT:    -5.197      5.436      8.289
REMARK INTER + INTRA:          -6.239
REMARK INTER:                  -6.093
REMARK INTRA:                  -0.147
REMARK UNBOUND:                -0.131
REMARK SMILES O=C([O-])C=Cc1ccc(O)c(O)c1
REMARK SMILES IDX 6 1 13 2 7 3 11 4 8 5 9 6 5 7 4 8 2 9 1 10 3 11 12 12 10 14
REMARK H PARENT 12 13 10 15
REMARK Flexibility Score: inf
ROOT
ATOM      1  C   UNL     1      18.099  25.757  44.608  1.00  0.00    -0.022 A 
ATOM      2  C   UNL     1      19.215  26.518  44.201  1.00  0.00     0.058 A 
ATOM      3  C   UNL     1      17.133  26.359  45.429  1.00  0.00     0.012 A 
ATOM      4  C   UNL     1      19.369  27.842  44.629  1.00  0.00     0.157 A 
ATOM      5  C   UNL     1      17.286  27.679  45.859  1.00  0.00     0.051 A 
ATOM      6  C   UNL     1      18.403  28.426  45.465  1.00  0.00     0.157 A 
ENDROOT
BRANCH   1   7
ATOM      7  C   UNL     1      17.886  24.355  44.172  1.00  0.00     0.010 C 
ATOM      8  C   UNL     1      17.342  23.409  44.949  1.00  0.00     0.025 C 
BRANCH   8   9
ATOM      9  C   UNL     1      17.138  22.032  44.471  1.00  0.00     0.064 C 
ATOM     10  O   UNL     1      16.972  21.818  43.243  1.00  0.00    -0.545 OA
ATOM     11  O   UNL     1      17.124  20.960  45.357  1.00  0.00    -0.545 OA
ENDBRANCH   8   9
ENDBRANCH   1   7
BRANCH   4  12
ATOM     12  O   UNL     1      20.487  28.562  44.209  1.00  0.00    -0.504 OA
ATOM     13  H   UNL     1      20.917  28.410  43.304  1.00  0.00     0.293 HD
ENDBRANCH   4  12
BRANCH   6  14
ATOM     14  O   UNL     1      18.555  29.743  45.895  1.00  0.00    -0.504 OA
ATOM     15  H   UNL     1      18.338  30.018  46.846  1.00  0.00     0.293 HD
ENDBRANCH   6  14
TORSDOF 4
ENDMDL
MODEL 6
REMARK VINA RESULT:    -5.083      1.250      6.067
REMARK INTER + INTRA:          -6.106
REMARK INTER:                  -5.979
REMARK INTRA:                  -0.127
REMARK UNBOUND:                -0.131
REMARK SMILES O=C([O-])C=Cc1ccc(O)c(O)c1
REMARK SMILES IDX 6 1 13 2 7 3 11 4 8 5 9 6 5 7 4 8 2 9 1 10 3 11 12 12 10 14
REMARK H PARENT 12 13 10 15
REMARK Flexibility Score: inf
ROOT
ATOM      1  C   UNL     1      19.966  25.306  40.522  1.00  0.00    -0.022 A 
ATOM      2  C   UNL     1      19.009  25.353  41.556  1.00  0.00     0.058 A 
ATOM      3  C   UNL     1      21.077  26.162  40.588  1.00  0.00     0.012 A 
ATOM      4  C   UNL     1      19.150  26.255  42.617  1.00  0.00     0.157 A 
ATOM      5  C   UNL     1      21.219  27.064  41.645  1.00  0.00     0.051 A 
ATOM      6  C   UNL     1      20.258  27.118  42.662  1.00  0.00     0.157 A 
ENDROOT
BRANCH   1   7
ATOM      7  C   UNL     1      19.866  24.360  39.383  1.00  0.00     0.010 C 
ATOM      8  C   UNL     1      20.163  23.057  39.470  1.00  0.00     0.025 C 
BRANCH   8   9
ATOM      9  C   UNL     1      20.038  22.151  38.317  1.00  0.00     0.064 C 
ATOM     10  O   UNL     1      20.551  21.004  38.369  1.00  0.00    -0.545 OA
ATOM     11  O   UNL     1      19.364  22.544  37.166  1.00  0.00    -0.545 OA
ENDBRANCH   8   9
ENDBRANCH   1   7
BRANCH   4  12
ATOM     12  O   UNL     1      18.182  26.275  43.620  1.00  0.00    -0.504 OA
ATOM     13  H   UNL     1      17.668  25.444  43.891  1.00  0.00     0.293 HD
ENDBRANCH   4  12
BRANCH   6  14
ATOM     14  O   UNL     1      20.400  28.019  43.715  1.00  0.00    -0.504 OA
ATOM     15  H   UNL     1      21.309  28.239  44.106  1.00  0.00     0.293 HD
ENDBRANCH   6  14
TORSDOF 4
ENDMDL
MODEL 7
REMARK VINA RESULT:    -4.994      6.488      9.010
REMARK INTER + INTRA:          -6.001
REMARK INTER:                  -5.874
REMARK INTRA:                  -0.127
REMARK UNBOUND:                -0.131
REMARK SMILES O=C([O-])C=Cc1ccc(O)c(O)c1
REMARK SMILES IDX 6 1 13 2 7 3 11 4 8 5 9 6 5 7 4 8 2 9 1 10 3 11 12 12 10 14
REMARK H PARENT 12 13 10 15
REMARK Flexibility Score: inf
ROOT
ATOM      1  C   UNL     1      17.148  26.399  45.629  1.00  0.00    -0.022 A 
ATOM      2  C   UNL     1      17.344  27.757  45.951  1.00  0.00     0.058 A 
ATOM      3  C   UNL     1      18.103  25.746  44.833  1.00  0.00     0.012 A 
ATOM      4  C   UNL     1      18.459  28.451  45.464  1.00  0.00     0.157 A 
ATOM      5  C   UNL     1      19.214  26.437  44.345  1.00  0.00     0.051 A 
ATOM      6  C   UNL     1      19.397  27.791  44.654  1.00  0.00     0.157 A 
ENDROOT
BRANCH   1   7
ATOM      7  C   UNL     1      15.989  25.618  46.130  1.00  0.00     0.010 C 
ATOM      8  C   UNL     1      15.370  25.869  47.291  1.00  0.00     0.025 C 
BRANCH   8   9
ATOM      9  C   UNL     1      14.216  25.076  47.745  1.00  0.00     0.064 C 
ATOM     10  O   UNL     1      14.250  23.822  47.657  1.00  0.00    -0.545 OA
ATOM     11  O   UNL     1      13.085  25.692  48.269  1.00  0.00    -0.545 OA
ENDBRANCH   8   9
ENDBRANCH   1   7
BRANCH   4  12
ATOM     12  O   UNL     1      18.618  29.795  45.801  1.00  0.00    -0.504 OA
ATOM     13  H   UNL     1      19.531  30.233  45.854  1.00  0.00     0.293 HD
ENDBRANCH   4  12
BRANCH   6  14
ATOM     14  O   UNL     1      20.506  28.479  44.165  1.00  0.00    -0.504 OA
ATOM     15  H   UNL     1      20.503  29.487  44.064  1.00  0.00     0.293 HD
ENDBRANCH   6  14
TORSDOF 4
ENDMDL
MODEL 8
REMARK VINA RESULT:    -4.824      4.430      7.732
REMARK INTER + INTRA:          -5.801
REMARK INTER:                  -5.674
REMARK INTRA:                  -0.128
REMARK UNBOUND:                -0.131
REMARK SMILES O=C([O-])C=Cc1ccc(O)c(O)c1
REMARK SMILES IDX 6 1 13 2 7 3 11 4 8 5 9 6 5 7 4 8 2 9 1 10 3 11 12 12 10 14
REMARK H PARENT 12 13 10 15
REMARK Flexibility Score: inf
ROOT
ATOM      1  C   UNL     1      18.045  26.282  44.104  1.00  0.00    -0.022 A 
ATOM      2  C   UNL     1      18.397  27.574  44.546  1.00  0.00     0.058 A 
ATOM      3  C   UNL     1      17.093  25.553  44.835  1.00  0.00     0.012 A 
ATOM      4  C   UNL     1      17.828  28.111  45.706  1.00  0.00     0.157 A 
ATOM      5  C   UNL     1      16.526  26.086  45.995  1.00  0.00     0.051 A 
ATOM      6  C   UNL     1      16.890  27.364  46.438  1.00  0.00     0.157 A 
ENDROOT
BRANCH   1   7
ATOM      7  C   UNL     1      18.612  25.675  42.875  1.00  0.00     0.010 C 
ATOM      8  C   UNL     1      19.182  26.383  41.891  1.00  0.00     0.025 C 
BRANCH   8   9
ATOM      9  C   UNL     1      19.743  25.738  40.692  1.00  0.00     0.064 C 
ATOM     10  O   UNL     1      19.969  24.501  40.700  1.00  0.00    -0.545 OA
ATOM     11  O   UNL     1      20.030  26.476  39.549  1.00  0.00    -0.545 OA
ENDBRANCH   8   9
ENDBRANCH   1   7
BRANCH   4  12
ATOM     12  O   UNL     1      18.203  29.390  46.113  1.00  0.00    -0.504 OA
ATOM     13  H   UNL     1      19.065  29.824  45.802  1.00  0.00     0.293 HD
ENDBRANCH   4  12
BRANCH   6  14
ATOM     14  O   UNL     1      16.323  27.893  47.596  1.00  0.00    -0.504 OA
ATOM     15  H   UNL     1      16.433  27.440  48.495  1.00  0.00     0.293 HD
ENDBRANCH   6  14
TORSDOF 4
ENDMDL
MODEL 9
REMARK VINA RESULT:    -4.773      5.292      7.943
REMARK INTER + INTRA:          -5.742
REMARK INTER:                  -5.615
REMARK INTRA:                  -0.126
REMARK UNBOUND:                -0.131
REMARK SMILES O=C([O-])C=Cc1ccc(O)c(O)c1
REMARK SMILES IDX 6 1 13 2 7 3 11 4 8 5 9 6 5 7 4 8 2 9 1 10 3 11 12 12 10 14
REMARK H PARENT 12 13 10 15
REMARK Flexibility Score: inf
ROOT
ATOM      1  C   UNL     1      17.626  26.357  44.691  1.00  0.00    -0.022 A 
ATOM      2  C   UNL     1      18.465  27.365  45.209  1.00  0.00     0.058 A 
ATOM      3  C   UNL     1      17.959  25.765  43.462  1.00  0.00     0.012 A 
ATOM      4  C   UNL     1      19.596  27.785  44.500  1.00  0.00     0.157 A 
ATOM      5  C   UNL     1      19.087  26.184  42.752  1.00  0.00     0.051 A 
ATOM      6  C   UNL     1      19.909  27.196  43.264  1.00  0.00     0.157 A 
ENDROOT
BRANCH   1   7
ATOM      7  C   UNL     1      16.423  25.870  45.410  1.00  0.00     0.010 C 
ATOM      8  C   UNL     1      16.253  25.980  46.734  1.00  0.00     0.025 C 
BRANCH   8   9
ATOM      9  C   UNL     1      15.038  25.493  47.406  1.00  0.00     0.064 C 
ATOM     10  O   UNL     1      13.919  25.645  46.853  1.00  0.00    -0.545 OA
ATOM     11  O   UNL     1      15.106  24.868  48.647  1.00  0.00    -0.545 OA
ENDBRANCH   8   9
ENDBRANCH   1   7
BRANCH   4  12
ATOM     12  O   UNL     1      20.401  28.787  45.043  1.00  0.00    -0.504 OA
ATOM     13  H   UNL     1      20.706  28.769  46.009  1.00  0.00     0.293 HD
ENDBRANCH   4  12
BRANCH   6  14
ATOM     14  O   UNL     1      21.032  27.615  42.553  1.00  0.00    -0.504 OA
ATOM     15  H   UNL     1      21.501  28.487  42.768  1.00  0.00     0.293 HD
ENDBRANCH   6  14
TORSDOF 4
ENDMDL
