MODEL 1
REMARK VINA RESULT:    -7.026      0.000      0.000
REMARK INTER + INTRA:          -8.674
REMARK INTER:                  -8.464
REMARK INTRA:                  -0.211
REMARK UNBOUND:                -0.211
REMARK SMILES O=c1c(O)c(-c2ccc(O)c(O)c2)oc2cc(O)cc(O)c12
REMARK SMILES IDX 5 1 3 2 2 3 1 4 22 5 20 6 19 7 17 8 16 9 15 10 14 11 6 12
REMARK SMILES IDX 7 13 8 14 9 15 13 16 11 17 10 18 12 20 4 22 21 24 18 26
REMARK H PARENT 10 19 12 21 4 23 21 25 18 27
REMARK Flexibility Score: inf
ROOT
ATOM      1  C   UNL     1      31.489 -92.035  37.646  1.00  0.00     0.180 A 
ATOM      2  C   UNL     1      30.255 -92.640  37.345  1.00  0.00     0.208 A 
ATOM      3  C   UNL     1      30.104 -94.020  37.554  1.00  0.00     0.238 A 
ATOM      4  O   UNL     1      29.016 -94.563  37.230  1.00  0.00    -0.285 OA
ATOM      5  C   UNL     1      31.180 -94.775  38.077  1.00  0.00     0.111 A 
ATOM      6  C   UNL     1      31.124 -96.172  38.366  1.00  0.00     0.134 A 
ATOM      7  C   UNL     1      32.290 -96.842  38.758  1.00  0.00     0.093 A 
ATOM      8  C   UNL     1      33.493 -96.155  38.934  1.00  0.00     0.123 A 
ATOM      9  C   UNL     1      33.542 -94.781  38.711  1.00  0.00     0.094 A 
ATOM     10  C   UNL     1      32.406 -94.090  38.284  1.00  0.00     0.146 A 
ATOM     11  O   UNL     1      32.500 -92.783  38.073  1.00  0.00    -0.452 OA
ENDROOT
BRANCH   1  12
ATOM     12  C   UNL     1      31.717 -90.583  37.475  1.00  0.00     0.025 A 
ATOM     13  C   UNL     1      32.668 -90.138  36.547  1.00  0.00     0.016 A 
ATOM     14  C   UNL     1      32.913 -88.773  36.385  1.00  0.00     0.051 A 
ATOM     15  C   UNL     1      32.227 -87.827  37.155  1.00  0.00     0.157 A 
ATOM     16  C   UNL     1      31.041 -89.638  38.267  1.00  0.00     0.062 A 
ATOM     17  C   UNL     1      31.283 -88.266  38.114  1.00  0.00     0.158 A 
BRANCH  15  18
ATOM     18  O   UNL     1      32.512 -86.478  36.939  1.00  0.00    -0.504 OA
ATOM     19  H   UNL     1      33.365 -86.026  37.237  1.00  0.00     0.293 HD
ENDBRANCH  15  18
BRANCH  17  20
ATOM     20  O   UNL     1      30.574 -87.384  38.932  1.00  0.00    -0.504 OA
ATOM     21  H   UNL     1      30.505 -87.476  39.935  1.00  0.00     0.293 HD
ENDBRANCH  17  20
ENDBRANCH   1  12
BRANCH   2  22
ATOM     22  O   UNL     1      29.213 -91.879  36.808  1.00  0.00    -0.502 OA
ATOM     23  H   UNL     1      29.036 -90.923  37.090  1.00  0.00     0.293 HD
ENDBRANCH   2  22
BRANCH   6  24
ATOM     24  O   UNL     1      29.954 -96.934  38.311  1.00  0.00    -0.507 OA
ATOM     25  H   UNL     1      29.275 -96.997  39.054  1.00  0.00     0.293 HD
ENDBRANCH   6  24
BRANCH   8  26
ATOM     26  O   UNL     1      34.643 -96.827  39.339  1.00  0.00    -0.508 OA
ATOM     27  H   UNL     1      34.595 -97.682  39.880  1.00  0.00     0.293 HD
ENDBRANCH   8  26
TORSDOF 6
ENDMDL
MODEL 2
REMARK VINA RESULT:    -5.999      1.219      3.000
REMARK INTER + INTRA:          -7.437
REMARK INTER:                  -7.324
REMARK INTRA:                  -0.113
REMARK UNBOUND:                -0.211
REMARK SMILES O=c1c(O)c(-c2ccc(O)c(O)c2)oc2cc(O)cc(O)c12
REMARK SMILES IDX 5 1 3 2 2 3 1 4 22 5 20 6 19 7 17 8 16 9 15 10 14 11 6 12
REMARK SMILES IDX 7 13 8 14 9 15 13 16 11 17 10 18 12 20 4 22 21 24 18 26
REMARK H PARENT 10 19 12 21 4 23 21 25 18 27
REMARK Flexibility Score: inf
ROOT
ATOM      1  C   UNL     1      31.529 -91.973  37.613  1.00  0.00     0.180 A 
ATOM      2  C   UNL     1      32.576 -92.837  37.979  1.00  0.00     0.208 A 
ATOM      3  C   UNL     1      32.311 -94.208  38.118  1.00  0.00     0.238 A 
ATOM      4  O   UNL     1      33.240 -94.967  38.500  1.00  0.00    -0.285 OA
ATOM      5  C   UNL     1      31.007 -94.702  37.873  1.00  0.00     0.111 A 
ATOM      6  C   UNL     1      30.636 -96.079  37.945  1.00  0.00     0.134 A 
ATOM      7  C   UNL     1      29.289 -96.437  37.810  1.00  0.00     0.093 A 
ATOM      8  C   UNL     1      28.310 -95.478  37.542  1.00  0.00     0.123 A 
ATOM      9  C   UNL     1      28.673 -94.139  37.411  1.00  0.00     0.094 A 
ATOM     10  C   UNL     1      30.003 -93.745  37.576  1.00  0.00     0.146 A 
ATOM     11  O   UNL     1      30.302 -92.458  37.454  1.00  0.00    -0.452 OA
ENDROOT
BRANCH   1  12
ATOM     12  C   UNL     1      31.736 -90.520  37.423  1.00  0.00     0.025 A 
ATOM     13  C   UNL     1      32.649 -90.073  36.457  1.00  0.00     0.016 A 
ATOM     14  C   UNL     1      32.874 -88.707  36.276  1.00  0.00     0.051 A 
ATOM     15  C   UNL     1      32.208 -87.762  37.063  1.00  0.00     0.157 A 
ATOM     16  C   UNL     1      31.081 -89.575  38.232  1.00  0.00     0.062 A 
ATOM     17  C   UNL     1      31.304 -88.202  38.059  1.00  0.00     0.158 A 
BRANCH  15  18
ATOM     18  O   UNL     1      32.472 -86.412  36.827  1.00  0.00    -0.504 OA
ATOM     19  H   UNL     1      31.855 -85.659  37.098  1.00  0.00     0.293 HD
ENDBRANCH  15  18
BRANCH  17  20
ATOM     20  O   UNL     1      30.617 -87.320  38.897  1.00  0.00    -0.504 OA
ATOM     21  H   UNL     1      29.798 -87.571  39.430  1.00  0.00     0.293 HD
ENDBRANCH  17  20
ENDBRANCH   1  12
BRANCH   2  22
ATOM     22  O   UNL     1      33.850 -92.325  38.238  1.00  0.00    -0.502 OA
ATOM     23  H   UNL     1      33.996 -91.424  38.679  1.00  0.00     0.293 HD
ENDBRANCH   2  22
BRANCH   6  24
ATOM     24  O   UNL     1      31.546 -97.125  38.118  1.00  0.00    -0.507 OA
ATOM     25  H   UNL     1      31.448 -97.866  38.794  1.00  0.00     0.293 HD
ENDBRANCH   6  24
BRANCH   8  26
ATOM     26  O   UNL     1      26.975 -95.845  37.394  1.00  0.00    -0.508 OA
ATOM     27  H   UNL     1      26.257 -95.500  38.020  1.00  0.00     0.293 HD
ENDBRANCH   8  26
TORSDOF 6
ENDMDL
MODEL 3
REMARK VINA RESULT:    -5.573      9.440     10.910
REMARK INTER + INTRA:          -6.924
REMARK INTER:                  -6.696
REMARK INTRA:                  -0.229
REMARK UNBOUND:                -0.211
REMARK SMILES O=c1c(O)c(-c2ccc(O)c(O)c2)oc2cc(O)cc(O)c12
REMARK SMILES IDX 5 1 3 2 2 3 1 4 22 5 20 6 19 7 17 8 16 9 15 10 14 11 6 12
REMARK SMILES IDX 7 13 8 14 9 15 13 16 11 17 10 18 12 20 4 22 21 24 18 26
REMARK H PARENT 10 19 12 21 4 23 21 25 18 27
REMARK Flexibility Score: inf
ROOT
ATOM      1  C   UNL     1      36.794 -95.163  29.952  1.00  0.00     0.180 A 
ATOM      2  C   UNL     1      37.887 -95.483  29.129  1.00  0.00     0.208 A 
ATOM      3  C   UNL     1      39.177 -95.496  29.683  1.00  0.00     0.238 A 
ATOM      4  O   UNL     1      40.156 -95.729  28.927  1.00  0.00    -0.285 OA
ATOM      5  C   UNL     1      39.357 -95.206  31.057  1.00  0.00     0.111 A 
ATOM      6  C   UNL     1      40.614 -95.230  31.732  1.00  0.00     0.134 A 
ATOM      7  C   UNL     1      40.691 -94.799  33.062  1.00  0.00     0.093 A 
ATOM      8  C   UNL     1      39.546 -94.407  33.761  1.00  0.00     0.123 A 
ATOM      9  C   UNL     1      38.306 -94.438  33.127  1.00  0.00     0.094 A 
ATOM     10  C   UNL     1      38.202 -94.828  31.790  1.00  0.00     0.146 A 
ATOM     11  O   UNL     1      37.002 -94.832  31.222  1.00  0.00    -0.452 OA
ENDROOT
BRANCH   1  12
ATOM     12  C   UNL     1      35.403 -95.153  29.447  1.00  0.00     0.025 A 
ATOM     13  C   UNL     1      34.982 -94.114  28.607  1.00  0.00     0.016 A 
ATOM     14  C   UNL     1      33.668 -94.074  28.134  1.00  0.00     0.051 A 
ATOM     15  C   UNL     1      32.746 -95.060  28.504  1.00  0.00     0.157 A 
ATOM     16  C   UNL     1      34.474 -96.133  29.839  1.00  0.00     0.062 A 
ATOM     17  C   UNL     1      33.153 -96.100  29.373  1.00  0.00     0.158 A 
BRANCH  15  18
ATOM     18  O   UNL     1      31.451 -94.967  27.992  1.00  0.00    -0.504 OA
ATOM     19  H   UNL     1      30.872 -94.143  28.063  1.00  0.00     0.293 HD
ENDBRANCH  15  18
BRANCH  17  20
ATOM     20  O   UNL     1      32.286 -97.107  29.801  1.00  0.00    -0.504 OA
ATOM     21  H   UNL     1      31.890 -97.155  30.728  1.00  0.00     0.293 HD
ENDBRANCH  17  20
ENDBRANCH   1  12
BRANCH   2  22
ATOM     22  O   UNL     1      37.690 -95.744  27.770  1.00  0.00    -0.502 OA
ATOM     23  H   UNL     1      38.453 -95.766  27.103  1.00  0.00     0.293 HD
ENDBRANCH   2  22
BRANCH   6  24
ATOM     24  O   UNL     1      41.801 -95.689  31.155  1.00  0.00    -0.507 OA
ATOM     25  H   UNL     1      42.383 -96.418  31.540  1.00  0.00     0.293 HD
ENDBRANCH   6  24
BRANCH   8  26
ATOM     26  O   UNL     1      39.630 -93.995  35.088  1.00  0.00    -0.508 OA
ATOM     27  H   UNL     1      40.495 -93.645  35.481  1.00  0.00     0.293 HD
ENDBRANCH   8  26
TORSDOF 6
ENDMDL
MODEL 4
REMARK VINA RESULT:    -5.531      9.218     10.967
REMARK INTER + INTRA:          -6.874
REMARK INTER:                  -6.633
REMARK INTRA:                  -0.240
REMARK UNBOUND:                -0.211
REMARK SMILES O=c1c(O)c(-c2ccc(O)c(O)c2)oc2cc(O)cc(O)c12
REMARK SMILES IDX 5 1 3 2 2 3 1 4 22 5 20 6 19 7 17 8 16 9 15 10 14 11 6 12
REMARK SMILES IDX 7 13 8 14 9 15 13 16 11 17 10 18 12 20 4 22 21 24 18 26
REMARK H PARENT 10 19 12 21 4 23 21 25 18 27
REMARK Flexibility Score: inf
ROOT
ATOM      1  C   UNL     1      37.908 -95.267  31.136  1.00  0.00     0.180 A 
ATOM      2  C   UNL     1      38.452 -96.132  30.170  1.00  0.00     0.208 A 
ATOM      3  C   UNL     1      37.774 -96.308  28.954  1.00  0.00     0.238 A 
ATOM      4  O   UNL     1      38.238 -97.125  28.117  1.00  0.00    -0.285 OA
ATOM      5  C   UNL     1      36.570 -95.605  28.710  1.00  0.00     0.111 A 
ATOM      6  C   UNL     1      35.821 -95.677  27.497  1.00  0.00     0.134 A 
ATOM      7  C   UNL     1      34.576 -95.040  27.416  1.00  0.00     0.093 A 
ATOM      8  C   UNL     1      34.083 -94.282  28.481  1.00  0.00     0.123 A 
ATOM      9  C   UNL     1      34.835 -94.157  29.646  1.00  0.00     0.094 A 
ATOM     10  C   UNL     1      36.064 -94.810  29.772  1.00  0.00     0.146 A 
ATOM     11  O   UNL     1      36.742 -94.673  30.904  1.00  0.00    -0.452 OA
ENDROOT
BRANCH   1  12
ATOM     12  C   UNL     1      38.577 -95.012  32.432  1.00  0.00     0.025 A 
ATOM     13  C   UNL     1      39.749 -94.245  32.463  1.00  0.00     0.016 A 
ATOM     14  C   UNL     1      40.407 -94.009  33.672  1.00  0.00     0.051 A 
ATOM     15  C   UNL     1      39.919 -94.546  34.868  1.00  0.00     0.157 A 
ATOM     16  C   UNL     1      38.095 -95.573  33.627  1.00  0.00     0.062 A 
ATOM     17  C   UNL     1      38.751 -95.345  34.844  1.00  0.00     0.158 A 
BRANCH  15  18
ATOM     18  O   UNL     1      40.619 -94.267  36.043  1.00  0.00    -0.504 OA
ATOM     19  H   UNL     1      40.328 -93.581  36.725  1.00  0.00     0.293 HD
ENDBRANCH  15  18
BRANCH  17  20
ATOM     20  O   UNL     1      38.215 -95.931  35.993  1.00  0.00    -0.504 OA
ATOM     21  H   UNL     1      38.169 -95.473  36.892  1.00  0.00     0.293 HD
ENDBRANCH  17  20
ENDBRANCH   1  12
BRANCH   2  22
ATOM     22  O   UNL     1      39.631 -96.833  30.440  1.00  0.00    -0.502 OA
ATOM     23  H   UNL     1      40.483 -96.372  30.734  1.00  0.00     0.293 HD
ENDBRANCH   2  22
BRANCH   6  24
ATOM     24  O   UNL     1      36.263 -96.331  26.344  1.00  0.00    -0.507 OA
ATOM     25  H   UNL     1      37.011 -97.008  26.319  1.00  0.00     0.293 HD
ENDBRANCH   6  24
BRANCH   8  26
ATOM     26  O   UNL     1      32.852 -93.639  28.385  1.00  0.00    -0.508 OA
ATOM     27  H   UNL     1      32.782 -92.663  28.125  1.00  0.00     0.293 HD
ENDBRANCH   8  26
TORSDOF 6
ENDMDL
MODEL 5
REMARK VINA RESULT:    -5.485      8.876     11.080
REMARK INTER + INTRA:          -6.817
REMARK INTER:                  -6.529
REMARK INTRA:                  -0.288
REMARK UNBOUND:                -0.211
REMARK SMILES O=c1c(O)c(-c2ccc(O)c(O)c2)oc2cc(O)cc(O)c12
REMARK SMILES IDX 5 1 3 2 2 3 1 4 22 5 20 6 19 7 17 8 16 9 15 10 14 11 6 12
REMARK SMILES IDX 7 13 8 14 9 15 13 16 11 17 10 18 12 20 4 22 21 24 18 26
REMARK H PARENT 10 19 12 21 4 23 21 25 18 27
REMARK Flexibility Score: inf
ROOT
ATOM      1  C   UNL     1      40.638 -95.414  35.992  1.00  0.00     0.180 A 
ATOM      2  C   UNL     1      41.818 -95.456  35.229  1.00  0.00     0.208 A 
ATOM      3  C   UNL     1      41.734 -95.305  33.836  1.00  0.00     0.238 A 
ATOM      4  O   UNL     1      42.788 -95.399  33.154  1.00  0.00    -0.285 OA
ATOM      5  C   UNL     1      40.475 -95.095  33.224  1.00  0.00     0.111 A 
ATOM      6  C   UNL     1      40.278 -94.889  31.825  1.00  0.00     0.134 A 
ATOM      7  C   UNL     1      38.975 -94.822  31.315  1.00  0.00     0.093 A 
ATOM      8  C   UNL     1      37.865 -94.890  32.160  1.00  0.00     0.123 A 
ATOM      9  C   UNL     1      38.050 -95.031  33.533  1.00  0.00     0.094 A 
ATOM     10  C   UNL     1      39.336 -95.137  34.069  1.00  0.00     0.146 A 
ATOM     11  O   UNL     1      39.466 -95.281  35.382  1.00  0.00    -0.452 OA
ENDROOT
BRANCH   1  12
ATOM     12  C   UNL     1      40.649 -95.541  37.467  1.00  0.00     0.025 A 
ATOM     13  C   UNL     1      40.741 -96.813  38.048  1.00  0.00     0.016 A 
ATOM     14  C   UNL     1      40.732 -96.957  39.437  1.00  0.00     0.051 A 
ATOM     15  C   UNL     1      40.615 -95.840  40.271  1.00  0.00     0.157 A 
ATOM     16  C   UNL     1      40.509 -94.418  38.300  1.00  0.00     0.062 A 
ATOM     17  C   UNL     1      40.495 -94.553  39.694  1.00  0.00     0.158 A 
BRANCH  15  18
ATOM     18  O   UNL     1      40.621 -96.050  41.651  1.00  0.00    -0.504 OA
ATOM     19  H   UNL     1      41.391 -95.808  42.257  1.00  0.00     0.293 HD
ENDBRANCH  15  18
BRANCH  17  20
ATOM     20  O   UNL     1      40.356 -93.393  40.460  1.00  0.00    -0.504 OA
ATOM     21  H   UNL     1      40.589 -92.468  40.131  1.00  0.00     0.293 HD
ENDBRANCH  17  20
ENDBRANCH   1  12
BRANCH   2  22
ATOM     22  O   UNL     1      43.049 -95.686  35.850  1.00  0.00    -0.502 OA
ATOM     23  H   UNL     1      43.924 -95.356  35.463  1.00  0.00     0.293 HD
ENDBRANCH   2  22
BRANCH   6  24
ATOM     24  O   UNL     1      41.318 -94.717  30.908  1.00  0.00    -0.507 OA
ATOM     25  H   UNL     1      41.754 -93.833  30.692  1.00  0.00     0.293 HD
ENDBRANCH   6  24
BRANCH   8  26
ATOM     26  O   UNL     1      36.574 -94.807  31.645  1.00  0.00    -0.508 OA
ATOM     27  H   UNL     1      35.963 -94.030  31.868  1.00  0.00     0.293 HD
ENDBRANCH   8  26
TORSDOF 6
ENDMDL
MODEL 6
REMARK VINA RESULT:    -5.480      9.256     10.723
REMARK INTER + INTRA:          -6.812
REMARK INTER:                  -6.638
REMARK INTRA:                  -0.174
REMARK UNBOUND:                -0.211
REMARK SMILES O=c1c(O)c(-c2ccc(O)c(O)c2)oc2cc(O)cc(O)c12
REMARK SMILES IDX 5 1 3 2 2 3 1 4 22 5 20 6 19 7 17 8 16 9 15 10 14 11 6 12
REMARK SMILES IDX 7 13 8 14 9 15 13 16 11 17 10 18 12 20 4 22 21 24 18 26
REMARK H PARENT 10 19 12 21 4 23 21 25 18 27
REMARK Flexibility Score: inf
ROOT
ATOM      1  C   UNL     1      36.895 -95.140  30.418  1.00  0.00     0.180 A 
ATOM      2  C   UNL     1      37.948 -95.426  29.530  1.00  0.00     0.208 A 
ATOM      3  C   UNL     1      39.266 -95.414  30.012  1.00  0.00     0.238 A 
ATOM      4  O   UNL     1      40.207 -95.616  29.200  1.00  0.00    -0.285 OA
ATOM      5  C   UNL     1      39.516 -95.133  31.376  1.00  0.00     0.111 A 
ATOM      6  C   UNL     1      40.810 -95.133  31.980  1.00  0.00     0.134 A 
ATOM      7  C   UNL     1      40.951 -94.713  33.308  1.00  0.00     0.093 A 
ATOM      8  C   UNL     1      39.839 -94.355  34.074  1.00  0.00     0.123 A 
ATOM      9  C   UNL     1      38.566 -94.409  33.510  1.00  0.00     0.094 A 
ATOM     10  C   UNL     1      38.396 -94.789  32.177  1.00  0.00     0.146 A 
ATOM     11  O   UNL     1      37.167 -94.816  31.677  1.00  0.00    -0.452 OA
ENDROOT
BRANCH   1  12
ATOM     12  C   UNL     1      35.478 -95.158  29.991  1.00  0.00     0.025 A 
ATOM     13  C   UNL     1      34.624 -96.158  30.475  1.00  0.00     0.016 A 
ATOM     14  C   UNL     1      33.289 -96.204  30.070  1.00  0.00     0.051 A 
ATOM     15  C   UNL     1      32.784 -95.267  29.161  1.00  0.00     0.157 A 
ATOM     16  C   UNL     1      34.982 -94.228  29.060  1.00  0.00     0.062 A 
ATOM     17  C   UNL     1      33.645 -94.269  28.645  1.00  0.00     0.158 A 
BRANCH  15  18
ATOM     18  O   UNL     1      31.439 -95.364  28.802  1.00  0.00    -0.504 OA
ATOM     19  H   UNL     1      31.113 -95.452  27.849  1.00  0.00     0.293 HD
ENDBRANCH  15  18
BRANCH  17  20
ATOM     20  O   UNL     1      33.219 -93.312  27.721  1.00  0.00    -0.504 OA
ATOM     21  H   UNL     1      33.135 -92.328  27.926  1.00  0.00     0.293 HD
ENDBRANCH  17  20
ENDBRANCH   1  12
BRANCH   2  22
ATOM     22  O   UNL     1      37.680 -95.679  28.182  1.00  0.00    -0.502 OA
ATOM     23  H   UNL     1      37.007 -96.373  27.882  1.00  0.00     0.293 HD
ENDBRANCH   2  22
BRANCH   6  24
ATOM     24  O   UNL     1      41.973 -95.559  31.332  1.00  0.00    -0.507 OA
ATOM     25  H   UNL     1      42.799 -95.901  31.801  1.00  0.00     0.293 HD
ENDBRANCH   6  24
BRANCH   8  26
ATOM     26  O   UNL     1      39.988 -93.953  35.398  1.00  0.00    -0.508 OA
ATOM     27  H   UNL     1      39.367 -93.272  35.819  1.00  0.00     0.293 HD
ENDBRANCH   8  26
TORSDOF 6
ENDMDL
MODEL 7
REMARK VINA RESULT:    -5.304      8.978     10.374
REMARK INTER + INTRA:          -6.600
REMARK INTER:                  -6.276
REMARK INTRA:                  -0.324
REMARK UNBOUND:                -0.211
REMARK SMILES O=c1c(O)c(-c2ccc(O)c(O)c2)oc2cc(O)cc(O)c12
REMARK SMILES IDX 5 1 3 2 2 3 1 4 22 5 20 6 19 7 17 8 16 9 15 10 14 11 6 12
REMARK SMILES IDX 7 13 8 14 9 15 13 16 11 17 10 18 12 20 4 22 21 24 18 26
REMARK H PARENT 10 19 12 21 4 23 21 25 18 27
REMARK Flexibility Score: inf
ROOT
ATOM      1  C   UNL     1      35.973 -95.534  30.212  1.00  0.00     0.180 A 
ATOM      2  C   UNL     1      35.822 -95.117  28.878  1.00  0.00     0.208 A 
ATOM      3  C   UNL     1      34.537 -95.095  28.313  1.00  0.00     0.238 A 
ATOM      4  O   UNL     1      34.416 -94.774  27.102  1.00  0.00    -0.285 OA
ATOM      5  C   UNL     1      33.418 -95.474  29.092  1.00  0.00     0.111 A 
ATOM      6  C   UNL     1      32.066 -95.451  28.633  1.00  0.00     0.134 A 
ATOM      7  C   UNL     1      31.053 -95.971  29.448  1.00  0.00     0.093 A 
ATOM      8  C   UNL     1      31.332 -96.454  30.728  1.00  0.00     0.123 A 
ATOM      9  C   UNL     1      32.640 -96.424  31.207  1.00  0.00     0.094 A 
ATOM     10  C   UNL     1      33.679 -95.946  30.405  1.00  0.00     0.146 A 
ATOM     11  O   UNL     1      34.912 -95.946  30.896  1.00  0.00    -0.452 OA
ENDROOT
BRANCH   1  12
ATOM     12  C   UNL     1      37.292 -95.561  30.884  1.00  0.00     0.025 A 
ATOM     13  C   UNL     1      38.085 -96.713  30.803  1.00  0.00     0.016 A 
ATOM     14  C   UNL     1      39.323 -96.766  31.446  1.00  0.00     0.051 A 
ATOM     15  C   UNL     1      39.786 -95.679  32.196  1.00  0.00     0.157 A 
ATOM     16  C   UNL     1      37.742 -94.475  31.656  1.00  0.00     0.062 A 
ATOM     17  C   UNL     1      38.981 -94.520  32.308  1.00  0.00     0.158 A 
BRANCH  15  18
ATOM     18  O   UNL     1      41.035 -95.793  32.809  1.00  0.00    -0.504 OA
ATOM     19  H   UNL     1      41.901 -95.923  32.307  1.00  0.00     0.293 HD
ENDBRANCH  15  18
BRANCH  17  20
ATOM     20  O   UNL     1      39.366 -93.405  33.054  1.00  0.00    -0.504 OA
ATOM     21  H   UNL     1      39.045 -93.215  33.992  1.00  0.00     0.293 HD
ENDBRANCH  17  20
ENDBRANCH   1  12
BRANCH   2  22
ATOM     22  O   UNL     1      36.943 -94.769  28.120  1.00  0.00    -0.502 OA
ATOM     23  H   UNL     1      37.637 -94.107  28.446  1.00  0.00     0.293 HD
ENDBRANCH   2  22
BRANCH   6  24
ATOM     24  O   UNL     1      31.667 -94.908  27.409  1.00  0.00    -0.507 OA
ATOM     25  H   UNL     1      32.041 -95.177  26.512  1.00  0.00     0.293 HD
ENDBRANCH   6  24
BRANCH   8  26
ATOM     26  O   UNL     1      30.316 -96.955  31.537  1.00  0.00    -0.508 OA
ATOM     27  H   UNL     1      30.062 -96.506  32.409  1.00  0.00     0.293 HD
ENDBRANCH   8  26
TORSDOF 6
ENDMDL
MODEL 8
REMARK VINA RESULT:    -5.275      7.857     10.474
REMARK INTER + INTRA:          -6.565
REMARK INTER:                  -6.336
REMARK INTRA:                  -0.229
REMARK UNBOUND:                -0.211
REMARK SMILES O=c1c(O)c(-c2ccc(O)c(O)c2)oc2cc(O)cc(O)c12
REMARK SMILES IDX 5 1 3 2 2 3 1 4 22 5 20 6 19 7 17 8 16 9 15 10 14 11 6 12
REMARK SMILES IDX 7 13 8 14 9 15 13 16 11 17 10 18 12 20 4 22 21 24 18 26
REMARK H PARENT 10 19 12 21 4 23 21 25 18 27
REMARK Flexibility Score: inf
ROOT
ATOM      1  C   UNL     1      40.277 -95.117  35.381  1.00  0.00     0.180 A 
ATOM      2  C   UNL     1      41.289 -94.738  36.280  1.00  0.00     0.208 A 
ATOM      3  C   UNL     1      41.061 -94.871  37.659  1.00  0.00     0.238 A 
ATOM      4  O   UNL     1      41.950 -94.478  38.458  1.00  0.00    -0.285 OA
ATOM      5  C   UNL     1      39.831 -95.397  38.122  1.00  0.00     0.111 A 
ATOM      6  C   UNL     1      39.508 -95.612  39.496  1.00  0.00     0.134 A 
ATOM      7  C   UNL     1      38.213 -96.015  39.845  1.00  0.00     0.093 A 
ATOM      8  C   UNL     1      37.249 -96.271  38.867  1.00  0.00     0.123 A 
ATOM      9  C   UNL     1      37.574 -96.121  37.521  1.00  0.00     0.094 A 
ATOM     10  C   UNL     1      38.846 -95.686  37.142  1.00  0.00     0.146 A 
ATOM     11  O   UNL     1      39.109 -95.545  35.849  1.00  0.00    -0.452 OA
ENDROOT
BRANCH   1  12
ATOM     12  C   UNL     1      40.452 -95.030  33.914  1.00  0.00     0.025 A 
ATOM     13  C   UNL     1      39.663 -94.137  33.177  1.00  0.00     0.016 A 
ATOM     14  C   UNL     1      39.798 -94.053  31.790  1.00  0.00     0.051 A 
ATOM     15  C   UNL     1      40.710 -94.868  31.110  1.00  0.00     0.157 A 
ATOM     16  C   UNL     1      41.354 -95.867  33.233  1.00  0.00     0.062 A 
ATOM     17  C   UNL     1      41.494 -95.792  31.842  1.00  0.00     0.158 A 
BRANCH  15  18
ATOM     18  O   UNL     1      40.803 -94.731  29.724  1.00  0.00    -0.504 OA
ATOM     19  H   UNL     1      40.736 -95.500  29.074  1.00  0.00     0.293 HD
ENDBRANCH  15  18
BRANCH  17  20
ATOM     20  O   UNL     1      42.411 -96.652  31.232  1.00  0.00    -0.504 OA
ATOM     21  H   UNL     1      42.179 -97.280  30.477  1.00  0.00     0.293 HD
ENDBRANCH  17  20
ENDBRANCH   1  12
BRANCH   2  22
ATOM     22  O   UNL     1      42.488 -94.201  35.802  1.00  0.00    -0.502 OA
ATOM     23  H   UNL     1      42.811 -93.276  36.061  1.00  0.00     0.293 HD
ENDBRANCH   2  22
BRANCH   6  24
ATOM     24  O   UNL     1      40.423 -95.473  40.544  1.00  0.00    -0.507 OA
ATOM     25  H   UNL     1      41.015 -96.212  40.891  1.00  0.00     0.293 HD
ENDBRANCH   6  24
BRANCH   8  26
ATOM     26  O   UNL     1      35.969 -96.686  39.223  1.00  0.00    -0.508 OA
ATOM     27  H   UNL     1      35.142 -96.235  38.850  1.00  0.00     0.293 HD
ENDBRANCH   8  26
TORSDOF 6
ENDMDL
MODEL 9
REMARK VINA RESULT:    -4.972     10.462     11.972
REMARK INTER + INTRA:          -6.200
REMARK INTER:                  -5.904
REMARK INTRA:                  -0.296
REMARK UNBOUND:                -0.211
REMARK SMILES O=c1c(O)c(-c2ccc(O)c(O)c2)oc2cc(O)cc(O)c12
REMARK SMILES IDX 5 1 3 2 2 3 1 4 22 5 20 6 19 7 17 8 16 9 15 10 14 11 6 12
REMARK SMILES IDX 7 13 8 14 9 15 13 16 11 17 10 18 12 20 4 22 21 24 18 26
REMARK H PARENT 10 19 12 21 4 23 21 25 18 27
REMARK Flexibility Score: inf
ROOT
ATOM      1  C   UNL     1      40.485 -95.249  31.301  1.00  0.00     0.180 A 
ATOM      2  C   UNL     1      39.196 -95.678  31.665  1.00  0.00     0.208 A 
ATOM      3  C   UNL     1      38.865 -95.758  33.027  1.00  0.00     0.238 A 
ATOM      4  O   UNL     1      37.729 -96.195  33.347  1.00  0.00    -0.285 OA
ATOM      5  C   UNL     1      39.818 -95.390  34.007  1.00  0.00     0.111 A 
ATOM      6  C   UNL     1      39.576 -95.394  35.414  1.00  0.00     0.134 A 
ATOM      7  C   UNL     1      40.633 -95.137  36.296  1.00  0.00     0.093 A 
ATOM      8  C   UNL     1      41.906 -94.814  35.822  1.00  0.00     0.123 A 
ATOM      9  C   UNL     1      42.136 -94.750  34.449  1.00  0.00     0.094 A 
ATOM     10  C   UNL     1      41.112 -95.037  33.544  1.00  0.00     0.146 A 
ATOM     11  O   UNL     1      41.378 -94.974  32.245  1.00  0.00    -0.452 OA
ENDROOT
BRANCH   1  12
ATOM     12  C   UNL     1      40.900 -95.116  29.886  1.00  0.00     0.025 A 
ATOM     13  C   UNL     1      41.318 -96.252  29.180  1.00  0.00     0.016 A 
ATOM     14  C   UNL     1      41.733 -96.146  27.851  1.00  0.00     0.051 A 
ATOM     15  C   UNL     1      41.755 -94.904  27.206  1.00  0.00     0.157 A 
ATOM     16  C   UNL     1      40.941 -93.863  29.249  1.00  0.00     0.062 A 
ATOM     17  C   UNL     1      41.360 -93.746  27.918  1.00  0.00     0.158 A 
BRANCH  15  18
ATOM     18  O   UNL     1      42.173 -94.866  25.875  1.00  0.00    -0.504 OA
ATOM     19  H   UNL     1      41.788 -94.244  25.179  1.00  0.00     0.293 HD
ENDBRANCH  15  18
BRANCH  17  20
ATOM     20  O   UNL     1      41.373 -92.471  27.348  1.00  0.00    -0.504 OA
ATOM     21  H   UNL     1      42.122 -91.805  27.472  1.00  0.00     0.293 HD
ENDBRANCH  17  20
ENDBRANCH   1  12
BRANCH   2  22
ATOM     22  O   UNL     1      38.278 -96.057  30.682  1.00  0.00    -0.502 OA
ATOM     23  H   UNL     1      38.563 -96.472  29.803  1.00  0.00     0.293 HD
ENDBRANCH   2  22
BRANCH   6  24
ATOM     24  O   UNL     1      38.321 -95.615  35.989  1.00  0.00    -0.507 OA
ATOM     25  H   UNL     1      37.500 -95.057  35.808  1.00  0.00     0.293 HD
ENDBRANCH   6  24
BRANCH   8  26
ATOM     26  O   UNL     1      42.947 -94.545  36.706  1.00  0.00    -0.508 OA
ATOM     27  H   UNL     1      42.942 -94.901  37.655  1.00  0.00     0.293 HD
ENDBRANCH   8  26
TORSDOF 6
ENDMDL
