MODEL 1
REMARK VINA RESULT:    -5.634      0.000      0.000
REMARK INTER + INTRA:          -6.775
REMARK INTER:                  -6.622
REMARK INTRA:                  -0.153
REMARK UNBOUND:                -0.153
REMARK SMILES O=C([O-])C=Cc1ccc(O)c(O)c1
REMARK SMILES IDX 6 1 13 2 7 3 11 4 8 5 9 6 5 7 4 8 2 9 1 10 3 11 12 12 10 14
REMARK H PARENT 12 13 10 15
REMARK Flexibility Score: inf
ROOT
ATOM      1  C   UNL     1      18.383   3.018  22.723  1.00  0.00    -0.022 A 
ATOM      2  C   UNL     1      17.151   3.690  22.588  1.00  0.00     0.058 A 
ATOM      3  C   UNL     1      19.574   3.752  22.600  1.00  0.00     0.012 A 
ATOM      4  C   UNL     1      17.118   5.075  22.362  1.00  0.00     0.157 A 
ATOM      5  C   UNL     1      19.539   5.132  22.377  1.00  0.00     0.051 A 
ATOM      6  C   UNL     1      18.313   5.797  22.260  1.00  0.00     0.157 A 
ENDROOT
BRANCH   1   7
ATOM      7  C   UNL     1      18.472   1.554  22.950  1.00  0.00     0.010 C 
ATOM      8  C   UNL     1      19.609   0.917  23.259  1.00  0.00     0.025 C 
BRANCH   8   9
ATOM      9  C   UNL     1      19.653  -0.540  23.464  1.00  0.00     0.064 C 
ATOM     10  O   UNL     1      18.663  -1.124  23.976  1.00  0.00    -0.545 OA
ATOM     11  O   UNL     1      20.769  -1.283  23.100  1.00  0.00    -0.545 OA
ENDBRANCH   8   9
ENDBRANCH   1   7
BRANCH   4  12
ATOM     12  O   UNL     1      15.899   5.739  22.233  1.00  0.00    -0.504 OA
ATOM     13  H   UNL     1      15.776   6.692  22.556  1.00  0.00     0.293 HD
ENDBRANCH   4  12
BRANCH   6  14
ATOM     14  O   UNL     1      18.274   7.172  22.038  1.00  0.00    -0.504 OA
ATOM     15  H   UNL     1      19.107   7.693  21.792  1.00  0.00     0.293 HD
ENDBRANCH   6  14
TORSDOF 4
ENDMDL
MODEL 2
REMARK VINA RESULT:    -5.268     12.980     13.684
REMARK INTER + INTRA:          -6.345
REMARK INTER:                  -6.218
REMARK INTRA:                  -0.127
REMARK UNBOUND:                -0.153
REMARK SMILES O=C([O-])C=Cc1ccc(O)c(O)c1
REMARK SMILES IDX 6 1 13 2 7 3 11 4 8 5 9 6 5 7 4 8 2 9 1 10 3 11 12 12 10 14
REMARK H PARENT 12 13 10 15
REMARK Flexibility Score: inf
ROOT
ATOM      1  C   UNL     1      30.500   7.826  19.954  1.00  0.00    -0.022 A 
ATOM      2  C   UNL     1      30.843   8.383  18.705  1.00  0.00     0.058 A 
ATOM      3  C   UNL     1      29.817   8.623  20.887  1.00  0.00     0.012 A 
ATOM      4  C   UNL     1      30.483   9.703  18.391  1.00  0.00     0.157 A 
ATOM      5  C   UNL     1      29.459   9.937  20.573  1.00  0.00     0.051 A 
ATOM      6  C   UNL     1      29.788  10.479  19.325  1.00  0.00     0.157 A 
ENDROOT
BRANCH   1   7
ATOM      7  C   UNL     1      30.866   6.440  20.337  1.00  0.00     0.010 C 
ATOM      8  C   UNL     1      32.106   5.944  20.238  1.00  0.00     0.025 C 
BRANCH   8   9
ATOM      9  C   UNL     1      32.422   4.558  20.619  1.00  0.00     0.064 C 
ATOM     10  O   UNL     1      31.556   3.658  20.460  1.00  0.00    -0.545 OA
ATOM     11  O   UNL     1      33.662   4.224  21.150  1.00  0.00    -0.545 OA
ENDBRANCH   8   9
ENDBRANCH   1   7
BRANCH   4  12
ATOM     12  O   UNL     1      30.820  10.250  17.154  1.00  0.00    -0.504 OA
ATOM     13  H   UNL     1      31.194   9.679  16.404  1.00  0.00     0.293 HD
ENDBRANCH   4  12
BRANCH   6  14
ATOM     14  O   UNL     1      29.431  11.789  19.008  1.00  0.00    -0.504 OA
ATOM     15  H   UNL     1      29.726  12.224  18.141  1.00  0.00     0.293 HD
ENDBRANCH   6  14
TORSDOF 4
ENDMDL
MODEL 3
REMARK VINA RESULT:    -5.206     13.172     15.617
REMARK INTER + INTRA:          -6.272
REMARK INTER:                  -6.145
REMARK INTRA:                  -0.128
REMARK UNBOUND:                -0.153
REMARK SMILES O=C([O-])C=Cc1ccc(O)c(O)c1
REMARK SMILES IDX 6 1 13 2 7 3 11 4 8 5 9 6 5 7 4 8 2 9 1 10 3 11 12 12 10 14
REMARK H PARENT 12 13 10 15
REMARK Flexibility Score: inf
ROOT
ATOM      1  C   UNL     1      30.077  10.388  19.240  1.00  0.00    -0.022 A 
ATOM      2  C   UNL     1      30.457   9.518  18.198  1.00  0.00     0.058 A 
ATOM      3  C   UNL     1      29.847   9.854  20.518  1.00  0.00     0.012 A 
ATOM      4  C   UNL     1      30.629   8.147  18.442  1.00  0.00     0.157 A 
ATOM      5  C   UNL     1      30.019   8.489  20.761  1.00  0.00     0.051 A 
ATOM      6  C   UNL     1      30.413   7.633  19.726  1.00  0.00     0.157 A 
ENDROOT
BRANCH   1   7
ATOM      7  C   UNL     1      29.871  11.843  19.030  1.00  0.00     0.010 C 
ATOM      8  C   UNL     1      30.857  12.748  19.076  1.00  0.00     0.025 C 
BRANCH   8   9
ATOM      9  C   UNL     1      30.604  14.184  18.874  1.00  0.00     0.064 C 
ATOM     10  O   UNL     1      31.552  15.003  18.991  1.00  0.00    -0.545 OA
ATOM     11  O   UNL     1      29.335  14.651  18.553  1.00  0.00    -0.545 OA
ENDBRANCH   8   9
ENDBRANCH   1   7
BRANCH   4  12
ATOM     12  O   UNL     1      31.009   7.290  17.411  1.00  0.00    -0.504 OA
ATOM     13  H   UNL     1      30.984   7.581  16.441  1.00  0.00     0.293 HD
ENDBRANCH   4  12
BRANCH   6  14
ATOM     14  O   UNL     1      30.588   6.271  19.964  1.00  0.00    -0.504 OA
ATOM     15  H   UNL     1      29.985   5.576  19.540  1.00  0.00     0.293 HD
ENDBRANCH   6  14
TORSDOF 4
ENDMDL
MODEL 4
REMARK VINA RESULT:    -5.108     13.240     15.669
REMARK INTER + INTRA:          -6.157
REMARK INTER:                  -6.029
REMARK INTRA:                  -0.127
REMARK UNBOUND:                -0.153
REMARK SMILES O=C([O-])C=Cc1ccc(O)c(O)c1
REMARK SMILES IDX 6 1 13 2 7 3 11 4 8 5 9 6 5 7 4 8 2 9 1 10 3 11 12 12 10 14
REMARK H PARENT 12 13 10 15
REMARK Flexibility Score: inf
ROOT
ATOM      1  C   UNL     1      30.133  10.527  18.765  1.00  0.00    -0.022 A 
ATOM      2  C   UNL     1      29.961   9.797  19.959  1.00  0.00     0.058 A 
ATOM      3  C   UNL     1      30.525   9.844  17.603  1.00  0.00     0.012 A 
ATOM      4  C   UNL     1      30.154   8.407  19.976  1.00  0.00     0.157 A 
ATOM      5  C   UNL     1      30.716   8.460  17.621  1.00  0.00     0.051 A 
ATOM      6  C   UNL     1      30.528   7.738  18.805  1.00  0.00     0.157 A 
ENDROOT
BRANCH   1   7
ATOM      7  C   UNL     1      29.952  11.999  18.697  1.00  0.00     0.010 C 
ATOM      8  C   UNL     1      30.852  12.881  19.152  1.00  0.00     0.025 C 
BRANCH   8   9
ATOM      9  C   UNL     1      30.625  14.333  19.075  1.00  0.00     0.064 C 
ATOM     10  O   UNL     1      31.588  15.122  19.257  1.00  0.00    -0.545 OA
ATOM     11  O   UNL     1      29.363  14.849  18.802  1.00  0.00    -0.545 OA
ENDBRANCH   8   9
ENDBRANCH   1   7
BRANCH   4  12
ATOM     12  O   UNL     1      29.980   7.686  21.156  1.00  0.00    -0.504 OA
ATOM     13  H   UNL     1      29.808   8.149  22.041  1.00  0.00     0.293 HD
ENDBRANCH   4  12
BRANCH   6  14
ATOM     14  O   UNL     1      30.716   6.357  18.827  1.00  0.00    -0.504 OA
ATOM     15  H   UNL     1      30.114   5.748  19.370  1.00  0.00     0.293 HD
ENDBRANCH   6  14
TORSDOF 4
ENDMDL
MODEL 5
REMARK VINA RESULT:    -5.106     13.139     15.238
REMARK INTER + INTRA:          -6.155
REMARK INTER:                  -6.030
REMARK INTRA:                  -0.124
REMARK UNBOUND:                -0.153
REMARK SMILES O=C([O-])C=Cc1ccc(O)c(O)c1
REMARK SMILES IDX 6 1 13 2 7 3 11 4 8 5 9 6 5 7 4 8 2 9 1 10 3 11 12 12 10 14
REMARK H PARENT 12 13 10 15
REMARK Flexibility Score: inf
ROOT
ATOM      1  C   UNL     1      31.212   7.984  20.380  1.00  0.00    -0.022 A 
ATOM      2  C   UNL     1      32.317   7.606  19.591  1.00  0.00     0.058 A 
ATOM      3  C   UNL     1      30.657   7.044  21.264  1.00  0.00     0.012 A 
ATOM      4  C   UNL     1      32.869   6.321  19.708  1.00  0.00     0.157 A 
ATOM      5  C   UNL     1      31.208   5.765  21.381  1.00  0.00     0.051 A 
ATOM      6  C   UNL     1      32.316   5.401  20.606  1.00  0.00     0.157 A 
ENDROOT
BRANCH   1   7
ATOM      7  C   UNL     1      30.586   9.326  20.286  1.00  0.00     0.010 C 
ATOM      8  C   UNL     1      30.435   9.998  19.137  1.00  0.00     0.025 C 
BRANCH   8   9
ATOM      9  C   UNL     1      29.818  11.333  19.093  1.00  0.00     0.064 C 
ATOM     10  O   UNL     1      30.552  12.354  19.038  1.00  0.00    -0.545 OA
ATOM     11  O   UNL     1      28.437  11.487  19.108  1.00  0.00    -0.545 OA
ENDBRANCH   8   9
ENDBRANCH   1   7
BRANCH   4  12
ATOM     12  O   UNL     1      33.964   5.951  18.929  1.00  0.00    -0.504 OA
ATOM     13  H   UNL     1      34.876   6.375  19.058  1.00  0.00     0.293 HD
ENDBRANCH   4  12
BRANCH   6  14
ATOM     14  O   UNL     1      32.869   4.127  20.720  1.00  0.00    -0.504 OA
ATOM     15  H   UNL     1      33.034   3.545  19.907  1.00  0.00     0.293 HD
ENDBRANCH   6  14
TORSDOF 4
ENDMDL
MODEL 6
REMARK VINA RESULT:    -5.031     13.085     13.658
REMARK INTER + INTRA:          -6.066
REMARK INTER:                  -5.922
REMARK INTRA:                  -0.144
REMARK UNBOUND:                -0.153
REMARK SMILES O=C([O-])C=Cc1ccc(O)c(O)c1
REMARK SMILES IDX 6 1 13 2 7 3 11 4 8 5 9 6 5 7 4 8 2 9 1 10 3 11 12 12 10 14
REMARK H PARENT 12 13 10 15
REMARK Flexibility Score: inf
ROOT
ATOM      1  C   UNL     1      30.511   7.236  18.693  1.00  0.00    -0.022 A 
ATOM      2  C   UNL     1      30.429   7.841  19.964  1.00  0.00     0.058 A 
ATOM      3  C   UNL     1      30.511   8.052  17.551  1.00  0.00     0.012 A 
ATOM      4  C   UNL     1      30.377   9.238  20.083  1.00  0.00     0.157 A 
ATOM      5  C   UNL     1      30.459   9.444  17.672  1.00  0.00     0.051 A 
ATOM      6  C   UNL     1      30.395  10.040  18.937  1.00  0.00     0.157 A 
ENDROOT
BRANCH   1   7
ATOM      7  C   UNL     1      30.557   5.763  18.513  1.00  0.00     0.010 C 
ATOM      8  C   UNL     1      31.302   5.150  17.583  1.00  0.00     0.025 C 
BRANCH   8   9
ATOM      9  C   UNL     1      31.308   3.686  17.433  1.00  0.00     0.064 C 
ATOM     10  O   UNL     1      32.295   3.122  16.893  1.00  0.00    -0.545 OA
ATOM     11  O   UNL     1      30.241   2.915  17.879  1.00  0.00    -0.545 OA
ENDBRANCH   8   9
ENDBRANCH   1   7
BRANCH   4  12
ATOM     12  O   UNL     1      30.300   9.835  21.341  1.00  0.00    -0.504 OA
ATOM     13  H   UNL     1      30.088  10.821  21.449  1.00  0.00     0.293 HD
ENDBRANCH   4  12
BRANCH   6  14
ATOM     14  O   UNL     1      30.345  11.428  19.061  1.00  0.00    -0.504 OA
ATOM     15  H   UNL     1      31.186  11.993  19.036  1.00  0.00     0.293 HD
ENDBRANCH   6  14
TORSDOF 4
ENDMDL
MODEL 7
REMARK VINA RESULT:    -5.028     13.775     14.160
REMARK INTER + INTRA:          -6.062
REMARK INTER:                  -5.937
REMARK INTRA:                  -0.125
REMARK UNBOUND:                -0.153
REMARK SMILES O=C([O-])C=Cc1ccc(O)c(O)c1
REMARK SMILES IDX 6 1 13 2 7 3 11 4 8 5 9 6 5 7 4 8 2 9 1 10 3 11 12 12 10 14
REMARK H PARENT 12 13 10 15
REMARK Flexibility Score: inf
ROOT
ATOM      1  C   UNL     1      31.761   7.532  19.342  1.00  0.00    -0.022 A 
ATOM      2  C   UNL     1      31.247   8.249  20.441  1.00  0.00     0.058 A 
ATOM      3  C   UNL     1      31.520   8.014  18.045  1.00  0.00     0.012 A 
ATOM      4  C   UNL     1      30.529   9.438  20.242  1.00  0.00     0.157 A 
ATOM      5  C   UNL     1      30.806   9.199  17.848  1.00  0.00     0.051 A 
ATOM      6  C   UNL     1      30.311   9.915  18.945  1.00  0.00     0.157 A 
ENDROOT
BRANCH   1   7
ATOM      7  C   UNL     1      32.517   6.264  19.499  1.00  0.00     0.010 C 
ATOM      8  C   UNL     1      32.321   5.401  20.504  1.00  0.00     0.025 C 
BRANCH   8   9
ATOM      9  C   UNL     1      33.103   4.160  20.626  1.00  0.00     0.064 C 
ATOM     10  O   UNL     1      34.051   4.103  21.452  1.00  0.00    -0.545 OA
ATOM     11  O   UNL     1      32.811   3.047  19.846  1.00  0.00    -0.545 OA
ENDBRANCH   8   9
ENDBRANCH   1   7
BRANCH   4  12
ATOM     12  O   UNL     1      30.024  10.147  21.331  1.00  0.00    -0.504 OA
ATOM     13  H   UNL     1      30.066   9.775  22.273  1.00  0.00     0.293 HD
ENDBRANCH   4  12
BRANCH   6  14
ATOM     14  O   UNL     1      29.600  11.098  18.753  1.00  0.00    -0.504 OA
ATOM     15  H   UNL     1      30.053  12.003  18.802  1.00  0.00     0.293 HD
ENDBRANCH   6  14
TORSDOF 4
ENDMDL
MODEL 8
REMARK VINA RESULT:    -4.980     12.074     12.703
REMARK INTER + INTRA:          -6.007
REMARK INTER:                  -5.862
REMARK INTRA:                  -0.145
REMARK UNBOUND:                -0.153
REMARK SMILES O=C([O-])C=Cc1ccc(O)c(O)c1
REMARK SMILES IDX 6 1 13 2 7 3 11 4 8 5 9 6 5 7 4 8 2 9 1 10 3 11 12 12 10 14
REMARK H PARENT 12 13 10 15
REMARK Flexibility Score: inf
ROOT
ATOM      1  C   UNL     1      30.568   6.365  20.228  1.00  0.00    -0.022 A 
ATOM      2  C   UNL     1      30.391   7.481  21.070  1.00  0.00     0.058 A 
ATOM      3  C   UNL     1      30.609   6.563  18.838  1.00  0.00     0.012 A 
ATOM      4  C   UNL     1      30.284   8.771  20.529  1.00  0.00     0.157 A 
ATOM      5  C   UNL     1      30.504   7.849  18.300  1.00  0.00     0.051 A 
ATOM      6  C   UNL     1      30.344   8.955  19.143  1.00  0.00     0.157 A 
ENDROOT
BRANCH   1   7
ATOM      7  C   UNL     1      30.675   4.979  20.750  1.00  0.00     0.010 C 
ATOM      8  C   UNL     1      30.385   3.888  20.029  1.00  0.00     0.025 C 
BRANCH   8   9
ATOM      9  C   UNL     1      30.494   2.533  20.593  1.00  0.00     0.064 C 
ATOM     10  O   UNL     1      31.604   1.939  20.573  1.00  0.00    -0.545 OA
ATOM     11  O   UNL     1      29.391   1.897  21.151  1.00  0.00    -0.545 OA
ENDBRANCH   8   9
ENDBRANCH   1   7
BRANCH   4  12
ATOM     12  O   UNL     1      30.113   9.874  21.364  1.00  0.00    -0.504 OA
ATOM     13  H   UNL     1      30.887  10.481  21.607  1.00  0.00     0.293 HD
ENDBRANCH   4  12
BRANCH   6  14
ATOM     14  O   UNL     1      30.240  10.239  18.610  1.00  0.00    -0.504 OA
ATOM     15  H   UNL     1      30.114  10.393  17.616  1.00  0.00     0.293 HD
ENDBRANCH   6  14
TORSDOF 4
ENDMDL
