MODEL 1
REMARK VINA RESULT:    -3.695      0.000      0.000
REMARK INTER + INTRA:         -13.587
REMARK INTER:                  -9.743
REMARK INTRA:                  -3.845
REMARK UNBOUND:                -3.845
REMARK SMILES CCCCCCCCCCCCCCCCCCCCCCCCCCCCCC(=O)[O-]
REMARK SMILES IDX 16 1 17 2 18 3 19 4 20 5 21 6 22 7 23 8 24 9 25 10 26 11
REMARK SMILES IDX 27 12 28 13 29 14 30 15 31 16 32 17 15 18 14 19 13 20 12 21
REMARK SMILES IDX 11 22 10 23 9 24 8 25 7 26 6 27 5 28 4 29 3 30 2 31 1 32
REMARK H PARENT
REMARK Flexibility Score: inf
ROOT
ATOM      1  C   UNL     1       8.071   2.893  -7.500  1.00  0.00     0.000 C 
ENDROOT
BRANCH   1   2
ATOM      2  C   UNL     1       8.506   1.418  -7.504  1.00  0.00     0.000 C 
BRANCH   2   3
ATOM      3  C   UNL     1       9.146   0.986  -8.836  1.00  0.00     0.000 C 
BRANCH   3   4
ATOM      4  C   UNL     1       8.371  -0.096  -9.617  1.00  0.00     0.000 C 
BRANCH   4   5
ATOM      5  C   UNL     1       7.047  -0.551  -8.970  1.00  0.00     0.000 C 
BRANCH   5   6
ATOM      6  C   UNL     1       5.776  -0.006  -9.646  1.00  0.00     0.000 C 
BRANCH   6   7
ATOM      7  C   UNL     1       4.564   0.028  -8.699  1.00  0.00     0.000 C 
BRANCH   7   8
ATOM      8  C   UNL     1       4.107   1.463  -8.385  1.00  0.00     0.000 C 
BRANCH   8   9
ATOM      9  C   UNL     1       3.738   1.650  -6.902  1.00  0.00     0.000 C 
BRANCH   9  10
ATOM     10  C   UNL     1       4.971   1.867  -6.012  1.00  0.00     0.000 C 
BRANCH  10  11
ATOM     11  C   UNL     1       5.146   0.764  -4.954  1.00  0.00     0.000 C 
BRANCH  11  12
ATOM     12  C   UNL     1       6.274  -0.222  -5.332  1.00  0.00     0.000 C 
BRANCH  12  13
ATOM     13  C   UNL     1       5.769  -1.633  -5.679  1.00  0.00     0.006 C 
BRANCH  13  14
ATOM     14  C   UNL     1       6.902  -2.658  -5.805  1.00  0.00     0.053 C 
BRANCH  14  15
ATOM     15  C   UNL     1       6.478  -3.981  -5.248  1.00  0.00     0.041 C 
ATOM     16  O   UNL     1       5.259  -4.301  -5.231  1.00  0.00    -0.550 OA
ATOM     17  O   UNL     1       7.424  -4.846  -4.713  1.00  0.00    -0.550 OA
ENDBRANCH  14  15
ENDBRANCH  13  14
ENDBRANCH  12  13
ENDBRANCH  11  12
ENDBRANCH  10  11
ENDBRANCH   9  10
ENDBRANCH   8   9
ENDBRANCH   7   8
ENDBRANCH   6   7
ENDBRANCH   5   6
ENDBRANCH   4   5
ENDBRANCH   3   4
ENDBRANCH   2   3
ENDBRANCH   1   2
BRANCH   1  18
ATOM     18  C   UNL     1       7.996   3.486  -8.917  1.00  0.00     0.000 C 
BRANCH  18  19
ATOM     19  C   UNL     1       6.568   3.892  -9.316  1.00  0.00     0.000 C 
BRANCH  19  20
ATOM     20  C   UNL     1       5.954   4.915  -8.345  1.00  0.00     0.000 C 
BRANCH  20  21
ATOM     21  C   UNL     1       5.970   6.347  -8.907  1.00  0.00     0.000 C 
BRANCH  21  22
ATOM     22  C   UNL     1       5.497   7.392  -7.884  1.00  0.00     0.000 C 
BRANCH  22  23
ATOM     23  C   UNL     1       4.500   8.400  -8.483  1.00  0.00     0.000 C 
BRANCH  23  24
ATOM     24  C   UNL     1       3.963   9.394  -7.430  1.00  0.00    -0.000 C 
BRANCH  24  25
ATOM     25  C   UNL     1       4.795   9.434  -6.137  1.00  0.00    -0.000 C 
BRANCH  25  26
ATOM     26  C   UNL     1       3.990   9.016  -4.898  1.00  0.00    -0.000 C 
BRANCH  26  27
ATOM     27  C   UNL     1       4.873   8.262  -3.891  1.00  0.00    -0.000 C 
BRANCH  27  28
ATOM     28  C   UNL     1       5.078   9.045  -2.584  1.00  0.00    -0.000 C 
BRANCH  28  29
ATOM     29  C   UNL     1       6.483   9.657  -2.471  1.00  0.00    -0.000 C 
BRANCH  29  30
ATOM     30  C   UNL     1       7.563   8.603  -2.752  1.00  0.00    -0.000 C 
BRANCH  30  31
ATOM     31  C   UNL     1       7.788   7.656  -1.564  1.00  0.00    -0.003 C 
ATOM     32  C   UNL     1       9.211   7.102  -1.508  1.00  0.00     0.004 C 
ENDBRANCH  30  31
ENDBRANCH  29  30
ENDBRANCH  28  29
ENDBRANCH  27  28
ENDBRANCH  26  27
ENDBRANCH  25  26
ENDBRANCH  24  25
ENDBRANCH  23  24
ENDBRANCH  22  23
ENDBRANCH  21  22
ENDBRANCH  20  21
ENDBRANCH  19  20
ENDBRANCH  18  19
ENDBRANCH   1  18
TORSDOF 28
ENDMDL
MODEL 2
REMARK VINA RESULT:    -3.504      3.582      9.687
REMARK INTER + INTRA:         -13.083
REMARK INTER:                  -8.566
REMARK INTRA:                  -4.517
REMARK UNBOUND:                -3.845
REMARK SMILES CCCCCCCCCCCCCCCCCCCCCCCCCCCCCC(=O)[O-]
REMARK SMILES IDX 16 1 17 2 18 3 19 4 20 5 21 6 22 7 23 8 24 9 25 10 26 11
REMARK SMILES IDX 27 12 28 13 29 14 30 15 31 16 32 17 15 18 14 19 13 20 12 21
REMARK SMILES IDX 11 22 10 23 9 24 8 25 7 26 6 27 5 28 4 29 3 30 2 31 1 32
REMARK H PARENT
REMARK Flexibility Score: inf
ROOT
ATOM      1  C   UNL     1       6.035  -0.013  -5.355  1.00  0.00     0.000 C 
ENDROOT
BRANCH   1   2
ATOM      2  C   UNL     1       5.636   1.457  -5.565  1.00  0.00     0.000 C 
BRANCH   2   3
ATOM      3  C   UNL     1       4.332   1.616  -6.369  1.00  0.00     0.000 C 
BRANCH   3   4
ATOM      4  C   UNL     1       4.403   2.610  -7.547  1.00  0.00     0.000 C 
BRANCH   4   5
ATOM      5  C   UNL     1       5.635   3.537  -7.550  1.00  0.00     0.000 C 
BRANCH   5   6
ATOM      6  C   UNL     1       5.670   4.561  -8.699  1.00  0.00     0.000 C 
BRANCH   6   7
ATOM      7  C   UNL     1       6.220   5.930  -8.261  1.00  0.00     0.000 C 
BRANCH   7   8
ATOM      8  C   UNL     1       5.278   7.086  -8.636  1.00  0.00     0.000 C 
BRANCH   8   9
ATOM      9  C   UNL     1       5.386   8.272  -7.660  1.00  0.00     0.000 C 
BRANCH   9  10
ATOM     10  C   UNL     1       4.025   8.925  -7.376  1.00  0.00     0.000 C 
BRANCH  10  11
ATOM     11  C   UNL     1       3.899   9.440  -5.931  1.00  0.00     0.000 C 
BRANCH  11  12
ATOM     12  C   UNL     1       4.502   8.449  -4.912  1.00  0.00     0.000 C 
BRANCH  12  13
ATOM     13  C   UNL     1       5.416   9.116  -3.869  1.00  0.00     0.006 C 
BRANCH  13  14
ATOM     14  C   UNL     1       5.260   8.515  -2.467  1.00  0.00     0.053 C 
BRANCH  14  15
ATOM     15  C   UNL     1       6.600   8.248  -1.858  1.00  0.00     0.041 C 
ATOM     16  O   UNL     1       6.693   7.943  -0.639  1.00  0.00    -0.550 OA
ATOM     17  O   UNL     1       7.751   8.372  -2.627  1.00  0.00    -0.550 OA
ENDBRANCH  14  15
ENDBRANCH  13  14
ENDBRANCH  12  13
ENDBRANCH  11  12
ENDBRANCH  10  11
ENDBRANCH   9  10
ENDBRANCH   8   9
ENDBRANCH   7   8
ENDBRANCH   6   7
ENDBRANCH   5   6
ENDBRANCH   4   5
ENDBRANCH   3   4
ENDBRANCH   2   3
ENDBRANCH   1   2
BRANCH   1  18
ATOM     18  C   UNL     1       4.823  -0.960  -5.389  1.00  0.00     0.000 C 
BRANCH  18  19
ATOM     19  C   UNL     1       5.223  -2.427  -5.617  1.00  0.00     0.000 C 
BRANCH  19  20
ATOM     20  C   UNL     1       6.748  -2.629  -5.609  1.00  0.00     0.000 C 
BRANCH  20  21
ATOM     21  C   UNL     1       7.148  -4.114  -5.670  1.00  0.00     0.000 C 
BRANCH  21  22
ATOM     22  C   UNL     1       7.316  -4.625  -7.109  1.00  0.00     0.000 C 
BRANCH  22  23
ATOM     23  C   UNL     1       7.694  -3.505  -8.096  1.00  0.00     0.000 C 
BRANCH  23  24
ATOM     24  C   UNL     1       6.797  -3.502  -9.353  1.00  0.00    -0.000 C 
BRANCH  24  25
ATOM     25  C   UNL     1       5.291  -3.521  -9.040  1.00  0.00    -0.000 C 
BRANCH  25  26
ATOM     26  C   UNL     1       4.533  -2.357  -9.694  1.00  0.00    -0.000 C 
BRANCH  26  27
ATOM     27  C   UNL     1       4.900  -1.017  -9.037  1.00  0.00    -0.000 C 
BRANCH  27  28
ATOM     28  C   UNL     1       5.247   0.070 -10.066  1.00  0.00    -0.000 C 
BRANCH  28  29
ATOM     29  C   UNL     1       6.684   0.594  -9.919  1.00  0.00    -0.000 C 
BRANCH  29  30
ATOM     30  C   UNL     1       7.244   0.268  -8.527  1.00  0.00    -0.000 C 
BRANCH  30  31
ATOM     31  C   UNL     1       8.759   0.018  -8.543  1.00  0.00    -0.003 C 
ATOM     32  C   UNL     1       9.321  -0.309  -7.160  1.00  0.00     0.004 C 
ENDBRANCH  30  31
ENDBRANCH  29  30
ENDBRANCH  28  29
ENDBRANCH  27  28
ENDBRANCH  26  27
ENDBRANCH  25  26
ENDBRANCH  24  25
ENDBRANCH  23  24
ENDBRANCH  22  23
ENDBRANCH  21  22
ENDBRANCH  20  21
ENDBRANCH  19  20
ENDBRANCH  18  19
ENDBRANCH   1  18
TORSDOF 28
ENDMDL
MODEL 3
REMARK VINA RESULT:    -3.464      3.772      9.165
REMARK INTER + INTRA:         -12.980
REMARK INTER:                  -7.923
REMARK INTRA:                  -5.056
REMARK UNBOUND:                -3.845
REMARK SMILES CCCCCCCCCCCCCCCCCCCCCCCCCCCCCC(=O)[O-]
REMARK SMILES IDX 16 1 17 2 18 3 19 4 20 5 21 6 22 7 23 8 24 9 25 10 26 11
REMARK SMILES IDX 27 12 28 13 29 14 30 15 31 16 32 17 15 18 14 19 13 20 12 21
REMARK SMILES IDX 11 22 10 23 9 24 8 25 7 26 6 27 5 28 4 29 3 30 2 31 1 32
REMARK H PARENT
REMARK Flexibility Score: inf
ROOT
ATOM      1  C   UNL     1       7.337  -0.624  -6.369  1.00  0.00     0.000 C 
ENDROOT
BRANCH   1   2
ATOM      2  C   UNL     1       8.215  -0.219  -7.564  1.00  0.00     0.000 C 
BRANCH   2   3
ATOM      3  C   UNL     1       9.361   0.732  -7.172  1.00  0.00     0.000 C 
BRANCH   3   4
ATOM      4  C   UNL     1       9.552   1.948  -8.104  1.00  0.00     0.000 C 
BRANCH   4   5
ATOM      5  C   UNL     1       9.046   3.292  -7.543  1.00  0.00     0.000 C 
BRANCH   5   6
ATOM      6  C   UNL     1       7.600   3.650  -7.930  1.00  0.00     0.000 C 
BRANCH   6   7
ATOM      7  C   UNL     1       7.519   4.493  -9.215  1.00  0.00     0.000 C 
BRANCH   7   8
ATOM      8  C   UNL     1       6.092   4.995  -9.496  1.00  0.00     0.000 C 
BRANCH   8   9
ATOM      9  C   UNL     1       5.589   5.970  -8.417  1.00  0.00     0.000 C 
BRANCH   9  10
ATOM     10  C   UNL     1       4.979   7.246  -9.017  1.00  0.00     0.000 C 
BRANCH  10  11
ATOM     11  C   UNL     1       5.892   8.475  -8.864  1.00  0.00     0.000 C 
BRANCH  11  12
ATOM     12  C   UNL     1       7.017   8.232  -7.834  1.00  0.00     0.000 C 
BRANCH  12  13
ATOM     13  C   UNL     1       7.122   9.331  -6.763  1.00  0.00     0.006 C 
BRANCH  13  14
ATOM     14  C   UNL     1       5.754   9.825  -6.277  1.00  0.00     0.053 C 
BRANCH  14  15
ATOM     15  C   UNL     1       5.249   8.962  -5.164  1.00  0.00     0.041 C 
ATOM     16  O   UNL     1       5.798   9.003  -4.031  1.00  0.00    -0.550 OA
ATOM     17  O   UNL     1       4.195   8.085  -5.388  1.00  0.00    -0.550 OA
ENDBRANCH  14  15
ENDBRANCH  13  14
ENDBRANCH  12  13
ENDBRANCH  11  12
ENDBRANCH  10  11
ENDBRANCH   9  10
ENDBRANCH   8   9
ENDBRANCH   7   8
ENDBRANCH   6   7
ENDBRANCH   5   6
ENDBRANCH   4   5
ENDBRANCH   3   4
ENDBRANCH   2   3
ENDBRANCH   1   2
BRANCH   1  18
ATOM     18  C   UNL     1       6.409   0.515  -5.911  1.00  0.00     0.000 C 
BRANCH  18  19
ATOM     19  C   UNL     1       5.004   0.018  -5.529  1.00  0.00     0.000 C 
BRANCH  19  20
ATOM     20  C   UNL     1       3.888   0.864  -6.166  1.00  0.00     0.000 C 
BRANCH  20  21
ATOM     21  C   UNL     1       4.370   2.265  -6.579  1.00  0.00     0.000 C 
BRANCH  21  22
ATOM     22  C   UNL     1       3.975   2.628  -8.019  1.00  0.00     0.000 C 
BRANCH  22  23
ATOM     23  C   UNL     1       3.964   1.408  -8.956  1.00  0.00     0.000 C 
BRANCH  23  24
ATOM     24  C   UNL     1       5.359   1.107  -9.548  1.00  0.00    -0.000 C 
BRANCH  24  25
ATOM     25  C   UNL     1       5.547  -0.358  -9.977  1.00  0.00    -0.000 C 
BRANCH  25  26
ATOM     26  C   UNL     1       4.829  -1.347  -9.049  1.00  0.00    -0.000 C 
BRANCH  26  27
ATOM     27  C   UNL     1       4.475  -2.646  -9.790  1.00  0.00    -0.000 C 
BRANCH  27  28
ATOM     28  C   UNL     1       5.427  -3.802  -9.443  1.00  0.00    -0.000 C 
BRANCH  28  29
ATOM     29  C   UNL     1       6.160  -3.589  -8.109  1.00  0.00    -0.000 C 
BRANCH  29  30
ATOM     30  C   UNL     1       5.568  -4.484  -7.011  1.00  0.00    -0.000 C 
BRANCH  30  31
ATOM     31  C   UNL     1       5.587  -3.815  -5.629  1.00  0.00    -0.003 C 
ATOM     32  C   UNL     1       6.865  -4.110  -4.845  1.00  0.00     0.004 C 
ENDBRANCH  30  31
ENDBRANCH  29  30
ENDBRANCH  28  29
ENDBRANCH  27  28
ENDBRANCH  26  27
ENDBRANCH  25  26
ENDBRANCH  24  25
ENDBRANCH  23  24
ENDBRANCH  22  23
ENDBRANCH  21  22
ENDBRANCH  20  21
ENDBRANCH  19  20
ENDBRANCH  18  19
ENDBRANCH   1  18
TORSDOF 28
ENDMDL
MODEL 4
REMARK VINA RESULT:    -3.374      3.801      9.531
REMARK INTER + INTRA:         -12.741
REMARK INTER:                  -8.146
REMARK INTRA:                  -4.595
REMARK UNBOUND:                -3.845
REMARK SMILES CCCCCCCCCCCCCCCCCCCCCCCCCCCCCC(=O)[O-]
REMARK SMILES IDX 16 1 17 2 18 3 19 4 20 5 21 6 22 7 23 8 24 9 25 10 26 11
REMARK SMILES IDX 27 12 28 13 29 14 30 15 31 16 32 17 15 18 14 19 13 20 12 21
REMARK SMILES IDX 11 22 10 23 9 24 8 25 7 26 6 27 5 28 4 29 3 30 2 31 1 32
REMARK H PARENT
REMARK Flexibility Score: inf
ROOT
ATOM      1  C   UNL     1       4.417   0.041  -5.809  1.00  0.00     0.000 C 
ENDROOT
BRANCH   1   2
ATOM      2  C   UNL     1       4.109   1.318  -6.609  1.00  0.00     0.000 C 
BRANCH   2   3
ATOM      3  C   UNL     1       3.673   1.027  -8.057  1.00  0.00     0.000 C 
BRANCH   3   4
ATOM      4  C   UNL     1       4.591   0.065  -8.839  1.00  0.00     0.000 C 
BRANCH   4   5
ATOM      5  C   UNL     1       5.492   0.732  -9.899  1.00  0.00     0.000 C 
BRANCH   5   6
ATOM      6  C   UNL     1       5.366   2.264  -9.982  1.00  0.00     0.000 C 
BRANCH   6   7
ATOM      7  C   UNL     1       6.547   2.996  -9.320  1.00  0.00     0.000 C 
BRANCH   7   8
ATOM      8  C   UNL     1       6.096   3.917  -8.174  1.00  0.00     0.000 C 
BRANCH   8   9
ATOM      9  C   UNL     1       6.500   5.384  -8.406  1.00  0.00     0.000 C 
BRANCH   9  10
ATOM     10  C   UNL     1       5.565   6.101  -9.393  1.00  0.00     0.000 C 
BRANCH  10  11
ATOM     11  C   UNL     1       5.648   7.634  -9.288  1.00  0.00     0.000 C 
BRANCH  11  12
ATOM     12  C   UNL     1       4.267   8.267  -9.008  1.00  0.00     0.000 C 
BRANCH  12  13
ATOM     13  C   UNL     1       4.255   9.211  -7.793  1.00  0.00     0.006 C 
BRANCH  13  14
ATOM     14  C   UNL     1       5.098   8.691  -6.624  1.00  0.00     0.053 C 
BRANCH  14  15
ATOM     15  C   UNL     1       4.286   8.649  -5.368  1.00  0.00     0.041 C 
ATOM     16  O   UNL     1       4.640   7.913  -4.408  1.00  0.00    -0.550 OA
ATOM     17  O   UNL     1       3.117   9.393  -5.270  1.00  0.00    -0.550 OA
ENDBRANCH  14  15
ENDBRANCH  13  14
ENDBRANCH  12  13
ENDBRANCH  11  12
ENDBRANCH  10  11
ENDBRANCH   9  10
ENDBRANCH   8   9
ENDBRANCH   7   8
ENDBRANCH   6   7
ENDBRANCH   5   6
ENDBRANCH   4   5
ENDBRANCH   3   4
ENDBRANCH   2   3
ENDBRANCH   1   2
BRANCH   1  18
ATOM     18  C   UNL     1       5.885  -0.027  -5.355  1.00  0.00     0.000 C 
BRANCH  18  19
ATOM     19  C   UNL     1       6.777   0.997  -6.077  1.00  0.00     0.000 C 
BRANCH  19  20
ATOM     20  C   UNL     1       7.829   0.328  -6.979  1.00  0.00     0.000 C 
BRANCH  20  21
ATOM     21  C   UNL     1       9.165   1.091  -6.995  1.00  0.00     0.000 C 
BRANCH  21  22
ATOM     22  C   UNL     1       9.794   1.158  -8.396  1.00  0.00     0.000 C 
BRANCH  22  23
ATOM     23  C   UNL     1       9.160   0.158  -9.379  1.00  0.00     0.000 C 
BRANCH  23  24
ATOM     24  C   UNL     1       9.930  -1.180  -9.437  1.00  0.00    -0.000 C 
BRANCH  24  25
ATOM     25  C   UNL     1       9.111  -2.341 -10.024  1.00  0.00    -0.000 C 
BRANCH  25  26
ATOM     26  C   UNL     1       7.605  -2.046 -10.067  1.00  0.00    -0.000 C 
BRANCH  26  27
ATOM     27  C   UNL     1       6.801  -3.161  -9.381  1.00  0.00    -0.000 C 
BRANCH  27  28
ATOM     28  C   UNL     1       6.589  -2.899  -7.881  1.00  0.00    -0.000 C 
BRANCH  28  29
ATOM     29  C   UNL     1       5.977  -4.102  -7.146  1.00  0.00    -0.000 C 
BRANCH  29  30
ATOM     30  C   UNL     1       5.616  -3.732  -5.700  1.00  0.00    -0.000 C 
BRANCH  30  31
ATOM     31  C   UNL     1       6.778  -3.964  -4.724  1.00  0.00    -0.003 C 
ATOM     32  C   UNL     1       7.157  -5.439  -4.594  1.00  0.00     0.004 C 
ENDBRANCH  30  31
ENDBRANCH  29  30
ENDBRANCH  28  29
ENDBRANCH  27  28
ENDBRANCH  26  27
ENDBRANCH  25  26
ENDBRANCH  24  25
ENDBRANCH  23  24
ENDBRANCH  22  23
ENDBRANCH  21  22
ENDBRANCH  20  21
ENDBRANCH  19  20
ENDBRANCH  18  19
ENDBRANCH   1  18
TORSDOF 28
ENDMDL
MODEL 5
REMARK VINA RESULT:    -3.369      5.347      8.195
REMARK INTER + INTRA:         -12.729
REMARK INTER:                  -9.159
REMARK INTRA:                  -3.570
REMARK UNBOUND:                -3.845
REMARK SMILES CCCCCCCCCCCCCCCCCCCCCCCCCCCCCC(=O)[O-]
REMARK SMILES IDX 16 1 17 2 18 3 19 4 20 5 21 6 22 7 23 8 24 9 25 10 26 11
REMARK SMILES IDX 27 12 28 13 29 14 30 15 31 16 32 17 15 18 14 19 13 20 12 21
REMARK SMILES IDX 11 22 10 23 9 24 8 25 7 26 6 27 5 28 4 29 3 30 2 31 1 32
REMARK H PARENT
REMARK Flexibility Score: inf
ROOT
ATOM      1  C   UNL     1       6.181  -1.285  -5.607  1.00  0.00     0.000 C 
ENDROOT
BRANCH   1   2
ATOM      2  C   UNL     1       5.930  -2.683  -6.196  1.00  0.00     0.000 C 
BRANCH   2   3
ATOM      3  C   UNL     1       5.875  -2.685  -7.735  1.00  0.00     0.000 C 
BRANCH   3   4
ATOM      4  C   UNL     1       5.335  -3.982  -8.371  1.00  0.00     0.000 C 
BRANCH   4   5
ATOM      5  C   UNL     1       4.441  -3.784  -9.612  1.00  0.00     0.000 C 
BRANCH   5   6
ATOM      6  C   UNL     1       3.482  -4.949  -9.911  1.00  0.00     0.000 C 
BRANCH   6   7
ATOM      7  C   UNL     1       2.005  -4.517  -9.930  1.00  0.00     0.000 C 
BRANCH   7   8
ATOM      8  C   UNL     1       1.067  -5.614  -9.401  1.00  0.00     0.000 C 
BRANCH   8   9
ATOM      9  C   UNL     1       1.828  -6.738  -8.674  1.00  0.00     0.000 C 
BRANCH   9  10
ATOM     10  C   UNL     1       1.117  -7.194  -7.391  1.00  0.00     0.000 C 
BRANCH  10  11
ATOM     11  C   UNL     1       0.367  -8.526  -7.565  1.00  0.00     0.000 C 
BRANCH  11  12
ATOM     12  C   UNL     1      -0.474  -8.880  -6.318  1.00  0.00     0.000 C 
BRANCH  12  13
ATOM     13  C   UNL     1      -1.988  -8.925  -6.586  1.00  0.00     0.006 C 
BRANCH  13  14
ATOM     14  C   UNL     1      -2.798  -8.109  -5.572  1.00  0.00     0.053 C 
BRANCH  14  15
ATOM     15  C   UNL     1      -3.967  -7.454  -6.240  1.00  0.00     0.041 C 
ATOM     16  O   UNL     1      -4.583  -6.518  -5.663  1.00  0.00    -0.550 OA
ATOM     17  O   UNL     1      -4.399  -7.901  -7.482  1.00  0.00    -0.550 OA
ENDBRANCH  14  15
ENDBRANCH  13  14
ENDBRANCH  12  13
ENDBRANCH  11  12
ENDBRANCH  10  11
ENDBRANCH   9  10
ENDBRANCH   8   9
ENDBRANCH   7   8
ENDBRANCH   6   7
ENDBRANCH   5   6
ENDBRANCH   4   5
ENDBRANCH   3   4
ENDBRANCH   2   3
ENDBRANCH   1   2
BRANCH   1  18
ATOM     18  C   UNL     1       4.875  -0.512  -5.354  1.00  0.00     0.000 C 
BRANCH  18  19
ATOM     19  C   UNL     1       4.978   0.972  -5.743  1.00  0.00     0.000 C 
BRANCH  19  20
ATOM     20  C   UNL     1       3.980   1.361  -6.847  1.00  0.00     0.000 C 
BRANCH  20  21
ATOM     21  C   UNL     1       4.223   0.597  -8.160  1.00  0.00     0.000 C 
BRANCH  21  22
ATOM     22  C   UNL     1       4.134   1.501  -9.399  1.00  0.00     0.000 C 
BRANCH  22  23
ATOM     23  C   UNL     1       3.819   2.965  -9.043  1.00  0.00     0.000 C 
BRANCH  23  24
ATOM     24  C   UNL     1       5.026   3.901  -9.278  1.00  0.00    -0.000 C 
BRANCH  24  25
ATOM     25  C   UNL     1       5.706   4.371  -7.981  1.00  0.00    -0.000 C 
BRANCH  25  26
ATOM     26  C   UNL     1       7.236   4.413  -8.092  1.00  0.00    -0.000 C 
BRANCH  26  27
ATOM     27  C   UNL     1       7.853   3.038  -7.791  1.00  0.00    -0.000 C 
BRANCH  27  28
ATOM     28  C   UNL     1       8.666   2.484  -8.971  1.00  0.00    -0.000 C 
BRANCH  28  29
ATOM     29  C   UNL     1       7.954   1.330  -9.695  1.00  0.00    -0.000 C 
BRANCH  29  30
ATOM     30  C   UNL     1       7.754   0.135  -8.752  1.00  0.00    -0.000 C 
BRANCH  30  31
ATOM     31  C   UNL     1       9.059  -0.626  -8.479  1.00  0.00    -0.003 C 
ATOM     32  C   UNL     1       9.538  -0.482  -7.034  1.00  0.00     0.004 C 
ENDBRANCH  30  31
ENDBRANCH  29  30
ENDBRANCH  28  29
ENDBRANCH  27  28
ENDBRANCH  26  27
ENDBRANCH  25  26
ENDBRANCH  24  25
ENDBRANCH  23  24
ENDBRANCH  22  23
ENDBRANCH  21  22
ENDBRANCH  20  21
ENDBRANCH  19  20
ENDBRANCH  18  19
ENDBRANCH   1  18
TORSDOF 28
ENDMDL
MODEL 6
REMARK VINA RESULT:    -3.354      4.301      8.214
REMARK INTER + INTRA:         -12.688
REMARK INTER:                  -7.851
REMARK INTRA:                  -4.837
REMARK UNBOUND:                -3.845
REMARK SMILES CCCCCCCCCCCCCCCCCCCCCCCCCCCCCC(=O)[O-]
REMARK SMILES IDX 16 1 17 2 18 3 19 4 20 5 21 6 22 7 23 8 24 9 25 10 26 11
REMARK SMILES IDX 27 12 28 13 29 14 30 15 31 16 32 17 15 18 14 19 13 20 12 21
REMARK SMILES IDX 11 22 10 23 9 24 8 25 7 26 6 27 5 28 4 29 3 30 2 31 1 32
REMARK H PARENT
REMARK Flexibility Score: inf
ROOT
ATOM      1  C   UNL     1       4.566  -0.050  -5.406  1.00  0.00     0.000 C 
ENDROOT
BRANCH   1   2
ATOM      2  C   UNL     1       6.099  -0.102  -5.513  1.00  0.00     0.000 C 
BRANCH   2   3
ATOM      3  C   UNL     1       6.644  -1.537  -5.632  1.00  0.00     0.000 C 
BRANCH   3   4
ATOM      4  C   UNL     1       5.570  -2.643  -5.705  1.00  0.00     0.000 C 
BRANCH   4   5
ATOM      5  C   UNL     1       6.074  -4.069  -5.406  1.00  0.00     0.000 C 
BRANCH   5   6
ATOM      6  C   UNL     1       6.677  -4.808  -6.614  1.00  0.00     0.000 C 
BRANCH   6   7
ATOM      7  C   UNL     1       7.911  -5.650  -6.242  1.00  0.00     0.000 C 
BRANCH   7   8
ATOM      8  C   UNL     1       9.094  -5.407  -7.195  1.00  0.00     0.000 C 
BRANCH   8   9
ATOM      9  C   UNL     1       9.571  -6.700  -7.880  1.00  0.00     0.000 C 
BRANCH   9  10
ATOM     10  C   UNL     1       8.406  -7.629  -8.258  1.00  0.00     0.000 C 
BRANCH  10  11
ATOM     11  C   UNL     1       8.646  -9.089  -7.836  1.00  0.00     0.000 C 
BRANCH  11  12
ATOM     12  C   UNL     1       9.352  -9.184  -6.465  1.00  0.00     0.000 C 
BRANCH  12  13
ATOM     13  C   UNL     1       8.396  -9.049  -5.268  1.00  0.00     0.006 C 
BRANCH  13  14
ATOM     14  C   UNL     1       9.131  -8.896  -3.931  1.00  0.00     0.053 C 
BRANCH  14  15
ATOM     15  C   UNL     1       8.212  -8.344  -2.886  1.00  0.00     0.041 C 
ATOM     16  O   UNL     1       7.176  -8.980  -2.553  1.00  0.00    -0.550 OA
ATOM     17  O   UNL     1       8.479  -7.110  -2.308  1.00  0.00    -0.550 OA
ENDBRANCH  14  15
ENDBRANCH  13  14
ENDBRANCH  12  13
ENDBRANCH  11  12
ENDBRANCH  10  11
ENDBRANCH   9  10
ENDBRANCH   8   9
ENDBRANCH   7   8
ENDBRANCH   6   7
ENDBRANCH   5   6
ENDBRANCH   4   5
ENDBRANCH   3   4
ENDBRANCH   2   3
ENDBRANCH   1   2
BRANCH   1  18
ATOM     18  C   UNL     1       3.949   1.002  -6.345  1.00  0.00     0.000 C 
BRANCH  18  19
ATOM     19  C   UNL     1       4.149   0.662  -7.831  1.00  0.00     0.000 C 
BRANCH  19  20
ATOM     20  C   UNL     1       4.362   1.915  -8.698  1.00  0.00     0.000 C 
BRANCH  20  21
ATOM     21  C   UNL     1       5.816   2.061  -9.179  1.00  0.00     0.000 C 
BRANCH  21  22
ATOM     22  C   UNL     1       6.309   3.516  -9.146  1.00  0.00     0.000 C 
BRANCH  22  23
ATOM     23  C   UNL     1       7.467   3.728  -8.155  1.00  0.00     0.000 C 
BRANCH  23  24
ATOM     24  C   UNL     1       7.550   2.603  -7.099  1.00  0.00    -0.000 C 
BRANCH  24  25
ATOM     25  C   UNL     1       8.892   1.851  -7.101  1.00  0.00    -0.000 C 
BRANCH  25  26
ATOM     26  C   UNL     1       9.572   1.849  -8.477  1.00  0.00    -0.000 C 
BRANCH  26  27
ATOM     27  C   UNL     1       9.732   0.418  -9.015  1.00  0.00    -0.000 C 
BRANCH  27  28
ATOM     28  C   UNL     1       8.554  -0.491  -8.631  1.00  0.00    -0.000 C 
BRANCH  28  29
ATOM     29  C   UNL     1       8.838  -1.978  -8.899  1.00  0.00    -0.000 C 
BRANCH  29  30
ATOM     30  C   UNL     1       7.563  -2.704  -9.353  1.00  0.00    -0.000 C 
BRANCH  30  31
ATOM     31  C   UNL     1       6.337  -1.779  -9.386  1.00  0.00    -0.003 C 
ATOM     32  C   UNL     1       5.015  -2.547  -9.376  1.00  0.00     0.004 C 
ENDBRANCH  30  31
ENDBRANCH  29  30
ENDBRANCH  28  29
ENDBRANCH  27  28
ENDBRANCH  26  27
ENDBRANCH  25  26
ENDBRANCH  24  25
ENDBRANCH  23  24
ENDBRANCH  22  23
ENDBRANCH  21  22
ENDBRANCH  20  21
ENDBRANCH  19  20
ENDBRANCH  18  19
ENDBRANCH   1  18
TORSDOF 28
ENDMDL
MODEL 7
REMARK VINA RESULT:    -3.262      3.755     10.064
REMARK INTER + INTRA:         -12.445
REMARK INTER:                  -8.467
REMARK INTRA:                  -3.979
REMARK UNBOUND:                -3.845
REMARK SMILES CCCCCCCCCCCCCCCCCCCCCCCCCCCCCC(=O)[O-]
REMARK SMILES IDX 16 1 17 2 18 3 19 4 20 5 21 6 22 7 23 8 24 9 25 10 26 11
REMARK SMILES IDX 27 12 28 13 29 14 30 15 31 16 32 17 15 18 14 19 13 20 12 21
REMARK SMILES IDX 11 22 10 23 9 24 8 25 7 26 6 27 5 28 4 29 3 30 2 31 1 32
REMARK H PARENT
REMARK Flexibility Score: inf
ROOT
ATOM      1  C   UNL     1       5.560   0.665  -5.221  1.00  0.00     0.000 C 
ENDROOT
BRANCH   1   2
ATOM      2  C   UNL     1       4.210   0.541  -5.947  1.00  0.00     0.000 C 
BRANCH   2   3
ATOM      3  C   UNL     1       4.271   1.012  -7.411  1.00  0.00     0.000 C 
BRANCH   3   4
ATOM      4  C   UNL     1       4.025   2.520  -7.627  1.00  0.00     0.000 C 
BRANCH   4   5
ATOM      5  C   UNL     1       5.277   3.413  -7.514  1.00  0.00     0.000 C 
BRANCH   5   6
ATOM      6  C   UNL     1       5.922   3.795  -8.858  1.00  0.00     0.000 C 
BRANCH   6   7
ATOM      7  C   UNL     1       6.432   5.247  -8.883  1.00  0.00     0.000 C 
BRANCH   7   8
ATOM      8  C   UNL     1       5.678   6.149  -7.892  1.00  0.00     0.000 C 
BRANCH   8   9
ATOM      9  C   UNL     1       5.954   7.644  -8.132  1.00  0.00     0.000 C 
BRANCH   9  10
ATOM     10  C   UNL     1       5.026   8.552  -7.311  1.00  0.00     0.000 C 
BRANCH  10  11
ATOM     11  C   UNL     1       4.742   7.999  -5.903  1.00  0.00     0.000 C 
BRANCH  11  12
ATOM     12  C   UNL     1       4.350   9.119  -4.913  1.00  0.00     0.000 C 
BRANCH  12  13
ATOM     13  C   UNL     1       5.493   9.540  -3.974  1.00  0.00     0.006 C 
BRANCH  13  14
ATOM     14  C   UNL     1       5.033   9.740  -2.526  1.00  0.00     0.053 C 
BRANCH  14  15
ATOM     15  C   UNL     1       5.595   8.670  -1.643  1.00  0.00     0.041 C 
ATOM     16  O   UNL     1       6.718   8.161  -1.900  1.00  0.00    -0.550 OA
ATOM     17  O   UNL     1       4.861   8.207  -0.558  1.00  0.00    -0.550 OA
ENDBRANCH  14  15
ENDBRANCH  13  14
ENDBRANCH  12  13
ENDBRANCH  11  12
ENDBRANCH  10  11
ENDBRANCH   9  10
ENDBRANCH   8   9
ENDBRANCH   7   8
ENDBRANCH   6   7
ENDBRANCH   5   6
ENDBRANCH   4   5
ENDBRANCH   3   4
ENDBRANCH   2   3
ENDBRANCH   1   2
BRANCH   1  18
ATOM     18  C   UNL     1       6.695  -0.059  -5.967  1.00  0.00     0.000 C 
BRANCH  18  19
ATOM     19  C   UNL     1       7.723   0.913  -6.570  1.00  0.00     0.000 C 
BRANCH  19  20
ATOM     20  C   UNL     1       8.092   0.553  -8.020  1.00  0.00     0.000 C 
BRANCH  20  21
ATOM     21  C   UNL     1       8.296  -0.958  -8.221  1.00  0.00     0.000 C 
BRANCH  21  22
ATOM     22  C   UNL     1       7.694  -1.469  -9.539  1.00  0.00     0.000 C 
BRANCH  22  23
ATOM     23  C   UNL     1       6.213  -1.082  -9.703  1.00  0.00     0.000 C 
BRANCH  23  24
ATOM     24  C   UNL     1       5.273  -1.986  -8.876  1.00  0.00    -0.000 C 
BRANCH  24  25
ATOM     25  C   UNL     1       4.742  -3.202  -9.653  1.00  0.00    -0.000 C 
BRANCH  25  26
ATOM     26  C   UNL     1       5.221  -4.538  -9.068  1.00  0.00    -0.000 C 
BRANCH  26  27
ATOM     27  C   UNL     1       6.631  -4.889  -9.569  1.00  0.00    -0.000 C 
BRANCH  27  28
ATOM     28  C   UNL     1       7.484  -5.580  -8.493  1.00  0.00    -0.000 C 
BRANCH  28  29
ATOM     29  C   UNL     1       7.972  -4.610  -7.405  1.00  0.00    -0.000 C 
BRANCH  29  30
ATOM     30  C   UNL     1       7.395  -4.992  -6.035  1.00  0.00    -0.000 C 
BRANCH  30  31
ATOM     31  C   UNL     1       6.835  -3.783  -5.272  1.00  0.00    -0.003 C 
ATOM     32  C   UNL     1       5.355  -3.533  -5.562  1.00  0.00     0.004 C 
ENDBRANCH  30  31
ENDBRANCH  29  30
ENDBRANCH  28  29
ENDBRANCH  27  28
ENDBRANCH  26  27
ENDBRANCH  25  26
ENDBRANCH  24  25
ENDBRANCH  23  24
ENDBRANCH  22  23
ENDBRANCH  21  22
ENDBRANCH  20  21
ENDBRANCH  19  20
ENDBRANCH  18  19
ENDBRANCH   1  18
TORSDOF 28
ENDMDL
MODEL 8
REMARK VINA RESULT:    -3.222      4.574      8.110
REMARK INTER + INTRA:         -12.342
REMARK INTER:                  -7.515
REMARK INTRA:                  -4.827
REMARK UNBOUND:                -3.845
REMARK SMILES CCCCCCCCCCCCCCCCCCCCCCCCCCCCCC(=O)[O-]
REMARK SMILES IDX 16 1 17 2 18 3 19 4 20 5 21 6 22 7 23 8 24 9 25 10 26 11
REMARK SMILES IDX 27 12 28 13 29 14 30 15 31 16 32 17 15 18 14 19 13 20 12 21
REMARK SMILES IDX 11 22 10 23 9 24 8 25 7 26 6 27 5 28 4 29 3 30 2 31 1 32
REMARK H PARENT
REMARK Flexibility Score: inf
ROOT
ATOM      1  C   UNL     1       5.742  -2.470  -6.004  1.00  0.00     0.000 C 
ENDROOT
BRANCH   1   2
ATOM      2  C   UNL     1       6.706  -3.489  -5.373  1.00  0.00     0.000 C 
BRANCH   2   3
ATOM      3  C   UNL     1       6.964  -4.709  -6.276  1.00  0.00     0.000 C 
BRANCH   3   4
ATOM      4  C   UNL     1       6.383  -4.605  -7.702  1.00  0.00     0.000 C 
BRANCH   4   5
ATOM      5  C   UNL     1       7.348  -5.003  -8.836  1.00  0.00     0.000 C 
BRANCH   5   6
ATOM      6  C   UNL     1       8.656  -4.194  -8.885  1.00  0.00     0.000 C 
BRANCH   6   7
ATOM      7  C   UNL     1       9.893  -5.074  -9.143  1.00  0.00     0.000 C 
BRANCH   7   8
ATOM      8  C   UNL     1       9.717  -6.503  -8.602  1.00  0.00     0.000 C 
BRANCH   8   9
ATOM      9  C   UNL     1      10.125  -6.625  -7.123  1.00  0.00     0.000 C 
BRANCH   9  10
ATOM     10  C   UNL     1       9.836  -8.020  -6.547  1.00  0.00     0.000 C 
BRANCH  10  11
ATOM     11  C   UNL     1       8.335  -8.276  -6.327  1.00  0.00     0.000 C 
BRANCH  11  12
ATOM     12  C   UNL     1       8.066  -9.017  -4.999  1.00  0.00     0.000 C 
BRANCH  12  13
ATOM     13  C   UNL     1       9.210  -8.888  -3.977  1.00  0.00     0.006 C 
BRANCH  13  14
ATOM     14  C   UNL     1       8.807  -9.341  -2.569  1.00  0.00     0.053 C 
BRANCH  14  15
ATOM     15  C   UNL     1       8.666  -8.161  -1.659  1.00  0.00     0.041 C 
ATOM     16  O   UNL     1       8.486  -7.009  -2.137  1.00  0.00    -0.550 OA
ATOM     17  O   UNL     1       8.772  -8.327  -0.284  1.00  0.00    -0.550 OA
ENDBRANCH  14  15
ENDBRANCH  13  14
ENDBRANCH  12  13
ENDBRANCH  11  12
ENDBRANCH  10  11
ENDBRANCH   9  10
ENDBRANCH   8   9
ENDBRANCH   7   8
ENDBRANCH   6   7
ENDBRANCH   5   6
ENDBRANCH   4   5
ENDBRANCH   3   4
ENDBRANCH   2   3
ENDBRANCH   1   2
BRANCH   1  18
ATOM     18  C   UNL     1       6.128  -1.017  -5.677  1.00  0.00     0.000 C 
BRANCH  18  19
ATOM     19  C   UNL     1       4.921  -0.162  -5.257  1.00  0.00     0.000 C 
BRANCH  19  20
ATOM     20  C   UNL     1       5.284   1.323  -5.082  1.00  0.00     0.000 C 
BRANCH  20  21
ATOM     21  C   UNL     1       5.082   2.137  -6.372  1.00  0.00     0.000 C 
BRANCH  21  22
ATOM     22  C   UNL     1       3.779   1.777  -7.104  1.00  0.00     0.000 C 
BRANCH  22  23
ATOM     23  C   UNL     1       3.975   1.622  -8.622  1.00  0.00     0.000 C 
BRANCH  23  24
ATOM     24  C   UNL     1       5.362   1.045  -8.981  1.00  0.00    -0.000 C 
BRANCH  24  25
ATOM     25  C   UNL     1       5.315  -0.403  -9.497  1.00  0.00    -0.000 C 
BRANCH  25  26
ATOM     26  C   UNL     1       6.640  -1.151  -9.294  1.00  0.00    -0.000 C 
BRANCH  26  27
ATOM     27  C   UNL     1       7.793  -0.445 -10.024  1.00  0.00    -0.000 C 
BRANCH  27  28
ATOM     28  C   UNL     1       9.160  -0.722  -9.378  1.00  0.00    -0.000 C 
BRANCH  28  29
ATOM     29  C   UNL     1       9.126  -0.618  -7.845  1.00  0.00    -0.000 C 
BRANCH  29  30
ATOM     30  C   UNL     1       9.668   0.741  -7.377  1.00  0.00    -0.000 C 
BRANCH  30  31
ATOM     31  C   UNL     1       8.561   1.671  -6.858  1.00  0.00    -0.003 C 
ATOM     32  C   UNL     1       8.472   2.980  -7.642  1.00  0.00     0.004 C 
ENDBRANCH  30  31
ENDBRANCH  29  30
ENDBRANCH  28  29
ENDBRANCH  27  28
ENDBRANCH  26  27
ENDBRANCH  25  26
ENDBRANCH  24  25
ENDBRANCH  23  24
ENDBRANCH  22  23
ENDBRANCH  21  22
ENDBRANCH  20  21
ENDBRANCH  19  20
ENDBRANCH  18  19
ENDBRANCH   1  18
TORSDOF 28
ENDMDL
MODEL 9
REMARK VINA RESULT:    -3.173      1.912      4.125
REMARK INTER + INTRA:         -12.210
REMARK INTER:                  -8.167
REMARK INTRA:                  -4.044
REMARK UNBOUND:                -3.845
REMARK SMILES CCCCCCCCCCCCCCCCCCCCCCCCCCCCCC(=O)[O-]
REMARK SMILES IDX 16 1 17 2 18 3 19 4 20 5 21 6 22 7 23 8 24 9 25 10 26 11
REMARK SMILES IDX 27 12 28 13 29 14 30 15 31 16 32 17 15 18 14 19 13 20 12 21
REMARK SMILES IDX 11 22 10 23 9 24 8 25 7 26 6 27 5 28 4 29 3 30 2 31 1 32
REMARK H PARENT
REMARK Flexibility Score: inf
ROOT
ATOM      1  C   UNL     1       4.856  -0.157  -5.243  1.00  0.00     0.000 C 
ENDROOT
BRANCH   1   2
ATOM      2  C   UNL     1       5.730  -1.039  -6.150  1.00  0.00     0.000 C 
BRANCH   2   3
ATOM      3  C   UNL     1       7.136  -0.455  -6.381  1.00  0.00     0.000 C 
BRANCH   3   4
ATOM      4  C   UNL     1       7.403   0.069  -7.807  1.00  0.00     0.000 C 
BRANCH   4   5
ATOM      5  C   UNL     1       7.010  -0.894  -8.946  1.00  0.00     0.000 C 
BRANCH   5   6
ATOM      6  C   UNL     1       5.913  -0.368  -9.888  1.00  0.00     0.000 C 
BRANCH   6   7
ATOM      7  C   UNL     1       4.516  -0.911  -9.539  1.00  0.00     0.000 C 
BRANCH   7   8
ATOM      8  C   UNL     1       4.275  -2.318 -10.110  1.00  0.00     0.000 C 
BRANCH   8   9
ATOM      9  C   UNL     1       4.400  -3.416  -9.039  1.00  0.00     0.000 C 
BRANCH   9  10
ATOM     10  C   UNL     1       5.203  -4.629  -9.532  1.00  0.00     0.000 C 
BRANCH  10  11
ATOM     11  C   UNL     1       6.680  -4.296  -9.808  1.00  0.00     0.000 C 
BRANCH  11  12
ATOM     12  C   UNL     1       7.628  -5.037  -8.840  1.00  0.00     0.000 C 
BRANCH  12  13
ATOM     13  C   UNL     1       7.885  -4.278  -7.527  1.00  0.00     0.006 C 
BRANCH  13  14
ATOM     14  C   UNL     1       7.932  -5.200  -6.303  1.00  0.00     0.053 C 
BRANCH  14  15
ATOM     15  C   UNL     1       6.854  -4.837  -5.330  1.00  0.00     0.041 C 
ATOM     16  O   UNL     1       7.037  -4.993  -4.093  1.00  0.00    -0.550 OA
ATOM     17  O   UNL     1       5.633  -4.362  -5.791  1.00  0.00    -0.550 OA
ENDBRANCH  14  15
ENDBRANCH  13  14
ENDBRANCH  12  13
ENDBRANCH  11  12
ENDBRANCH  10  11
ENDBRANCH   9  10
ENDBRANCH   8   9
ENDBRANCH   7   8
ENDBRANCH   6   7
ENDBRANCH   5   6
ENDBRANCH   4   5
ENDBRANCH   3   4
ENDBRANCH   2   3
ENDBRANCH   1   2
BRANCH   1  18
ATOM     18  C   UNL     1       4.935   1.332  -5.621  1.00  0.00     0.000 C 
BRANCH  18  19
ATOM     19  C   UNL     1       3.724   1.800  -6.445  1.00  0.00     0.000 C 
BRANCH  19  20
ATOM     20  C   UNL     1       4.122   2.304  -7.843  1.00  0.00     0.000 C 
BRANCH  20  21
ATOM     21  C   UNL     1       5.469   3.046  -7.842  1.00  0.00     0.000 C 
BRANCH  21  22
ATOM     22  C   UNL     1       5.918   3.463  -9.251  1.00  0.00     0.000 C 
BRANCH  22  23
ATOM     23  C   UNL     1       6.947   4.608  -9.231  1.00  0.00     0.000 C 
BRANCH  23  24
ATOM     24  C   UNL     1       6.548   5.741  -8.260  1.00  0.00    -0.000 C 
BRANCH  24  25
ATOM     25  C   UNL     1       5.411   6.634  -8.785  1.00  0.00    -0.000 C 
BRANCH  25  26
ATOM     26  C   UNL     1       5.538   8.093  -8.322  1.00  0.00    -0.000 C 
BRANCH  26  27
ATOM     27  C   UNL     1       6.991   8.435  -7.958  1.00  0.00    -0.000 C 
BRANCH  27  28
ATOM     28  C   UNL     1       7.101   9.698  -7.090  1.00  0.00    -0.000 C 
BRANCH  28  29
ATOM     29  C   UNL     1       6.049   9.744  -5.970  1.00  0.00    -0.000 C 
BRANCH  29  30
ATOM     30  C   UNL     1       6.702   9.522  -4.598  1.00  0.00    -0.000 C 
BRANCH  30  31
ATOM     31  C   UNL     1       5.813   8.709  -3.646  1.00  0.00    -0.003 C 
ATOM     32  C   UNL     1       4.536   8.201  -4.316  1.00  0.00     0.004 C 
ENDBRANCH  30  31
ENDBRANCH  29  30
ENDBRANCH  28  29
ENDBRANCH  27  28
ENDBRANCH  26  27
ENDBRANCH  25  26
ENDBRANCH  24  25
ENDBRANCH  23  24
ENDBRANCH  22  23
ENDBRANCH  21  22
ENDBRANCH  20  21
ENDBRANCH  19  20
ENDBRANCH  18  19
ENDBRANCH   1  18
TORSDOF 28
ENDMDL
