MODEL 1
REMARK VINA RESULT:    -5.314      0.000      0.000
REMARK INTER + INTRA:          -6.484
REMARK INTER:                  -6.401
REMARK INTRA:                  -0.083
REMARK UNBOUND:                -0.083
REMARK SMILES O=c1c(O)c(-c2ccc(O)c(O)c2)oc2cc(O)cc(O)c12
REMARK SMILES IDX 5 1 3 2 2 3 1 4 22 5 20 6 19 7 17 8 16 9 15 10 14 11 6 12
REMARK SMILES IDX 7 13 8 14 9 15 13 16 11 17 10 18 12 20 4 22 21 24 18 26
REMARK H PARENT 10 19 12 21 4 23 21 25 18 27
REMARK Flexibility Score: inf
ROOT
ATOM      1  C   UNL     1      21.173  -0.210 -25.603  1.00  0.00     0.180 A 
ATOM      2  C   UNL     1      22.413   0.348 -25.971  1.00  0.00     0.208 A 
ATOM      3  C   UNL     1      23.518   0.165 -25.124  1.00  0.00     0.238 A 
ATOM      4  O   UNL     1      24.630   0.670 -25.437  1.00  0.00    -0.285 OA
ATOM      5  C   UNL     1      23.371  -0.587 -23.940  1.00  0.00     0.111 A 
ATOM      6  C   UNL     1      24.435  -0.822 -23.035  1.00  0.00     0.134 A 
ATOM      7  C   UNL     1      24.210  -1.589 -21.883  1.00  0.00     0.093 A 
ATOM      8  C   UNL     1      22.948  -2.125 -21.617  1.00  0.00     0.123 A 
ATOM      9  C   UNL     1      21.894  -1.896 -22.507  1.00  0.00     0.094 A 
ATOM     10  C   UNL     1      22.096  -1.133 -23.661  1.00  0.00     0.146 A 
ATOM     11  O   UNL     1      21.076  -0.926 -24.486  1.00  0.00    -0.452 OA
ENDROOT
BRANCH   1  12
ATOM     12  C   UNL     1      19.958  -0.044 -26.433  1.00  0.00     0.025 A 
ATOM     13  C   UNL     1      19.284  -1.152 -26.974  1.00  0.00     0.016 A 
ATOM     14  C   UNL     1      18.154  -0.969 -27.775  1.00  0.00     0.051 A 
ATOM     15  C   UNL     1      17.687   0.318 -28.058  1.00  0.00     0.157 A 
ATOM     16  C   UNL     1      19.500   1.249 -26.735  1.00  0.00     0.062 A 
ATOM     17  C   UNL     1      18.365   1.434 -27.538  1.00  0.00     0.158 A 
BRANCH  15  18
ATOM     18  O   UNL     1      16.556   0.470 -28.858  1.00  0.00    -0.504 OA
ATOM     19  H   UNL     1      15.621   0.502 -28.469  1.00  0.00     0.293 HD
ENDBRANCH  15  18
BRANCH  17  20
ATOM     20  O   UNL     1      17.910   2.722 -27.822  1.00  0.00    -0.504 OA
ATOM     21  H   UNL     1      18.031   3.484 -27.166  1.00  0.00     0.293 HD
ENDBRANCH  17  20
ENDBRANCH   1  12
BRANCH   2  22
ATOM     22  O   UNL     1      22.544   1.047 -27.174  1.00  0.00    -0.502 OA
ATOM     23  H   UNL     1      21.930   0.888 -27.963  1.00  0.00     0.293 HD
ENDBRANCH   2  22
BRANCH   6  24
ATOM     24  O   UNL     1      25.708  -0.301 -23.273  1.00  0.00    -0.507 OA
ATOM     25  H   UNL     1      26.042  -0.119 -24.213  1.00  0.00     0.293 HD
ENDBRANCH   6  24
BRANCH   8  26
ATOM     26  O   UNL     1      22.753  -2.883 -20.466  1.00  0.00    -0.508 OA
ATOM     27  H   UNL     1      22.463  -2.457 -19.593  1.00  0.00     0.293 HD
ENDBRANCH   8  26
TORSDOF 6
ENDMDL
MODEL 2
REMARK VINA RESULT:    -5.208      8.663     10.008
REMARK INTER + INTRA:          -6.357
REMARK INTER:                  -6.060
REMARK INTRA:                  -0.297
REMARK UNBOUND:                -0.083
REMARK SMILES O=c1c(O)c(-c2ccc(O)c(O)c2)oc2cc(O)cc(O)c12
REMARK SMILES IDX 5 1 3 2 2 3 1 4 22 5 20 6 19 7 17 8 16 9 15 10 14 11 6 12
REMARK SMILES IDX 7 13 8 14 9 15 13 16 11 17 10 18 12 20 4 22 21 24 18 26
REMARK H PARENT 10 19 12 21 4 23 21 25 18 27
REMARK Flexibility Score: inf
ROOT
ATOM      1  C   UNL     1      24.730  -5.222 -31.804  1.00  0.00     0.180 A 
ATOM      2  C   UNL     1      25.732  -6.139 -31.430  1.00  0.00     0.208 A 
ATOM      3  C   UNL     1      25.353  -7.413 -30.982  1.00  0.00     0.238 A 
ATOM      4  O   UNL     1      26.240  -8.238 -30.633  1.00  0.00    -0.285 OA
ATOM      5  C   UNL     1      23.986  -7.758 -30.935  1.00  0.00     0.111 A 
ATOM      6  C   UNL     1      23.520  -9.022 -30.500  1.00  0.00     0.134 A 
ATOM      7  C   UNL     1      22.143  -9.290 -30.492  1.00  0.00     0.093 A 
ATOM      8  C   UNL     1      21.225  -8.323 -30.908  1.00  0.00     0.123 A 
ATOM      9  C   UNL     1      21.680  -7.072 -31.339  1.00  0.00     0.094 A 
ATOM     10  C   UNL     1      23.048  -6.784 -31.354  1.00  0.00     0.146 A 
ATOM     11  O   UNL     1      23.453  -5.587 -31.761  1.00  0.00    -0.452 OA
ENDROOT
BRANCH   1  12
ATOM     12  C   UNL     1      25.050  -3.853 -32.269  1.00  0.00     0.025 A 
ATOM     13  C   UNL     1      25.107  -3.539 -33.637  1.00  0.00     0.016 A 
ATOM     14  C   UNL     1      25.435  -2.246 -34.052  1.00  0.00     0.051 A 
ATOM     15  C   UNL     1      25.723  -1.252 -33.111  1.00  0.00     0.157 A 
ATOM     16  C   UNL     1      25.361  -2.859 -31.326  1.00  0.00     0.062 A 
ATOM     17  C   UNL     1      25.689  -1.560 -31.740  1.00  0.00     0.158 A 
BRANCH  15  18
ATOM     18  O   UNL     1      26.046   0.030 -33.554  1.00  0.00    -0.504 OA
ATOM     19  H   UNL     1      27.005   0.334 -33.672  1.00  0.00     0.293 HD
ENDBRANCH  15  18
BRANCH  17  20
ATOM     20  O   UNL     1      25.983  -0.577 -30.796  1.00  0.00    -0.504 OA
ATOM     21  H   UNL     1      26.356  -0.811 -29.884  1.00  0.00     0.293 HD
ENDBRANCH  17  20
ENDBRANCH   1  12
BRANCH   2  22
ATOM     22  O   UNL     1      27.082  -5.791 -31.532  1.00  0.00    -0.502 OA
ATOM     23  H   UNL     1      27.491  -5.450 -32.394  1.00  0.00     0.293 HD
ENDBRANCH   2  22
BRANCH   6  24
ATOM     24  O   UNL     1      24.411 -10.009 -30.078  1.00  0.00    -0.507 OA
ATOM     25  H   UNL     1      24.102 -10.952 -29.868  1.00  0.00     0.293 HD
ENDBRANCH   6  24
BRANCH   8  26
ATOM     26  O   UNL     1      19.864  -8.616 -30.891  1.00  0.00    -0.508 OA
ATOM     27  H   UNL     1      19.166  -7.884 -30.820  1.00  0.00     0.293 HD
ENDBRANCH   8  26
TORSDOF 6
ENDMDL
MODEL 3
REMARK VINA RESULT:    -5.090      0.902      1.535
REMARK INTER + INTRA:          -6.215
REMARK INTER:                  -5.911
REMARK INTRA:                  -0.304
REMARK UNBOUND:                -0.083
REMARK SMILES O=c1c(O)c(-c2ccc(O)c(O)c2)oc2cc(O)cc(O)c12
REMARK SMILES IDX 5 1 3 2 2 3 1 4 22 5 20 6 19 7 17 8 16 9 15 10 14 11 6 12
REMARK SMILES IDX 7 13 8 14 9 15 13 16 11 17 10 18 12 20 4 22 21 24 18 26
REMARK H PARENT 10 19 12 21 4 23 21 25 18 27
REMARK Flexibility Score: inf
ROOT
ATOM      1  C   UNL     1      21.671  -0.165 -25.185  1.00  0.00     0.180 A 
ATOM      2  C   UNL     1      22.945   0.324 -25.532  1.00  0.00     0.208 A 
ATOM      3  C   UNL     1      24.039   0.014 -24.709  1.00  0.00     0.238 A 
ATOM      4  O   UNL     1      25.182   0.456 -25.002  1.00  0.00    -0.285 OA
ATOM      5  C   UNL     1      23.846  -0.794 -23.568  1.00  0.00     0.111 A 
ATOM      6  C   UNL     1      24.895  -1.156 -22.690  1.00  0.00     0.134 A 
ATOM      7  C   UNL     1      24.623  -1.972 -21.581  1.00  0.00     0.093 A 
ATOM      8  C   UNL     1      23.327  -2.431 -21.334  1.00  0.00     0.123 A 
ATOM      9  C   UNL     1      22.287  -2.077 -22.199  1.00  0.00     0.094 A 
ATOM     10  C   UNL     1      22.536  -1.263 -23.309  1.00  0.00     0.146 A 
ATOM     11  O   UNL     1      21.530  -0.936 -24.111  1.00  0.00    -0.452 OA
ENDROOT
BRANCH   1  12
ATOM     12  C   UNL     1      20.466   0.135 -25.992  1.00  0.00     0.025 A 
ATOM     13  C   UNL     1      19.804   1.369 -25.887  1.00  0.00     0.016 A 
ATOM     14  C   UNL     1      18.654   1.621 -26.641  1.00  0.00     0.051 A 
ATOM     15  C   UNL     1      18.143   0.642 -27.499  1.00  0.00     0.157 A 
ATOM     16  C   UNL     1      19.939  -0.854 -26.839  1.00  0.00     0.062 A 
ATOM     17  C   UNL     1      18.786  -0.603 -27.597  1.00  0.00     0.158 A 
BRANCH  15  18
ATOM     18  O   UNL     1      16.995   0.922 -28.241  1.00  0.00    -0.504 OA
ATOM     19  H   UNL     1      16.228   1.463 -27.861  1.00  0.00     0.293 HD
ENDBRANCH  15  18
BRANCH  17  20
ATOM     20  O   UNL     1      18.278  -1.587 -28.446  1.00  0.00    -0.504 OA
ATOM     21  H   UNL     1      17.846  -2.429 -28.084  1.00  0.00     0.293 HD
ENDBRANCH  17  20
ENDBRANCH   1  12
BRANCH   2  22
ATOM     22  O   UNL     1      23.119   1.081 -26.694  1.00  0.00    -0.502 OA
ATOM     23  H   UNL     1      22.353   1.300 -27.319  1.00  0.00     0.293 HD
ENDBRANCH   2  22
BRANCH   6  24
ATOM     24  O   UNL     1      26.200  -0.714 -22.909  1.00  0.00    -0.507 OA
ATOM     25  H   UNL     1      27.003  -1.292 -22.685  1.00  0.00     0.293 HD
ENDBRANCH   6  24
BRANCH   8  26
ATOM     26  O   UNL     1      23.085  -3.240 -20.227  1.00  0.00    -0.508 OA
ATOM     27  H   UNL     1      23.409  -4.201 -20.192  1.00  0.00     0.293 HD
ENDBRANCH   8  26
TORSDOF 6
ENDMDL
MODEL 4
REMARK VINA RESULT:    -5.004      8.723     11.620
REMARK INTER + INTRA:          -6.111
REMARK INTER:                  -6.080
REMARK INTRA:                  -0.031
REMARK UNBOUND:                -0.083
REMARK SMILES O=c1c(O)c(-c2ccc(O)c(O)c2)oc2cc(O)cc(O)c12
REMARK SMILES IDX 5 1 3 2 2 3 1 4 22 5 20 6 19 7 17 8 16 9 15 10 14 11 6 12
REMARK SMILES IDX 7 13 8 14 9 15 13 16 11 17 10 18 12 20 4 22 21 24 18 26
REMARK H PARENT 10 19 12 21 4 23 21 25 18 27
REMARK Flexibility Score: inf
ROOT
ATOM      1  C   UNL     1      23.159  -4.198 -33.292  1.00  0.00     0.180 A 
ATOM      2  C   UNL     1      23.174  -2.819 -33.007  1.00  0.00     0.208 A 
ATOM      3  C   UNL     1      22.396  -1.955 -33.793  1.00  0.00     0.238 A 
ATOM      4  O   UNL     1      22.411  -0.717 -33.556  1.00  0.00    -0.285 OA
ATOM      5  C   UNL     1      21.604  -2.482 -34.835  1.00  0.00     0.111 A 
ATOM      6  C   UNL     1      20.789  -1.681 -35.670  1.00  0.00     0.134 A 
ATOM      7  C   UNL     1      20.023  -2.284 -36.678  1.00  0.00     0.093 A 
ATOM      8  C   UNL     1      20.053  -3.668 -36.867  1.00  0.00     0.123 A 
ATOM      9  C   UNL     1      20.856  -4.465 -36.044  1.00  0.00     0.094 A 
ATOM     10  C   UNL     1      21.630  -3.883 -35.035  1.00  0.00     0.146 A 
ATOM     11  O   UNL     1      22.388  -4.662 -34.271  1.00  0.00    -0.452 OA
ENDROOT
BRANCH   1  12
ATOM     12  C   UNL     1      23.966  -5.170 -32.520  1.00  0.00     0.025 A 
ATOM     13  C   UNL     1      23.372  -6.269 -31.877  1.00  0.00     0.016 A 
ATOM     14  C   UNL     1      24.151  -7.159 -31.134  1.00  0.00     0.051 A 
ATOM     15  C   UNL     1      25.530  -6.960 -31.010  1.00  0.00     0.157 A 
ATOM     16  C   UNL     1      25.348  -4.960 -32.377  1.00  0.00     0.062 A 
ATOM     17  C   UNL     1      26.132  -5.854 -31.632  1.00  0.00     0.158 A 
BRANCH  15  18
ATOM     18  O   UNL     1      26.282  -7.866 -30.263  1.00  0.00    -0.504 OA
ATOM     19  H   UNL     1      26.436  -8.819 -30.570  1.00  0.00     0.293 HD
ENDBRANCH  15  18
BRANCH  17  20
ATOM     20  O   UNL     1      27.505  -5.644 -31.508  1.00  0.00    -0.504 OA
ATOM     21  H   UNL     1      27.897  -5.146 -30.718  1.00  0.00     0.293 HD
ENDBRANCH  17  20
ENDBRANCH   1  12
BRANCH   2  22
ATOM     22  O   UNL     1      23.929  -2.327 -31.939  1.00  0.00    -0.502 OA
ATOM     23  H   UNL     1      23.596  -1.585 -31.335  1.00  0.00     0.293 HD
ENDBRANCH   2  22
BRANCH   6  24
ATOM     24  O   UNL     1      20.736  -0.297 -35.506  1.00  0.00    -0.507 OA
ATOM     25  H   UNL     1      20.545   0.325 -36.284  1.00  0.00     0.293 HD
ENDBRANCH   6  24
BRANCH   8  26
ATOM     26  O   UNL     1      19.282  -4.240 -37.874  1.00  0.00    -0.508 OA
ATOM     27  H   UNL     1      18.370  -3.869 -38.120  1.00  0.00     0.293 HD
ENDBRANCH   8  26
TORSDOF 6
ENDMDL
MODEL 5
REMARK VINA RESULT:    -4.975      1.279      3.094
REMARK INTER + INTRA:          -6.076
REMARK INTER:                  -6.002
REMARK INTRA:                  -0.074
REMARK UNBOUND:                -0.083
REMARK SMILES O=c1c(O)c(-c2ccc(O)c(O)c2)oc2cc(O)cc(O)c12
REMARK SMILES IDX 5 1 3 2 2 3 1 4 22 5 20 6 19 7 17 8 16 9 15 10 14 11 6 12
REMARK SMILES IDX 7 13 8 14 9 15 13 16 11 17 10 18 12 20 4 22 21 24 18 26
REMARK H PARENT 10 19 12 21 4 23 21 25 18 27
REMARK Flexibility Score: inf
ROOT
ATOM      1  C   UNL     1      21.302  -0.151 -25.739  1.00  0.00     0.180 A 
ATOM      2  C   UNL     1      21.384  -0.971 -24.597  1.00  0.00     0.208 A 
ATOM      3  C   UNL     1      22.611  -1.073 -23.922  1.00  0.00     0.238 A 
ATOM      4  O   UNL     1      22.700  -1.814 -22.905  1.00  0.00    -0.285 OA
ATOM      5  C   UNL     1      23.724  -0.341 -24.384  1.00  0.00     0.111 A 
ATOM      6  C   UNL     1      24.994  -0.385 -23.759  1.00  0.00     0.134 A 
ATOM      7  C   UNL     1      26.049   0.381 -24.276  1.00  0.00     0.093 A 
ATOM      8  C   UNL     1      25.862   1.188 -25.400  1.00  0.00     0.123 A 
ATOM      9  C   UNL     1      24.610   1.235 -26.022  1.00  0.00     0.094 A 
ATOM     10  C   UNL     1      23.545   0.478 -25.524  1.00  0.00     0.146 A 
ATOM     11  O   UNL     1      22.368   0.536 -26.137  1.00  0.00    -0.452 OA
ENDROOT
BRANCH   1  12
ATOM     12  C   UNL     1      20.049  -0.007 -26.515  1.00  0.00     0.025 A 
ATOM     13  C   UNL     1      19.365  -1.128 -27.015  1.00  0.00     0.016 A 
ATOM     14  C   UNL     1      18.198  -0.966 -27.766  1.00  0.00     0.051 A 
ATOM     15  C   UNL     1      17.703   0.313 -28.040  1.00  0.00     0.157 A 
ATOM     16  C   UNL     1      19.562   1.278 -26.809  1.00  0.00     0.062 A 
ATOM     17  C   UNL     1      18.390   1.442 -27.562  1.00  0.00     0.158 A 
BRANCH  15  18
ATOM     18  O   UNL     1      16.535   0.443 -28.790  1.00  0.00    -0.504 OA
ATOM     19  H   UNL     1      16.529   0.343 -29.798  1.00  0.00     0.293 HD
ENDBRANCH  15  18
BRANCH  17  20
ATOM     20  O   UNL     1      17.908   2.721 -27.836  1.00  0.00    -0.504 OA
ATOM     21  H   UNL     1      17.033   2.865 -28.326  1.00  0.00     0.293 HD
ENDBRANCH  17  20
ENDBRANCH   1  12
BRANCH   2  22
ATOM     22  O   UNL     1      20.254  -1.648 -24.130  1.00  0.00    -0.502 OA
ATOM     23  H   UNL     1      19.513  -1.181 -23.623  1.00  0.00     0.293 HD
ENDBRANCH   2  22
BRANCH   6  24
ATOM     24  O   UNL     1      25.213  -1.180 -22.634  1.00  0.00    -0.507 OA
ATOM     25  H   UNL     1      25.950  -0.972 -21.970  1.00  0.00     0.293 HD
ENDBRANCH   6  24
BRANCH   8  26
ATOM     26  O   UNL     1      26.927   1.939 -25.891  1.00  0.00    -0.508 OA
ATOM     27  H   UNL     1      26.982   2.204 -26.869  1.00  0.00     0.293 HD
ENDBRANCH   8  26
TORSDOF 6
ENDMDL
MODEL 6
REMARK VINA RESULT:    -4.912      1.406      3.266
REMARK INTER + INTRA:          -6.000
REMARK INTER:                  -5.814
REMARK INTRA:                  -0.185
REMARK UNBOUND:                -0.083
REMARK SMILES O=c1c(O)c(-c2ccc(O)c(O)c2)oc2cc(O)cc(O)c12
REMARK SMILES IDX 5 1 3 2 2 3 1 4 22 5 20 6 19 7 17 8 16 9 15 10 14 11 6 12
REMARK SMILES IDX 7 13 8 14 9 15 13 16 11 17 10 18 12 20 4 22 21 24 18 26
REMARK H PARENT 10 19 12 21 4 23 21 25 18 27
REMARK Flexibility Score: inf
ROOT
ATOM      1  C   UNL     1      21.375  -0.802 -24.657  1.00  0.00     0.180 A 
ATOM      2  C   UNL     1      21.077  -1.758 -23.666  1.00  0.00     0.208 A 
ATOM      3  C   UNL     1      22.114  -2.236 -22.850  1.00  0.00     0.238 A 
ATOM      4  O   UNL     1      21.861  -3.101 -21.968  1.00  0.00    -0.285 OA
ATOM      5  C   UNL     1      23.422  -1.737 -23.021  1.00  0.00     0.111 A 
ATOM      6  C   UNL     1      24.522  -2.162 -22.237  1.00  0.00     0.134 A 
ATOM      7  C   UNL     1      25.791  -1.610 -22.464  1.00  0.00     0.093 A 
ATOM      8  C   UNL     1      25.983  -0.644 -23.454  1.00  0.00     0.123 A 
ATOM      9  C   UNL     1      24.900  -0.220 -24.231  1.00  0.00     0.094 A 
ATOM     10  C   UNL     1      23.627  -0.759 -24.023  1.00  0.00     0.146 A 
ATOM     11  O   UNL     1      22.617  -0.344 -24.779  1.00  0.00    -0.452 OA
ENDROOT
BRANCH   1  12
ATOM     12  C   UNL     1      20.340  -0.265 -25.569  1.00  0.00     0.025 A 
ATOM     13  C   UNL     1      19.912   1.071 -25.485  1.00  0.00     0.016 A 
ATOM     14  C   UNL     1      18.916   1.548 -26.341  1.00  0.00     0.051 A 
ATOM     15  C   UNL     1      18.324   0.699 -27.281  1.00  0.00     0.157 A 
ATOM     16  C   UNL     1      19.729  -1.122 -26.500  1.00  0.00     0.062 A 
ATOM     17  C   UNL     1      18.729  -0.643 -27.360  1.00  0.00     0.158 A 
BRANCH  15  18
ATOM     18  O   UNL     1      17.333   1.205 -28.123  1.00  0.00    -0.504 OA
ATOM     19  H   UNL     1      16.541   1.728 -27.769  1.00  0.00     0.293 HD
ENDBRANCH  15  18
BRANCH  17  20
ATOM     20  O   UNL     1      18.139  -1.498 -28.291  1.00  0.00    -0.504 OA
ATOM     21  H   UNL     1      18.062  -1.247 -29.268  1.00  0.00     0.293 HD
ENDBRANCH  17  20
ENDBRANCH   1  12
BRANCH   2  22
ATOM     22  O   UNL     1      19.764  -2.200 -23.484  1.00  0.00    -0.502 OA
ATOM     23  H   UNL     1      19.082  -1.672 -22.952  1.00  0.00     0.293 HD
ENDBRANCH   2  22
BRANCH   6  24
ATOM     24  O   UNL     1      24.363  -3.124 -21.239  1.00  0.00    -0.507 OA
ATOM     25  H   UNL     1      23.497  -3.641 -21.130  1.00  0.00     0.293 HD
ENDBRANCH   6  24
BRANCH   8  26
ATOM     26  O   UNL     1      27.253  -0.112 -23.657  1.00  0.00    -0.508 OA
ATOM     27  H   UNL     1      27.387   0.772 -24.136  1.00  0.00     0.293 HD
ENDBRANCH   8  26
TORSDOF 6
ENDMDL
MODEL 7
REMARK VINA RESULT:    -4.882      8.827     12.240
REMARK INTER + INTRA:          -5.964
REMARK INTER:                  -5.735
REMARK INTRA:                  -0.228
REMARK UNBOUND:                -0.083
REMARK SMILES O=c1c(O)c(-c2ccc(O)c(O)c2)oc2cc(O)cc(O)c12
REMARK SMILES IDX 5 1 3 2 2 3 1 4 22 5 20 6 19 7 17 8 16 9 15 10 14 11 6 12
REMARK SMILES IDX 7 13 8 14 9 15 13 16 11 17 10 18 12 20 4 22 21 24 18 26
REMARK H PARENT 10 19 12 21 4 23 21 25 18 27
REMARK Flexibility Score: inf
ROOT
ATOM      1  C   UNL     1      22.087  -3.441 -34.599  1.00  0.00     0.180 A 
ATOM      2  C   UNL     1      21.603  -4.631 -34.022  1.00  0.00     0.208 A 
ATOM      3  C   UNL     1      20.502  -5.272 -34.611  1.00  0.00     0.238 A 
ATOM      4  O   UNL     1      20.052  -6.332 -34.097  1.00  0.00    -0.285 OA
ATOM      5  C   UNL     1      19.919  -4.728 -35.775  1.00  0.00     0.111 A 
ATOM      6  C   UNL     1      18.811  -5.315 -36.432  1.00  0.00     0.134 A 
ATOM      7  C   UNL     1      18.295  -4.717 -37.592  1.00  0.00     0.093 A 
ATOM      8  C   UNL     1      18.862  -3.549 -38.105  1.00  0.00     0.123 A 
ATOM      9  C   UNL     1      19.957  -2.965 -37.459  1.00  0.00     0.094 A 
ATOM     10  C   UNL     1      20.486  -3.544 -36.302  1.00  0.00     0.146 A 
ATOM     11  O   UNL     1      21.521  -2.966 -35.705  1.00  0.00    -0.452 OA
ENDROOT
BRANCH   1  12
ATOM     12  C   UNL     1      23.231  -2.696 -34.025  1.00  0.00     0.025 A 
ATOM     13  C   UNL     1      24.540  -3.202 -34.090  1.00  0.00     0.016 A 
ATOM     14  C   UNL     1      25.600  -2.493 -33.519  1.00  0.00     0.051 A 
ATOM     15  C   UNL     1      25.369  -1.279 -32.865  1.00  0.00     0.157 A 
ATOM     16  C   UNL     1      22.998  -1.486 -33.350  1.00  0.00     0.062 A 
ATOM     17  C   UNL     1      24.061  -0.773 -32.777  1.00  0.00     0.158 A 
BRANCH  15  18
ATOM     18  O   UNL     1      26.447  -0.593 -32.307  1.00  0.00    -0.504 OA
ATOM     19  H   UNL     1      26.348  -0.017 -31.479  1.00  0.00     0.293 HD
ENDBRANCH  15  18
BRANCH  17  20
ATOM     20  O   UNL     1      23.822   0.434 -32.121  1.00  0.00    -0.504 OA
ATOM     21  H   UNL     1      23.004   0.996 -32.325  1.00  0.00     0.293 HD
ENDBRANCH  17  20
ENDBRANCH   1  12
BRANCH   2  22
ATOM     22  O   UNL     1      22.228  -5.176 -32.898  1.00  0.00    -0.502 OA
ATOM     23  H   UNL     1      22.527  -4.608 -32.114  1.00  0.00     0.293 HD
ENDBRANCH   2  22
BRANCH   6  24
ATOM     24  O   UNL     1      18.223  -6.483 -35.945  1.00  0.00    -0.507 OA
ATOM     25  H   UNL     1      17.380  -6.867 -36.358  1.00  0.00     0.293 HD
ENDBRANCH   6  24
BRANCH   8  26
ATOM     26  O   UNL     1      18.330  -2.977 -39.258  1.00  0.00    -0.508 OA
ATOM     27  H   UNL     1      17.340  -2.775 -39.341  1.00  0.00     0.293 HD
ENDBRANCH   8  26
TORSDOF 6
ENDMDL
MODEL 8
REMARK VINA RESULT:    -4.779      1.593      6.554
REMARK INTER + INTRA:          -5.840
REMARK INTER:                  -5.547
REMARK INTRA:                  -0.293
REMARK UNBOUND:                -0.083
REMARK SMILES O=c1c(O)c(-c2ccc(O)c(O)c2)oc2cc(O)cc(O)c12
REMARK SMILES IDX 5 1 3 2 2 3 1 4 22 5 20 6 19 7 17 8 16 9 15 10 14 11 6 12
REMARK SMILES IDX 7 13 8 14 9 15 13 16 11 17 10 18 12 20 4 22 21 24 18 26
REMARK H PARENT 10 19 12 21 4 23 21 25 18 27
REMARK Flexibility Score: inf
ROOT
ATOM      1  C   UNL     1      21.774  -0.816 -24.604  1.00  0.00     0.180 A 
ATOM      2  C   UNL     1      22.789   0.074 -25.004  1.00  0.00     0.208 A 
ATOM      3  C   UNL     1      22.507   1.022 -26.000  1.00  0.00     0.238 A 
ATOM      4  O   UNL     1      23.411   1.817 -26.374  1.00  0.00    -0.285 OA
ATOM      5  C   UNL     1      21.215   1.078 -26.563  1.00  0.00     0.111 A 
ATOM      6  C   UNL     1      20.848   2.006 -27.568  1.00  0.00     0.134 A 
ATOM      7  C   UNL     1      19.538   2.004 -28.070  1.00  0.00     0.093 A 
ATOM      8  C   UNL     1      18.591   1.097 -27.590  1.00  0.00     0.123 A 
ATOM      9  C   UNL     1      18.948   0.178 -26.597  1.00  0.00     0.094 A 
ATOM     10  C   UNL     1      20.249   0.162 -26.084  1.00  0.00     0.146 A 
ATOM     11  O   UNL     1      20.563  -0.724 -25.147  1.00  0.00    -0.452 OA
ENDROOT
BRANCH   1  12
ATOM     12  C   UNL     1      22.000  -1.856 -23.574  1.00  0.00     0.025 A 
ATOM     13  C   UNL     1      21.987  -1.544 -22.204  1.00  0.00     0.016 A 
ATOM     14  C   UNL     1      22.228  -2.537 -21.252  1.00  0.00     0.051 A 
ATOM     15  C   UNL     1      22.496  -3.851 -21.650  1.00  0.00     0.157 A 
ATOM     16  C   UNL     1      22.290  -3.172 -23.973  1.00  0.00     0.062 A 
ATOM     17  C   UNL     1      22.531  -4.170 -23.018  1.00  0.00     0.158 A 
BRANCH  15  18
ATOM     18  O   UNL     1      22.730  -4.821 -20.677  1.00  0.00    -0.504 OA
ATOM     19  H   UNL     1      23.640  -5.248 -20.549  1.00  0.00     0.293 HD
ENDBRANCH  15  18
BRANCH  17  20
ATOM     20  O   UNL     1      22.805  -5.475 -23.424  1.00  0.00    -0.504 OA
ATOM     21  H   UNL     1      23.635  -5.703 -23.957  1.00  0.00     0.293 HD
ENDBRANCH  17  20
ENDBRANCH   1  12
BRANCH   2  22
ATOM     22  O   UNL     1      24.046   0.031 -24.396  1.00  0.00    -0.502 OA
ATOM     23  H   UNL     1      24.793   0.667 -24.647  1.00  0.00     0.293 HD
ENDBRANCH   2  22
BRANCH   6  24
ATOM     24  O   UNL     1      21.770   2.926 -28.068  1.00  0.00    -0.507 OA
ATOM     25  H   UNL     1      22.770   2.789 -27.963  1.00  0.00     0.293 HD
ENDBRANCH   6  24
BRANCH   8  26
ATOM     26  O   UNL     1      17.298   1.117 -28.105  1.00  0.00    -0.508 OA
ATOM     27  H   UNL     1      16.913   0.322 -28.603  1.00  0.00     0.293 HD
ENDBRANCH   8  26
TORSDOF 6
ENDMDL
MODEL 9
REMARK VINA RESULT:    -4.753     15.339     17.426
REMARK INTER + INTRA:          -5.809
REMARK INTER:                  -5.484
REMARK INTRA:                  -0.325
REMARK UNBOUND:                -0.083
REMARK SMILES O=c1c(O)c(-c2ccc(O)c(O)c2)oc2cc(O)cc(O)c12
REMARK SMILES IDX 5 1 3 2 2 3 1 4 22 5 20 6 19 7 17 8 16 9 15 10 14 11 6 12
REMARK SMILES IDX 7 13 8 14 9 15 13 16 11 17 10 18 12 20 4 22 21 24 18 26
REMARK H PARENT 10 19 12 21 4 23 21 25 18 27
REMARK Flexibility Score: inf
ROOT
ATOM      1  C   UNL     1      16.373 -10.304 -37.857  1.00  0.00     0.180 A 
ATOM      2  C   UNL     1      15.575 -11.281 -38.484  1.00  0.00     0.208 A 
ATOM      3  C   UNL     1      16.008 -12.616 -38.479  1.00  0.00     0.238 A 
ATOM      4  O   UNL     1      15.309 -13.498 -39.048  1.00  0.00    -0.285 OA
ATOM      5  C   UNL     1      17.215 -12.955 -37.833  1.00  0.00     0.111 A 
ATOM      6  C   UNL     1      17.720 -14.276 -37.779  1.00  0.00     0.134 A 
ATOM      7  C   UNL     1      18.925 -14.533 -37.107  1.00  0.00     0.093 A 
ATOM      8  C   UNL     1      19.632 -13.499 -36.491  1.00  0.00     0.123 A 
ATOM      9  C   UNL     1      19.138 -12.191 -36.541  1.00  0.00     0.094 A 
ATOM     10  C   UNL     1      17.940 -11.913 -37.207  1.00  0.00     0.146 A 
ATOM     11  O   UNL     1      17.497 -10.662 -37.245  1.00  0.00    -0.452 OA
ENDROOT
BRANCH   1  12
ATOM     12  C   UNL     1      15.993  -8.873 -37.837  1.00  0.00     0.025 A 
ATOM     13  C   UNL     1      15.200  -8.340 -36.806  1.00  0.00     0.016 A 
ATOM     14  C   UNL     1      14.834  -6.992 -36.821  1.00  0.00     0.051 A 
ATOM     15  C   UNL     1      15.241  -6.159 -37.869  1.00  0.00     0.157 A 
ATOM     16  C   UNL     1      16.383  -8.040 -38.899  1.00  0.00     0.062 A 
ATOM     17  C   UNL     1      16.016  -6.686 -38.915  1.00  0.00     0.158 A 
BRANCH  15  18
ATOM     18  O   UNL     1      14.862  -4.818 -37.856  1.00  0.00    -0.504 OA
ATOM     19  H   UNL     1      14.066  -4.488 -37.322  1.00  0.00     0.293 HD
ENDBRANCH  15  18
BRANCH  17  20
ATOM     20  O   UNL     1      16.420  -5.864 -39.967  1.00  0.00    -0.504 OA
ATOM     21  H   UNL     1      16.642  -6.241 -40.880  1.00  0.00     0.293 HD
ENDBRANCH  17  20
ENDBRANCH   1  12
BRANCH   2  22
ATOM     22  O   UNL     1      14.359 -10.927 -39.075  1.00  0.00    -0.502 OA
ATOM     23  H   UNL     1      14.255 -10.809 -40.075  1.00  0.00     0.293 HD
ENDBRANCH   2  22
BRANCH   6  24
ATOM     24  O   UNL     1      17.036 -15.331 -38.384  1.00  0.00    -0.507 OA
ATOM     25  H   UNL     1      17.487 -16.219 -38.575  1.00  0.00     0.293 HD
ENDBRANCH   6  24
BRANCH   8  26
ATOM     26  O   UNL     1      20.825 -13.782 -35.830  1.00  0.00    -0.508 OA
ATOM     27  H   UNL     1      20.862 -14.443 -35.062  1.00  0.00     0.293 HD
ENDBRANCH   8  26
TORSDOF 6
ENDMDL
