MODEL 1
REMARK VINA RESULT:    -3.491      0.000      0.000
REMARK INTER + INTRA:          -8.982
REMARK INTER:                  -7.574
REMARK INTRA:                  -1.409
REMARK UNBOUND:                -1.409
REMARK SMILES CCCCCCCCCCCCCCCCCCCCCC(=O)[O-]
REMARK SMILES IDX 12 1 11 2 10 3 9 4 8 5 7 6 6 7 5 8 4 9 3 10 2 11 1 12 13 13
REMARK SMILES IDX 14 14 15 15 16 16 17 17 18 18 19 19 20 20 21 21 22 22 23 23
REMARK SMILES IDX 24 24
REMARK H PARENT
REMARK Flexibility Score: inf
ROOT
ATOM      1  C   UNL     1       8.472  -6.239   4.245  1.00  0.00     0.000 C 
ENDROOT
BRANCH   1   2
ATOM      2  C   UNL     1       9.047  -5.117   3.363  1.00  0.00     0.000 C 
BRANCH   2   3
ATOM      3  C   UNL     1      10.568  -5.224   3.176  1.00  0.00     0.000 C 
BRANCH   3   4
ATOM      4  C   UNL     1      11.213  -5.992   4.336  1.00  0.00    -0.000 C 
BRANCH   4   5
ATOM      5  C   UNL     1      12.708  -6.232   4.072  1.00  0.00    -0.000 C 
BRANCH   5   6
ATOM      6  C   UNL     1      13.489  -4.928   3.840  1.00  0.00    -0.000 C 
BRANCH   6   7
ATOM      7  C   UNL     1      14.894  -5.174   3.261  1.00  0.00    -0.000 C 
BRANCH   7   8
ATOM      8  C   UNL     1      15.456  -6.553   3.645  1.00  0.00    -0.000 C 
BRANCH   8   9
ATOM      9  C   UNL     1      16.767  -6.457   4.446  1.00  0.00    -0.000 C 
BRANCH   9  10
ATOM     10  C   UNL     1      17.806  -7.507   4.018  1.00  0.00    -0.000 C 
BRANCH  10  11
ATOM     11  C   UNL     1      17.269  -8.947   3.935  1.00  0.00    -0.003 C 
ATOM     12  C   UNL     1      17.308  -9.676   5.277  1.00  0.00     0.004 C 
ENDBRANCH  10  11
ENDBRANCH   9  10
ENDBRANCH   8   9
ENDBRANCH   7   8
ENDBRANCH   6   7
ENDBRANCH   5   6
ENDBRANCH   4   5
ENDBRANCH   3   4
ENDBRANCH   2   3
ENDBRANCH   1   2
BRANCH   1  13
ATOM     13  C   UNL     1       6.937  -6.362   4.220  1.00  0.00     0.000 C 
BRANCH  13  14
ATOM     14  C   UNL     1       6.334  -6.599   5.614  1.00  0.00     0.000 C 
BRANCH  14  15
ATOM     15  C   UNL     1       6.344  -8.093   5.970  1.00  0.00     0.000 C 
BRANCH  15  16
ATOM     16  C   UNL     1       4.933  -8.698   6.029  1.00  0.00     0.000 C 
BRANCH  16  17
ATOM     17  C   UNL     1       4.389  -9.068   4.641  1.00  0.00     0.000 C 
BRANCH  17  18
ATOM     18  C   UNL     1       2.868  -8.862   4.570  1.00  0.00     0.000 C 
BRANCH  18  19
ATOM     19  C   UNL     1       2.472  -7.804   3.519  1.00  0.00     0.000 C 
BRANCH  19  20
ATOM     20  C   UNL     1       3.171  -6.448   3.718  1.00  0.00     0.006 C 
BRANCH  20  21
ATOM     21  C   UNL     1       2.192  -5.268   3.730  1.00  0.00     0.053 C 
BRANCH  21  22
ATOM     22  C   UNL     1       2.897  -4.006   4.115  1.00  0.00     0.041 C 
ATOM     23  O   UNL     1       2.264  -2.920   4.179  1.00  0.00    -0.550 OA
ATOM     24  O   UNL     1       4.264  -4.020   4.363  1.00  0.00    -0.550 OA
ENDBRANCH  21  22
ENDBRANCH  20  21
ENDBRANCH  19  20
ENDBRANCH  18  19
ENDBRANCH  17  18
ENDBRANCH  16  17
ENDBRANCH  15  16
ENDBRANCH  14  15
ENDBRANCH  13  14
ENDBRANCH   1  13
TORSDOF 20
ENDMDL
MODEL 2
REMARK VINA RESULT:    -3.285      4.185     10.890
REMARK INTER + INTRA:          -8.534
REMARK INTER:                  -7.013
REMARK INTRA:                  -1.521
REMARK UNBOUND:                -1.409
REMARK SMILES CCCCCCCCCCCCCCCCCCCCCC(=O)[O-]
REMARK SMILES IDX 12 1 11 2 10 3 9 4 8 5 7 6 6 7 5 8 4 9 3 10 2 11 1 12 13 13
REMARK SMILES IDX 14 14 15 15 16 16 17 17 18 18 19 19 20 20 21 21 22 22 23 23
REMARK SMILES IDX 24 24
REMARK H PARENT
REMARK Flexibility Score: inf
ROOT
ATOM      1  C   UNL     1       7.084  -5.545   3.737  1.00  0.00     0.000 C 
ENDROOT
BRANCH   1   2
ATOM      2  C   UNL     1       5.862  -5.180   2.875  1.00  0.00     0.000 C 
BRANCH   2   3
ATOM      3  C   UNL     1       5.056  -4.004   3.448  1.00  0.00     0.000 C 
BRANCH   3   4
ATOM      4  C   UNL     1       3.882  -4.505   4.299  1.00  0.00    -0.000 C 
BRANCH   4   5
ATOM      5  C   UNL     1       2.654  -4.798   3.422  1.00  0.00    -0.000 C 
BRANCH   5   6
ATOM      6  C   UNL     1       2.115  -6.226   3.609  1.00  0.00    -0.000 C 
BRANCH   6   7
ATOM      7  C   UNL     1       3.235  -7.256   3.839  1.00  0.00    -0.000 C 
BRANCH   7   8
ATOM      8  C   UNL     1       2.693  -8.624   4.288  1.00  0.00    -0.000 C 
BRANCH   8   9
ATOM      9  C   UNL     1       3.660  -9.364   5.230  1.00  0.00    -0.000 C 
BRANCH   9  10
ATOM     10  C   UNL     1       5.138  -9.087   4.906  1.00  0.00    -0.000 C 
BRANCH  10  11
ATOM     11  C   UNL     1       5.979  -8.605   6.102  1.00  0.00    -0.003 C 
ATOM     12  C   UNL     1       5.571  -7.219   6.598  1.00  0.00     0.004 C 
ENDBRANCH  10  11
ENDBRANCH   9  10
ENDBRANCH   8   9
ENDBRANCH   7   8
ENDBRANCH   6   7
ENDBRANCH   5   6
ENDBRANCH   4   5
ENDBRANCH   3   4
ENDBRANCH   2   3
ENDBRANCH   1   2
BRANCH   1  13
ATOM     13  C   UNL     1       8.418  -4.943   3.260  1.00  0.00     0.000 C 
BRANCH  13  14
ATOM     14  C   UNL     1       9.516  -6.000   3.067  1.00  0.00     0.000 C 
BRANCH  14  15
ATOM     15  C   UNL     1      10.912  -5.370   3.188  1.00  0.00     0.000 C 
BRANCH  15  16
ATOM     16  C   UNL     1      11.757  -6.010   4.301  1.00  0.00     0.000 C 
BRANCH  16  17
ATOM     17  C   UNL     1      13.147  -6.445   3.812  1.00  0.00     0.000 C 
BRANCH  17  18
ATOM     18  C   UNL     1      14.122  -5.259   3.794  1.00  0.00     0.000 C 
BRANCH  18  19
ATOM     19  C   UNL     1      15.500  -5.628   4.382  1.00  0.00     0.000 C 
BRANCH  19  20
ATOM     20  C   UNL     1      16.160  -6.834   3.692  1.00  0.00     0.006 C 
BRANCH  20  21
ATOM     21  C   UNL     1      17.046  -7.652   4.638  1.00  0.00     0.053 C 
BRANCH  21  22
ATOM     22  C   UNL     1      16.869  -9.116   4.386  1.00  0.00     0.041 C 
ATOM     23  O   UNL     1      16.022  -9.517   3.544  1.00  0.00    -0.550 OA
ATOM     24  O   UNL     1      17.610 -10.043   5.110  1.00  0.00    -0.550 OA
ENDBRANCH  21  22
ENDBRANCH  20  21
ENDBRANCH  19  20
ENDBRANCH  18  19
ENDBRANCH  17  18
ENDBRANCH  16  17
ENDBRANCH  15  16
ENDBRANCH  14  15
ENDBRANCH  13  14
ENDBRANCH   1  13
TORSDOF 20
ENDMDL
MODEL 3
REMARK VINA RESULT:    -3.160      2.146      3.360
REMARK INTER + INTRA:          -8.263
REMARK INTER:                  -6.556
REMARK INTRA:                  -1.707
REMARK UNBOUND:                -1.409
REMARK SMILES CCCCCCCCCCCCCCCCCCCCCC(=O)[O-]
REMARK SMILES IDX 12 1 11 2 10 3 9 4 8 5 7 6 6 7 5 8 4 9 3 10 2 11 1 12 13 13
REMARK SMILES IDX 14 14 15 15 16 16 17 17 18 18 19 19 20 20 21 21 22 22 23 23
REMARK SMILES IDX 24 24
REMARK H PARENT
REMARK Flexibility Score: inf
ROOT
ATOM      1  C   UNL     1      10.401  -6.294   4.485  1.00  0.00     0.000 C 
ENDROOT
BRANCH   1   2
ATOM      2  C   UNL     1      11.794  -5.739   4.138  1.00  0.00     0.000 C 
BRANCH   2   3
ATOM      3  C   UNL     1      12.418  -6.415   2.908  1.00  0.00     0.000 C 
BRANCH   3   4
ATOM      4  C   UNL     1      13.210  -7.666   3.310  1.00  0.00    -0.000 C 
BRANCH   4   5
ATOM      5  C   UNL     1      14.714  -7.464   3.070  1.00  0.00    -0.000 C 
BRANCH   5   6
ATOM      6  C   UNL     1      15.153  -5.999   3.237  1.00  0.00    -0.000 C 
BRANCH   6   7
ATOM      7  C   UNL     1      16.560  -5.869   3.846  1.00  0.00    -0.000 C 
BRANCH   7   8
ATOM      8  C   UNL     1      16.526  -5.686   5.373  1.00  0.00    -0.000 C 
BRANCH   8   9
ATOM      9  C   UNL     1      17.114  -6.891   6.128  1.00  0.00    -0.000 C 
BRANCH   9  10
ATOM     10  C   UNL     1      17.821  -7.891   5.198  1.00  0.00    -0.000 C 
BRANCH  10  11
ATOM     11  C   UNL     1      17.282  -9.332   5.274  1.00  0.00    -0.003 C 
ATOM     12  C   UNL     1      17.519 -10.125   3.990  1.00  0.00     0.004 C 
ENDBRANCH  10  11
ENDBRANCH   9  10
ENDBRANCH   8   9
ENDBRANCH   7   8
ENDBRANCH   6   7
ENDBRANCH   5   6
ENDBRANCH   4   5
ENDBRANCH   3   4
ENDBRANCH   2   3
ENDBRANCH   1   2
BRANCH   1  13
ATOM     13  C   UNL     1       9.231  -5.331   4.209  1.00  0.00     0.000 C 
BRANCH  13  14
ATOM     14  C   UNL     1       8.402  -5.736   2.980  1.00  0.00     0.000 C 
BRANCH  14  15
ATOM     15  C   UNL     1       6.962  -5.213   3.093  1.00  0.00     0.000 C 
BRANCH  15  16
ATOM     16  C   UNL     1       6.036  -6.184   3.842  1.00  0.00     0.000 C 
BRANCH  16  17
ATOM     17  C   UNL     1       4.979  -5.460   4.689  1.00  0.00     0.000 C 
BRANCH  17  18
ATOM     18  C   UNL     1       3.559  -5.802   4.211  1.00  0.00     0.000 C 
BRANCH  18  19
ATOM     19  C   UNL     1       3.483  -7.201   3.564  1.00  0.00     0.000 C 
BRANCH  19  20
ATOM     20  C   UNL     1       3.098  -8.314   4.553  1.00  0.00     0.006 C 
BRANCH  20  21
ATOM     21  C   UNL     1       4.241  -9.304   4.811  1.00  0.00     0.053 C 
BRANCH  21  22
ATOM     22  C   UNL     1       4.911  -9.001   6.115  1.00  0.00     0.041 C 
ATOM     23  O   UNL     1       6.163  -8.879   6.171  1.00  0.00    -0.550 OA
ATOM     24  O   UNL     1       4.157  -8.894   7.277  1.00  0.00    -0.550 OA
ENDBRANCH  21  22
ENDBRANCH  20  21
ENDBRANCH  19  20
ENDBRANCH  18  19
ENDBRANCH  17  18
ENDBRANCH  16  17
ENDBRANCH  15  16
ENDBRANCH  14  15
ENDBRANCH  13  14
ENDBRANCH   1  13
TORSDOF 20
ENDMDL
MODEL 4
REMARK VINA RESULT:    -3.006      4.390     10.631
REMARK INTER + INTRA:          -7.930
REMARK INTER:                  -6.021
REMARK INTRA:                  -1.909
REMARK UNBOUND:                -1.409
REMARK SMILES CCCCCCCCCCCCCCCCCCCCCC(=O)[O-]
REMARK SMILES IDX 12 1 11 2 10 3 9 4 8 5 7 6 6 7 5 8 4 9 3 10 2 11 1 12 13 13
REMARK SMILES IDX 14 14 15 15 16 16 17 17 18 18 19 19 20 20 21 21 22 22 23 23
REMARK SMILES IDX 24 24
REMARK H PARENT
REMARK Flexibility Score: inf
ROOT
ATOM      1  C   UNL     1       6.462  -6.162   5.425  1.00  0.00     0.000 C 
ENDROOT
BRANCH   1   2
ATOM      2  C   UNL     1       5.036  -5.690   5.761  1.00  0.00     0.000 C 
BRANCH   2   3
ATOM      3  C   UNL     1       4.626  -4.428   4.987  1.00  0.00     0.000 C 
BRANCH   3   4
ATOM      4  C   UNL     1       3.215  -4.573   4.405  1.00  0.00    -0.000 C 
BRANCH   4   5
ATOM      5  C   UNL     1       3.214  -5.528   3.200  1.00  0.00    -0.000 C 
BRANCH   5   6
ATOM      6  C   UNL     1       1.875  -6.264   3.024  1.00  0.00    -0.000 C 
BRANCH   6   7
ATOM      7  C   UNL     1       1.875  -7.656   3.680  1.00  0.00    -0.000 C 
BRANCH   7   8
ATOM      8  C   UNL     1       3.111  -8.488   3.296  1.00  0.00    -0.000 C 
BRANCH   8   9
ATOM      9  C   UNL     1       4.014  -8.799   4.504  1.00  0.00    -0.000 C 
BRANCH   9  10
ATOM     10  C   UNL     1       3.374  -9.792   5.488  1.00  0.00    -0.000 C 
BRANCH  10  11
ATOM     11  C   UNL     1       3.448  -9.371   6.967  1.00  0.00    -0.003 C 
ATOM     12  C   UNL     1       4.835  -8.882   7.378  1.00  0.00     0.004 C 
ENDBRANCH  10  11
ENDBRANCH   9  10
ENDBRANCH   8   9
ENDBRANCH   7   8
ENDBRANCH   6   7
ENDBRANCH   5   6
ENDBRANCH   4   5
ENDBRANCH   3   4
ENDBRANCH   2   3
ENDBRANCH   1   2
BRANCH   1  13
ATOM     13  C   UNL     1       6.675  -6.600   3.964  1.00  0.00     0.000 C 
BRANCH  13  14
ATOM     14  C   UNL     1       7.669  -5.703   3.210  1.00  0.00     0.000 C 
BRANCH  14  15
ATOM     15  C   UNL     1       9.049  -6.372   3.116  1.00  0.00     0.000 C 
BRANCH  15  16
ATOM     16  C   UNL     1      10.200  -5.402   3.424  1.00  0.00     0.000 C 
BRANCH  16  17
ATOM     17  C   UNL     1      11.240  -6.002   4.381  1.00  0.00     0.000 C 
BRANCH  17  18
ATOM     18  C   UNL     1      12.668  -5.751   3.873  1.00  0.00     0.000 C 
BRANCH  18  19
ATOM     19  C   UNL     1      13.324  -7.034   3.320  1.00  0.00     0.000 C 
BRANCH  19  20
ATOM     20  C   UNL     1      14.846  -6.914   3.136  1.00  0.00     0.006 C 
BRANCH  20  21
ATOM     21  C   UNL     1      15.347  -5.468   3.230  1.00  0.00     0.053 C 
BRANCH  21  22
ATOM     22  C   UNL     1      16.781  -5.437   3.656  1.00  0.00     0.041 C 
ATOM     23  O   UNL     1      17.232  -6.324   4.427  1.00  0.00    -0.550 OA
ATOM     24  O   UNL     1      17.611  -4.405   3.234  1.00  0.00    -0.550 OA
ENDBRANCH  21  22
ENDBRANCH  20  21
ENDBRANCH  19  20
ENDBRANCH  18  19
ENDBRANCH  17  18
ENDBRANCH  16  17
ENDBRANCH  15  16
ENDBRANCH  14  15
ENDBRANCH  13  14
ENDBRANCH   1  13
TORSDOF 20
ENDMDL
MODEL 5
REMARK VINA RESULT:    -2.607      2.737      5.008
REMARK INTER + INTRA:          -7.064
REMARK INTER:                  -5.294
REMARK INTRA:                  -1.770
REMARK UNBOUND:                -1.409
REMARK SMILES CCCCCCCCCCCCCCCCCCCCCC(=O)[O-]
REMARK SMILES IDX 12 1 11 2 10 3 9 4 8 5 7 6 6 7 5 8 4 9 3 10 2 11 1 12 13 13
REMARK SMILES IDX 14 14 15 15 16 16 17 17 18 18 19 19 20 20 21 21 22 22 23 23
REMARK SMILES IDX 24 24
REMARK H PARENT
REMARK Flexibility Score: inf
ROOT
ATOM      1  C   UNL     1      13.032  -7.445   4.702  1.00  0.00     0.000 C 
ENDROOT
BRANCH   1   2
ATOM      2  C   UNL     1      12.919  -8.524   3.610  1.00  0.00     0.000 C 
BRANCH   2   3
ATOM      3  C   UNL     1      14.245  -8.772   2.875  1.00  0.00     0.000 C 
BRANCH   3   4
ATOM      4  C   UNL     1      14.877 -10.099   3.314  1.00  0.00    -0.000 C 
BRANCH   4   5
ATOM      5  C   UNL     1      15.976  -9.863   4.363  1.00  0.00    -0.000 C 
BRANCH   5   6
ATOM      6  C   UNL     1      17.348  -9.568   3.734  1.00  0.00    -0.000 C 
BRANCH   6   7
ATOM      7  C   UNL     1      17.951  -8.241   4.225  1.00  0.00    -0.000 C 
BRANCH   7   8
ATOM      8  C   UNL     1      17.995  -7.170   3.121  1.00  0.00    -0.000 C 
BRANCH   8   9
ATOM      9  C   UNL     1      16.836  -6.162   3.226  1.00  0.00    -0.000 C 
BRANCH   9  10
ATOM     10  C   UNL     1      16.971  -5.222   4.436  1.00  0.00    -0.000 C 
BRANCH  10  11
ATOM     11  C   UNL     1      16.441  -5.799   5.762  1.00  0.00    -0.003 C 
ATOM     12  C   UNL     1      15.131  -5.155   6.210  1.00  0.00     0.004 C 
ENDBRANCH  10  11
ENDBRANCH   9  10
ENDBRANCH   8   9
ENDBRANCH   7   8
ENDBRANCH   6   7
ENDBRANCH   5   6
ENDBRANCH   4   5
ENDBRANCH   3   4
ENDBRANCH   2   3
ENDBRANCH   1   2
BRANCH   1  13
ATOM     13  C   UNL     1      11.935  -6.365   4.664  1.00  0.00     0.000 C 
BRANCH  13  14
ATOM     14  C   UNL     1      12.006  -5.486   3.406  1.00  0.00     0.000 C 
BRANCH  14  15
ATOM     15  C   UNL     1      10.599  -5.171   2.877  1.00  0.00     0.000 C 
BRANCH  15  16
ATOM     16  C   UNL     1       9.548  -6.191   3.341  1.00  0.00     0.000 C 
BRANCH  16  17
ATOM     17  C   UNL     1       8.365  -5.534   4.067  1.00  0.00     0.000 C 
BRANCH  17  18
ATOM     18  C   UNL     1       7.425  -6.594   4.662  1.00  0.00     0.000 C 
BRANCH  18  19
ATOM     19  C   UNL     1       7.015  -7.658   3.622  1.00  0.00     0.000 C 
BRANCH  19  20
ATOM     20  C   UNL     1       5.770  -8.465   4.028  1.00  0.00     0.006 C 
BRANCH  20  21
ATOM     21  C   UNL     1       5.643  -8.643   5.546  1.00  0.00     0.053 C 
BRANCH  21  22
ATOM     22  C   UNL     1       4.286  -9.165   5.900  1.00  0.00     0.041 C 
ATOM     23  O   UNL     1       3.531  -9.626   5.005  1.00  0.00    -0.550 OA
ATOM     24  O   UNL     1       3.838  -9.104   7.214  1.00  0.00    -0.550 OA
ENDBRANCH  21  22
ENDBRANCH  20  21
ENDBRANCH  19  20
ENDBRANCH  18  19
ENDBRANCH  17  18
ENDBRANCH  16  17
ENDBRANCH  15  16
ENDBRANCH  14  15
ENDBRANCH  13  14
ENDBRANCH   1  13
TORSDOF 20
ENDMDL
MODEL 6
REMARK VINA RESULT:    -2.429      3.850     10.859
REMARK INTER + INTRA:          -6.678
REMARK INTER:                  -5.586
REMARK INTRA:                  -1.092
REMARK UNBOUND:                -1.409
REMARK SMILES CCCCCCCCCCCCCCCCCCCCCC(=O)[O-]
REMARK SMILES IDX 12 1 11 2 10 3 9 4 8 5 7 6 6 7 5 8 4 9 3 10 2 11 1 12 13 13
REMARK SMILES IDX 14 14 15 15 16 16 17 17 18 18 19 19 20 20 21 21 22 22 23 23
REMARK SMILES IDX 24 24
REMARK H PARENT
REMARK Flexibility Score: inf
ROOT
ATOM      1  C   UNL     1      12.460  -6.952   4.292  1.00  0.00     0.000 C 
ENDROOT
BRANCH   1   2
ATOM      2  C   UNL     1      12.275  -5.428   4.194  1.00  0.00     0.000 C 
BRANCH   2   3
ATOM      3  C   UNL     1      11.622  -4.988   2.875  1.00  0.00     0.000 C 
BRANCH   3   4
ATOM      4  C   UNL     1      10.100  -5.171   2.926  1.00  0.00    -0.000 C 
BRANCH   4   5
ATOM      5  C   UNL     1       9.647  -5.617   4.325  1.00  0.00    -0.000 C 
BRANCH   5   6
ATOM      6  C   UNL     1       8.124  -5.801   4.428  1.00  0.00    -0.000 C 
BRANCH   6   7
ATOM      7  C   UNL     1       7.392  -5.426   3.127  1.00  0.00    -0.000 C 
BRANCH   7   8
ATOM      8  C   UNL     1       5.879  -5.244   3.334  1.00  0.00    -0.000 C 
BRANCH   8   9
ATOM      9  C   UNL     1       5.186  -6.534   3.808  1.00  0.00    -0.000 C 
BRANCH   9  10
ATOM     10  C   UNL     1       3.656  -6.399   3.879  1.00  0.00    -0.000 C 
BRANCH  10  11
ATOM     11  C   UNL     1       3.151  -4.995   4.261  1.00  0.00    -0.003 C 
ATOM     12  C   UNL     1       2.367  -4.318   3.139  1.00  0.00     0.004 C 
ENDBRANCH  10  11
ENDBRANCH   9  10
ENDBRANCH   8   9
ENDBRANCH   7   8
ENDBRANCH   6   7
ENDBRANCH   5   6
ENDBRANCH   4   5
ENDBRANCH   3   4
ENDBRANCH   2   3
ENDBRANCH   1   2
BRANCH   1  13
ATOM     13  C   UNL     1      13.252  -7.585   3.133  1.00  0.00     0.000 C 
BRANCH  13  14
ATOM     14  C   UNL     1      12.912  -9.068   2.916  1.00  0.00     0.000 C 
BRANCH  14  15
ATOM     15  C   UNL     1      13.871  -9.972   3.705  1.00  0.00     0.000 C 
BRANCH  15  16
ATOM     16  C   UNL     1      15.340  -9.769   3.306  1.00  0.00     0.000 C 
BRANCH  16  17
ATOM     17  C   UNL     1      16.163  -9.081   4.405  1.00  0.00     0.000 C 
BRANCH  17  18
ATOM     18  C   UNL     1      17.609  -8.844   3.945  1.00  0.00     0.000 C 
BRANCH  18  19
ATOM     19  C   UNL     1      17.758  -7.536   3.139  1.00  0.00     0.000 C 
BRANCH  19  20
ATOM     20  C   UNL     1      16.572  -6.572   3.311  1.00  0.00     0.006 C 
BRANCH  20  21
ATOM     21  C   UNL     1      16.917  -5.348   4.168  1.00  0.00     0.053 C 
BRANCH  21  22
ATOM     22  C   UNL     1      16.330  -5.486   5.538  1.00  0.00     0.041 C 
ATOM     23  O   UNL     1      15.090  -5.363   5.712  1.00  0.00    -0.550 OA
ATOM     24  O   UNL     1      17.159  -5.712   6.631  1.00  0.00    -0.550 OA
ENDBRANCH  21  22
ENDBRANCH  20  21
ENDBRANCH  19  20
ENDBRANCH  18  19
ENDBRANCH  17  18
ENDBRANCH  16  17
ENDBRANCH  15  16
ENDBRANCH  14  15
ENDBRANCH  13  14
ENDBRANCH   1  13
TORSDOF 20
ENDMDL
MODEL 7
REMARK VINA RESULT:    -1.945      4.723     10.936
REMARK INTER + INTRA:          -5.627
REMARK INTER:                  -5.423
REMARK INTRA:                  -0.204
REMARK UNBOUND:                -1.409
REMARK SMILES CCCCCCCCCCCCCCCCCCCCCC(=O)[O-]
REMARK SMILES IDX 12 1 11 2 10 3 9 4 8 5 7 6 6 7 5 8 4 9 3 10 2 11 1 12 13 13
REMARK SMILES IDX 14 14 15 15 16 16 17 17 18 18 19 19 20 20 21 21 22 22 23 23
REMARK SMILES IDX 24 24
REMARK H PARENT
REMARK Flexibility Score: inf
ROOT
ATOM      1  C   UNL     1      12.569  -6.606   5.133  1.00  0.00     0.000 C 
ENDROOT
BRANCH   1   2
ATOM      2  C   UNL     1      12.034  -5.816   3.925  1.00  0.00     0.000 C 
BRANCH   2   3
ATOM      3  C   UNL     1      10.658  -6.307   3.451  1.00  0.00     0.000 C 
BRANCH   3   4
ATOM      4  C   UNL     1       9.541  -5.387   3.960  1.00  0.00    -0.000 C 
BRANCH   4   5
ATOM      5  C   UNL     1       8.259  -5.571   3.133  1.00  0.00    -0.000 C 
BRANCH   5   6
ATOM      6  C   UNL     1       7.872  -7.048   2.953  1.00  0.00    -0.000 C 
BRANCH   6   7
ATOM      7  C   UNL     1       6.369  -7.298   3.171  1.00  0.00    -0.000 C 
BRANCH   7   8
ATOM      8  C   UNL     1       5.794  -6.456   4.323  1.00  0.00    -0.000 C 
BRANCH   8   9
ATOM      9  C   UNL     1       6.401  -6.827   5.688  1.00  0.00    -0.000 C 
BRANCH   9  10
ATOM     10  C   UNL     1       6.296  -8.329   6.000  1.00  0.00    -0.000 C 
BRANCH  10  11
ATOM     11  C   UNL     1       4.937  -8.774   6.569  1.00  0.00    -0.003 C 
ATOM     12  C   UNL     1       3.847  -8.872   5.503  1.00  0.00     0.004 C 
ENDBRANCH  10  11
ENDBRANCH   9  10
ENDBRANCH   8   9
ENDBRANCH   7   8
ENDBRANCH   6   7
ENDBRANCH   5   6
ENDBRANCH   4   5
ENDBRANCH   3   4
ENDBRANCH   2   3
ENDBRANCH   1   2
BRANCH   1  13
ATOM     13  C   UNL     1      13.552  -5.833   6.031  1.00  0.00     0.000 C 
BRANCH  13  14
ATOM     14  C   UNL     1      14.479  -4.899   5.237  1.00  0.00     0.000 C 
BRANCH  14  15
ATOM     15  C   UNL     1      15.854  -5.547   5.016  1.00  0.00     0.000 C 
BRANCH  15  16
ATOM     16  C   UNL     1      16.150  -5.820   3.534  1.00  0.00     0.000 C 
BRANCH  16  17
ATOM     17  C   UNL     1      15.092  -6.719   2.875  1.00  0.00     0.000 C 
BRANCH  17  18
ATOM     18  C   UNL     1      15.190  -8.160   3.398  1.00  0.00     0.000 C 
BRANCH  18  19
ATOM     19  C   UNL     1      16.651  -8.642   3.507  1.00  0.00     0.000 C 
BRANCH  19  20
ATOM     20  C   UNL     1      16.786 -10.075   4.052  1.00  0.00     0.006 C 
BRANCH  20  21
ATOM     21  C   UNL     1      17.422 -10.125   5.446  1.00  0.00     0.053 C 
BRANCH  21  22
ATOM     22  C   UNL     1      17.774  -8.747   5.911  1.00  0.00     0.041 C 
ATOM     23  O   UNL     1      17.485  -8.379   7.080  1.00  0.00    -0.550 OA
ATOM     24  O   UNL     1      18.385  -7.853   5.041  1.00  0.00    -0.550 OA
ENDBRANCH  21  22
ENDBRANCH  20  21
ENDBRANCH  19  20
ENDBRANCH  18  19
ENDBRANCH  17  18
ENDBRANCH  16  17
ENDBRANCH  15  16
ENDBRANCH  14  15
ENDBRANCH  13  14
ENDBRANCH   1  13
TORSDOF 20
ENDMDL
MODEL 8
REMARK VINA RESULT:    -1.452      2.446      4.167
REMARK INTER + INTRA:          -4.558
REMARK INTER:                  -4.943
REMARK INTRA:                   0.385
REMARK UNBOUND:                -1.409
REMARK SMILES CCCCCCCCCCCCCCCCCCCCCC(=O)[O-]
REMARK SMILES IDX 12 1 11 2 10 3 9 4 8 5 7 6 6 7 5 8 4 9 3 10 2 11 1 12 13 13
REMARK SMILES IDX 14 14 15 15 16 16 17 17 18 18 19 19 20 20 21 21 22 22 23 23
REMARK SMILES IDX 24 24
REMARK H PARENT
REMARK Flexibility Score: inf
ROOT
ATOM      1  C   UNL     1      11.265  -6.399   5.077  1.00  0.00     0.000 C 
ENDROOT
BRANCH   1   2
ATOM      2  C   UNL     1      12.713  -6.109   4.643  1.00  0.00     0.000 C 
BRANCH   2   3
ATOM      3  C   UNL     1      13.064  -6.727   3.281  1.00  0.00     0.000 C 
BRANCH   3   4
ATOM      4  C   UNL     1      12.758  -8.230   3.263  1.00  0.00    -0.000 C 
BRANCH   4   5
ATOM      5  C   UNL     1      14.006  -9.039   2.876  1.00  0.00    -0.000 C 
BRANCH   5   6
ATOM      6  C   UNL     1      15.296  -8.481   3.499  1.00  0.00    -0.000 C 
BRANCH   6   7
ATOM      7  C   UNL     1      16.501  -9.419   3.308  1.00  0.00    -0.000 C 
BRANCH   7   8
ATOM      8  C   UNL     1      17.821  -8.652   3.126  1.00  0.00    -0.000 C 
BRANCH   8   9
ATOM      9  C   UNL     1      18.039  -7.582   4.211  1.00  0.00    -0.000 C 
BRANCH   9  10
ATOM     10  C   UNL     1      16.817  -6.669   4.403  1.00  0.00    -0.000 C 
BRANCH  10  11
ATOM     11  C   UNL     1      17.116  -5.333   5.108  1.00  0.00    -0.003 C 
ATOM     12  C   UNL     1      16.527  -5.257   6.515  1.00  0.00     0.004 C 
ENDBRANCH  10  11
ENDBRANCH   9  10
ENDBRANCH   8   9
ENDBRANCH   7   8
ENDBRANCH   6   7
ENDBRANCH   5   6
ENDBRANCH   4   5
ENDBRANCH   3   4
ENDBRANCH   2   3
ENDBRANCH   1   2
BRANCH   1  13
ATOM     13  C   UNL     1      10.194  -5.544   4.375  1.00  0.00     0.000 C 
BRANCH  13  14
ATOM     14  C   UNL     1       9.518  -6.275   3.205  1.00  0.00     0.000 C 
BRANCH  14  15
ATOM     15  C   UNL     1       8.157  -5.643   2.875  1.00  0.00     0.000 C 
BRANCH  15  16
ATOM     16  C   UNL     1       7.324  -5.342   4.131  1.00  0.00     0.000 C 
BRANCH  16  17
ATOM     17  C   UNL     1       5.896  -4.884   3.798  1.00  0.00     0.000 C 
BRANCH  17  18
ATOM     18  C   UNL     1       5.005  -6.080   3.430  1.00  0.00     0.000 C 
BRANCH  18  19
ATOM     19  C   UNL     1       5.629  -7.425   3.858  1.00  0.00     0.000 C 
BRANCH  19  20
ATOM     20  C   UNL     1       5.785  -7.572   5.381  1.00  0.00     0.006 C 
BRANCH  20  21
ATOM     21  C   UNL     1       5.581  -9.013   5.865  1.00  0.00     0.053 C 
BRANCH  21  22
ATOM     22  C   UNL     1       4.357  -9.109   6.721  1.00  0.00     0.041 C 
ATOM     23  O   UNL     1       4.460  -9.113   7.976  1.00  0.00    -0.550 OA
ATOM     24  O   UNL     1       3.104  -9.235   6.134  1.00  0.00    -0.550 OA
ENDBRANCH  21  22
ENDBRANCH  20  21
ENDBRANCH  19  20
ENDBRANCH  18  19
ENDBRANCH  17  18
ENDBRANCH  16  17
ENDBRANCH  15  16
ENDBRANCH  14  15
ENDBRANCH  13  14
ENDBRANCH   1  13
TORSDOF 20
ENDMDL
