MODEL 1
REMARK VINA RESULT:    -2.084      0.000      0.000
REMARK INTER + INTRA:          -7.430
REMARK INTER:                  -5.496
REMARK INTRA:                  -1.935
REMARK UNBOUND:                -1.935
REMARK SMILES CCCCCCCCCCCCCCCCCCCCCCCCCCCCCC(=O)[O-]
REMARK SMILES IDX 16 1 17 2 18 3 19 4 20 5 21 6 22 7 23 8 24 9 25 10 26 11
REMARK SMILES IDX 27 12 28 13 29 14 30 15 31 16 32 17 15 18 14 19 13 20 12 21
REMARK SMILES IDX 11 22 10 23 9 24 8 25 7 26 6 27 5 28 4 29 3 30 2 31 1 32
REMARK H PARENT
REMARK Flexibility Score: inf
ROOT
ATOM      1  C   UNL     1      25.576  63.976  15.388  1.00  0.00     0.000 C 
ENDROOT
BRANCH   1   2
ATOM      2  C   UNL     1      24.635  65.196  15.364  1.00  0.00     0.000 C 
BRANCH   2   3
ATOM      3  C   UNL     1      23.162  64.854  15.677  1.00  0.00     0.000 C 
BRANCH   3   4
ATOM      4  C   UNL     1      22.431  66.003  16.392  1.00  0.00     0.000 C 
BRANCH   4   5
ATOM      5  C   UNL     1      20.904  65.819  16.394  1.00  0.00     0.000 C 
BRANCH   5   6
ATOM      6  C   UNL     1      20.379  65.274  15.055  1.00  0.00     0.000 C 
BRANCH   6   7
ATOM      7  C   UNL     1      18.978  65.800  14.704  1.00  0.00     0.000 C 
BRANCH   7   8
ATOM      8  C   UNL     1      18.049  65.882  15.928  1.00  0.00     0.000 C 
BRANCH   8   9
ATOM      9  C   UNL     1      16.564  65.760  15.549  1.00  0.00     0.000 C 
BRANCH   9  10
ATOM     10  C   UNL     1      15.646  65.741  16.780  1.00  0.00     0.000 C 
BRANCH  10  11
ATOM     11  C   UNL     1      14.581  64.644  16.656  1.00  0.00     0.000 C 
BRANCH  11  12
ATOM     12  C   UNL     1      13.193  65.251  16.417  1.00  0.00     0.000 C 
BRANCH  12  13
ATOM     13  C   UNL     1      12.875  65.328  14.917  1.00  0.00     0.006 C 
BRANCH  13  14
ATOM     14  C   UNL     1      13.541  64.196  14.123  1.00  0.00     0.053 C 
BRANCH  14  15
ATOM     15  C   UNL     1      14.058  64.676  12.801  1.00  0.00     0.041 C 
ATOM     16  O   UNL     1      14.729  65.739  12.732  1.00  0.00    -0.550 OA
ATOM     17  O   UNL     1      13.829  63.931  11.652  1.00  0.00    -0.550 OA
ENDBRANCH  14  15
ENDBRANCH  13  14
ENDBRANCH  12  13
ENDBRANCH  11  12
ENDBRANCH  10  11
ENDBRANCH   9  10
ENDBRANCH   8   9
ENDBRANCH   7   8
ENDBRANCH   6   7
ENDBRANCH   5   6
ENDBRANCH   4   5
ENDBRANCH   3   4
ENDBRANCH   2   3
ENDBRANCH   1   2
BRANCH   1  18
ATOM     18  C   UNL     1      26.975  64.241  15.977  1.00  0.00     0.000 C 
BRANCH  18  19
ATOM     19  C   UNL     1      27.156  65.626  16.624  1.00  0.00     0.000 C 
BRANCH  19  20
ATOM     20  C   UNL     1      28.377  65.699  17.552  1.00  0.00     0.000 C 
BRANCH  20  21
ATOM     21  C   UNL     1      29.644  66.067  16.767  1.00  0.00     0.000 C 
BRANCH  21  22
ATOM     22  C   UNL     1      30.905  66.125  17.650  1.00  0.00     0.000 C 
BRANCH  22  23
ATOM     23  C   UNL     1      31.379  64.767  18.200  1.00  0.00     0.000 C 
BRANCH  23  24
ATOM     24  C   UNL     1      31.003  64.556  19.677  1.00  0.00    -0.000 C 
BRANCH  24  25
ATOM     25  C   UNL     1      30.877  65.880  20.449  1.00  0.00    -0.000 C 
BRANCH  25  26
ATOM     26  C   UNL     1      30.635  65.668  21.954  1.00  0.00    -0.000 C 
BRANCH  26  27
ATOM     27  C   UNL     1      31.943  65.651  22.764  1.00  0.00    -0.000 C 
BRANCH  27  28
ATOM     28  C   UNL     1      31.976  64.526  23.814  1.00  0.00    -0.000 C 
BRANCH  28  29
ATOM     29  C   UNL     1      33.095  63.505  23.553  1.00  0.00    -0.000 C 
BRANCH  29  30
ATOM     30  C   UNL     1      33.124  63.024  22.092  1.00  0.00    -0.000 C 
BRANCH  30  31
ATOM     31  C   UNL     1      32.809  61.525  21.961  1.00  0.00    -0.003 C 
ATOM     32  C   UNL     1      32.711  61.063  20.508  1.00  0.00     0.004 C 
ENDBRANCH  30  31
ENDBRANCH  29  30
ENDBRANCH  28  29
ENDBRANCH  27  28
ENDBRANCH  26  27
ENDBRANCH  25  26
ENDBRANCH  24  25
ENDBRANCH  23  24
ENDBRANCH  22  23
ENDBRANCH  21  22
ENDBRANCH  20  21
ENDBRANCH  19  20
ENDBRANCH  18  19
ENDBRANCH   1  18
TORSDOF 28
ENDMDL
MODEL 2
REMARK VINA RESULT:    -1.923      5.337     16.180
REMARK INTER + INTRA:          -7.004
REMARK INTER:                  -5.547
REMARK INTRA:                  -1.458
REMARK UNBOUND:                -1.935
REMARK SMILES CCCCCCCCCCCCCCCCCCCCCCCCCCCCCC(=O)[O-]
REMARK SMILES IDX 16 1 17 2 18 3 19 4 20 5 21 6 22 7 23 8 24 9 25 10 26 11
REMARK SMILES IDX 27 12 28 13 29 14 30 15 31 16 32 17 15 18 14 19 13 20 12 21
REMARK SMILES IDX 11 22 10 23 9 24 8 25 7 26 6 27 5 28 4 29 3 30 2 31 1 32
REMARK H PARENT
REMARK Flexibility Score: inf
ROOT
ATOM      1  C   UNL     1      21.862  65.274  16.628  1.00  0.00     0.000 C 
ENDROOT
BRANCH   1   2
ATOM      2  C   UNL     1      23.254  64.735  16.246  1.00  0.00     0.000 C 
BRANCH   2   3
ATOM      3  C   UNL     1      24.398  65.748  16.465  1.00  0.00     0.000 C 
BRANCH   3   4
ATOM      4  C   UNL     1      25.713  65.303  15.802  1.00  0.00     0.000 C 
BRANCH   4   5
ATOM      5  C   UNL     1      26.953  65.742  16.598  1.00  0.00     0.000 C 
BRANCH   5   6
ATOM      6  C   UNL     1      28.100  64.722  16.503  1.00  0.00     0.000 C 
BRANCH   6   7
ATOM      7  C   UNL     1      29.453  65.375  16.175  1.00  0.00     0.000 C 
BRANCH   7   8
ATOM      8  C   UNL     1      30.104  66.044  17.400  1.00  0.00     0.000 C 
BRANCH   8   9
ATOM      9  C   UNL     1      30.363  65.050  18.544  1.00  0.00     0.000 C 
BRANCH   9  10
ATOM     10  C   UNL     1      31.500  64.070  18.221  1.00  0.00     0.000 C 
BRANCH  10  11
ATOM     11  C   UNL     1      32.732  64.349  19.091  1.00  0.00     0.000 C 
BRANCH  11  12
ATOM     12  C   UNL     1      32.828  65.837  19.445  1.00  0.00     0.000 C 
BRANCH  12  13
ATOM     13  C   UNL     1      32.744  66.051  20.964  1.00  0.00     0.006 C 
BRANCH  13  14
ATOM     14  C   UNL     1      32.795  64.728  21.740  1.00  0.00     0.053 C 
BRANCH  14  15
ATOM     15  C   UNL     1      32.133  64.846  23.079  1.00  0.00     0.041 C 
ATOM     16  O   UNL     1      32.222  63.908  23.914  1.00  0.00    -0.550 OA
ATOM     17  O   UNL     1      31.450  66.007  23.418  1.00  0.00    -0.550 OA
ENDBRANCH  14  15
ENDBRANCH  13  14
ENDBRANCH  12  13
ENDBRANCH  11  12
ENDBRANCH  10  11
ENDBRANCH   9  10
ENDBRANCH   8   9
ENDBRANCH   7   8
ENDBRANCH   6   7
ENDBRANCH   5   6
ENDBRANCH   4   5
ENDBRANCH   3   4
ENDBRANCH   2   3
ENDBRANCH   1   2
BRANCH   1  18
ATOM     18  C   UNL     1      21.039  65.844  15.458  1.00  0.00     0.000 C 
BRANCH  18  19
ATOM     19  C   UNL     1      19.572  65.376  15.406  1.00  0.00     0.000 C 
BRANCH  19  20
ATOM     20  C   UNL     1      19.050  64.887  16.764  1.00  0.00     0.000 C 
BRANCH  20  21
ATOM     21  C   UNL     1      17.584  65.294  16.969  1.00  0.00     0.000 C 
BRANCH  21  22
ATOM     22  C   UNL     1      16.747  64.204  17.664  1.00  0.00     0.000 C 
BRANCH  22  23
ATOM     23  C   UNL     1      15.222  64.392  17.569  1.00  0.00     0.000 C 
BRANCH  23  24
ATOM     24  C   UNL     1      14.822  65.643  16.768  1.00  0.00    -0.000 C 
BRANCH  24  25
ATOM     25  C   UNL     1      13.379  65.568  16.239  1.00  0.00    -0.000 C 
BRANCH  25  26
ATOM     26  C   UNL     1      13.261  66.029  14.774  1.00  0.00    -0.000 C 
BRANCH  26  27
ATOM     27  C   UNL     1      14.551  65.781  13.974  1.00  0.00    -0.000 C 
BRANCH  27  28
ATOM     28  C   UNL     1      14.318  64.902  12.731  1.00  0.00    -0.000 C 
BRANCH  28  29
ATOM     29  C   UNL     1      13.921  65.720  11.493  1.00  0.00    -0.000 C 
BRANCH  29  30
ATOM     30  C   UNL     1      13.219  64.867  10.423  1.00  0.00    -0.000 C 
BRANCH  30  31
ATOM     31  C   UNL     1      13.734  65.160   9.005  1.00  0.00    -0.003 C 
ATOM     32  C   UNL     1      15.240  65.416   8.961  1.00  0.00     0.004 C 
ENDBRANCH  30  31
ENDBRANCH  29  30
ENDBRANCH  28  29
ENDBRANCH  27  28
ENDBRANCH  26  27
ENDBRANCH  25  26
ENDBRANCH  24  25
ENDBRANCH  23  24
ENDBRANCH  22  23
ENDBRANCH  21  22
ENDBRANCH  20  21
ENDBRANCH  19  20
ENDBRANCH  18  19
ENDBRANCH   1  18
TORSDOF 28
ENDMDL
MODEL 3
REMARK VINA RESULT:    -0.743      5.586     16.082
REMARK INTER + INTRA:          -3.894
REMARK INTER:                  -2.083
REMARK INTRA:                  -1.811
REMARK UNBOUND:                -1.935
REMARK SMILES CCCCCCCCCCCCCCCCCCCCCCCCCCCCCC(=O)[O-]
REMARK SMILES IDX 16 1 17 2 18 3 19 4 20 5 21 6 22 7 23 8 24 9 25 10 26 11
REMARK SMILES IDX 27 12 28 13 29 14 30 15 31 16 32 17 15 18 14 19 13 20 12 21
REMARK SMILES IDX 11 22 10 23 9 24 8 25 7 26 6 27 5 28 4 29 3 30 2 31 1 32
REMARK H PARENT
REMARK Flexibility Score: inf
ROOT
ATOM      1  C   UNL     1      21.293  64.474  17.790  1.00  0.00     0.000 C 
ENDROOT
BRANCH   1   2
ATOM      2  C   UNL     1      22.537  64.281  16.902  1.00  0.00     0.000 C 
BRANCH   2   3
ATOM      3  C   UNL     1      23.362  65.570  16.695  1.00  0.00     0.000 C 
BRANCH   3   4
ATOM      4  C   UNL     1      24.528  65.370  15.712  1.00  0.00     0.000 C 
BRANCH   4   5
ATOM      5  C   UNL     1      25.797  66.124  16.141  1.00  0.00     0.000 C 
BRANCH   5   6
ATOM      6  C   UNL     1      26.604  65.356  17.202  1.00  0.00     0.000 C 
BRANCH   6   7
ATOM      7  C   UNL     1      27.809  64.609  16.609  1.00  0.00     0.000 C 
BRANCH   7   8
ATOM      8  C   UNL     1      29.038  65.517  16.419  1.00  0.00     0.000 C 
BRANCH   8   9
ATOM      9  C   UNL     1      29.864  65.666  17.708  1.00  0.00     0.000 C 
BRANCH   9  10
ATOM     10  C   UNL     1      31.241  64.993  17.600  1.00  0.00     0.000 C 
BRANCH  10  11
ATOM     11  C   UNL     1      32.150  65.408  18.763  1.00  0.00     0.000 C 
BRANCH  11  12
ATOM     12  C   UNL     1      31.339  65.611  20.048  1.00  0.00     0.000 C 
BRANCH  12  13
ATOM     13  C   UNL     1      32.245  65.560  21.287  1.00  0.00     0.006 C 
BRANCH  13  14
ATOM     14  C   UNL     1      31.441  65.504  22.593  1.00  0.00     0.053 C 
BRANCH  14  15
ATOM     15  C   UNL     1      32.178  64.763  23.666  1.00  0.00     0.041 C 
ATOM     16  O   UNL     1      32.538  63.571  23.480  1.00  0.00    -0.550 OA
ATOM     17  O   UNL     1      32.498  65.401  24.858  1.00  0.00    -0.550 OA
ENDBRANCH  14  15
ENDBRANCH  13  14
ENDBRANCH  12  13
ENDBRANCH  11  12
ENDBRANCH  10  11
ENDBRANCH   9  10
ENDBRANCH   8   9
ENDBRANCH   7   8
ENDBRANCH   6   7
ENDBRANCH   5   6
ENDBRANCH   4   5
ENDBRANCH   3   4
ENDBRANCH   2   3
ENDBRANCH   1   2
BRANCH   1  18
ATOM     18  C   UNL     1      19.944  64.225  17.089  1.00  0.00     0.000 C 
BRANCH  18  19
ATOM     19  C   UNL     1      19.789  64.906  15.716  1.00  0.00     0.000 C 
BRANCH  19  20
ATOM     20  C   UNL     1      18.856  66.125  15.753  1.00  0.00     0.000 C 
BRANCH  20  21
ATOM     21  C   UNL     1      17.817  66.057  14.624  1.00  0.00     0.000 C 
BRANCH  21  22
ATOM     22  C   UNL     1      16.417  65.649  15.117  1.00  0.00     0.000 C 
BRANCH  22  23
ATOM     23  C   UNL     1      16.143  65.928  16.607  1.00  0.00     0.000 C 
BRANCH  23  24
ATOM     24  C   UNL     1      14.766  65.421  17.068  1.00  0.00    -0.000 C 
BRANCH  24  25
ATOM     25  C   UNL     1      14.302  64.180  16.285  1.00  0.00    -0.000 C 
BRANCH  25  26
ATOM     26  C   UNL     1      12.980  64.415  15.532  1.00  0.00    -0.000 C 
BRANCH  26  27
ATOM     27  C   UNL     1      12.949  65.770  14.805  1.00  0.00    -0.000 C 
BRANCH  27  28
ATOM     28  C   UNL     1      13.159  65.633  13.286  1.00  0.00    -0.000 C 
BRANCH  28  29
ATOM     29  C   UNL     1      12.939  64.197  12.785  1.00  0.00    -0.000 C 
BRANCH  29  30
ATOM     30  C   UNL     1      13.444  63.991  11.347  1.00  0.00    -0.000 C 
BRANCH  30  31
ATOM     31  C   UNL     1      13.401  65.285  10.518  1.00  0.00    -0.003 C 
ATOM     32  C   UNL     1      13.699  65.053   9.038  1.00  0.00     0.004 C 
ENDBRANCH  30  31
ENDBRANCH  29  30
ENDBRANCH  28  29
ENDBRANCH  27  28
ENDBRANCH  26  27
ENDBRANCH  25  26
ENDBRANCH  24  25
ENDBRANCH  23  24
ENDBRANCH  22  23
ENDBRANCH  21  22
ENDBRANCH  20  21
ENDBRANCH  19  20
ENDBRANCH  18  19
ENDBRANCH   1  18
TORSDOF 28
ENDMDL
MODEL 4
REMARK VINA RESULT:    -0.279      1.275      2.098
REMARK INTER + INTRA:          -2.669
REMARK INTER:                  -1.517
REMARK INTRA:                  -1.152
REMARK UNBOUND:                -1.935
REMARK SMILES CCCCCCCCCCCCCCCCCCCCCCCCCCCCCC(=O)[O-]
REMARK SMILES IDX 16 1 17 2 18 3 19 4 20 5 21 6 22 7 23 8 24 9 25 10 26 11
REMARK SMILES IDX 27 12 28 13 29 14 30 15 31 16 32 17 15 18 14 19 13 20 12 21
REMARK SMILES IDX 11 22 10 23 9 24 8 25 7 26 6 27 5 28 4 29 3 30 2 31 1 32
REMARK H PARENT
REMARK Flexibility Score: inf
ROOT
ATOM      1  C   UNL     1      26.837  65.348  15.796  1.00  0.00     0.000 C 
ENDROOT
BRANCH   1   2
ATOM      2  C   UNL     1      25.415  64.760  15.869  1.00  0.00     0.000 C 
BRANCH   2   3
ATOM      3  C   UNL     1      24.376  65.714  16.498  1.00  0.00     0.000 C 
BRANCH   3   4
ATOM      4  C   UNL     1      23.129  65.889  15.615  1.00  0.00     0.000 C 
BRANCH   4   5
ATOM      5  C   UNL     1      21.859  65.321  16.271  1.00  0.00     0.000 C 
BRANCH   5   6
ATOM      6  C   UNL     1      20.582  66.020  15.774  1.00  0.00     0.000 C 
BRANCH   6   7
ATOM      7  C   UNL     1      19.299  65.269  16.166  1.00  0.00     0.000 C 
BRANCH   7   8
ATOM      8  C   UNL     1      18.031  66.125  15.993  1.00  0.00     0.000 C 
BRANCH   8   9
ATOM      9  C   UNL     1      16.871  65.643  16.880  1.00  0.00     0.000 C 
BRANCH   9  10
ATOM     10  C   UNL     1      15.877  64.759  16.112  1.00  0.00     0.000 C 
BRANCH  10  11
ATOM     11  C   UNL     1      14.433  65.223  16.346  1.00  0.00     0.000 C 
BRANCH  11  12
ATOM     12  C   UNL     1      13.953  66.120  15.200  1.00  0.00     0.000 C 
BRANCH  12  13
ATOM     13  C   UNL     1      12.886  65.411  14.353  1.00  0.00     0.006 C 
BRANCH  13  14
ATOM     14  C   UNL     1      13.136  65.574  12.848  1.00  0.00     0.053 C 
BRANCH  14  15
ATOM     15  C   UNL     1      14.487  65.062  12.452  1.00  0.00     0.041 C 
ATOM     16  O   UNL     1      14.753  63.835  12.548  1.00  0.00    -0.550 OA
ATOM     17  O   UNL     1      15.441  65.935  11.944  1.00  0.00    -0.550 OA
ENDBRANCH  14  15
ENDBRANCH  13  14
ENDBRANCH  12  13
ENDBRANCH  11  12
ENDBRANCH  10  11
ENDBRANCH   9  10
ENDBRANCH   8   9
ENDBRANCH   7   8
ENDBRANCH   6   7
ENDBRANCH   5   6
ENDBRANCH   4   5
ENDBRANCH   3   4
ENDBRANCH   2   3
ENDBRANCH   1   2
BRANCH   1  18
ATOM     18  C   UNL     1      27.853  64.726  16.773  1.00  0.00     0.000 C 
BRANCH  18  19
ATOM     19  C   UNL     1      29.329  65.046  16.468  1.00  0.00     0.000 C 
BRANCH  19  20
ATOM     20  C   UNL     1      30.073  63.875  15.809  1.00  0.00     0.000 C 
BRANCH  20  21
ATOM     21  C   UNL     1      31.590  64.008  16.005  1.00  0.00     0.000 C 
BRANCH  21  22
ATOM     22  C   UNL     1      32.025  65.434  16.392  1.00  0.00     0.000 C 
BRANCH  22  23
ATOM     23  C   UNL     1      32.756  65.549  17.742  1.00  0.00     0.000 C 
BRANCH  23  24
ATOM     24  C   UNL     1      31.815  65.913  18.903  1.00  0.00    -0.000 C 
BRANCH  24  25
ATOM     25  C   UNL     1      31.211  64.674  19.584  1.00  0.00    -0.000 C 
BRANCH  25  26
ATOM     26  C   UNL     1      31.809  64.413  20.979  1.00  0.00    -0.000 C 
BRANCH  26  27
ATOM     27  C   UNL     1      33.084  63.556  20.921  1.00  0.00    -0.000 C 
BRANCH  27  28
ATOM     28  C   UNL     1      33.116  62.620  19.698  1.00  0.00    -0.000 C 
BRANCH  28  29
ATOM     29  C   UNL     1      32.815  61.158  20.064  1.00  0.00    -0.000 C 
BRANCH  29  30
ATOM     30  C   UNL     1      32.120  61.024  21.429  1.00  0.00    -0.000 C 
BRANCH  30  31
ATOM     31  C   UNL     1      33.119  61.001  22.597  1.00  0.00    -0.003 C 
ATOM     32  C   UNL     1      32.784  62.020  23.685  1.00  0.00     0.004 C 
ENDBRANCH  30  31
ENDBRANCH  29  30
ENDBRANCH  28  29
ENDBRANCH  27  28
ENDBRANCH  26  27
ENDBRANCH  25  26
ENDBRANCH  24  25
ENDBRANCH  23  24
ENDBRANCH  22  23
ENDBRANCH  21  22
ENDBRANCH  20  21
ENDBRANCH  19  20
ENDBRANCH  18  19
ENDBRANCH   1  18
TORSDOF 28
ENDMDL
MODEL 5
REMARK VINA RESULT:    -0.071      4.903     15.615
REMARK INTER + INTRA:          -2.123
REMARK INTER:                  -0.213
REMARK INTRA:                  -1.910
REMARK UNBOUND:                -1.935
REMARK SMILES CCCCCCCCCCCCCCCCCCCCCCCCCCCCCC(=O)[O-]
REMARK SMILES IDX 16 1 17 2 18 3 19 4 20 5 21 6 22 7 23 8 24 9 25 10 26 11
REMARK SMILES IDX 27 12 28 13 29 14 30 15 31 16 32 17 15 18 14 19 13 20 12 21
REMARK SMILES IDX 11 22 10 23 9 24 8 25 7 26 6 27 5 28 4 29 3 30 2 31 1 32
REMARK H PARENT
REMARK Flexibility Score: inf
ROOT
ATOM      1  C   UNL     1      21.407  64.144  17.984  1.00  0.00     0.000 C 
ENDROOT
BRANCH   1   2
ATOM      2  C   UNL     1      22.725  64.278  17.198  1.00  0.00     0.000 C 
BRANCH   2   3
ATOM      3  C   UNL     1      22.945  65.677  16.582  1.00  0.00     0.000 C 
BRANCH   3   4
ATOM      4  C   UNL     1      24.194  65.735  15.686  1.00  0.00     0.000 C 
BRANCH   4   5
ATOM      5  C   UNL     1      25.461  66.124  16.465  1.00  0.00     0.000 C 
BRANCH   5   6
ATOM      6  C   UNL     1      26.521  65.009  16.450  1.00  0.00     0.000 C 
BRANCH   6   7
ATOM      7  C   UNL     1      27.958  65.553  16.408  1.00  0.00     0.000 C 
BRANCH   7   8
ATOM      8  C   UNL     1      28.428  66.103  17.767  1.00  0.00     0.000 C 
BRANCH   8   9
ATOM      9  C   UNL     1      28.803  64.986  18.755  1.00  0.00     0.000 C 
BRANCH   9  10
ATOM     10  C   UNL     1      29.915  65.413  19.724  1.00  0.00     0.000 C 
BRANCH  10  11
ATOM     11  C   UNL     1      31.097  66.032  18.968  1.00  0.00     0.000 C 
BRANCH  11  12
ATOM     12  C   UNL     1      32.412  65.340  19.343  1.00  0.00     0.000 C 
BRANCH  12  13
ATOM     13  C   UNL     1      32.655  64.102  18.466  1.00  0.00     0.006 C 
BRANCH  13  14
ATOM     14  C   UNL     1      32.397  64.383  16.980  1.00  0.00     0.053 C 
BRANCH  14  15
ATOM     15  C   UNL     1      32.290  63.117  16.187  1.00  0.00     0.041 C 
ATOM     16  O   UNL     1      32.631  62.018  16.699  1.00  0.00    -0.550 OA
ATOM     17  O   UNL     1      31.780  63.146  14.895  1.00  0.00    -0.550 OA
ENDBRANCH  14  15
ENDBRANCH  13  14
ENDBRANCH  12  13
ENDBRANCH  11  12
ENDBRANCH  10  11
ENDBRANCH   9  10
ENDBRANCH   8   9
ENDBRANCH   7   8
ENDBRANCH   6   7
ENDBRANCH   5   6
ENDBRANCH   4   5
ENDBRANCH   3   4
ENDBRANCH   2   3
ENDBRANCH   1   2
BRANCH   1  18
ATOM     18  C   UNL     1      20.170  63.801  17.133  1.00  0.00     0.000 C 
BRANCH  18  19
ATOM     19  C   UNL     1      19.891  64.772  15.970  1.00  0.00     0.000 C 
BRANCH  19  20
ATOM     20  C   UNL     1      18.781  65.784  16.288  1.00  0.00     0.000 C 
BRANCH  20  21
ATOM     21  C   UNL     1      17.939  66.087  15.040  1.00  0.00     0.000 C 
BRANCH  21  22
ATOM     22  C   UNL     1      16.445  65.766  15.228  1.00  0.00     0.000 C 
BRANCH  22  23
ATOM     23  C   UNL     1      15.916  65.939  16.664  1.00  0.00     0.000 C 
BRANCH  23  24
ATOM     24  C   UNL     1      14.413  65.634  16.788  1.00  0.00    -0.000 C 
BRANCH  24  25
ATOM     25  C   UNL     1      14.021  64.311  16.108  1.00  0.00    -0.000 C 
BRANCH  25  26
ATOM     26  C   UNL     1      12.903  64.490  15.066  1.00  0.00    -0.000 C 
BRANCH  26  27
ATOM     27  C   UNL     1      12.883  65.904  14.460  1.00  0.00    -0.000 C 
BRANCH  27  28
ATOM     28  C   UNL     1      13.025  65.895  12.927  1.00  0.00    -0.000 C 
BRANCH  28  29
ATOM     29  C   UNL     1      14.184  65.008  12.446  1.00  0.00    -0.000 C 
BRANCH  29  30
ATOM     30  C   UNL     1      13.997  64.530  10.996  1.00  0.00    -0.000 C 
BRANCH  30  31
ATOM     31  C   UNL     1      14.051  65.685   9.984  1.00  0.00    -0.003 C 
ATOM     32  C   UNL     1      13.313  65.372   8.683  1.00  0.00     0.004 C 
ENDBRANCH  30  31
ENDBRANCH  29  30
ENDBRANCH  28  29
ENDBRANCH  27  28
ENDBRANCH  26  27
ENDBRANCH  25  26
ENDBRANCH  24  25
ENDBRANCH  23  24
ENDBRANCH  22  23
ENDBRANCH  21  22
ENDBRANCH  20  21
ENDBRANCH  19  20
ENDBRANCH  18  19
ENDBRANCH   1  18
TORSDOF 28
ENDMDL
MODEL 6
REMARK VINA RESULT:     0.032      1.889      4.599
REMARK INTER + INTRA:          -1.850
REMARK INTER:                  -0.346
REMARK INTRA:                  -1.504
REMARK UNBOUND:                -1.935
REMARK SMILES CCCCCCCCCCCCCCCCCCCCCCCCCCCCCC(=O)[O-]
REMARK SMILES IDX 16 1 17 2 18 3 19 4 20 5 21 6 22 7 23 8 24 9 25 10 26 11
REMARK SMILES IDX 27 12 28 13 29 14 30 15 31 16 32 17 15 18 14 19 13 20 12 21
REMARK SMILES IDX 11 22 10 23 9 24 8 25 7 26 6 27 5 28 4 29 3 30 2 31 1 32
REMARK H PARENT
REMARK Flexibility Score: inf
ROOT
ATOM      1  C   UNL     1      27.337  64.787  18.629  1.00  0.00     0.000 C 
ENDROOT
BRANCH   1   2
ATOM      2  C   UNL     1      27.945  64.612  17.225  1.00  0.00     0.000 C 
BRANCH   2   3
ATOM      3  C   UNL     1      26.908  64.264  16.135  1.00  0.00     0.000 C 
BRANCH   3   4
ATOM      4  C   UNL     1      26.188  65.509  15.589  1.00  0.00     0.000 C 
BRANCH   4   5
ATOM      5  C   UNL     1      24.969  65.905  16.439  1.00  0.00     0.000 C 
BRANCH   5   6
ATOM      6  C   UNL     1      24.010  64.724  16.670  1.00  0.00     0.000 C 
BRANCH   6   7
ATOM      7  C   UNL     1      22.775  65.113  17.500  1.00  0.00     0.000 C 
BRANCH   7   8
ATOM      8  C   UNL     1      21.459  64.957  16.718  1.00  0.00     0.000 C 
BRANCH   8   9
ATOM      9  C   UNL     1      21.292  66.028  15.626  1.00  0.00     0.000 C 
BRANCH   9  10
ATOM     10  C   UNL     1      19.865  66.068  15.060  1.00  0.00     0.000 C 
BRANCH  10  11
ATOM     11  C   UNL     1      18.957  65.067  15.785  1.00  0.00     0.000 C 
BRANCH  11  12
ATOM     12  C   UNL     1      17.954  65.791  16.691  1.00  0.00     0.000 C 
BRANCH  12  13
ATOM     13  C   UNL     1      16.526  65.280  16.454  1.00  0.00     0.006 C 
BRANCH  13  14
ATOM     14  C   UNL     1      15.771  66.125  15.419  1.00  0.00     0.053 C 
BRANCH  14  15
ATOM     15  C   UNL     1      14.497  65.465  14.988  1.00  0.00     0.041 C 
ATOM     16  O   UNL     1      13.468  65.542  15.710  1.00  0.00    -0.550 OA
ATOM     17  O   UNL     1      14.436  64.795  13.772  1.00  0.00    -0.550 OA
ENDBRANCH  14  15
ENDBRANCH  13  14
ENDBRANCH  12  13
ENDBRANCH  11  12
ENDBRANCH  10  11
ENDBRANCH   9  10
ENDBRANCH   8   9
ENDBRANCH   7   8
ENDBRANCH   6   7
ENDBRANCH   5   6
ENDBRANCH   4   5
ENDBRANCH   3   4
ENDBRANCH   2   3
ENDBRANCH   1   2
BRANCH   1  18
ATOM     18  C   UNL     1      27.669  66.122  19.324  1.00  0.00     0.000 C 
BRANCH  18  19
ATOM     19  C   UNL     1      27.724  66.059  20.862  1.00  0.00     0.000 C 
BRANCH  19  20
ATOM     20  C   UNL     1      29.159  66.032  21.409  1.00  0.00     0.000 C 
BRANCH  20  21
ATOM     21  C   UNL     1      29.162  65.846  22.933  1.00  0.00     0.000 C 
BRANCH  21  22
ATOM     22  C   UNL     1      30.504  65.320  23.474  1.00  0.00     0.000 C 
BRANCH  22  23
ATOM     23  C   UNL     1      31.743  66.125  23.039  1.00  0.00     0.000 C 
BRANCH  23  24
ATOM     24  C   UNL     1      32.302  65.675  21.678  1.00  0.00    -0.000 C 
BRANCH  24  25
ATOM     25  C   UNL     1      31.880  64.243  21.311  1.00  0.00    -0.000 C 
BRANCH  25  26
ATOM     26  C   UNL     1      32.881  63.554  20.366  1.00  0.00    -0.000 C 
BRANCH  26  27
ATOM     27  C   UNL     1      32.981  64.256  19.002  1.00  0.00    -0.000 C 
BRANCH  27  28
ATOM     28  C   UNL     1      31.674  64.169  18.192  1.00  0.00    -0.000 C 
BRANCH  28  29
ATOM     29  C   UNL     1      31.902  64.331  16.681  1.00  0.00    -0.000 C 
BRANCH  29  30
ATOM     30  C   UNL     1      32.642  63.132  16.065  1.00  0.00    -0.000 C 
BRANCH  30  31
ATOM     31  C   UNL     1      32.619  63.153  14.529  1.00  0.00    -0.003 C 
ATOM     32  C   UNL     1      31.284  63.630  13.960  1.00  0.00     0.004 C 
ENDBRANCH  30  31
ENDBRANCH  29  30
ENDBRANCH  28  29
ENDBRANCH  27  28
ENDBRANCH  26  27
ENDBRANCH  25  26
ENDBRANCH  24  25
ENDBRANCH  23  24
ENDBRANCH  22  23
ENDBRANCH  21  22
ENDBRANCH  20  21
ENDBRANCH  19  20
ENDBRANCH  18  19
ENDBRANCH   1  18
TORSDOF 28
ENDMDL
MODEL 7
REMARK VINA RESULT:     0.301      5.354     15.327
REMARK INTER + INTRA:          -1.142
REMARK INTER:                   0.008
REMARK INTRA:                  -1.150
REMARK UNBOUND:                -1.935
REMARK SMILES CCCCCCCCCCCCCCCCCCCCCCCCCCCCCC(=O)[O-]
REMARK SMILES IDX 16 1 17 2 18 3 19 4 20 5 21 6 22 7 23 8 24 9 25 10 26 11
REMARK SMILES IDX 27 12 28 13 29 14 30 15 31 16 32 17 15 18 14 19 13 20 12 21
REMARK SMILES IDX 11 22 10 23 9 24 8 25 7 26 6 27 5 28 4 29 3 30 2 31 1 32
REMARK H PARENT
REMARK Flexibility Score: inf
ROOT
ATOM      1  C   UNL     1      25.341  64.456  15.381  1.00  0.00     0.000 C 
ENDROOT
BRANCH   1   2
ATOM      2  C   UNL     1      26.132  65.337  16.366  1.00  0.00     0.000 C 
BRANCH   2   3
ATOM      3  C   UNL     1      27.664  65.229  16.209  1.00  0.00     0.000 C 
BRANCH   3   4
ATOM      4  C   UNL     1      28.105  63.856  15.674  1.00  0.00     0.000 C 
BRANCH   4   5
ATOM      5  C   UNL     1      29.102  63.970  14.509  1.00  0.00     0.000 C 
BRANCH   5   6
ATOM      6  C   UNL     1      30.533  64.265  14.991  1.00  0.00     0.000 C 
BRANCH   6   7
ATOM      7  C   UNL     1      31.428  63.016  15.004  1.00  0.00     0.000 C 
BRANCH   7   8
ATOM      8  C   UNL     1      32.200  62.850  16.326  1.00  0.00     0.000 C 
BRANCH   8   9
ATOM      9  C   UNL     1      32.602  64.199  16.946  1.00  0.00     0.000 C 
BRANCH   9  10
ATOM     10  C   UNL     1      31.506  64.772  17.856  1.00  0.00     0.000 C 
BRANCH  10  11
ATOM     11  C   UNL     1      31.530  64.104  19.236  1.00  0.00     0.000 C 
BRANCH  11  12
ATOM     12  C   UNL     1      30.793  64.959  20.273  1.00  0.00     0.000 C 
BRANCH  12  13
ATOM     13  C   UNL     1      31.743  65.410  21.393  1.00  0.00     0.006 C 
BRANCH  13  14
ATOM     14  C   UNL     1      31.801  64.401  22.547  1.00  0.00     0.053 C 
BRANCH  14  15
ATOM     15  C   UNL     1      31.785  65.084  23.881  1.00  0.00     0.041 C 
ATOM     16  O   UNL     1      32.744  64.932  24.682  1.00  0.00    -0.550 OA
ATOM     17  O   UNL     1      30.727  65.916  24.224  1.00  0.00    -0.550 OA
ENDBRANCH  14  15
ENDBRANCH  13  14
ENDBRANCH  12  13
ENDBRANCH  11  12
ENDBRANCH  10  11
ENDBRANCH   9  10
ENDBRANCH   8   9
ENDBRANCH   7   8
ENDBRANCH   6   7
ENDBRANCH   5   6
ENDBRANCH   4   5
ENDBRANCH   3   4
ENDBRANCH   2   3
ENDBRANCH   1   2
BRANCH   1  18
ATOM     18  C   UNL     1      23.810  64.605  15.453  1.00  0.00     0.000 C 
BRANCH  18  19
ATOM     19  C   UNL     1      23.270  65.129  16.798  1.00  0.00     0.000 C 
BRANCH  19  20
ATOM     20  C   UNL     1      22.053  66.051  16.637  1.00  0.00     0.000 C 
BRANCH  20  21
ATOM     21  C   UNL     1      20.885  65.309  15.972  1.00  0.00     0.000 C 
BRANCH  21  22
ATOM     22  C   UNL     1      20.266  66.088  14.798  1.00  0.00     0.000 C 
BRANCH  22  23
ATOM     23  C   UNL     1      18.729  66.030  14.713  1.00  0.00     0.000 C 
BRANCH  23  24
ATOM     24  C   UNL     1      18.143  64.754  15.341  1.00  0.00    -0.000 C 
BRANCH  24  25
ATOM     25  C   UNL     1      17.058  65.056  16.388  1.00  0.00    -0.000 C 
BRANCH  25  26
ATOM     26  C   UNL     1      16.007  66.059  15.878  1.00  0.00    -0.000 C 
BRANCH  26  27
ATOM     27  C   UNL     1      14.734  66.068  16.742  1.00  0.00    -0.000 C 
BRANCH  27  28
ATOM     28  C   UNL     1      13.446  66.016  15.902  1.00  0.00    -0.000 C 
BRANCH  28  29
ATOM     29  C   UNL     1      13.565  65.073  14.693  1.00  0.00    -0.000 C 
BRANCH  29  30
ATOM     30  C   UNL     1      14.105  65.786  13.442  1.00  0.00    -0.000 C 
BRANCH  30  31
ATOM     31  C   UNL     1      14.707  64.806  12.422  1.00  0.00    -0.003 C 
ATOM     32  C   UNL     1      13.816  64.599  11.199  1.00  0.00     0.004 C 
ENDBRANCH  30  31
ENDBRANCH  29  30
ENDBRANCH  28  29
ENDBRANCH  27  28
ENDBRANCH  26  27
ENDBRANCH  25  26
ENDBRANCH  24  25
ENDBRANCH  23  24
ENDBRANCH  22  23
ENDBRANCH  21  22
ENDBRANCH  20  21
ENDBRANCH  19  20
ENDBRANCH  18  19
ENDBRANCH   1  18
TORSDOF 28
ENDMDL
