MODEL 1
REMARK VINA RESULT:    -4.667      0.000      0.000
REMARK INTER + INTRA:          -5.749
REMARK INTER:                  -5.486
REMARK INTRA:                  -0.263
REMARK UNBOUND:                -0.263
REMARK SMILES O=c1cc(-c2ccc(O)c(O)c2)oc2cc(O)cc(O)c12
REMARK SMILES IDX 4 1 3 2 2 3 1 4 21 5 19 6 18 7 16 8 15 9 14 10 13 11 5 12
REMARK SMILES IDX 6 13 7 14 8 15 12 16 10 17 9 18 11 20 20 22 17 24
REMARK H PARENT 9 19 11 21 20 23 17 25
REMARK Flexibility Score: inf
ROOT
ATOM      1  C   UNL     1       5.347  11.710   8.543  1.00  0.00     0.138 A 
ATOM      2  C   UNL     1       6.432  12.282   9.221  1.00  0.00     0.100 A 
ATOM      3  C   UNL     1       7.614  12.553   8.529  1.00  0.00     0.197 A 
ATOM      4  O   UNL     1       8.548  13.124   9.151  1.00  0.00    -0.289 OA
ATOM      5  C   UNL     1       7.718  12.220   7.158  1.00  0.00     0.107 A 
ATOM      6  C   UNL     1       8.886  12.414   6.362  1.00  0.00     0.134 A 
ATOM      7  C   UNL     1       8.834  12.154   4.987  1.00  0.00     0.093 A 
ATOM      8  C   UNL     1       7.678  11.653   4.390  1.00  0.00     0.123 A 
ATOM      9  C   UNL     1       6.546  11.409   5.170  1.00  0.00     0.094 A 
ATOM     10  C   UNL     1       6.555  11.690   6.538  1.00  0.00     0.146 A 
ATOM     11  O   UNL     1       5.452  11.458   7.243  1.00  0.00    -0.456 OA
ENDROOT
BRANCH   1  12
ATOM     12  C   UNL     1       4.068  11.400   9.230  1.00  0.00     0.021 A 
ATOM     13  C   UNL     1       3.851  10.164   9.868  1.00  0.00     0.016 A 
ATOM     14  C   UNL     1       2.634   9.895  10.498  1.00  0.00     0.051 A 
ATOM     15  C   UNL     1       1.611  10.851  10.495  1.00  0.00     0.157 A 
ATOM     16  C   UNL     1       3.030  12.349   9.221  1.00  0.00     0.062 A 
ATOM     17  C   UNL     1       1.808  12.079   9.855  1.00  0.00     0.158 A 
BRANCH  15  18
ATOM     18  O   UNL     1       0.396  10.586  11.125  1.00  0.00    -0.504 OA
ATOM     19  H   UNL     1       0.222  10.866  12.083  1.00  0.00     0.293 HD
ENDBRANCH  15  18
BRANCH  17  20
ATOM     20  O   UNL     1       0.786  13.027   9.851  1.00  0.00    -0.504 OA
ATOM     21  H   UNL     1      -0.180  12.766  10.011  1.00  0.00     0.293 HD
ENDBRANCH  17  20
ENDBRANCH   1  12
BRANCH   6  22
ATOM     22  O   UNL     1      10.119  12.830   6.872  1.00  0.00    -0.507 OA
ATOM     23  H   UNL     1      10.397  12.758   7.839  1.00  0.00     0.293 HD
ENDBRANCH   6  22
BRANCH   8  24
ATOM     24  O   UNL     1       7.668  11.391   3.022  1.00  0.00    -0.508 OA
ATOM     25  H   UNL     1       7.232  10.558   2.645  1.00  0.00     0.293 HD
ENDBRANCH   8  24
TORSDOF 5
ENDMDL
MODEL 2
REMARK VINA RESULT:    -4.493      1.398      7.091
REMARK INTER + INTRA:          -5.544
REMARK INTER:                  -5.278
REMARK INTRA:                  -0.266
REMARK UNBOUND:                -0.263
REMARK SMILES O=c1cc(-c2ccc(O)c(O)c2)oc2cc(O)cc(O)c12
REMARK SMILES IDX 4 1 3 2 2 3 1 4 21 5 19 6 18 7 16 8 15 9 14 10 13 11 5 12
REMARK SMILES IDX 6 13 7 14 8 15 12 16 10 17 9 18 11 20 20 22 17 24
REMARK H PARENT 9 19 11 21 20 23 17 25
REMARK Flexibility Score: inf
ROOT
ATOM      1  C   UNL     1       5.776  11.102   7.974  1.00  0.00     0.138 A 
ATOM      2  C   UNL     1       5.724   9.789   8.465  1.00  0.00     0.100 A 
ATOM      3  C   UNL     1       4.621   9.375   9.213  1.00  0.00     0.197 A 
ATOM      4  O   UNL     1       4.576   8.174   9.588  1.00  0.00    -0.289 OA
ATOM      5  C   UNL     1       3.580  10.290   9.498  1.00  0.00     0.107 A 
ATOM      6  C   UNL     1       2.428   9.990  10.284  1.00  0.00     0.134 A 
ATOM      7  C   UNL     1       1.406  10.940  10.400  1.00  0.00     0.093 A 
ATOM      8  C   UNL     1       1.521  12.199   9.810  1.00  0.00     0.123 A 
ATOM      9  C   UNL     1       2.668  12.521   9.083  1.00  0.00     0.094 A 
ATOM     10  C   UNL     1       3.689  11.583   8.920  1.00  0.00     0.146 A 
ATOM     11  O   UNL     1       4.759  11.924   8.208  1.00  0.00    -0.456 OA
ENDROOT
BRANCH   1  12
ATOM     12  C   UNL     1       6.925  11.595   7.173  1.00  0.00     0.021 A 
ATOM     13  C   UNL     1       8.096  12.084   7.784  1.00  0.00     0.016 A 
ATOM     14  C   UNL     1       9.158  12.552   7.006  1.00  0.00     0.051 A 
ATOM     15  C   UNL     1       9.066  12.547   5.609  1.00  0.00     0.157 A 
ATOM     16  C   UNL     1       6.836  11.607   5.770  1.00  0.00     0.062 A 
ATOM     17  C   UNL     1       7.903  12.076   4.989  1.00  0.00     0.158 A 
BRANCH  15  18
ATOM     18  O   UNL     1      10.125  13.012   4.831  1.00  0.00    -0.504 OA
ATOM     19  H   UNL     1      10.109  13.933   4.410  1.00  0.00     0.293 HD
ENDBRANCH  15  18
BRANCH  17  20
ATOM     20  O   UNL     1       7.814  12.076   3.598  1.00  0.00    -0.504 OA
ATOM     21  H   UNL     1       8.035  11.252   3.053  1.00  0.00     0.293 HD
ENDBRANCH  17  20
ENDBRANCH   1  12
BRANCH   6  22
ATOM     22  O   UNL     1       2.250   8.795  10.987  1.00  0.00    -0.507 OA
ATOM     23  H   UNL     1       1.566   8.650  11.713  1.00  0.00     0.293 HD
ENDBRANCH   6  22
BRANCH   8  24
ATOM     24  O   UNL     1       0.491  13.125   9.960  1.00  0.00    -0.508 OA
ATOM     25  H   UNL     1       0.581  14.077   9.625  1.00  0.00     0.293 HD
ENDBRANCH   8  24
TORSDOF 5
ENDMDL
MODEL 3
REMARK VINA RESULT:    -2.690      1.880      6.952
REMARK INTER + INTRA:          -3.425
REMARK INTER:                  -3.134
REMARK INTRA:                  -0.292
REMARK UNBOUND:                -0.263
REMARK SMILES O=c1cc(-c2ccc(O)c(O)c2)oc2cc(O)cc(O)c12
REMARK SMILES IDX 4 1 3 2 2 3 1 4 21 5 19 6 18 7 16 8 15 9 14 10 13 11 5 12
REMARK SMILES IDX 6 13 7 14 8 15 12 16 10 17 9 18 11 20 20 22 17 24
REMARK H PARENT 9 19 11 21 20 23 17 25
REMARK Flexibility Score: inf
ROOT
ATOM      1  C   UNL     1       5.954  11.717   7.169  1.00  0.00     0.138 A 
ATOM      2  C   UNL     1       5.424  12.642   8.079  1.00  0.00     0.100 A 
ATOM      3  C   UNL     1       4.386  12.257   8.930  1.00  0.00     0.197 A 
ATOM      4  O   UNL     1       3.974  13.091   9.778  1.00  0.00    -0.289 OA
ATOM      5  C   UNL     1       3.856  10.948   8.845  1.00  0.00     0.107 A 
ATOM      6  C   UNL     1       2.773  10.458   9.633  1.00  0.00     0.134 A 
ATOM      7  C   UNL     1       2.410   9.109   9.544  1.00  0.00     0.093 A 
ATOM      8  C   UNL     1       3.051   8.246   8.655  1.00  0.00     0.123 A 
ATOM      9  C   UNL     1       4.077   8.728   7.841  1.00  0.00     0.094 A 
ATOM     10  C   UNL     1       4.484  10.061   7.931  1.00  0.00     0.146 A 
ATOM     11  O   UNL     1       5.475  10.478   7.148  1.00  0.00    -0.456 OA
ENDROOT
BRANCH   1  12
ATOM     12  C   UNL     1       7.057  12.073   6.241  1.00  0.00     0.021 A 
ATOM     13  C   UNL     1       8.187  12.791   6.676  1.00  0.00     0.016 A 
ATOM     14  C   UNL     1       9.205  13.122   5.779  1.00  0.00     0.051 A 
ATOM     15  C   UNL     1       9.109  12.749   4.433  1.00  0.00     0.157 A 
ATOM     16  C   UNL     1       6.963  11.714   4.885  1.00  0.00     0.062 A 
ATOM     17  C   UNL     1       7.986  12.045   3.984  1.00  0.00     0.158 A 
BRANCH  15  18
ATOM     18  O   UNL     1      10.125  13.076   3.535  1.00  0.00    -0.504 OA
ATOM     19  H   UNL     1      11.013  13.446   3.852  1.00  0.00     0.293 HD
ENDBRANCH  15  18
BRANCH  17  20
ATOM     20  O   UNL     1       7.892  11.679   2.642  1.00  0.00    -0.504 OA
ATOM     21  H   UNL     1       8.574  11.066   2.212  1.00  0.00     0.293 HD
ENDBRANCH  17  20
ENDBRANCH   1  12
BRANCH   6  22
ATOM     22  O   UNL     1       2.008  11.254  10.492  1.00  0.00    -0.507 OA
ATOM     23  H   UNL     1       2.112  11.283  11.495  1.00  0.00     0.293 HD
ENDBRANCH   6  22
BRANCH   8  24
ATOM     24  O   UNL     1       2.653   6.913   8.582  1.00  0.00    -0.508 OA
ATOM     25  H   UNL     1       2.438   6.378   9.415  1.00  0.00     0.293 HD
ENDBRANCH   8  24
TORSDOF 5
ENDMDL
MODEL 4
REMARK VINA RESULT:    -2.022      1.165      2.788
REMARK INTER + INTRA:          -2.640
REMARK INTER:                  -2.376
REMARK INTRA:                  -0.264
REMARK UNBOUND:                -0.263
REMARK SMILES O=c1cc(-c2ccc(O)c(O)c2)oc2cc(O)cc(O)c12
REMARK SMILES IDX 4 1 3 2 2 3 1 4 21 5 19 6 18 7 16 8 15 9 14 10 13 11 5 12
REMARK SMILES IDX 6 13 7 14 8 15 12 16 10 17 9 18 11 20 20 22 17 24
REMARK H PARENT 9 19 11 21 20 23 17 25
REMARK Flexibility Score: inf
ROOT
ATOM      1  C   UNL     1       4.484  11.075   7.398  1.00  0.00     0.138 A 
ATOM      2  C   UNL     1       4.342  10.696   6.055  1.00  0.00     0.100 A 
ATOM      3  C   UNL     1       5.398  10.900   5.165  1.00  0.00     0.197 A 
ATOM      4  O   UNL     1       5.263  10.492   3.982  1.00  0.00    -0.289 OA
ATOM      5  C   UNL     1       6.589  11.517   5.616  1.00  0.00     0.107 A 
ATOM      6  C   UNL     1       7.714  11.811   4.789  1.00  0.00     0.134 A 
ATOM      7  C   UNL     1       8.884  12.316   5.370  1.00  0.00     0.093 A 
ATOM      8  C   UNL     1       8.949  12.593   6.735  1.00  0.00     0.123 A 
ATOM      9  C   UNL     1       7.836  12.359   7.544  1.00  0.00     0.094 A 
ATOM     10  C   UNL     1       6.667  11.823   7.000  1.00  0.00     0.146 A 
ATOM     11  O   UNL     1       5.634  11.602   7.807  1.00  0.00    -0.456 OA
ENDROOT
BRANCH   1  12
ATOM     12  C   UNL     1       3.394  10.883   8.386  1.00  0.00     0.021 A 
ATOM     13  C   UNL     1       3.550  10.043   9.506  1.00  0.00     0.016 A 
ATOM     14  C   UNL     1       2.503   9.871  10.415  1.00  0.00     0.051 A 
ATOM     15  C   UNL     1       1.282  10.528  10.219  1.00  0.00     0.157 A 
ATOM     16  C   UNL     1       2.160  11.528   8.190  1.00  0.00     0.062 A 
ATOM     17  C   UNL     1       1.109  11.357   9.104  1.00  0.00     0.158 A 
BRANCH  15  18
ATOM     18  O   UNL     1       0.237  10.361  11.125  1.00  0.00    -0.504 OA
ATOM     19  H   UNL     1       0.310   9.720  11.906  1.00  0.00     0.293 HD
ENDBRANCH  15  18
BRANCH  17  20
ATOM     20  O   UNL     1      -0.109  12.006   8.909  1.00  0.00    -0.504 OA
ATOM     21  H   UNL     1      -0.752  11.719   8.181  1.00  0.00     0.293 HD
ENDBRANCH  17  20
ENDBRANCH   1  12
BRANCH   6  22
ATOM     22  O   UNL     1       7.727  11.651   3.400  1.00  0.00    -0.507 OA
ATOM     23  H   UNL     1       6.928  11.390   2.843  1.00  0.00     0.293 HD
ENDBRANCH   6  22
BRANCH   8  24
ATOM     24  O   UNL     1      10.124  13.111   7.276  1.00  0.00    -0.508 OA
ATOM     25  H   UNL     1      10.687  12.577   7.928  1.00  0.00     0.293 HD
ENDBRANCH   8  24
TORSDOF 5
ENDMDL
