MODEL 1
REMARK VINA RESULT:    -8.065      0.000      0.000
REMARK INTER + INTRA:         -11.791
REMARK INTER:                 -11.130
REMARK INTRA:                  -0.661
REMARK UNBOUND:                -0.661
REMARK SMILES CC[C@@H](CC[C@H](C)[C@@H]1CC[C@H]2C3=CC[C@@H]4C[C@@H](O)CC[C@]4(C)[C@@H]3CC[C@]21C)C(C)C
REMARK SMILES IDX 5 1 4 2 3 3 2 4 1 5 28 6 29 7 30 8 6 9 7 10 8 11 9 12 26 13
REMARK SMILES IDX 10 14 11 15 25 16 27 17 12 18 24 19 23 20 13 21 21 22 14 23
REMARK SMILES IDX 15 24 20 25 22 26 16 27 19 28 17 29 18 30
REMARK H PARENT 18 31
REMARK Flexibility Score: inf
ROOT
ATOM      1  C   UNL     1      -7.506  27.201  49.064  1.00  0.00     0.004 C 
ENDROOT
BRANCH   1   2
ATOM      2  C   UNL     1      -7.219  27.888  47.710  1.00  0.00     0.004 C 
BRANCH   2   3
ATOM      3  C   UNL     1      -8.203  29.030  47.326  1.00  0.00    -0.009 C 
BRANCH   3   4
ATOM      4  C   UNL     1      -9.431  28.501  46.527  1.00  0.00     0.000 C 
ATOM      5  C   UNL     1     -10.682  28.157  47.348  1.00  0.00     0.004 C 
ENDBRANCH   3   4
BRANCH   3   6
ATOM      6  C   UNL     1      -7.500  30.279  46.691  1.00  0.00    -0.014 C 
ATOM      7  C   UNL     1      -6.821  31.156  47.758  1.00  0.00     0.007 C 
ATOM      8  C   UNL     1      -8.410  31.141  45.809  1.00  0.00     0.007 C 
ENDBRANCH   3   6
ENDBRANCH   2   3
ENDBRANCH   1   2
BRANCH   1   9
ATOM      9  C   UNL     1      -6.257  27.091  49.991  1.00  0.00    -0.011 C 
ATOM     10  C   UNL     1      -5.182  28.137  49.605  1.00  0.00     0.008 C 
BRANCH   9  11
ATOM     11  C   UNL     1      -5.774  25.608  50.176  1.00  0.00    -0.002 C 
ATOM     12  C   UNL     1      -4.876  25.404  51.406  1.00  0.00     0.005 C 
ATOM     13  C   UNL     1      -5.120  24.778  48.993  1.00  0.00    -0.023 C 
ATOM     14  C   UNL     1      -4.129  24.112  51.143  1.00  0.00     0.009 C 
ATOM     15  C   UNL     1      -3.854  24.145  49.648  1.00  0.00     0.021 C 
ATOM     16  C   UNL     1      -6.135  23.682  48.515  1.00  0.00     0.008 C 
ATOM     17  C   UNL     1      -4.679  25.621  47.774  1.00  0.00     0.012 C 
ATOM     18  C   UNL     1      -3.412  22.786  49.110  1.00  0.00    -0.067 C 
ATOM     19  C   UNL     1      -5.484  22.524  47.757  1.00  0.00     0.009 C 
ATOM     20  C   UNL     1      -4.464  21.787  48.653  1.00  0.00     0.021 C 
ATOM     21  C   UNL     1      -2.118  22.440  49.261  1.00  0.00    -0.027 C 
ATOM     22  C   UNL     1      -3.894  20.450  48.017  1.00  0.00    -0.023 C 
ATOM     23  C   UNL     1      -1.561  21.116  48.834  1.00  0.00     0.031 C 
ATOM     24  C   UNL     1      -2.633  20.011  48.812  1.00  0.00     0.002 C 
ATOM     25  C   UNL     1      -3.542  20.625  46.504  1.00  0.00     0.010 C 
ATOM     26  C   UNL     1      -4.992  19.351  48.164  1.00  0.00     0.012 C 
ATOM     27  C   UNL     1      -2.046  18.673  48.309  1.00  0.00     0.036 C 
ATOM     28  C   UNL     1      -2.405  19.735  45.950  1.00  0.00     0.032 C 
ATOM     29  C   UNL     1      -2.039  18.481  46.770  1.00  0.00     0.114 C 
BRANCH  29  30
ATOM     30  O   UNL     1      -2.875  17.411  46.397  1.00  0.00    -0.393 OA
ATOM     31  H   UNL     1      -2.495  17.044  45.557  1.00  0.00     0.210 HD
ENDBRANCH  29  30
ENDBRANCH   9  11
ENDBRANCH   1   9
TORSDOF 7
ENDMDL
MODEL 2
REMARK VINA RESULT:    -7.872      1.459      2.902
REMARK INTER + INTRA:         -11.525
REMARK INTER:                  -9.745
REMARK INTRA:                  -1.780
REMARK UNBOUND:                -0.661
REMARK SMILES CC[C@@H](CC[C@H](C)[C@@H]1CC[C@H]2C3=CC[C@@H]4C[C@@H](O)CC[C@]4(C)[C@@H]3CC[C@]21C)C(C)C
REMARK SMILES IDX 5 1 4 2 3 3 2 4 1 5 28 6 29 7 30 8 6 9 7 10 8 11 9 12 26 13
REMARK SMILES IDX 10 14 11 15 25 16 27 17 12 18 24 19 23 20 13 21 21 22 14 23
REMARK SMILES IDX 15 24 20 25 22 26 16 27 19 28 17 29 18 30
REMARK H PARENT 18 31
REMARK Flexibility Score: inf
ROOT
ATOM      1  C   UNL     1      -6.280  27.336  50.354  1.00  0.00     0.004 C 
ENDROOT
BRANCH   1   2
ATOM      2  C   UNL     1      -5.882  28.539  49.471  1.00  0.00     0.004 C 
BRANCH   2   3
ATOM      3  C   UNL     1      -6.545  28.576  48.064  1.00  0.00    -0.009 C 
BRANCH   3   4
ATOM      4  C   UNL     1      -7.897  27.804  48.034  1.00  0.00     0.000 C 
ATOM      5  C   UNL     1      -9.048  28.475  47.271  1.00  0.00     0.004 C 
ENDBRANCH   3   4
BRANCH   3   6
ATOM      6  C   UNL     1      -5.562  28.216  46.897  1.00  0.00    -0.014 C 
ATOM      7  C   UNL     1      -5.989  26.932  46.165  1.00  0.00     0.007 C 
ATOM      8  C   UNL     1      -4.090  28.115  47.314  1.00  0.00     0.007 C 
ENDBRANCH   3   6
ENDBRANCH   2   3
ENDBRANCH   1   2
BRANCH   1   9
ATOM      9  C   UNL     1      -5.103  26.359  50.655  1.00  0.00    -0.011 C 
ATOM     10  C   UNL     1      -3.861  27.125  51.174  1.00  0.00     0.008 C 
BRANCH   9  11
ATOM     11  C   UNL     1      -4.870  25.325  49.495  1.00  0.00    -0.002 C 
ATOM     12  C   UNL     1      -6.172  24.752  48.913  1.00  0.00     0.005 C 
ATOM     13  C   UNL     1      -3.862  24.109  49.637  1.00  0.00    -0.023 C 
ATOM     14  C   UNL     1      -5.766  23.468  48.219  1.00  0.00     0.009 C 
ATOM     15  C   UNL     1      -4.685  22.890  49.118  1.00  0.00     0.021 C 
ATOM     16  C   UNL     1      -2.603  24.381  48.743  1.00  0.00     0.008 C 
ATOM     17  C   UNL     1      -3.399  23.815  51.083  1.00  0.00     0.012 C 
ATOM     18  C   UNL     1      -3.898  21.774  48.434  1.00  0.00    -0.067 C 
ATOM     19  C   UNL     1      -1.807  23.123  48.394  1.00  0.00     0.009 C 
ATOM     20  C   UNL     1      -2.678  22.127  47.597  1.00  0.00     0.021 C 
ATOM     21  C   UNL     1      -4.439  20.539  48.421  1.00  0.00    -0.027 C 
ATOM     22  C   UNL     1      -1.876  20.887  47.017  1.00  0.00    -0.023 C 
ATOM     23  C   UNL     1      -3.805  19.366  47.738  1.00  0.00     0.031 C 
ATOM     24  C   UNL     1      -2.887  19.793  46.578  1.00  0.00     0.002 C 
ATOM     25  C   UNL     1      -0.870  20.302  48.061  1.00  0.00     0.010 C 
ATOM     26  C   UNL     1      -1.086  21.379  45.765  1.00  0.00     0.012 C 
ATOM     27  C   UNL     1      -2.199  18.569  45.930  1.00  0.00     0.036 C 
ATOM     28  C   UNL     1      -0.555  18.792  47.948  1.00  0.00     0.032 C 
ATOM     29  C   UNL     1      -0.878  18.111  46.602  1.00  0.00     0.114 C 
BRANCH  29  30
ATOM     30  O   UNL     1       0.209  18.266  45.720  1.00  0.00    -0.393 OA
ATOM     31  H   UNL     1       0.607  19.151  45.926  1.00  0.00     0.210 HD
ENDBRANCH  29  30
ENDBRANCH   9  11
ENDBRANCH   1   9
TORSDOF 7
ENDMDL
MODEL 3
REMARK VINA RESULT:    -7.733      1.447      1.833
REMARK INTER + INTRA:         -11.332
REMARK INTER:                 -10.124
REMARK INTRA:                  -1.208
REMARK UNBOUND:                -0.661
REMARK SMILES CC[C@@H](CC[C@H](C)[C@@H]1CC[C@H]2C3=CC[C@@H]4C[C@@H](O)CC[C@]4(C)[C@@H]3CC[C@]21C)C(C)C
REMARK SMILES IDX 5 1 4 2 3 3 2 4 1 5 28 6 29 7 30 8 6 9 7 10 8 11 9 12 26 13
REMARK SMILES IDX 10 14 11 15 25 16 27 17 12 18 24 19 23 20 13 21 21 22 14 23
REMARK SMILES IDX 15 24 20 25 22 26 16 27 19 28 17 29 18 30
REMARK H PARENT 18 31
REMARK Flexibility Score: inf
ROOT
ATOM      1  C   UNL     1      -5.223  27.957  47.833  1.00  0.00     0.004 C 
ENDROOT
BRANCH   1   2
ATOM      2  C   UNL     1      -6.150  28.426  46.690  1.00  0.00     0.004 C 
BRANCH   2   3
ATOM      3  C   UNL     1      -7.365  29.290  47.135  1.00  0.00    -0.009 C 
BRANCH   3   4
ATOM      4  C   UNL     1      -8.699  28.794  46.503  1.00  0.00     0.000 C 
ATOM      5  C   UNL     1      -9.714  28.160  47.464  1.00  0.00     0.004 C 
ENDBRANCH   3   4
BRANCH   3   6
ATOM      6  C   UNL     1      -7.117  30.833  47.012  1.00  0.00    -0.014 C 
ATOM      7  C   UNL     1      -6.294  31.181  45.759  1.00  0.00     0.007 C 
ATOM      8  C   UNL     1      -6.481  31.475  48.250  1.00  0.00     0.007 C 
ENDBRANCH   3   6
ENDBRANCH   2   3
ENDBRANCH   1   2
BRANCH   1   9
ATOM      9  C   UNL     1      -5.809  26.782  48.675  1.00  0.00    -0.011 C 
ATOM     10  C   UNL     1      -6.582  27.311  49.909  1.00  0.00     0.008 C 
BRANCH   9  11
ATOM     11  C   UNL     1      -4.758  25.641  48.927  1.00  0.00    -0.002 C 
ATOM     12  C   UNL     1      -3.325  26.160  49.121  1.00  0.00     0.005 C 
ATOM     13  C   UNL     1      -4.657  24.364  47.993  1.00  0.00    -0.023 C 
ATOM     14  C   UNL     1      -2.431  24.969  48.843  1.00  0.00     0.009 C 
ATOM     15  C   UNL     1      -3.130  24.242  47.705  1.00  0.00     0.021 C 
ATOM     16  C   UNL     1      -5.201  23.117  48.772  1.00  0.00     0.008 C 
ATOM     17  C   UNL     1      -5.408  24.483  46.647  1.00  0.00     0.012 C 
ATOM     18  C   UNL     1      -2.583  22.833  47.495  1.00  0.00    -0.067 C 
ATOM     19  C   UNL     1      -4.720  21.778  48.211  1.00  0.00     0.009 C 
ATOM     20  C   UNL     1      -3.180  21.676  48.282  1.00  0.00     0.021 C 
ATOM     21  C   UNL     1      -1.448  22.697  46.780  1.00  0.00    -0.027 C 
ATOM     22  C   UNL     1      -2.610  20.242  47.913  1.00  0.00    -0.023 C 
ATOM     23  C   UNL     1      -0.770  21.382  46.546  1.00  0.00     0.031 C 
ATOM     24  C   UNL     1      -1.083  20.358  47.652  1.00  0.00     0.002 C 
ATOM     25  C   UNL     1      -3.324  19.634  46.662  1.00  0.00     0.010 C 
ATOM     26  C   UNL     1      -2.844  19.310  49.141  1.00  0.00     0.012 C 
ATOM     27  C   UNL     1      -0.422  18.993  47.354  1.00  0.00     0.036 C 
ATOM     28  C   UNL     1      -2.492  18.660  45.795  1.00  0.00     0.032 C 
ATOM     29  C   UNL     1      -1.243  18.035  46.451  1.00  0.00     0.114 C 
BRANCH  29  30
ATOM     30  O   UNL     1      -1.611  16.876  47.160  1.00  0.00    -0.393 OA
ATOM     31  H   UNL     1      -0.786  16.332  47.246  1.00  0.00     0.210 HD
ENDBRANCH  29  30
ENDBRANCH   9  11
ENDBRANCH   1   9
TORSDOF 7
ENDMDL
MODEL 4
REMARK VINA RESULT:    -7.599      4.235      9.350
REMARK INTER + INTRA:         -11.147
REMARK INTER:                  -8.950
REMARK INTRA:                  -2.198
REMARK UNBOUND:                -0.661
REMARK SMILES CC[C@@H](CC[C@H](C)[C@@H]1CC[C@H]2C3=CC[C@@H]4C[C@@H](O)CC[C@]4(C)[C@@H]3CC[C@]21C)C(C)C
REMARK SMILES IDX 5 1 4 2 3 3 2 4 1 5 28 6 29 7 30 8 6 9 7 10 8 11 9 12 26 13
REMARK SMILES IDX 10 14 11 15 25 16 27 17 12 18 24 19 23 20 13 21 21 22 14 23
REMARK SMILES IDX 15 24 20 25 22 26 16 27 19 28 17 29 18 30
REMARK H PARENT 18 31
REMARK Flexibility Score: inf
ROOT
ATOM      1  C   UNL     1      -4.420  23.627  50.121  1.00  0.00     0.004 C 
ENDROOT
BRANCH   1   2
ATOM      2  C   UNL     1      -4.825  24.085  51.540  1.00  0.00     0.004 C 
BRANCH   2   3
ATOM      3  C   UNL     1      -3.707  24.807  52.345  1.00  0.00    -0.009 C 
BRANCH   3   4
ATOM      4  C   UNL     1      -3.933  26.347  52.410  1.00  0.00     0.000 C 
ATOM      5  C   UNL     1      -3.924  26.979  53.809  1.00  0.00     0.004 C 
ENDBRANCH   3   4
BRANCH   3   6
ATOM      6  C   UNL     1      -2.257  24.376  51.933  1.00  0.00    -0.014 C 
ATOM      7  C   UNL     1      -1.579  23.533  53.027  1.00  0.00     0.007 C 
ATOM      8  C   UNL     1      -1.341  25.536  51.525  1.00  0.00     0.007 C 
ENDBRANCH   3   6
ENDBRANCH   2   3
ENDBRANCH   1   2
BRANCH   1   9
ATOM      9  C   UNL     1      -5.368  24.148  48.998  1.00  0.00    -0.011 C 
ATOM     10  C   UNL     1      -5.707  23.024  47.987  1.00  0.00     0.008 C 
BRANCH   9  11
ATOM     11  C   UNL     1      -4.895  25.523  48.403  1.00  0.00    -0.002 C 
ATOM     12  C   UNL     1      -3.392  25.788  48.589  1.00  0.00     0.005 C 
ATOM     13  C   UNL     1      -5.640  26.885  48.726  1.00  0.00    -0.023 C 
ATOM     14  C   UNL     1      -3.231  27.286  48.437  1.00  0.00     0.009 C 
ATOM     15  C   UNL     1      -4.478  27.859  49.092  1.00  0.00     0.021 C 
ATOM     16  C   UNL     1      -6.414  27.360  47.448  1.00  0.00     0.008 C 
ATOM     17  C   UNL     1      -6.625  26.819  49.916  1.00  0.00     0.012 C 
ATOM     18  C   UNL     1      -4.687  29.332  48.752  1.00  0.00    -0.067 C 
ATOM     19  C   UNL     1      -6.752  28.851  47.448  1.00  0.00     0.009 C 
ATOM     20  C   UNL     1      -5.465  29.705  47.499  1.00  0.00     0.021 C 
ATOM     21  C   UNL     1      -3.992  30.246  49.457  1.00  0.00    -0.027 C 
ATOM     22  C   UNL     1      -5.712  31.258  47.294  1.00  0.00    -0.023 C 
ATOM     23  C   UNL     1      -4.056  31.719  49.192  1.00  0.00     0.031 C 
ATOM     24  C   UNL     1      -4.439  32.034  47.734  1.00  0.00     0.002 C 
ATOM     25  C   UNL     1      -6.954  31.764  48.098  1.00  0.00     0.010 C 
ATOM     26  C   UNL     1      -5.953  31.503  45.773  1.00  0.00     0.012 C 
ATOM     27  C   UNL     1      -4.558  33.557  47.503  1.00  0.00     0.036 C 
ATOM     28  C   UNL     1      -6.925  33.239  48.562  1.00  0.00     0.032 C 
ATOM     29  C   UNL     1      -5.940  34.179  47.837  1.00  0.00     0.114 C 
BRANCH  29  30
ATOM     30  O   UNL     1      -6.547  34.697  46.676  1.00  0.00    -0.393 OA
ATOM     31  H   UNL     1      -7.221  35.354  46.988  1.00  0.00     0.210 HD
ENDBRANCH  29  30
ENDBRANCH   9  11
ENDBRANCH   1   9
TORSDOF 7
ENDMDL
MODEL 5
REMARK VINA RESULT:    -7.547      3.756      9.313
REMARK INTER + INTRA:         -11.076
REMARK INTER:                  -9.844
REMARK INTRA:                  -1.232
REMARK UNBOUND:                -0.661
REMARK SMILES CC[C@@H](CC[C@H](C)[C@@H]1CC[C@H]2C3=CC[C@@H]4C[C@@H](O)CC[C@]4(C)[C@@H]3CC[C@]21C)C(C)C
REMARK SMILES IDX 5 1 4 2 3 3 2 4 1 5 28 6 29 7 30 8 6 9 7 10 8 11 9 12 26 13
REMARK SMILES IDX 10 14 11 15 25 16 27 17 12 18 24 19 23 20 13 21 21 22 14 23
REMARK SMILES IDX 15 24 20 25 22 26 16 27 19 28 17 29 18 30
REMARK H PARENT 18 31
REMARK Flexibility Score: inf
ROOT
ATOM      1  C   UNL     1      -3.537  20.100  46.658  1.00  0.00     0.004 C 
ENDROOT
BRANCH   1   2
ATOM      2  C   UNL     1      -2.152  19.641  46.149  1.00  0.00     0.004 C 
BRANCH   2   3
ATOM      3  C   UNL     1      -1.605  18.339  46.803  1.00  0.00    -0.009 C 
BRANCH   3   4
ATOM      4  C   UNL     1      -0.171  18.530  47.378  1.00  0.00     0.000 C 
ATOM      5  C   UNL     1       0.475  19.905  47.157  1.00  0.00     0.004 C 
ENDBRANCH   3   4
BRANCH   3   6
ATOM      6  C   UNL     1      -1.787  17.063  45.910  1.00  0.00    -0.014 C 
ATOM      7  C   UNL     1      -0.610  16.875  44.937  1.00  0.00     0.007 C 
ATOM      8  C   UNL     1      -3.113  17.008  45.142  1.00  0.00     0.007 C 
ENDBRANCH   3   6
ENDBRANCH   2   3
ENDBRANCH   1   2
BRANCH   1   9
ATOM      9  C   UNL     1      -3.618  20.255  48.207  1.00  0.00    -0.011 C 
ATOM     10  C   UNL     1      -4.226  18.991  48.864  1.00  0.00     0.008 C 
BRANCH   9  11
ATOM     11  C   UNL     1      -4.216  21.642  48.641  1.00  0.00    -0.002 C 
ATOM     12  C   UNL     1      -5.360  22.127  47.737  1.00  0.00     0.005 C 
ATOM     13  C   UNL     1      -3.300  22.903  48.931  1.00  0.00    -0.023 C 
ATOM     14  C   UNL     1      -5.449  23.620  47.976  1.00  0.00     0.009 C 
ATOM     15  C   UNL     1      -4.002  24.052  48.145  1.00  0.00     0.021 C 
ATOM     16  C   UNL     1      -3.287  23.181  50.474  1.00  0.00     0.008 C 
ATOM     17  C   UNL     1      -1.843  22.777  48.431  1.00  0.00     0.012 C 
ATOM     18  C   UNL     1      -3.881  25.457  48.731  1.00  0.00    -0.067 C 
ATOM     19  C   UNL     1      -2.876  24.607  50.843  1.00  0.00     0.009 C 
ATOM     20  C   UNL     1      -3.860  25.635  50.242  1.00  0.00     0.021 C 
ATOM     21  C   UNL     1      -4.014  26.503  47.892  1.00  0.00    -0.027 C 
ATOM     22  C   UNL     1      -3.628  27.122  50.743  1.00  0.00    -0.023 C 
ATOM     23  C   UNL     1      -3.976  27.933  48.340  1.00  0.00     0.031 C 
ATOM     24  C   UNL     1      -4.401  28.095  49.811  1.00  0.00     0.002 C 
ATOM     25  C   UNL     1      -2.111  27.498  50.775  1.00  0.00     0.010 C 
ATOM     26  C   UNL     1      -4.213  27.231  52.185  1.00  0.00     0.012 C 
ATOM     27  C   UNL     1      -4.293  29.569  50.264  1.00  0.00     0.036 C 
ATOM     28  C   UNL     1      -1.763  28.990  50.559  1.00  0.00     0.032 C 
ATOM     29  C   UNL     1      -2.899  30.010  50.781  1.00  0.00     0.114 C 
BRANCH  29  30
ATOM     30  O   UNL     1      -2.960  30.361  52.143  1.00  0.00    -0.393 OA
ATOM     31  H   UNL     1      -2.128  30.013  52.555  1.00  0.00     0.210 HD
ENDBRANCH  29  30
ENDBRANCH   9  11
ENDBRANCH   1   9
TORSDOF 7
ENDMDL
MODEL 6
REMARK VINA RESULT:    -7.546      3.587      9.542
REMARK INTER + INTRA:         -11.074
REMARK INTER:                  -9.363
REMARK INTRA:                  -1.711
REMARK UNBOUND:                -0.661
REMARK SMILES CC[C@@H](CC[C@H](C)[C@@H]1CC[C@H]2C3=CC[C@@H]4C[C@@H](O)CC[C@]4(C)[C@@H]3CC[C@]21C)C(C)C
REMARK SMILES IDX 5 1 4 2 3 3 2 4 1 5 28 6 29 7 30 8 6 9 7 10 8 11 9 12 26 13
REMARK SMILES IDX 10 14 11 15 25 16 27 17 12 18 24 19 23 20 13 21 21 22 14 23
REMARK SMILES IDX 15 24 20 25 22 26 16 27 19 28 17 29 18 30
REMARK H PARENT 18 31
REMARK Flexibility Score: inf
ROOT
ATOM      1  C   UNL     1      -5.602  23.237  48.552  1.00  0.00     0.004 C 
ENDROOT
BRANCH   1   2
ATOM      2  C   UNL     1      -5.062  22.769  47.182  1.00  0.00     0.004 C 
BRANCH   2   3
ATOM      3  C   UNL     1      -4.083  21.562  47.235  1.00  0.00    -0.009 C 
BRANCH   3   4
ATOM      4  C   UNL     1      -4.310  20.677  48.496  1.00  0.00     0.000 C 
ATOM      5  C   UNL     1      -4.339  19.160  48.269  1.00  0.00     0.004 C 
ENDBRANCH   3   4
BRANCH   3   6
ATOM      6  C   UNL     1      -2.587  21.953  46.972  1.00  0.00    -0.014 C 
ATOM      7  C   UNL     1      -1.733  21.835  48.247  1.00  0.00     0.007 C 
ATOM      8  C   UNL     1      -2.394  23.337  46.341  1.00  0.00     0.007 C 
ENDBRANCH   3   6
ENDBRANCH   2   3
ENDBRANCH   1   2
BRANCH   1   9
ATOM      9  C   UNL     1      -4.719  24.323  49.239  1.00  0.00    -0.011 C 
ATOM     10  C   UNL     1      -4.051  23.769  50.522  1.00  0.00     0.008 C 
BRANCH   9  11
ATOM     11  C   UNL     1      -5.453  25.707  49.357  1.00  0.00    -0.002 C 
ATOM     12  C   UNL     1      -6.985  25.591  49.357  1.00  0.00     0.005 C 
ATOM     13  C   UNL     1      -5.090  26.938  48.426  1.00  0.00    -0.023 C 
ATOM     14  C   UNL     1      -7.487  26.967  48.971  1.00  0.00     0.009 C 
ATOM     15  C   UNL     1      -6.480  27.450  47.940  1.00  0.00     0.021 C 
ATOM     16  C   UNL     1      -4.339  28.020  49.278  1.00  0.00     0.008 C 
ATOM     17  C   UNL     1      -4.231  26.586  47.190  1.00  0.00     0.012 C 
ATOM     18  C   UNL     1      -6.601  28.947  47.668  1.00  0.00    -0.067 C 
ATOM     19  C   UNL     1      -4.372  29.421  48.666  1.00  0.00     0.009 C 
ATOM     20  C   UNL     1      -5.825  29.928  48.534  1.00  0.00     0.021 C 
ATOM     21  C   UNL     1      -7.558  29.357  46.810  1.00  0.00    -0.027 C 
ATOM     22  C   UNL     1      -5.942  31.450  48.102  1.00  0.00    -0.023 C 
ATOM     23  C   UNL     1      -7.827  30.797  46.497  1.00  0.00     0.031 C 
ATOM     24  C   UNL     1      -7.398  31.733  47.641  1.00  0.00     0.002 C 
ATOM     25  C   UNL     1      -4.937  31.812  46.960  1.00  0.00     0.010 C 
ATOM     26  C   UNL     1      -5.629  32.323  49.356  1.00  0.00     0.012 C 
ATOM     27  C   UNL     1      -7.629  33.215  47.267  1.00  0.00     0.036 C 
ATOM     28  C   UNL     1      -5.362  32.945  45.997  1.00  0.00     0.032 C 
ATOM     29  C   UNL     1      -6.474  33.896  46.487  1.00  0.00     0.114 C 
BRANCH  29  30
ATOM     30  O   UNL     1      -5.906  34.938  47.245  1.00  0.00    -0.393 OA
ATOM     31  H   UNL     1      -6.384  34.938  48.114  1.00  0.00     0.210 HD
ENDBRANCH  29  30
ENDBRANCH   9  11
ENDBRANCH   1   9
TORSDOF 7
ENDMDL
MODEL 7
REMARK VINA RESULT:    -7.466      3.283      9.025
REMARK INTER + INTRA:         -10.964
REMARK INTER:                  -9.206
REMARK INTRA:                  -1.758
REMARK UNBOUND:                -0.661
REMARK SMILES CC[C@@H](CC[C@H](C)[C@@H]1CC[C@H]2C3=CC[C@@H]4C[C@@H](O)CC[C@]4(C)[C@@H]3CC[C@]21C)C(C)C
REMARK SMILES IDX 5 1 4 2 3 3 2 4 1 5 28 6 29 7 30 8 6 9 7 10 8 11 9 12 26 13
REMARK SMILES IDX 10 14 11 15 25 16 27 17 12 18 24 19 23 20 13 21 21 22 14 23
REMARK SMILES IDX 15 24 20 25 22 26 16 27 19 28 17 29 18 30
REMARK H PARENT 18 31
REMARK Flexibility Score: inf
ROOT
ATOM      1  C   UNL     1      -3.821  23.267  50.384  1.00  0.00     0.004 C 
ENDROOT
BRANCH   1   2
ATOM      2  C   UNL     1      -2.830  22.749  49.319  1.00  0.00     0.004 C 
BRANCH   2   3
ATOM      3  C   UNL     1      -3.445  21.803  48.248  1.00  0.00    -0.009 C 
BRANCH   3   4
ATOM      4  C   UNL     1      -4.954  22.100  48.001  1.00  0.00     0.000 C 
ATOM      5  C   UNL     1      -5.274  23.278  47.071  1.00  0.00     0.004 C 
ENDBRANCH   3   4
BRANCH   3   6
ATOM      6  C   UNL     1      -3.105  20.290  48.476  1.00  0.00    -0.014 C 
ATOM      7  C   UNL     1      -2.028  19.792  47.496  1.00  0.00     0.007 C 
ATOM      8  C   UNL     1      -4.318  19.354  48.439  1.00  0.00     0.007 C 
ENDBRANCH   3   6
ENDBRANCH   2   3
ENDBRANCH   1   2
BRANCH   1   9
ATOM      9  C   UNL     1      -3.527  24.722  50.863  1.00  0.00    -0.011 C 
ATOM     10  C   UNL     1      -3.074  24.742  52.343  1.00  0.00     0.008 C 
BRANCH   9  11
ATOM     11  C   UNL     1      -4.658  25.731  50.449  1.00  0.00    -0.002 C 
ATOM     12  C   UNL     1      -6.047  25.083  50.337  1.00  0.00     0.005 C 
ATOM     13  C   UNL     1      -4.509  26.704  49.206  1.00  0.00    -0.023 C 
ATOM     14  C   UNL     1      -6.858  26.028  49.474  1.00  0.00     0.009 C 
ATOM     15  C   UNL     1      -5.860  26.534  48.445  1.00  0.00     0.021 C 
ATOM     16  C   UNL     1      -4.317  28.170  49.725  1.00  0.00     0.008 C 
ATOM     17  C   UNL     1      -3.351  26.355  48.243  1.00  0.00     0.012 C 
ATOM     18  C   UNL     1      -6.377  27.754  47.687  1.00  0.00    -0.067 C 
ATOM     19  C   UNL     1      -4.654  29.243  48.688  1.00  0.00     0.009 C 
ATOM     20  C   UNL     1      -6.133  29.143  48.256  1.00  0.00     0.021 C 
ATOM     21  C   UNL     1      -7.218  27.544  46.654  1.00  0.00    -0.027 C 
ATOM     22  C   UNL     1      -6.621  30.343  47.340  1.00  0.00    -0.023 C 
ATOM     23  C   UNL     1      -7.846  28.649  45.861  1.00  0.00     0.031 C 
ATOM     24  C   UNL     1      -7.968  29.953  46.672  1.00  0.00     0.002 C 
ATOM     25  C   UNL     1      -5.566  30.710  46.246  1.00  0.00     0.010 C 
ATOM     26  C   UNL     1      -6.853  31.579  48.263  1.00  0.00     0.012 C 
ATOM     27  C   UNL     1      -8.561  31.092  45.812  1.00  0.00     0.036 C 
ATOM     28  C   UNL     1      -6.113  31.308  44.928  1.00  0.00     0.032 C 
ATOM     29  C   UNL     1      -7.538  31.897  44.968  1.00  0.00     0.114 C 
BRANCH  29  30
ATOM     30  O   UNL     1      -7.485  33.237  45.395  1.00  0.00    -0.393 OA
ATOM     31  H   UNL     1      -8.403  33.597  45.291  1.00  0.00     0.210 HD
ENDBRANCH  29  30
ENDBRANCH   9  11
ENDBRANCH   1   9
TORSDOF 7
ENDMDL
MODEL 8
REMARK VINA RESULT:    -7.418      2.962      9.392
REMARK INTER + INTRA:         -10.898
REMARK INTER:                 -10.187
REMARK INTRA:                  -0.712
REMARK UNBOUND:                -0.661
REMARK SMILES CC[C@@H](CC[C@H](C)[C@@H]1CC[C@H]2C3=CC[C@@H]4C[C@@H](O)CC[C@]4(C)[C@@H]3CC[C@]21C)C(C)C
REMARK SMILES IDX 5 1 4 2 3 3 2 4 1 5 28 6 29 7 30 8 6 9 7 10 8 11 9 12 26 13
REMARK SMILES IDX 10 14 11 15 25 16 27 17 12 18 24 19 23 20 13 21 21 22 14 23
REMARK SMILES IDX 15 24 20 25 22 26 16 27 19 28 17 29 18 30
REMARK H PARENT 18 31
REMARK Flexibility Score: inf
ROOT
ATOM      1  C   UNL     1      -2.711  20.372  46.754  1.00  0.00     0.004 C 
ENDROOT
BRANCH   1   2
ATOM      2  C   UNL     1      -1.249  19.974  46.449  1.00  0.00     0.004 C 
BRANCH   2   3
ATOM      3  C   UNL     1      -0.696  18.790  47.293  1.00  0.00    -0.009 C 
BRANCH   3   4
ATOM      4  C   UNL     1       0.857  18.827  47.405  1.00  0.00     0.000 C 
ATOM      5  C   UNL     1       1.640  18.195  46.246  1.00  0.00     0.004 C 
ENDBRANCH   3   4
BRANCH   3   6
ATOM      6  C   UNL     1      -1.289  17.397  46.885  1.00  0.00    -0.014 C 
ATOM      7  C   UNL     1      -1.796  17.395  45.432  1.00  0.00     0.007 C 
ATOM      8  C   UNL     1      -2.385  16.875  47.821  1.00  0.00     0.007 C 
ENDBRANCH   3   6
ENDBRANCH   2   3
ENDBRANCH   1   2
BRANCH   1   9
ATOM      9  C   UNL     1      -2.963  20.745  48.247  1.00  0.00    -0.011 C 
ATOM     10  C   UNL     1      -4.087  19.873  48.859  1.00  0.00     0.008 C 
BRANCH   9  11
ATOM     11  C   UNL     1      -3.064  22.297  48.469  1.00  0.00    -0.002 C 
ATOM     12  C   UNL     1      -2.861  22.722  49.932  1.00  0.00     0.005 C 
ATOM     13  C   UNL     1      -4.276  23.154  47.911  1.00  0.00    -0.023 C 
ATOM     14  C   UNL     1      -3.476  24.103  50.033  1.00  0.00     0.009 C 
ATOM     15  C   UNL     1      -4.697  24.029  49.131  1.00  0.00     0.021 C 
ATOM     16  C   UNL     1      -3.772  24.033  46.714  1.00  0.00     0.008 C 
ATOM     17  C   UNL     1      -5.497  22.327  47.448  1.00  0.00     0.012 C 
ATOM     18  C   UNL     1      -5.271  25.409  48.818  1.00  0.00    -0.067 C 
ATOM     19  C   UNL     1      -4.665  25.237  46.411  1.00  0.00     0.009 C 
ATOM     20  C   UNL     1      -4.734  26.187  47.627  1.00  0.00     0.021 C 
ATOM     21  C   UNL     1      -6.080  25.977  49.735  1.00  0.00    -0.027 C 
ATOM     22  C   UNL     1      -5.470  27.562  47.331  1.00  0.00    -0.023 C 
ATOM     23  C   UNL     1      -6.665  27.348  49.586  1.00  0.00     0.031 C 
ATOM     24  C   UNL     1      -5.809  28.253  48.681  1.00  0.00     0.002 C 
ATOM     25  C   UNL     1      -6.772  27.359  46.490  1.00  0.00     0.010 C 
ATOM     26  C   UNL     1      -4.480  28.466  46.535  1.00  0.00     0.012 C 
ATOM     27  C   UNL     1      -6.466  29.639  48.494  1.00  0.00     0.036 C 
ATOM     28  C   UNL     1      -7.902  28.394  46.701  1.00  0.00     0.032 C 
ATOM     29  C   UNL     1      -7.504  29.738  47.345  1.00  0.00     0.114 C 
BRANCH  29  30
ATOM     30  O   UNL     1      -7.061  30.628  46.349  1.00  0.00    -0.393 OA
ATOM     31  H   UNL     1      -6.078  30.699  46.460  1.00  0.00     0.210 HD
ENDBRANCH  29  30
ENDBRANCH   9  11
ENDBRANCH   1   9
TORSDOF 7
ENDMDL
