MODEL 1
REMARK VINA RESULT:    -3.599      0.000      0.000
REMARK INTER + INTRA:          -3.705
REMARK INTER:                  -3.705
REMARK INTRA:                   0.000
REMARK UNBOUND:                 0.000
REMARK SMILES CC1(C)[C@H]2CC[C@](C)(C2)[C@H]1O
REMARK SMILES IDX 1 1 2 2 4 3 5 4 6 5 7 6 9 7 10 8 8 9 3 10 11 11
REMARK H PARENT 11 12
REMARK Flexibility Score: inf
ROOT
ATOM      1  C   UNL     1     150.451 144.022 137.660  1.00  0.00     0.014 C 
ATOM      2  C   UNL     1     150.021 145.467 138.008  1.00  0.00    -0.006 C 
ATOM      3  C   UNL     1     150.192 145.726 139.545  1.00  0.00    -0.002 C 
ATOM      4  C   UNL     1     150.029 147.223 139.882  1.00  0.00     0.005 C 
ATOM      5  C   UNL     1     148.540 147.474 139.600  1.00  0.00     0.010 C 
ATOM      6  C   UNL     1     148.015 146.062 139.249  1.00  0.00    -0.006 C 
ATOM      7  C   UNL     1     148.891 145.188 140.120  1.00  0.00     0.013 C 
ATOM      8  C   UNL     1     148.477 145.650 137.828  1.00  0.00     0.126 C 
ATOM      9  C   UNL     1     146.513 145.880 139.494  1.00  0.00     0.014 C 
ATOM     10  C   UNL     1     150.866 146.426 137.129  1.00  0.00     0.014 C 
ENDROOT
BRANCH   8  11
ATOM     11  O   UNL     1     148.129 146.623 136.876  1.00  0.00    -0.392 OA
ATOM     12  H   UNL     1     148.003 146.143 136.016  1.00  0.00     0.211 HD
ENDBRANCH   8  11
TORSDOF 1
ENDMDL
MODEL 2
REMARK VINA RESULT:    -3.449     12.485     14.298
REMARK INTER + INTRA:          -3.549
REMARK INTER:                  -3.549
REMARK INTRA:                   0.000
REMARK UNBOUND:                 0.000
REMARK SMILES CC1(C)[C@H]2CC[C@](C)(C2)[C@H]1O
REMARK SMILES IDX 1 1 2 2 4 3 5 4 6 5 7 6 9 7 10 8 8 9 3 10 11 11
REMARK H PARENT 11 12
REMARK Flexibility Score: inf
ROOT
ATOM      1  C   UNL     1     133.267 149.958 139.784  1.00  0.00     0.014 C 
ATOM      2  C   UNL     1     134.556 149.225 139.339  1.00  0.00    -0.006 C 
ATOM      3  C   UNL     1     135.785 149.748 140.161  1.00  0.00    -0.002 C 
ATOM      4  C   UNL     1     137.026 148.861 139.934  1.00  0.00     0.005 C 
ATOM      5  C   UNL     1     137.382 149.142 138.466  1.00  0.00     0.010 C 
ATOM      6  C   UNL     1     136.368 150.242 138.073  1.00  0.00    -0.006 C 
ATOM      7  C   UNL     1     136.204 150.985 139.382  1.00  0.00     0.013 C 
ATOM      8  C   UNL     1     134.956 149.633 137.881  1.00  0.00     0.126 C 
ATOM      9  C   UNL     1     136.830 151.125 136.909  1.00  0.00     0.014 C 
ATOM     10  C   UNL     1     134.306 147.704 139.511  1.00  0.00     0.014 C 
ENDROOT
BRANCH   8  11
ATOM     11  O   UNL     1     134.983 148.556 136.979  1.00  0.00    -0.392 OA
ATOM     12  H   UNL     1     135.474 147.823 137.432  1.00  0.00     0.211 HD
ENDBRANCH   8  11
TORSDOF 1
ENDMDL
MODEL 3
REMARK VINA RESULT:    -3.430      0.947      3.364
REMARK INTER + INTRA:          -3.530
REMARK INTER:                  -3.530
REMARK INTRA:                   0.000
REMARK UNBOUND:                 0.000
REMARK SMILES CC1(C)[C@H]2CC[C@](C)(C2)[C@H]1O
REMARK SMILES IDX 1 1 2 2 4 3 5 4 6 5 7 6 9 7 10 8 8 9 3 10 11 11
REMARK H PARENT 11 12
REMARK Flexibility Score: inf
ROOT
ATOM      1  C   UNL     1     148.232 147.214 140.377  1.00  0.00     0.014 C 
ATOM      2  C   UNL     1     148.085 146.033 139.386  1.00  0.00    -0.006 C 
ATOM      3  C   UNL     1     148.786 144.754 139.964  1.00  0.00    -0.002 C 
ATOM      4  C   UNL     1     148.432 143.501 139.135  1.00  0.00     0.005 C 
ATOM      5  C   UNL     1     149.136 143.769 137.796  1.00  0.00     0.010 C 
ATOM      6  C   UNL     1     149.899 145.087 138.068  1.00  0.00    -0.006 C 
ATOM      7  C   UNL     1     150.233 144.946 139.538  1.00  0.00     0.013 C 
ATOM      8  C   UNL     1     148.918 146.287 138.085  1.00  0.00     0.126 C 
ATOM      9  C   UNL     1     151.122 145.294 137.168  1.00  0.00     0.014 C 
ATOM     10  C   UNL     1     146.569 145.835 139.125  1.00  0.00     0.014 C 
ENDROOT
BRANCH   8  11
ATOM     11  O   UNL     1     148.141 146.328 136.914  1.00  0.00    -0.392 OA
ATOM     12  H   UNL     1     147.844 147.269 136.807  1.00  0.00     0.211 HD
ENDBRANCH   8  11
TORSDOF 1
ENDMDL
MODEL 4
REMARK VINA RESULT:    -3.356      2.809      4.643
REMARK INTER + INTRA:          -3.454
REMARK INTER:                  -3.454
REMARK INTRA:                   0.000
REMARK UNBOUND:                 0.000
REMARK SMILES CC1(C)[C@H]2CC[C@](C)(C2)[C@H]1O
REMARK SMILES IDX 1 1 2 2 4 3 5 4 6 5 7 6 9 7 10 8 8 9 3 10 11 11
REMARK H PARENT 11 12
REMARK Flexibility Score: inf
ROOT
ATOM      1  C   UNL     1     147.252 144.556 141.048  1.00  0.00     0.014 C 
ATOM      2  C   UNL     1     146.778 144.224 139.612  1.00  0.00    -0.006 C 
ATOM      3  C   UNL     1     145.981 142.873 139.606  1.00  0.00    -0.002 C 
ATOM      4  C   UNL     1     145.271 142.649 138.255  1.00  0.00     0.005 C 
ATOM      5  C   UNL     1     146.444 142.423 137.288  1.00  0.00     0.010 C 
ATOM      6  C   UNL     1     147.670 142.431 138.231  1.00  0.00    -0.006 C 
ATOM      7  C   UNL     1     147.086 141.835 139.494  1.00  0.00     0.013 C 
ATOM      8  C   UNL     1     147.993 143.876 138.688  1.00  0.00     0.126 C 
ATOM      9  C   UNL     1     148.880 141.666 137.683  1.00  0.00     0.014 C 
ATOM     10  C   UNL     1     145.941 145.430 139.111  1.00  0.00     0.014 C 
ENDROOT
BRANCH   8  11
ATOM     11  O   UNL     1     148.133 144.740 137.588  1.00  0.00    -0.392 OA
ATOM     12  H   UNL     1     148.875 144.377 137.039  1.00  0.00     0.211 HD
ENDBRANCH   8  11
TORSDOF 1
ENDMDL
MODEL 5
REMARK VINA RESULT:    -3.353     15.899     17.054
REMARK INTER + INTRA:          -3.451
REMARK INTER:                  -3.451
REMARK INTRA:                   0.000
REMARK UNBOUND:                 0.000
REMARK SMILES CC1(C)[C@H]2CC[C@](C)(C2)[C@H]1O
REMARK SMILES IDX 1 1 2 2 4 3 5 4 6 5 7 6 9 7 10 8 8 9 3 10 11 11
REMARK H PARENT 11 12
REMARK Flexibility Score: inf
ROOT
ATOM      1  C   UNL     1     135.167 139.522 136.875  1.00  0.00     0.014 C 
ATOM      2  C   UNL     1     134.160 139.078 137.964  1.00  0.00    -0.006 C 
ATOM      3  C   UNL     1     134.776 139.295 139.389  1.00  0.00    -0.002 C 
ATOM      4  C   UNL     1     133.711 139.118 140.491  1.00  0.00     0.005 C 
ATOM      5  C   UNL     1     133.395 137.616 140.420  1.00  0.00     0.010 C 
ATOM      6  C   UNL     1     134.404 137.104 139.365  1.00  0.00    -0.006 C 
ATOM      7  C   UNL     1     135.583 138.024 139.601  1.00  0.00     0.013 C 
ATOM      8  C   UNL     1     133.960 137.525 137.941  1.00  0.00     0.126 C 
ATOM      9  C   UNL     1     134.740 135.615 139.497  1.00  0.00     0.014 C 
ATOM     10  C   UNL     1     132.850 139.877 137.735  1.00  0.00     0.014 C 
ENDROOT
BRANCH   8  11
ATOM     11  O   UNL     1     132.636 137.129 137.681  1.00  0.00    -0.392 OA
ATOM     12  H   UNL     1     132.091 137.958 137.675  1.00  0.00     0.211 HD
ENDBRANCH   8  11
TORSDOF 1
ENDMDL
MODEL 6
REMARK VINA RESULT:    -3.329     12.318     13.491
REMARK INTER + INTRA:          -3.427
REMARK INTER:                  -3.427
REMARK INTRA:                   0.000
REMARK UNBOUND:                 0.000
REMARK SMILES CC1(C)[C@H]2CC[C@](C)(C2)[C@H]1O
REMARK SMILES IDX 1 1 2 2 4 3 5 4 6 5 7 6 9 7 10 8 8 9 3 10 11 11
REMARK H PARENT 11 12
REMARK Flexibility Score: inf
ROOT
ATOM      1  C   UNL     1     142.117 135.110 136.877  1.00  0.00     0.014 C 
ATOM      2  C   UNL     1     142.545 134.133 137.998  1.00  0.00    -0.006 C 
ATOM      3  C   UNL     1     142.315 134.791 139.403  1.00  0.00    -0.002 C 
ATOM      4  C   UNL     1     142.477 133.757 140.537  1.00  0.00     0.005 C 
ATOM      5  C   UNL     1     143.978 133.434 140.491  1.00  0.00     0.010 C 
ATOM      6  C   UNL     1     144.505 134.410 139.413  1.00  0.00    -0.006 C 
ATOM      7  C   UNL     1     143.587 135.598 139.605  1.00  0.00     0.013 C 
ATOM      8  C   UNL     1     144.097 133.927 137.998  1.00  0.00     0.126 C 
ATOM      9  C   UNL     1     145.994 134.744 139.552  1.00  0.00     0.014 C 
ATOM     10  C   UNL     1     141.744 132.820 137.799  1.00  0.00     0.014 C 
ENDROOT
BRANCH   8  11
ATOM     11  O   UNL     1     144.491 132.595 137.780  1.00  0.00    -0.392 OA
ATOM     12  H   UNL     1     145.455 132.622 137.545  1.00  0.00     0.211 HD
ENDBRANCH   8  11
TORSDOF 1
ENDMDL
MODEL 7
REMARK VINA RESULT:    -3.325     15.069     16.609
REMARK INTER + INTRA:          -3.422
REMARK INTER:                  -3.422
REMARK INTRA:                   0.000
REMARK UNBOUND:                 0.000
REMARK SMILES CC1(C)[C@H]2CC[C@](C)(C2)[C@H]1O
REMARK SMILES IDX 1 1 2 2 4 3 5 4 6 5 7 6 9 7 10 8 8 9 3 10 11 11
REMARK H PARENT 11 12
REMARK Flexibility Score: inf
ROOT
ATOM      1  C   UNL     1     134.436 137.096 141.046  1.00  0.00     0.014 C 
ATOM      2  C   UNL     1     134.862 137.385 139.586  1.00  0.00    -0.006 C 
ATOM      3  C   UNL     1     135.681 138.721 139.517  1.00  0.00    -0.002 C 
ATOM      4  C   UNL     1     136.343 138.899 138.135  1.00  0.00     0.005 C 
ATOM      5  C   UNL     1     135.140 139.123 137.207  1.00  0.00     0.010 C 
ATOM      6  C   UNL     1     133.949 139.159 138.194  1.00  0.00    -0.006 C 
ATOM      7  C   UNL     1     134.589 139.775 139.420  1.00  0.00     0.013 C 
ATOM      8  C   UNL     1     133.620 137.731 138.699  1.00  0.00     0.126 C 
ATOM      9  C   UNL     1     132.733 139.931 137.672  1.00  0.00     0.014 C 
ATOM     10  C   UNL     1     135.660 136.152 139.085  1.00  0.00     0.014 C 
ENDROOT
BRANCH   8  11
ATOM     11  O   UNL     1     133.424 136.843 137.627  1.00  0.00    -0.392 OA
ATOM     12  H   UNL     1     133.657 135.939 137.965  1.00  0.00     0.211 HD
ENDBRANCH   8  11
TORSDOF 1
ENDMDL
MODEL 8
REMARK VINA RESULT:    -3.313      9.926     11.444
REMARK INTER + INTRA:          -3.410
REMARK INTER:                  -3.410
REMARK INTRA:                   0.000
REMARK UNBOUND:                 0.000
REMARK SMILES CC1(C)[C@H]2CC[C@](C)(C2)[C@H]1O
REMARK SMILES IDX 1 1 2 2 4 3 5 4 6 5 7 6 9 7 10 8 8 9 3 10 11 11
REMARK H PARENT 11 12
REMARK Flexibility Score: inf
ROOT
ATOM      1  C   UNL     1     137.051 147.262 141.073  1.00  0.00     0.014 C 
ATOM      2  C   UNL     1     137.310 146.778 139.625  1.00  0.00    -0.006 C 
ATOM      3  C   UNL     1     138.639 145.947 139.564  1.00  0.00    -0.002 C 
ATOM      4  C   UNL     1     138.787 145.231 138.206  1.00  0.00     0.005 C 
ATOM      5  C   UNL     1     139.002 146.396 137.228  1.00  0.00     0.010 C 
ATOM      6  C   UNL     1     139.065 147.624 138.168  1.00  0.00    -0.006 C 
ATOM      7  C   UNL     1     139.698 147.026 139.406  1.00  0.00     0.013 C 
ATOM      8  C   UNL     1     137.648 147.983 138.685  1.00  0.00     0.126 C 
ATOM      9  C   UNL     1     139.836 148.813 137.585  1.00  0.00     0.014 C 
ATOM     10  C   UNL     1     136.063 145.972 139.177  1.00  0.00     0.014 C 
ENDROOT
BRANCH   8  11
ATOM     11  O   UNL     1     136.742 148.144 137.622  1.00  0.00    -0.392 OA
ATOM     12  H   UNL     1     135.842 148.223 138.031  1.00  0.00     0.211 HD
ENDBRANCH   8  11
TORSDOF 1
ENDMDL
MODEL 9
REMARK VINA RESULT:    -0.769     13.260     14.378
REMARK INTER + INTRA:          -0.791
REMARK INTER:                  -0.791
REMARK INTRA:                   0.000
REMARK UNBOUND:                 0.000
REMARK SMILES CC1(C)[C@H]2CC[C@](C)(C2)[C@H]1O
REMARK SMILES IDX 1 1 2 2 4 3 5 4 6 5 7 6 9 7 10 8 8 9 3 10 11 11
REMARK H PARENT 11 12
REMARK Flexibility Score: inf
ROOT
ATOM      1  C   UNL     1     137.029 150.835 138.084  1.00  0.00     0.014 C 
ATOM      2  C   UNL     1     135.663 150.122 138.237  1.00  0.00    -0.006 C 
ATOM      3  C   UNL     1     135.220 150.125 139.742  1.00  0.00    -0.002 C 
ATOM      4  C   UNL     1     133.754 149.666 139.892  1.00  0.00     0.005 C 
ATOM      5  C   UNL     1     133.821 148.182 139.501  1.00  0.00     0.010 C 
ATOM      6  C   UNL     1     135.336 147.952 139.287  1.00  0.00    -0.006 C 
ATOM      7  C   UNL     1     135.933 148.904 140.301  1.00  0.00     0.013 C 
ATOM      8  C   UNL     1     135.798 148.589 137.952  1.00  0.00     0.126 C 
ATOM      9  C   UNL     1     135.774 146.495 139.468  1.00  0.00     0.014 C 
ATOM     10  C   UNL     1     134.658 150.843 137.301  1.00  0.00     0.014 C 
ENDROOT
BRANCH   8  11
ATOM     11  O   UNL     1     135.012 148.142 136.875  1.00  0.00    -0.392 OA
ATOM     12  H   UNL     1     135.645 147.877 136.158  1.00  0.00     0.211 HD
ENDBRANCH   8  11
TORSDOF 1
ENDMDL
