MODEL 1
REMARK VINA RESULT:    -5.132      0.000      0.000
REMARK INTER + INTRA:          -9.516
REMARK INTER:                  -8.132
REMARK INTRA:                  -1.383
REMARK UNBOUND:                -1.383
REMARK SMILES CCCCCCCCCCCC(=O)[O-]
REMARK SMILES IDX 7 1 8 2 9 3 10 4 11 5 12 6 13 7 14 8 6 9 5 10 4 11 3 12 2 13
REMARK SMILES IDX 1 14
REMARK H PARENT
REMARK Flexibility Score: inf
ROOT
ATOM      1  C   UNL     1      23.820  12.308   0.502  1.00  0.00     0.000 C 
ENDROOT
BRANCH   1   2
ATOM      2  C   UNL     1      22.464  11.824   1.039  1.00  0.00     0.000 C 
BRANCH   2   3
ATOM      3  C   UNL     1      21.702  10.959   0.019  1.00  0.00     0.000 C 
BRANCH   3   4
ATOM      4  C   UNL     1      20.398  11.620  -0.457  1.00  0.00     0.006 C 
BRANCH   4   5
ATOM      5  C   UNL     1      19.870  12.663   0.536  1.00  0.00     0.053 C 
BRANCH   5   6
ATOM      6  C   UNL     1      19.151  13.757  -0.189  1.00  0.00     0.041 C 
ATOM      7  O   UNL     1      19.112  14.919   0.296  1.00  0.00    -0.550 OA
ATOM      8  O   UNL     1      18.565  13.506  -1.422  1.00  0.00    -0.550 OA
ENDBRANCH   5   6
ENDBRANCH   4   5
ENDBRANCH   3   4
ENDBRANCH   2   3
ENDBRANCH   1   2
BRANCH   1   9
ATOM      9  C   UNL     1      24.059  13.806   0.761  1.00  0.00     0.000 C 
BRANCH   9  10
ATOM     10  C   UNL     1      22.818  14.662   0.432  1.00  0.00    -0.000 C 
BRANCH  10  11
ATOM     11  C   UNL     1      22.533  15.766   1.469  1.00  0.00    -0.000 C 
BRANCH  11  12
ATOM     12  C   UNL     1      21.743  15.303   2.706  1.00  0.00    -0.000 C 
BRANCH  12  13
ATOM     13  C   UNL     1      22.640  15.062   3.928  1.00  0.00    -0.003 C 
ATOM     14  C   UNL     1      22.679  13.582   4.295  1.00  0.00     0.004 C 
ENDBRANCH  12  13
ENDBRANCH  11  12
ENDBRANCH  10  11
ENDBRANCH   9  10
ENDBRANCH   1   9
TORSDOF 10
ENDMDL
MODEL 2
REMARK VINA RESULT:    -5.038      2.419      5.080
REMARK INTER + INTRA:          -9.366
REMARK INTER:                  -8.167
REMARK INTRA:                  -1.199
REMARK UNBOUND:                -1.383
REMARK SMILES CCCCCCCCCCCC(=O)[O-]
REMARK SMILES IDX 7 1 8 2 9 3 10 4 11 5 12 6 13 7 14 8 6 9 5 10 4 11 3 12 2 13
REMARK SMILES IDX 1 14
REMARK H PARENT
REMARK Flexibility Score: inf
ROOT
ATOM      1  C   UNL     1      20.807  12.528   0.796  1.00  0.00     0.000 C 
ENDROOT
BRANCH   1   2
ATOM      2  C   UNL     1      22.185  11.862   0.659  1.00  0.00     0.000 C 
BRANCH   2   3
ATOM      3  C   UNL     1      23.309  12.883   0.406  1.00  0.00     0.000 C 
BRANCH   3   4
ATOM      4  C   UNL     1      22.774  14.306   0.180  1.00  0.00     0.006 C 
BRANCH   4   5
ATOM      5  C   UNL     1      23.178  15.272   1.301  1.00  0.00     0.053 C 
BRANCH   5   6
ATOM      6  C   UNL     1      21.966  15.915   1.898  1.00  0.00     0.041 C 
ATOM      7  O   UNL     1      21.081  16.412   1.153  1.00  0.00    -0.550 OA
ATOM      8  O   UNL     1      21.791  15.921   3.276  1.00  0.00    -0.550 OA
ENDBRANCH   5   6
ENDBRANCH   4   5
ENDBRANCH   3   4
ENDBRANCH   2   3
ENDBRANCH   1   2
BRANCH   1   9
ATOM      9  C   UNL     1      19.827  12.095  -0.310  1.00  0.00     0.000 C 
BRANCH   9  10
ATOM     10  C   UNL     1      19.499  13.246  -1.284  1.00  0.00    -0.000 C 
BRANCH  10  11
ATOM     11  C   UNL     1      19.873  12.945  -2.748  1.00  0.00    -0.000 C 
BRANCH  11  12
ATOM     12  C   UNL     1      21.132  12.079  -2.929  1.00  0.00    -0.000 C 
BRANCH  12  13
ATOM     13  C   UNL     1      22.381  12.908  -3.261  1.00  0.00    -0.003 C 
ATOM     14  C   UNL     1      22.783  12.730  -4.722  1.00  0.00     0.004 C 
ENDBRANCH  12  13
ENDBRANCH  11  12
ENDBRANCH  10  11
ENDBRANCH   9  10
ENDBRANCH   1   9
TORSDOF 10
ENDMDL
MODEL 3
REMARK VINA RESULT:    -5.022      2.576      4.166
REMARK INTER + INTRA:          -9.341
REMARK INTER:                  -7.712
REMARK INTRA:                  -1.629
REMARK UNBOUND:                -1.383
REMARK SMILES CCCCCCCCCCCC(=O)[O-]
REMARK SMILES IDX 7 1 8 2 9 3 10 4 11 5 12 6 13 7 14 8 6 9 5 10 4 11 3 12 2 13
REMARK SMILES IDX 1 14
REMARK H PARENT
REMARK Flexibility Score: inf
ROOT
ATOM      1  C   UNL     1      20.725  12.098  -2.659  1.00  0.00     0.000 C 
ENDROOT
BRANCH   1   2
ATOM      2  C   UNL     1      22.238  12.092  -2.396  1.00  0.00     0.000 C 
BRANCH   2   3
ATOM      3  C   UNL     1      22.686  13.269  -1.511  1.00  0.00     0.000 C 
BRANCH   3   4
ATOM      4  C   UNL     1      23.355  12.806  -0.207  1.00  0.00     0.006 C 
BRANCH   4   5
ATOM      5  C   UNL     1      22.403  12.004   0.690  1.00  0.00     0.053 C 
BRANCH   5   6
ATOM      6  C   UNL     1      22.622  12.356   2.128  1.00  0.00     0.041 C 
ATOM      7  O   UNL     1      21.881  11.865   3.020  1.00  0.00    -0.550 OA
ATOM      8  O   UNL     1      23.675  13.186   2.489  1.00  0.00    -0.550 OA
ENDBRANCH   5   6
ENDBRANCH   4   5
ENDBRANCH   3   4
ENDBRANCH   2   3
ENDBRANCH   1   2
BRANCH   1   9
ATOM      9  C   UNL     1      20.034  13.361  -2.116  1.00  0.00     0.000 C 
BRANCH   9  10
ATOM     10  C   UNL     1      18.967  13.032  -1.050  1.00  0.00    -0.000 C 
BRANCH  10  11
ATOM     11  C   UNL     1      19.144  13.814   0.267  1.00  0.00    -0.000 C 
BRANCH  11  12
ATOM     12  C   UNL     1      19.887  15.154   0.128  1.00  0.00    -0.000 C 
BRANCH  12  13
ATOM     13  C   UNL     1      20.829  15.435   1.308  1.00  0.00    -0.003 C 
ATOM     14  C   UNL     1      22.090  16.156   0.842  1.00  0.00     0.004 C 
ENDBRANCH  12  13
ENDBRANCH  11  12
ENDBRANCH  10  11
ENDBRANCH   9  10
ENDBRANCH   1   9
TORSDOF 10
ENDMDL
MODEL 4
REMARK VINA RESULT:    -5.006      2.863      4.580
REMARK INTER + INTRA:          -9.316
REMARK INTER:                  -7.857
REMARK INTRA:                  -1.458
REMARK UNBOUND:                -1.383
REMARK SMILES CCCCCCCCCCCC(=O)[O-]
REMARK SMILES IDX 7 1 8 2 9 3 10 4 11 5 12 6 13 7 14 8 6 9 5 10 4 11 3 12 2 13
REMARK SMILES IDX 1 14
REMARK H PARENT
REMARK Flexibility Score: inf
ROOT
ATOM      1  C   UNL     1      22.804  13.329  -1.458  1.00  0.00     0.000 C 
ENDROOT
BRANCH   1   2
ATOM      2  C   UNL     1      23.416  12.820  -0.144  1.00  0.00     0.000 C 
BRANCH   2   3
ATOM      3  C   UNL     1      22.680  11.588   0.411  1.00  0.00     0.000 C 
BRANCH   3   4
ATOM      4  C   UNL     1      22.111  11.826   1.819  1.00  0.00     0.006 C 
BRANCH   4   5
ATOM      5  C   UNL     1      22.267  13.281   2.279  1.00  0.00     0.053 C 
BRANCH   5   6
ATOM      6  C   UNL     1      22.860  13.334   3.652  1.00  0.00     0.041 C 
ATOM      7  O   UNL     1      23.346  12.295   4.173  1.00  0.00    -0.550 OA
ATOM      8  O   UNL     1      22.919  14.539   4.338  1.00  0.00    -0.550 OA
ENDBRANCH   5   6
ENDBRANCH   4   5
ENDBRANCH   3   4
ENDBRANCH   2   3
ENDBRANCH   1   2
BRANCH   1   9
ATOM      9  C   UNL     1      22.418  12.185  -2.413  1.00  0.00     0.000 C 
BRANCH   9  10
ATOM     10  C   UNL     1      20.906  12.167  -2.722  1.00  0.00    -0.000 C 
BRANCH  10  11
ATOM     11  C   UNL     1      20.144  13.387  -2.168  1.00  0.00    -0.000 C 
BRANCH  11  12
ATOM     12  C   UNL     1      18.964  13.047  -1.242  1.00  0.00    -0.000 C 
BRANCH  12  13
ATOM     13  C   UNL     1      19.149  13.594   0.181  1.00  0.00    -0.003 C 
ATOM     14  C   UNL     1      19.815  14.967   0.157  1.00  0.00     0.004 C 
ENDBRANCH  12  13
ENDBRANCH  11  12
ENDBRANCH  10  11
ENDBRANCH   9  10
ENDBRANCH   1   9
TORSDOF 10
ENDMDL
MODEL 5
REMARK VINA RESULT:    -4.996      2.585      5.171
REMARK INTER + INTRA:          -9.300
REMARK INTER:                  -7.573
REMARK INTRA:                  -1.727
REMARK UNBOUND:                -1.383
REMARK SMILES CCCCCCCCCCCC(=O)[O-]
REMARK SMILES IDX 7 1 8 2 9 3 10 4 11 5 12 6 13 7 14 8 6 9 5 10 4 11 3 12 2 13
REMARK SMILES IDX 1 14
REMARK H PARENT
REMARK Flexibility Score: inf
ROOT
ATOM      1  C   UNL     1      19.678  14.833  -0.042  1.00  0.00     0.000 C 
ENDROOT
BRANCH   1   2
ATOM      2  C   UNL     1      20.454  15.382   1.165  1.00  0.00     0.000 C 
BRANCH   2   3
ATOM      3  C   UNL     1      21.827  15.955   0.769  1.00  0.00     0.000 C 
BRANCH   3   4
ATOM      4  C   UNL     1      22.947  15.517   1.727  1.00  0.00     0.006 C 
BRANCH   4   5
ATOM      5  C   UNL     1      22.407  14.836   2.992  1.00  0.00     0.053 C 
BRANCH   5   6
ATOM      6  C   UNL     1      23.135  13.554   3.246  1.00  0.00     0.041 C 
ATOM      7  O   UNL     1      22.573  12.620   3.877  1.00  0.00    -0.550 OA
ATOM      8  O   UNL     1      24.417  13.371   2.744  1.00  0.00    -0.550 OA
ENDBRANCH   5   6
ENDBRANCH   4   5
ENDBRANCH   3   4
ENDBRANCH   2   3
ENDBRANCH   1   2
BRANCH   1   9
ATOM      9  C   UNL     1      19.281  13.356   0.132  1.00  0.00     0.000 C 
BRANCH   9  10
ATOM     10  C   UNL     1      20.395  12.527   0.804  1.00  0.00    -0.000 C 
BRANCH  10  11
ATOM     11  C   UNL     1      21.327  11.815  -0.196  1.00  0.00    -0.000 C 
BRANCH  11  12
ATOM     12  C   UNL     1      22.737  12.421  -0.311  1.00  0.00    -0.000 C 
BRANCH  12  13
ATOM     13  C   UNL     1      22.919  13.265  -1.580  1.00  0.00    -0.003 C 
ATOM     14  C   UNL     1      21.906  12.870  -2.651  1.00  0.00     0.004 C 
ENDBRANCH  12  13
ENDBRANCH  11  12
ENDBRANCH  10  11
ENDBRANCH   9  10
ENDBRANCH   1   9
TORSDOF 10
ENDMDL
MODEL 6
REMARK VINA RESULT:    -4.990      1.353      3.420
REMARK INTER + INTRA:          -9.291
REMARK INTER:                  -7.817
REMARK INTRA:                  -1.474
REMARK UNBOUND:                -1.383
REMARK SMILES CCCCCCCCCCCC(=O)[O-]
REMARK SMILES IDX 7 1 8 2 9 3 10 4 11 5 12 6 13 7 14 8 6 9 5 10 4 11 3 12 2 13
REMARK SMILES IDX 1 14
REMARK H PARENT
REMARK Flexibility Score: inf
ROOT
ATOM      1  C   UNL     1      22.667  15.794   1.895  1.00  0.00     0.000 C 
ENDROOT
BRANCH   1   2
ATOM      2  C   UNL     1      21.558  16.171   0.900  1.00  0.00     0.000 C 
BRANCH   2   3
ATOM      3  C   UNL     1      21.025  14.954   0.123  1.00  0.00     0.000 C 
BRANCH   3   4
ATOM      4  C   UNL     1      19.532  14.698   0.381  1.00  0.00     0.006 C 
BRANCH   4   5
ATOM      5  C   UNL     1      19.128  13.243   0.107  1.00  0.00     0.053 C 
BRANCH   5   6
ATOM      6  C   UNL     1      19.534  12.841  -1.277  1.00  0.00     0.041 C 
ATOM      7  O   UNL     1      20.250  11.821  -1.455  1.00  0.00    -0.550 OA
ATOM      8  O   UNL     1      19.080  13.564  -2.372  1.00  0.00    -0.550 OA
ENDBRANCH   5   6
ENDBRANCH   4   5
ENDBRANCH   3   4
ENDBRANCH   2   3
ENDBRANCH   1   2
BRANCH   1   9
ATOM      9  C   UNL     1      22.137  15.605   3.327  1.00  0.00     0.000 C 
BRANCH   9  10
ATOM     10  C   UNL     1      22.593  14.267   3.947  1.00  0.00    -0.000 C 
BRANCH  10  11
ATOM     11  C   UNL     1      23.056  13.227   2.908  1.00  0.00    -0.000 C 
BRANCH  11  12
ATOM     12  C   UNL     1      21.976  12.221   2.474  1.00  0.00    -0.000 C 
BRANCH  12  13
ATOM     13  C   UNL     1      22.366  11.440   1.211  1.00  0.00    -0.003 C 
ATOM     14  C   UNL     1      23.320  12.250   0.338  1.00  0.00     0.004 C 
ENDBRANCH  12  13
ENDBRANCH  11  12
ENDBRANCH  10  11
ENDBRANCH   9  10
ENDBRANCH   1   9
TORSDOF 10
ENDMDL
MODEL 7
REMARK VINA RESULT:    -4.980      2.097      3.284
REMARK INTER + INTRA:          -9.275
REMARK INTER:                  -7.626
REMARK INTRA:                  -1.649
REMARK UNBOUND:                -1.383
REMARK SMILES CCCCCCCCCCCC(=O)[O-]
REMARK SMILES IDX 7 1 8 2 9 3 10 4 11 5 12 6 13 7 14 8 6 9 5 10 4 11 3 12 2 13
REMARK SMILES IDX 1 14
REMARK H PARENT
REMARK Flexibility Score: inf
ROOT
ATOM      1  C   UNL     1      20.611  15.297   1.105  1.00  0.00     0.000 C 
ENDROOT
BRANCH   1   2
ATOM      2  C   UNL     1      19.757  14.722  -0.034  1.00  0.00     0.000 C 
BRANCH   2   3
ATOM      3  C   UNL     1      19.160  13.346   0.313  1.00  0.00     0.000 C 
BRANCH   3   4
ATOM      4  C   UNL     1      19.646  12.237  -0.633  1.00  0.00     0.006 C 
BRANCH   4   5
ATOM      5  C   UNL     1      19.968  12.761  -2.039  1.00  0.00     0.053 C 
BRANCH   5   6
ATOM      6  C   UNL     1      21.206  12.109  -2.568  1.00  0.00     0.041 C 
ATOM      7  O   UNL     1      21.793  12.586  -3.575  1.00  0.00    -0.550 OA
ATOM      8  O   UNL     1      21.740  11.002  -1.921  1.00  0.00    -0.550 OA
ENDBRANCH   5   6
ENDBRANCH   4   5
ENDBRANCH   3   4
ENDBRANCH   2   3
ENDBRANCH   1   2
BRANCH   1   9
ATOM      9  C   UNL     1      22.033  15.669   0.649  1.00  0.00     0.000 C 
BRANCH   9  10
ATOM     10  C   UNL     1      22.766  14.479  -0.006  1.00  0.00    -0.000 C 
BRANCH  10  11
ATOM     11  C   UNL     1      23.502  13.573   1.000  1.00  0.00    -0.000 C 
BRANCH  11  12
ATOM     12  C   UNL     1      22.826  12.215   1.261  1.00  0.00    -0.000 C 
BRANCH  12  13
ATOM     13  C   UNL     1      21.970  12.214   2.536  1.00  0.00    -0.003 C 
ATOM     14  C   UNL     1      22.528  13.184   3.572  1.00  0.00     0.004 C 
ENDBRANCH  12  13
ENDBRANCH  11  12
ENDBRANCH  10  11
ENDBRANCH   9  10
ENDBRANCH   1   9
TORSDOF 10
ENDMDL
MODEL 8
REMARK VINA RESULT:    -4.917      2.339      4.281
REMARK INTER + INTRA:          -9.174
REMARK INTER:                  -7.583
REMARK INTRA:                  -1.591
REMARK UNBOUND:                -1.383
REMARK SMILES CCCCCCCCCCCC(=O)[O-]
REMARK SMILES IDX 7 1 8 2 9 3 10 4 11 5 12 6 13 7 14 8 6 9 5 10 4 11 3 12 2 13
REMARK SMILES IDX 1 14
REMARK H PARENT
REMARK Flexibility Score: inf
ROOT
ATOM      1  C   UNL     1      19.539  13.178  -2.210  1.00  0.00     0.000 C 
ENDROOT
BRANCH   1   2
ATOM      2  C   UNL     1      19.283  12.614  -0.804  1.00  0.00     0.000 C 
BRANCH   2   3
ATOM      3  C   UNL     1      19.339  13.700   0.285  1.00  0.00     0.000 C 
BRANCH   3   4
ATOM      4  C   UNL     1      20.375  14.792  -0.024  1.00  0.00     0.006 C 
BRANCH   4   5
ATOM      5  C   UNL     1      20.413  15.888   1.049  1.00  0.00     0.053 C 
BRANCH   5   6
ATOM      6  C   UNL     1      21.695  15.822   1.818  1.00  0.00     0.041 C 
ATOM      7  O   UNL     1      22.799  15.904   1.217  1.00  0.00    -0.550 OA
ATOM      8  O   UNL     1      21.671  15.718   3.202  1.00  0.00    -0.550 OA
ENDBRANCH   5   6
ENDBRANCH   4   5
ENDBRANCH   3   4
ENDBRANCH   2   3
ENDBRANCH   1   2
BRANCH   1   9
ATOM      9  C   UNL     1      20.581  12.361  -2.994  1.00  0.00     0.000 C 
BRANCH   9  10
ATOM     10  C   UNL     1      21.643  11.728  -2.071  1.00  0.00    -0.000 C 
BRANCH  10  11
ATOM     11  C   UNL     1      22.855  12.641  -1.802  1.00  0.00    -0.000 C 
BRANCH  11  12
ATOM     12  C   UNL     1      23.315  12.690  -0.334  1.00  0.00    -0.000 C 
BRANCH  12  13
ATOM     13  C   UNL     1      22.692  11.577   0.520  1.00  0.00    -0.003 C 
ATOM     14  C   UNL     1      22.288  12.103   1.895  1.00  0.00     0.004 C 
ENDBRANCH  12  13
ENDBRANCH  11  12
ENDBRANCH  10  11
ENDBRANCH   9  10
ENDBRANCH   1   9
TORSDOF 10
ENDMDL
MODEL 9
REMARK VINA RESULT:    -4.865      2.710      5.021
REMARK INTER + INTRA:          -9.093
REMARK INTER:                  -7.880
REMARK INTRA:                  -1.213
REMARK UNBOUND:                -1.383
REMARK SMILES CCCCCCCCCCCC(=O)[O-]
REMARK SMILES IDX 7 1 8 2 9 3 10 4 11 5 12 6 13 7 14 8 6 9 5 10 4 11 3 12 2 13
REMARK SMILES IDX 1 14
REMARK H PARENT
REMARK Flexibility Score: inf
ROOT
ATOM      1  C   UNL     1      22.899  13.225  -0.190  1.00  0.00     0.000 C 
ENDROOT
BRANCH   1   2
ATOM      2  C   UNL     1      22.457  14.680   0.030  1.00  0.00     0.000 C 
BRANCH   2   3
ATOM      3  C   UNL     1      21.651  14.861   1.328  1.00  0.00     0.000 C 
BRANCH   3   4
ATOM      4  C   UNL     1      22.447  15.596   2.419  1.00  0.00     0.006 C 
BRANCH   4   5
ATOM      5  C   UNL     1      22.414  14.863   3.766  1.00  0.00     0.053 C 
BRANCH   5   6
ATOM      6  C   UNL     1      22.989  13.489   3.628  1.00  0.00     0.041 C 
ATOM      7  O   UNL     1      22.317  12.483   3.979  1.00  0.00    -0.550 OA
ATOM      8  O   UNL     1      24.246  13.314   3.065  1.00  0.00    -0.550 OA
ENDBRANCH   5   6
ENDBRANCH   4   5
ENDBRANCH   3   4
ENDBRANCH   2   3
ENDBRANCH   1   2
BRANCH   1   9
ATOM      9  C   UNL     1      23.522  12.999  -1.579  1.00  0.00     0.000 C 
BRANCH   9  10
ATOM     10  C   UNL     1      22.474  13.080  -2.709  1.00  0.00    -0.000 C 
BRANCH  10  11
ATOM     11  C   UNL     1      21.218  12.223  -2.454  1.00  0.00    -0.000 C 
BRANCH  11  12
ATOM     12  C   UNL     1      19.882  12.959  -2.656  1.00  0.00    -0.000 C 
BRANCH  12  13
ATOM     13  C   UNL     1      19.155  13.242  -1.333  1.00  0.00    -0.003 C 
ATOM     14  C   UNL     1      19.447  12.155  -0.304  1.00  0.00     0.004 C 
ENDBRANCH  12  13
ENDBRANCH  11  12
ENDBRANCH  10  11
ENDBRANCH   9  10
ENDBRANCH   1   9
TORSDOF 10
ENDMDL
