MODEL 1
REMARK VINA RESULT:    -4.110      0.000      0.000
REMARK INTER + INTRA:          -8.857
REMARK INTER:                  -6.994
REMARK INTRA:                  -1.863
REMARK UNBOUND:                -1.863
REMARK SMILES CCCCCCCCCCCCCC(=O)[O-]
REMARK SMILES IDX 8 1 9 2 10 3 11 4 12 5 13 6 14 7 15 8 16 9 7 10 6 11 5 12
REMARK SMILES IDX 4 13 3 14 2 15 1 16
REMARK H PARENT
REMARK Flexibility Score: inf
ROOT
ATOM      1  C   UNL     1       0.378   5.078  -9.692  1.00  0.00     0.000 C 
ENDROOT
BRANCH   1   2
ATOM      2  C   UNL     1       1.247   4.649  -8.500  1.00  0.00     0.000 C 
BRANCH   2   3
ATOM      3  C   UNL     1       0.417   4.203  -7.284  1.00  0.00     0.000 C 
BRANCH   3   4
ATOM      4  C   UNL     1       0.763   4.913  -5.959  1.00  0.00     0.000 C 
BRANCH   4   5
ATOM      5  C   UNL     1       2.026   5.790  -6.000  1.00  0.00     0.006 C 
BRANCH   5   6
ATOM      6  C   UNL     1       1.759   7.240  -5.580  1.00  0.00     0.053 C 
BRANCH   6   7
ATOM      7  C   UNL     1       2.642   7.625  -4.435  1.00  0.00     0.041 C 
ATOM      8  O   UNL     1       3.603   8.418  -4.614  1.00  0.00    -0.550 OA
ATOM      9  O   UNL     1       2.372   7.147  -3.159  1.00  0.00    -0.550 OA
ENDBRANCH   6   7
ENDBRANCH   5   6
ENDBRANCH   4   5
ENDBRANCH   3   4
ENDBRANCH   2   3
ENDBRANCH   1   2
BRANCH   1  10
ATOM     10  C   UNL     1       0.619   6.550 -10.046  1.00  0.00     0.000 C 
BRANCH  10  11
ATOM     11  C   UNL     1      -0.022   7.479  -9.002  1.00  0.00    -0.000 C 
BRANCH  11  12
ATOM     12  C   UNL     1       0.857   8.695  -8.671  1.00  0.00    -0.000 C 
BRANCH  12  13
ATOM     13  C   UNL     1       1.967   8.923  -9.708  1.00  0.00    -0.000 C 
BRANCH  13  14
ATOM     14  C   UNL     1       3.348   8.953  -9.036  1.00  0.00    -0.000 C 
BRANCH  14  15
ATOM     15  C   UNL     1       3.846   7.553  -8.647  1.00  0.00    -0.003 C 
ATOM     16  C   UNL     1       5.064   7.593  -7.724  1.00  0.00     0.004 C 
ENDBRANCH  14  15
ENDBRANCH  13  14
ENDBRANCH  12  13
ENDBRANCH  11  12
ENDBRANCH  10  11
ENDBRANCH   1  10
TORSDOF 12
ENDMDL
MODEL 2
REMARK VINA RESULT:    -3.974      1.098      3.814
REMARK INTER + INTRA:          -8.624
REMARK INTER:                  -6.860
REMARK INTRA:                  -1.764
REMARK UNBOUND:                -1.863
REMARK SMILES CCCCCCCCCCCCCC(=O)[O-]
REMARK SMILES IDX 8 1 9 2 10 3 11 4 12 5 13 6 14 7 15 8 16 9 7 10 6 11 5 12
REMARK SMILES IDX 4 13 3 14 2 15 1 16
REMARK H PARENT
REMARK Flexibility Score: inf
ROOT
ATOM      1  C   UNL     1       0.416   8.153  -8.093  1.00  0.00     0.000 C 
ENDROOT
BRANCH   1   2
ATOM      2  C   UNL     1       1.397   9.331  -7.988  1.00  0.00     0.000 C 
BRANCH   2   3
ATOM      3  C   UNL     1       2.583   9.210  -8.960  1.00  0.00     0.000 C 
BRANCH   3   4
ATOM      4  C   UNL     1       3.785   8.403  -8.428  1.00  0.00     0.000 C 
BRANCH   4   5
ATOM      5  C   UNL     1       4.321   8.856  -7.059  1.00  0.00     0.006 C 
BRANCH   5   6
ATOM      6  C   UNL     1       4.020   7.852  -5.939  1.00  0.00     0.053 C 
BRANCH   6   7
ATOM      7  C   UNL     1       3.302   8.525  -4.813  1.00  0.00     0.041 C 
ATOM      8  O   UNL     1       3.031   9.754  -4.878  1.00  0.00    -0.550 OA
ATOM      9  O   UNL     1       2.885   7.786  -3.714  1.00  0.00    -0.550 OA
ENDBRANCH   6   7
ENDBRANCH   5   6
ENDBRANCH   4   5
ENDBRANCH   3   4
ENDBRANCH   2   3
ENDBRANCH   1   2
BRANCH   1  10
ATOM     10  C   UNL     1       0.101   7.829  -9.558  1.00  0.00     0.000 C 
BRANCH  10  11
ATOM     11  C   UNL     1       0.148   6.314  -9.808  1.00  0.00    -0.000 C 
BRANCH  11  12
ATOM     12  C   UNL     1       1.573   5.744  -9.734  1.00  0.00    -0.000 C 
BRANCH  12  13
ATOM     13  C   UNL     1       1.790   4.848  -8.504  1.00  0.00    -0.000 C 
BRANCH  13  14
ATOM     14  C   UNL     1       0.449   4.350  -7.946  1.00  0.00    -0.000 C 
BRANCH  14  15
ATOM     15  C   UNL     1       0.412   4.345  -6.410  1.00  0.00    -0.003 C 
ATOM     16  C   UNL     1       1.506   5.213  -5.789  1.00  0.00     0.004 C 
ENDBRANCH  14  15
ENDBRANCH  13  14
ENDBRANCH  12  13
ENDBRANCH  11  12
ENDBRANCH  10  11
ENDBRANCH   1  10
TORSDOF 12
ENDMDL
MODEL 3
REMARK VINA RESULT:    -3.907     18.276     21.006
REMARK INTER + INTRA:          -8.510
REMARK INTER:                  -6.439
REMARK INTRA:                  -2.071
REMARK UNBOUND:                -1.863
REMARK SMILES CCCCCCCCCCCCCC(=O)[O-]
REMARK SMILES IDX 8 1 9 2 10 3 11 4 12 5 13 6 14 7 15 8 16 9 7 10 6 11 5 12
REMARK SMILES IDX 4 13 3 14 2 15 1 16
REMARK H PARENT
REMARK Flexibility Score: inf
ROOT
ATOM      1  C   UNL     1      -6.911  -3.371   7.579  1.00  0.00     0.000 C 
ENDROOT
BRANCH   1   2
ATOM      2  C   UNL     1      -8.042  -4.071   8.349  1.00  0.00     0.000 C 
BRANCH   2   3
ATOM      3  C   UNL     1      -8.814  -5.085   7.487  1.00  0.00     0.000 C 
BRANCH   3   4
ATOM      4  C   UNL     1      -8.082  -5.552   6.213  1.00  0.00     0.000 C 
BRANCH   4   5
ATOM      5  C   UNL     1      -7.863  -7.072   6.105  1.00  0.00     0.006 C 
BRANCH   5   6
ATOM      6  C   UNL     1      -7.518  -7.721   7.451  1.00  0.00     0.053 C 
BRANCH   6   7
ATOM      7  C   UNL     1      -6.352  -8.646   7.301  1.00  0.00     0.041 C 
ATOM      8  O   UNL     1      -5.775  -9.109   8.320  1.00  0.00    -0.550 OA
ATOM      9  O   UNL     1      -5.933  -9.037   6.036  1.00  0.00    -0.550 OA
ENDBRANCH   6   7
ENDBRANCH   5   6
ENDBRANCH   4   5
ENDBRANCH   3   4
ENDBRANCH   2   3
ENDBRANCH   1   2
BRANCH   1  10
ATOM     10  C   UNL     1      -5.584  -3.475   8.338  1.00  0.00     0.000 C 
BRANCH  10  11
ATOM     11  C   UNL     1      -5.088  -4.928   8.385  1.00  0.00    -0.000 C 
BRANCH  11  12
ATOM     12  C   UNL     1      -3.904  -5.182   7.438  1.00  0.00    -0.000 C 
BRANCH  12  13
ATOM     13  C   UNL     1      -4.328  -5.873   6.133  1.00  0.00    -0.000 C 
BRANCH  13  14
ATOM     14  C   UNL     1      -4.667  -4.839   5.050  1.00  0.00    -0.000 C 
BRANCH  14  15
ATOM     15  C   UNL     1      -3.658  -3.680   5.001  1.00  0.00    -0.003 C 
ATOM     16  C   UNL     1      -4.328  -2.308   5.069  1.00  0.00     0.004 C 
ENDBRANCH  14  15
ENDBRANCH  13  14
ENDBRANCH  12  13
ENDBRANCH  11  12
ENDBRANCH  10  11
ENDBRANCH   1  10
TORSDOF 12
ENDMDL
MODEL 4
REMARK VINA RESULT:    -3.850      1.510      4.602
REMARK INTER + INTRA:          -8.415
REMARK INTER:                  -6.663
REMARK INTRA:                  -1.751
REMARK UNBOUND:                -1.863
REMARK SMILES CCCCCCCCCCCCCC(=O)[O-]
REMARK SMILES IDX 8 1 9 2 10 3 11 4 12 5 13 6 14 7 15 8 16 9 7 10 6 11 5 12
REMARK SMILES IDX 4 13 3 14 2 15 1 16
REMARK H PARENT
REMARK Flexibility Score: inf
ROOT
ATOM      1  C   UNL     1       2.256   6.737  -4.629  1.00  0.00     0.000 C 
ENDROOT
BRANCH   1   2
ATOM      2  C   UNL     1       2.216   8.269  -4.732  1.00  0.00     0.000 C 
BRANCH   2   3
ATOM      3  C   UNL     1       1.593   8.765  -6.048  1.00  0.00     0.000 C 
BRANCH   3   4
ATOM      4  C   UNL     1       2.441   9.790  -6.829  1.00  0.00     0.000 C 
BRANCH   4   5
ATOM      5  C   UNL     1       2.871   9.344  -8.237  1.00  0.00     0.006 C 
BRANCH   5   6
ATOM      6  C   UNL     1       3.729   8.073  -8.224  1.00  0.00     0.053 C 
BRANCH   6   7
ATOM      7  C   UNL     1       4.992   8.302  -7.455  1.00  0.00     0.041 C 
ATOM      8  O   UNL     1       5.760   9.251  -7.765  1.00  0.00    -0.550 OA
ATOM      9  O   UNL     1       5.296   7.499  -6.363  1.00  0.00    -0.550 OA
ENDBRANCH   6   7
ENDBRANCH   5   6
ENDBRANCH   4   5
ENDBRANCH   3   4
ENDBRANCH   2   3
ENDBRANCH   1   2
BRANCH   1  10
ATOM     10  C   UNL     1       1.885   6.086  -5.967  1.00  0.00     0.000 C 
BRANCH  10  11
ATOM     11  C   UNL     1       0.974   4.868  -5.753  1.00  0.00    -0.000 C 
BRANCH  11  12
ATOM     12  C   UNL     1       0.405   4.314  -7.069  1.00  0.00    -0.000 C 
BRANCH  12  13
ATOM     13  C   UNL     1       1.283   4.652  -8.283  1.00  0.00    -0.000 C 
BRANCH  13  14
ATOM     14  C   UNL     1       0.425   4.862  -9.539  1.00  0.00    -0.000 C 
BRANCH  14  15
ATOM     15  C   UNL     1       0.508   6.298 -10.079  1.00  0.00    -0.003 C 
ATOM     16  C   UNL     1      -0.086   7.327  -9.118  1.00  0.00     0.004 C 
ENDBRANCH  14  15
ENDBRANCH  13  14
ENDBRANCH  12  13
ENDBRANCH  11  12
ENDBRANCH  10  11
ENDBRANCH   1  10
TORSDOF 12
ENDMDL
MODEL 5
REMARK VINA RESULT:    -3.783      2.440      4.294
REMARK INTER + INTRA:          -8.299
REMARK INTER:                  -6.539
REMARK INTRA:                  -1.760
REMARK UNBOUND:                -1.863
REMARK SMILES CCCCCCCCCCCCCC(=O)[O-]
REMARK SMILES IDX 8 1 9 2 10 3 11 4 12 5 13 6 14 7 15 8 16 9 7 10 6 11 5 12
REMARK SMILES IDX 4 13 3 14 2 15 1 16
REMARK H PARENT
REMARK Flexibility Score: inf
ROOT
ATOM      1  C   UNL     1       1.873   9.079  -5.354  1.00  0.00     0.000 C 
ENDROOT
BRANCH   1   2
ATOM      2  C   UNL     1       1.184   9.083  -6.727  1.00  0.00     0.000 C 
BRANCH   2   3
ATOM      3  C   UNL     1       0.501   7.745  -7.058  1.00  0.00     0.000 C 
BRANCH   3   4
ATOM      4  C   UNL     1       0.587   7.315  -8.537  1.00  0.00     0.000 C 
BRANCH   4   5
ATOM      5  C   UNL     1       0.529   5.797  -8.779  1.00  0.00     0.006 C 
BRANCH   5   6
ATOM      6  C   UNL     1       1.309   4.995  -7.729  1.00  0.00     0.053 C 
BRANCH   6   7
ATOM      7  C   UNL     1       0.376   4.163  -6.908  1.00  0.00     0.041 C 
ATOM      8  O   UNL     1       0.245   4.386  -5.676  1.00  0.00    -0.550 OA
ATOM      9  O   UNL     1      -0.388   3.173  -7.513  1.00  0.00    -0.550 OA
ENDBRANCH   6   7
ENDBRANCH   5   6
ENDBRANCH   4   5
ENDBRANCH   3   4
ENDBRANCH   2   3
ENDBRANCH   1   2
BRANCH   1  10
ATOM     10  C   UNL     1       3.064   8.114  -5.340  1.00  0.00     0.000 C 
BRANCH  10  11
ATOM     11  C   UNL     1       4.016   8.397  -6.512  1.00  0.00    -0.000 C 
BRANCH  11  12
ATOM     12  C   UNL     1       4.320   7.142  -7.346  1.00  0.00    -0.000 C 
BRANCH  12  13
ATOM     13  C   UNL     1       4.287   7.413  -8.858  1.00  0.00    -0.000 C 
BRANCH  13  14
ATOM     14  C   UNL     1       4.094   8.910  -9.142  1.00  0.00    -0.000 C 
BRANCH  14  15
ATOM     15  C   UNL     1       5.295   9.533  -9.871  1.00  0.00    -0.003 C 
ATOM     16  C   UNL     1       6.328  10.124  -8.912  1.00  0.00     0.004 C 
ENDBRANCH  14  15
ENDBRANCH  13  14
ENDBRANCH  12  13
ENDBRANCH  11  12
ENDBRANCH  10  11
ENDBRANCH   1  10
TORSDOF 12
ENDMDL
MODEL 6
REMARK VINA RESULT:    -3.779      1.622      2.024
REMARK INTER + INTRA:          -8.292
REMARK INTER:                  -6.799
REMARK INTRA:                  -1.493
REMARK UNBOUND:                -1.863
REMARK SMILES CCCCCCCCCCCCCC(=O)[O-]
REMARK SMILES IDX 8 1 9 2 10 3 11 4 12 5 13 6 14 7 15 8 16 9 7 10 6 11 5 12
REMARK SMILES IDX 4 13 3 14 2 15 1 16
REMARK H PARENT
REMARK Flexibility Score: inf
ROOT
ATOM      1  C   UNL     1       1.017   4.670  -8.664  1.00  0.00     0.000 C 
ENDROOT
BRANCH   1   2
ATOM      2  C   UNL     1       0.108   4.071  -7.580  1.00  0.00     0.000 C 
BRANCH   2   3
ATOM      3  C   UNL     1       0.480   4.536  -6.162  1.00  0.00     0.000 C 
BRANCH   3   4
ATOM      4  C   UNL     1       1.854   5.227  -6.039  1.00  0.00     0.000 C 
BRANCH   4   5
ATOM      5  C   UNL     1       1.896   6.431  -5.083  1.00  0.00     0.006 C 
BRANCH   5   6
ATOM      6  C   UNL     1       2.487   7.688  -5.732  1.00  0.00     0.053 C 
BRANCH   6   7
ATOM      7  C   UNL     1       1.402   8.656  -6.081  1.00  0.00     0.041 C 
ATOM      8  O   UNL     1       0.492   8.325  -6.886  1.00  0.00    -0.550 OA
ATOM      9  O   UNL     1       1.366   9.907  -5.478  1.00  0.00    -0.550 OA
ENDBRANCH   6   7
ENDBRANCH   5   6
ENDBRANCH   4   5
ENDBRANCH   3   4
ENDBRANCH   2   3
ENDBRANCH   1   2
BRANCH   1  10
ATOM     10  C   UNL     1       0.365   5.899  -9.309  1.00  0.00     0.000 C 
BRANCH  10  11
ATOM     11  C   UNL     1       1.419   6.785  -9.992  1.00  0.00    -0.000 C 
BRANCH  11  12
ATOM     12  C   UNL     1       2.773   6.764  -9.265  1.00  0.00    -0.000 C 
BRANCH  12  13
ATOM     13  C   UNL     1       3.758   7.806  -9.817  1.00  0.00    -0.000 C 
BRANCH  13  14
ATOM     14  C   UNL     1       3.885   9.000  -8.859  1.00  0.00    -0.000 C 
BRANCH  14  15
ATOM     15  C   UNL     1       5.300   9.145  -8.279  1.00  0.00    -0.003 C 
ATOM     16  C   UNL     1       5.693   7.977  -7.375  1.00  0.00     0.004 C 
ENDBRANCH  14  15
ENDBRANCH  13  14
ENDBRANCH  12  13
ENDBRANCH  11  12
ENDBRANCH  10  11
ENDBRANCH   1  10
TORSDOF 12
ENDMDL
MODEL 7
REMARK VINA RESULT:    -3.766      1.472      4.158
REMARK INTER + INTRA:          -8.271
REMARK INTER:                  -7.152
REMARK INTRA:                  -1.119
REMARK UNBOUND:                -1.863
REMARK SMILES CCCCCCCCCCCCCC(=O)[O-]
REMARK SMILES IDX 8 1 9 2 10 3 11 4 12 5 13 6 14 7 15 8 16 9 7 10 6 11 5 12
REMARK SMILES IDX 4 13 3 14 2 15 1 16
REMARK H PARENT
REMARK Flexibility Score: inf
ROOT
ATOM      1  C   UNL     1       4.149   7.501  -8.093  1.00  0.00     0.000 C 
ENDROOT
BRANCH   1   2
ATOM      2  C   UNL     1       4.847   8.777  -7.599  1.00  0.00     0.000 C 
BRANCH   2   3
ATOM      3  C   UNL     1       3.861   9.913  -7.276  1.00  0.00     0.000 C 
BRANCH   3   4
ATOM      4  C   UNL     1       2.374   9.503  -7.261  1.00  0.00     0.000 C 
BRANCH   4   5
ATOM      5  C   UNL     1       1.768   9.295  -5.862  1.00  0.00     0.006 C 
BRANCH   5   6
ATOM      6  C   UNL     1       2.825   8.983  -4.795  1.00  0.00     0.053 C 
BRANCH   6   7
ATOM      7  C   UNL     1       2.606   7.618  -4.225  1.00  0.00     0.041 C 
ATOM      8  O   UNL     1       2.333   7.477  -3.004  1.00  0.00    -0.550 OA
ATOM      9  O   UNL     1       2.652   6.503  -5.053  1.00  0.00    -0.550 OA
ENDBRANCH   6   7
ENDBRANCH   5   6
ENDBRANCH   4   5
ENDBRANCH   3   4
ENDBRANCH   2   3
ENDBRANCH   1   2
BRANCH   1  10
ATOM     10  C   UNL     1       4.131   7.443  -9.625  1.00  0.00     0.000 C 
BRANCH  10  11
ATOM     11  C   UNL     1       3.086   6.433 -10.125  1.00  0.00    -0.000 C 
BRANCH  11  12
ATOM     12  C   UNL     1       1.696   6.665  -9.513  1.00  0.00    -0.000 C 
BRANCH  12  13
ATOM     13  C   UNL     1       0.710   5.532  -9.835  1.00  0.00    -0.000 C 
BRANCH  13  14
ATOM     14  C   UNL     1       0.643   4.519  -8.684  1.00  0.00    -0.000 C 
BRANCH  14  15
ATOM     15  C   UNL     1       0.396   5.186  -7.322  1.00  0.00    -0.003 C 
ATOM     16  C   UNL     1       0.314   4.179  -6.175  1.00  0.00     0.004 C 
ENDBRANCH  14  15
ENDBRANCH  13  14
ENDBRANCH  12  13
ENDBRANCH  11  12
ENDBRANCH  10  11
ENDBRANCH   1  10
TORSDOF 12
ENDMDL
MODEL 8
REMARK VINA RESULT:    -3.736      2.034      4.042
REMARK INTER + INTRA:          -8.219
REMARK INTER:                  -6.202
REMARK INTRA:                  -2.017
REMARK UNBOUND:                -1.863
REMARK SMILES CCCCCCCCCCCCCC(=O)[O-]
REMARK SMILES IDX 8 1 9 2 10 3 11 4 12 5 13 6 14 7 15 8 16 9 7 10 6 11 5 12
REMARK SMILES IDX 4 13 3 14 2 15 1 16
REMARK H PARENT
REMARK Flexibility Score: inf
ROOT
ATOM      1  C   UNL     1       1.128   9.877  -6.687  1.00  0.00     0.000 C 
ENDROOT
BRANCH   1   2
ATOM      2  C   UNL     1       1.284   9.855  -8.215  1.00  0.00     0.000 C 
BRANCH   2   3
ATOM      3  C   UNL     1       0.758   8.558  -8.852  1.00  0.00     0.000 C 
BRANCH   3   4
ATOM      4  C   UNL     1       0.309   7.473  -7.852  1.00  0.00     0.000 C 
BRANCH   4   5
ATOM      5  C   UNL     1       0.386   6.029  -8.377  1.00  0.00     0.006 C 
BRANCH   5   6
ATOM      6  C   UNL     1       1.564   5.243  -7.790  1.00  0.00     0.053 C 
BRANCH   6   7
ATOM      7  C   UNL     1       1.269   4.833  -6.382  1.00  0.00     0.041 C 
ATOM      8  O   UNL     1       1.980   5.260  -5.435  1.00  0.00    -0.550 OA
ATOM      9  O   UNL     1       0.177   4.018  -6.109  1.00  0.00    -0.550 OA
ENDBRANCH   6   7
ENDBRANCH   5   6
ENDBRANCH   4   5
ENDBRANCH   3   4
ENDBRANCH   2   3
ENDBRANCH   1   2
BRANCH   1  10
ATOM     10  C   UNL     1       2.485  10.062  -5.998  1.00  0.00     0.000 C 
BRANCH  10  11
ATOM     11  C   UNL     1       2.928   8.768  -5.298  1.00  0.00    -0.000 C 
BRANCH  11  12
ATOM     12  C   UNL     1       4.255   8.221  -5.848  1.00  0.00    -0.000 C 
BRANCH  12  13
ATOM     13  C   UNL     1       4.085   7.490  -7.188  1.00  0.00    -0.000 C 
BRANCH  13  14
ATOM     14  C   UNL     1       4.981   8.111  -8.269  1.00  0.00    -0.000 C 
BRANCH  14  15
ATOM     15  C   UNL     1       4.311   8.134  -9.652  1.00  0.00    -0.003 C 
ATOM     16  C   UNL     1       3.881   6.745 -10.125  1.00  0.00     0.004 C 
ENDBRANCH  14  15
ENDBRANCH  13  14
ENDBRANCH  12  13
ENDBRANCH  11  12
ENDBRANCH  10  11
ENDBRANCH   1  10
TORSDOF 12
ENDMDL
MODEL 9
REMARK VINA RESULT:    -3.719      1.765      4.115
REMARK INTER + INTRA:          -8.191
REMARK INTER:                  -6.518
REMARK INTRA:                  -1.673
REMARK UNBOUND:                -1.863
REMARK SMILES CCCCCCCCCCCCCC(=O)[O-]
REMARK SMILES IDX 8 1 9 2 10 3 11 4 12 5 13 6 14 7 15 8 16 9 7 10 6 11 5 12
REMARK SMILES IDX 4 13 3 14 2 15 1 16
REMARK H PARENT
REMARK Flexibility Score: inf
ROOT
ATOM      1  C   UNL     1       0.133   5.663  -7.719  1.00  0.00     0.000 C 
ENDROOT
BRANCH   1   2
ATOM      2  C   UNL     1       0.579   5.451  -9.174  1.00  0.00     0.000 C 
BRANCH   2   3
ATOM      3  C   UNL     1       1.418   6.620  -9.718  1.00  0.00     0.000 C 
BRANCH   3   4
ATOM      4  C   UNL     1       2.944   6.464  -9.552  1.00  0.00     0.000 C 
BRANCH   4   5
ATOM      5  C   UNL     1       3.673   7.707  -9.013  1.00  0.00     0.006 C 
BRANCH   5   6
ATOM      6  C   UNL     1       5.192   7.516  -8.925  1.00  0.00     0.053 C 
BRANCH   6   7
ATOM      7  C   UNL     1       5.720   8.100  -7.654  1.00  0.00     0.041 C 
ATOM      8  O   UNL     1       5.494   7.531  -6.553  1.00  0.00    -0.550 OA
ATOM      9  O   UNL     1       6.504   9.246  -7.688  1.00  0.00    -0.550 OA
ENDBRANCH   6   7
ENDBRANCH   5   6
ENDBRANCH   4   5
ENDBRANCH   3   4
ENDBRANCH   2   3
ENDBRANCH   1   2
BRANCH   1  10
ATOM     10  C   UNL     1       0.697   4.568  -6.806  1.00  0.00     0.000 C 
BRANCH  10  11
ATOM     11  C   UNL     1       1.458   5.179  -5.620  1.00  0.00    -0.000 C 
BRANCH  11  12
ATOM     12  C   UNL     1       2.240   6.445  -6.005  1.00  0.00    -0.000 C 
BRANCH  12  13
ATOM     13  C   UNL     1       2.480   7.380  -4.810  1.00  0.00    -0.000 C 
BRANCH  13  14
ATOM     14  C   UNL     1       2.196   8.840  -5.191  1.00  0.00    -0.000 C 
BRANCH  14  15
ATOM     15  C   UNL     1       1.151   8.967  -6.310  1.00  0.00    -0.003 C 
ATOM     16  C   UNL     1       1.515  10.035  -7.342  1.00  0.00     0.004 C 
ENDBRANCH  14  15
ENDBRANCH  13  14
ENDBRANCH  12  13
ENDBRANCH  11  12
ENDBRANCH  10  11
ENDBRANCH   1  10
TORSDOF 12
ENDMDL
