MODEL 1
REMARK VINA RESULT:    -4.549      0.000      0.000
REMARK INTER + INTRA:          -9.088
REMARK INTER:                  -8.273
REMARK INTRA:                  -0.816
REMARK UNBOUND:                -0.816
REMARK SMILES CCCCCCCCCCCCCCCC(=O)[O-]
REMARK SMILES IDX 9 1 10 2 11 3 12 4 13 5 14 6 15 7 16 8 17 9 18 10 8 11 7 12
REMARK SMILES IDX 6 13 5 14 4 15 3 16 2 17 1 18
REMARK H PARENT
REMARK Flexibility Score: inf
ROOT
ATOM      1  C   UNL     1     -25.839 -11.945  32.453  1.00  0.00     0.000 C 
ENDROOT
BRANCH   1   2
ATOM      2  C   UNL     1     -27.195 -11.653  33.117  1.00  0.00     0.000 C 
BRANCH   2   3
ATOM      3  C   UNL     1     -27.056 -11.211  34.585  1.00  0.00     0.000 C 
BRANCH   3   4
ATOM      4  C   UNL     1     -28.202 -10.326  35.113  1.00  0.00     0.000 C 
BRANCH   4   5
ATOM      5  C   UNL     1     -28.754  -9.297  34.106  1.00  0.00     0.000 C 
BRANCH   5   6
ATOM      6  C   UNL     1     -30.259  -9.005  34.236  1.00  0.00     0.006 C 
BRANCH   6   7
ATOM      7  C   UNL     1     -30.751  -7.958  33.229  1.00  0.00     0.053 C 
BRANCH   7   8
ATOM      8  C   UNL     1     -31.976  -7.272  33.746  1.00  0.00     0.041 C 
ATOM      9  O   UNL     1     -32.026  -6.014  33.791  1.00  0.00    -0.550 OA
ATOM     10  O   UNL     1     -33.081  -8.020  34.131  1.00  0.00    -0.550 OA
ENDBRANCH   7   8
ENDBRANCH   6   7
ENDBRANCH   5   6
ENDBRANCH   4   5
ENDBRANCH   3   4
ENDBRANCH   2   3
ENDBRANCH   1   2
BRANCH   1  11
ATOM     11  C   UNL     1     -24.648 -11.554  33.344  1.00  0.00     0.000 C 
BRANCH  11  12
ATOM     12  C   UNL     1     -23.443 -12.493  33.164  1.00  0.00    -0.000 C 
BRANCH  12  13
ATOM     13  C   UNL     1     -22.605 -12.631  34.446  1.00  0.00    -0.000 C 
BRANCH  13  14
ATOM     14  C   UNL     1     -23.210 -11.861  35.633  1.00  0.00    -0.000 C 
BRANCH  14  15
ATOM     15  C   UNL     1     -22.569 -12.250  36.976  1.00  0.00    -0.000 C 
BRANCH  15  16
ATOM     16  C   UNL     1     -23.605 -12.424  38.100  1.00  0.00    -0.000 C 
BRANCH  16  17
ATOM     17  C   UNL     1     -23.298 -11.548  39.324  1.00  0.00    -0.003 C 
ATOM     18  C   UNL     1     -21.801 -11.288  39.502  1.00  0.00     0.004 C 
ENDBRANCH  16  17
ENDBRANCH  15  16
ENDBRANCH  14  15
ENDBRANCH  13  14
ENDBRANCH  12  13
ENDBRANCH  11  12
ENDBRANCH   1  11
TORSDOF 14
ENDMDL
MODEL 2
REMARK VINA RESULT:    -4.357      6.690      9.283
REMARK INTER + INTRA:          -8.738
REMARK INTER:                  -6.317
REMARK INTRA:                  -2.421
REMARK UNBOUND:                -0.816
REMARK SMILES CCCCCCCCCCCCCCCC(=O)[O-]
REMARK SMILES IDX 9 1 10 2 11 3 12 4 13 5 14 6 15 7 16 8 17 9 18 10 8 11 7 12
REMARK SMILES IDX 6 13 5 14 4 15 3 16 2 17 1 18
REMARK H PARENT
REMARK Flexibility Score: inf
ROOT
ATOM      1  C   UNL     1     -22.223 -10.996  39.024  1.00  0.00     0.000 C 
ENDROOT
BRANCH   1   2
ATOM      2  C   UNL     1     -23.484 -11.718  39.529  1.00  0.00     0.000 C 
BRANCH   2   3
ATOM      3  C   UNL     1     -23.872 -12.923  38.653  1.00  0.00     0.000 C 
BRANCH   3   4
ATOM      4  C   UNL     1     -23.748 -14.298  39.340  1.00  0.00     0.000 C 
BRANCH   4   5
ATOM      5  C   UNL     1     -22.320 -14.876  39.398  1.00  0.00     0.000 C 
BRANCH   5   6
ATOM      6  C   UNL     1     -21.806 -15.194  40.813  1.00  0.00     0.006 C 
BRANCH   6   7
ATOM      7  C   UNL     1     -22.254 -14.161  41.855  1.00  0.00     0.053 C 
BRANCH   7   8
ATOM      8  C   UNL     1     -23.070 -14.817  42.923  1.00  0.00     0.041 C 
ATOM      9  O   UNL     1     -22.650 -15.860  43.490  1.00  0.00    -0.550 OA
ATOM     10  O   UNL     1     -24.272 -14.250  43.327  1.00  0.00    -0.550 OA
ENDBRANCH   7   8
ENDBRANCH   6   7
ENDBRANCH   5   6
ENDBRANCH   4   5
ENDBRANCH   3   4
ENDBRANCH   2   3
ENDBRANCH   1   2
BRANCH   1  11
ATOM     11  C   UNL     1     -20.969 -11.358  39.838  1.00  0.00     0.000 C 
BRANCH  11  12
ATOM     12  C   UNL     1     -19.741 -11.614  38.946  1.00  0.00    -0.000 C 
BRANCH  12  13
ATOM     13  C   UNL     1     -19.253 -13.071  39.017  1.00  0.00    -0.000 C 
BRANCH  13  14
ATOM     14  C   UNL     1     -19.270 -13.767  37.645  1.00  0.00    -0.000 C 
BRANCH  14  15
ATOM     15  C   UNL     1     -20.053 -12.970  36.589  1.00  0.00    -0.000 C 
BRANCH  15  16
ATOM     16  C   UNL     1     -21.364 -13.660  36.175  1.00  0.00    -0.000 C 
BRANCH  16  17
ATOM     17  C   UNL     1     -22.060 -12.947  35.005  1.00  0.00    -0.003 C 
ATOM     18  C   UNL     1     -23.117 -11.945  35.470  1.00  0.00     0.004 C 
ENDBRANCH  16  17
ENDBRANCH  15  16
ENDBRANCH  14  15
ENDBRANCH  13  14
ENDBRANCH  12  13
ENDBRANCH  11  12
ENDBRANCH   1  11
TORSDOF 14
ENDMDL
MODEL 3
REMARK VINA RESULT:    -4.286      3.930      8.368
REMARK INTER + INTRA:          -8.610
REMARK INTER:                  -7.791
REMARK INTRA:                  -0.818
REMARK UNBOUND:                -0.816
REMARK SMILES CCCCCCCCCCCCCCCC(=O)[O-]
REMARK SMILES IDX 9 1 10 2 11 3 12 4 13 5 14 6 15 7 16 8 17 9 18 10 8 11 7 12
REMARK SMILES IDX 6 13 5 14 4 15 3 16 2 17 1 18
REMARK H PARENT
REMARK Flexibility Score: inf
ROOT
ATOM      1  C   UNL     1     -24.779 -11.280  33.059  1.00  0.00     0.000 C 
ENDROOT
BRANCH   1   2
ATOM      2  C   UNL     1     -24.383 -12.405  32.089  1.00  0.00     0.000 C 
BRANCH   2   3
ATOM      3  C   UNL     1     -22.863 -12.648  32.045  1.00  0.00     0.000 C 
BRANCH   3   4
ATOM      4  C   UNL     1     -22.337 -13.680  33.062  1.00  0.00     0.000 C 
BRANCH   4   5
ATOM      5  C   UNL     1     -21.322 -13.133  34.087  1.00  0.00     0.000 C 
BRANCH   5   6
ATOM      6  C   UNL     1     -21.774 -13.217  35.555  1.00  0.00     0.006 C 
BRANCH   6   7
ATOM      7  C   UNL     1     -22.849 -12.180  35.907  1.00  0.00     0.053 C 
BRANCH   7   8
ATOM      8  C   UNL     1     -23.095 -12.166  37.382  1.00  0.00     0.041 C 
ATOM      9  O   UNL     1     -22.238 -11.674  38.163  1.00  0.00    -0.550 OA
ATOM     10  O   UNL     1     -24.294 -12.650  37.891  1.00  0.00    -0.550 OA
ENDBRANCH   7   8
ENDBRANCH   6   7
ENDBRANCH   5   6
ENDBRANCH   4   5
ENDBRANCH   3   4
ENDBRANCH   2   3
ENDBRANCH   1   2
BRANCH   1  11
ATOM     11  C   UNL     1     -25.994 -11.648  33.927  1.00  0.00     0.000 C 
BRANCH  11  12
ATOM     12  C   UNL     1     -27.296 -11.001  33.423  1.00  0.00    -0.000 C 
BRANCH  12  13
ATOM     13  C   UNL     1     -28.219 -10.560  34.571  1.00  0.00    -0.000 C 
BRANCH  13  14
ATOM     14  C   UNL     1     -28.519  -9.051  34.541  1.00  0.00    -0.000 C 
BRANCH  14  15
ATOM     15  C   UNL     1     -29.639  -8.692  33.550  1.00  0.00    -0.000 C 
BRANCH  15  16
ATOM     16  C   UNL     1     -31.032  -8.685  34.204  1.00  0.00    -0.000 C 
BRANCH  16  17
ATOM     17  C   UNL     1     -31.852  -7.442  33.826  1.00  0.00    -0.003 C 
ATOM     18  C   UNL     1     -33.357  -7.658  33.985  1.00  0.00     0.004 C 
ENDBRANCH  16  17
ENDBRANCH  15  16
ENDBRANCH  14  15
ENDBRANCH  13  14
ENDBRANCH  12  13
ENDBRANCH  11  12
ENDBRANCH   1  11
TORSDOF 14
ENDMDL
MODEL 4
REMARK VINA RESULT:    -4.263      4.251      8.704
REMARK INTER + INTRA:          -8.568
REMARK INTER:                  -7.812
REMARK INTRA:                  -0.755
REMARK UNBOUND:                -0.816
REMARK SMILES CCCCCCCCCCCCCCCC(=O)[O-]
REMARK SMILES IDX 9 1 10 2 11 3 12 4 13 5 14 6 15 7 16 8 17 9 18 10 8 11 7 12
REMARK SMILES IDX 6 13 5 14 4 15 3 16 2 17 1 18
REMARK H PARENT
REMARK Flexibility Score: inf
ROOT
ATOM      1  C   UNL     1     -25.812 -11.748  33.027  1.00  0.00     0.000 C 
ENDROOT
BRANCH   1   2
ATOM      2  C   UNL     1     -24.884 -11.121  34.081  1.00  0.00     0.000 C 
BRANCH   2   3
ATOM      3  C   UNL     1     -23.653 -11.994  34.387  1.00  0.00     0.000 C 
BRANCH   3   4
ATOM      4  C   UNL     1     -23.138 -11.914  35.837  1.00  0.00     0.000 C 
BRANCH   4   5
ATOM      5  C   UNL     1     -22.085 -12.973  36.219  1.00  0.00     0.000 C 
BRANCH   5   6
ATOM      6  C   UNL     1     -21.935 -13.223  37.730  1.00  0.00     0.006 C 
BRANCH   6   7
ATOM      7  C   UNL     1     -23.083 -12.621  38.550  1.00  0.00     0.053 C 
BRANCH   7   8
ATOM      8  C   UNL     1     -22.575 -11.526  39.433  1.00  0.00     0.041 C 
ATOM      9  O   UNL     1     -22.942 -10.336  39.243  1.00  0.00    -0.550 OA
ATOM     10  O   UNL     1     -21.735 -11.825  40.498  1.00  0.00    -0.550 OA
ENDBRANCH   7   8
ENDBRANCH   6   7
ENDBRANCH   5   6
ENDBRANCH   4   5
ENDBRANCH   3   4
ENDBRANCH   2   3
ENDBRANCH   1   2
BRANCH   1  11
ATOM     11  C   UNL     1     -27.299 -11.480  33.315  1.00  0.00     0.000 C 
BRANCH  11  12
ATOM     12  C   UNL     1     -27.592 -11.345  34.820  1.00  0.00    -0.000 C 
BRANCH  12  13
ATOM     13  C   UNL     1     -28.221  -9.988  35.179  1.00  0.00    -0.000 C 
BRANCH  13  14
ATOM     14  C   UNL     1     -28.785  -9.254  33.949  1.00  0.00    -0.000 C 
BRANCH  14  15
ATOM     15  C   UNL     1     -30.261  -8.859  34.124  1.00  0.00    -0.000 C 
BRANCH  15  16
ATOM     16  C   UNL     1     -30.767  -7.940  32.999  1.00  0.00    -0.000 C 
BRANCH  16  17
ATOM     17  C   UNL     1     -32.078  -7.227  33.366  1.00  0.00    -0.003 C 
ATOM     18  C   UNL     1     -32.020  -5.720  33.114  1.00  0.00     0.004 C 
ENDBRANCH  16  17
ENDBRANCH  15  16
ENDBRANCH  14  15
ENDBRANCH  13  14
ENDBRANCH  12  13
ENDBRANCH  11  12
ENDBRANCH   1  11
TORSDOF 14
ENDMDL
MODEL 5
REMARK VINA RESULT:    -4.258      3.666      7.535
REMARK INTER + INTRA:          -8.558
REMARK INTER:                  -8.175
REMARK INTRA:                  -0.384
REMARK UNBOUND:                -0.816
REMARK SMILES CCCCCCCCCCCCCCCC(=O)[O-]
REMARK SMILES IDX 9 1 10 2 11 3 12 4 13 5 14 6 15 7 16 8 17 9 18 10 8 11 7 12
REMARK SMILES IDX 6 13 5 14 4 15 3 16 2 17 1 18
REMARK H PARENT
REMARK Flexibility Score: inf
ROOT
ATOM      1  C   UNL     1     -32.224  -6.460  33.445  1.00  0.00     0.000 C 
ENDROOT
BRANCH   1   2
ATOM      2  C   UNL     1     -32.934  -6.842  32.135  1.00  0.00     0.000 C 
BRANCH   2   3
ATOM      3  C   UNL     1     -34.114  -7.807  32.356  1.00  0.00     0.000 C 
BRANCH   3   4
ATOM      4  C   UNL     1     -35.399  -7.154  32.902  1.00  0.00     0.000 C 
BRANCH   4   5
ATOM      5  C   UNL     1     -36.572  -7.080  31.904  1.00  0.00     0.000 C 
BRANCH   5   6
ATOM      6  C   UNL     1     -37.970  -7.083  32.546  1.00  0.00     0.006 C 
BRANCH   6   7
ATOM      7  C   UNL     1     -38.324  -5.745  33.208  1.00  0.00     0.053 C 
BRANCH   7   8
ATOM      8  C   UNL     1     -38.189  -5.848  34.694  1.00  0.00     0.041 C 
ATOM      9  O   UNL     1     -37.982  -4.814  35.385  1.00  0.00    -0.550 OA
ATOM     10  O   UNL     1     -38.342  -7.076  35.323  1.00  0.00    -0.550 OA
ENDBRANCH   7   8
ENDBRANCH   6   7
ENDBRANCH   5   6
ENDBRANCH   4   5
ENDBRANCH   3   4
ENDBRANCH   2   3
ENDBRANCH   1   2
BRANCH   1  11
ATOM     11  C   UNL     1     -32.275  -7.585  34.493  1.00  0.00     0.000 C 
BRANCH  11  12
ATOM     12  C   UNL     1     -31.507  -8.842  34.046  1.00  0.00    -0.000 C 
BRANCH  12  13
ATOM     13  C   UNL     1     -30.066  -8.529  33.610  1.00  0.00    -0.000 C 
BRANCH  13  14
ATOM     14  C   UNL     1     -29.017  -9.233  34.488  1.00  0.00    -0.000 C 
BRANCH  14  15
ATOM     15  C   UNL     1     -27.812  -9.737  33.677  1.00  0.00    -0.000 C 
BRANCH  15  16
ATOM     16  C   UNL     1     -27.518 -11.229  33.915  1.00  0.00    -0.000 C 
BRANCH  16  17
ATOM     17  C   UNL     1     -26.528 -11.804  32.890  1.00  0.00    -0.003 C 
ATOM     18  C   UNL     1     -25.069 -11.549  33.272  1.00  0.00     0.004 C 
ENDBRANCH  16  17
ENDBRANCH  15  16
ENDBRANCH  14  15
ENDBRANCH  13  14
ENDBRANCH  12  13
ENDBRANCH  11  12
ENDBRANCH   1  11
TORSDOF 14
ENDMDL
MODEL 6
REMARK VINA RESULT:    -4.236      4.616     11.114
REMARK INTER + INTRA:          -8.518
REMARK INTER:                  -7.784
REMARK INTRA:                  -0.734
REMARK UNBOUND:                -0.816
REMARK SMILES CCCCCCCCCCCCCCCC(=O)[O-]
REMARK SMILES IDX 9 1 10 2 11 3 12 4 13 5 14 6 15 7 16 8 17 9 18 10 8 11 7 12
REMARK SMILES IDX 6 13 5 14 4 15 3 16 2 17 1 18
REMARK H PARENT
REMARK Flexibility Score: inf
ROOT
ATOM      1  C   UNL     1     -33.235  -7.779  34.129  1.00  0.00     0.000 C 
ENDROOT
BRANCH   1   2
ATOM      2  C   UNL     1     -32.084  -8.773  34.353  1.00  0.00     0.000 C 
BRANCH   2   3
ATOM      3  C   UNL     1     -30.699  -8.149  34.100  1.00  0.00     0.000 C 
BRANCH   3   4
ATOM      4  C   UNL     1     -29.622  -9.129  33.596  1.00  0.00     0.000 C 
BRANCH   4   5
ATOM      5  C   UNL     1     -28.426  -9.337  34.547  1.00  0.00     0.000 C 
BRANCH   5   6
ATOM      6  C   UNL     1     -28.170 -10.798  34.956  1.00  0.00     0.006 C 
BRANCH   6   7
ATOM      7  C   UNL     1     -27.507 -11.620  33.844  1.00  0.00     0.053 C 
BRANCH   7   8
ATOM      8  C   UNL     1     -26.021 -11.624  34.012  1.00  0.00     0.041 C 
ATOM      9  O   UNL     1     -25.270 -11.510  33.008  1.00  0.00    -0.550 OA
ATOM     10  O   UNL     1     -25.465 -11.703  35.283  1.00  0.00    -0.550 OA
ENDBRANCH   7   8
ENDBRANCH   6   7
ENDBRANCH   5   6
ENDBRANCH   4   5
ENDBRANCH   3   4
ENDBRANCH   2   3
ENDBRANCH   1   2
BRANCH   1  11
ATOM     11  C   UNL     1     -33.071  -6.968  32.831  1.00  0.00     0.000 C 
BRANCH  11  12
ATOM     12  C   UNL     1     -34.264  -7.139  31.875  1.00  0.00    -0.000 C 
BRANCH  12  13
ATOM     13  C   UNL     1     -35.558  -7.532  32.609  1.00  0.00    -0.000 C 
BRANCH  13  14
ATOM     14  C   UNL     1     -36.819  -6.988  31.916  1.00  0.00    -0.000 C 
BRANCH  14  15
ATOM     15  C   UNL     1     -38.056  -7.028  32.828  1.00  0.00    -0.000 C 
BRANCH  15  16
ATOM     16  C   UNL     1     -38.736  -5.654  32.966  1.00  0.00    -0.000 C 
BRANCH  16  17
ATOM     17  C   UNL     1     -38.758  -5.152  34.419  1.00  0.00    -0.003 C 
ATOM     18  C   UNL     1     -37.720  -5.850  35.299  1.00  0.00     0.004 C 
ENDBRANCH  16  17
ENDBRANCH  15  16
ENDBRANCH  14  15
ENDBRANCH  13  14
ENDBRANCH  12  13
ENDBRANCH  11  12
ENDBRANCH   1  11
TORSDOF 14
ENDMDL
MODEL 7
REMARK VINA RESULT:    -4.146      3.638      5.719
REMARK INTER + INTRA:          -8.355
REMARK INTER:                  -7.139
REMARK INTRA:                  -1.216
REMARK UNBOUND:                -0.816
REMARK SMILES CCCCCCCCCCCCCCCC(=O)[O-]
REMARK SMILES IDX 9 1 10 2 11 3 12 4 13 5 14 6 15 7 16 8 17 9 18 10 8 11 7 12
REMARK SMILES IDX 6 13 5 14 4 15 3 16 2 17 1 18
REMARK H PARENT
REMARK Flexibility Score: inf
ROOT
ATOM      1  C   UNL     1     -22.656 -12.421  35.797  1.00  0.00     0.000 C 
ENDROOT
BRANCH   1   2
ATOM      2  C   UNL     1     -21.612 -13.372  35.188  1.00  0.00     0.000 C 
BRANCH   2   3
ATOM      3  C   UNL     1     -21.417 -13.153  33.676  1.00  0.00     0.000 C 
BRANCH   3   4
ATOM      4  C   UNL     1     -22.587 -13.627  32.791  1.00  0.00     0.000 C 
BRANCH   4   5
ATOM      5  C   UNL     1     -23.197 -12.547  31.875  1.00  0.00     0.000 C 
BRANCH   5   6
ATOM      6  C   UNL     1     -24.709 -12.324  32.054  1.00  0.00     0.006 C 
BRANCH   6   7
ATOM      7  C   UNL     1     -25.037 -11.383  33.220  1.00  0.00     0.053 C 
BRANCH   7   8
ATOM      8  C   UNL     1     -26.461 -11.556  33.644  1.00  0.00     0.041 C 
ATOM      9  O   UNL     1     -26.771 -11.498  34.863  1.00  0.00    -0.550 OA
ATOM     10  O   UNL     1     -27.455 -11.730  32.689  1.00  0.00    -0.550 OA
ENDBRANCH   7   8
ENDBRANCH   6   7
ENDBRANCH   5   6
ENDBRANCH   4   5
ENDBRANCH   3   4
ENDBRANCH   2   3
ENDBRANCH   1   2
BRANCH   1  11
ATOM     11  C   UNL     1     -22.478 -12.243  37.315  1.00  0.00     0.000 C 
BRANCH  11  12
ATOM     12  C   UNL     1     -23.778 -12.510  38.095  1.00  0.00    -0.000 C 
BRANCH  12  13
ATOM     13  C   UNL     1     -23.760 -13.863  38.827  1.00  0.00    -0.000 C 
BRANCH  13  14
ATOM     14  C   UNL     1     -22.454 -14.643  38.595  1.00  0.00    -0.000 C 
BRANCH  14  15
ATOM     15  C   UNL     1     -21.714 -14.956  39.906  1.00  0.00    -0.000 C 
BRANCH  15  16
ATOM     16  C   UNL     1     -21.400 -13.693  40.727  1.00  0.00    -0.000 C 
BRANCH  16  17
ATOM     17  C   UNL     1     -21.689 -13.878  42.225  1.00  0.00    -0.003 C 
ATOM     18  C   UNL     1     -23.045 -14.535  42.487  1.00  0.00     0.004 C 
ENDBRANCH  16  17
ENDBRANCH  15  16
ENDBRANCH  14  15
ENDBRANCH  13  14
ENDBRANCH  12  13
ENDBRANCH  11  12
ENDBRANCH   1  11
TORSDOF 14
ENDMDL
MODEL 8
REMARK VINA RESULT:    -4.126      1.676      2.744
REMARK INTER + INTRA:          -8.319
REMARK INTER:                  -7.331
REMARK INTRA:                  -0.988
REMARK UNBOUND:                -0.816
REMARK SMILES CCCCCCCCCCCCCCCC(=O)[O-]
REMARK SMILES IDX 9 1 10 2 11 3 12 4 13 5 14 6 15 7 16 8 17 9 18 10 8 11 7 12
REMARK SMILES IDX 6 13 5 14 4 15 3 16 2 17 1 18
REMARK H PARENT
REMARK Flexibility Score: inf
ROOT
ATOM      1  C   UNL     1     -27.432 -11.661  33.630  1.00  0.00     0.000 C 
ENDROOT
BRANCH   1   2
ATOM      2  C   UNL     1     -28.095 -11.303  34.970  1.00  0.00     0.000 C 
BRANCH   2   3
ATOM      3  C   UNL     1     -28.228  -9.784  35.182  1.00  0.00     0.000 C 
BRANCH   3   4
ATOM      4  C   UNL     1     -28.597  -8.977  33.922  1.00  0.00     0.000 C 
BRANCH   4   5
ATOM      5  C   UNL     1     -30.074  -9.075  33.488  1.00  0.00     0.000 C 
BRANCH   5   6
ATOM      6  C   UNL     1     -31.075  -8.399  34.440  1.00  0.00     0.006 C 
BRANCH   6   7
ATOM      7  C   UNL     1     -31.914  -7.316  33.749  1.00  0.00     0.053 C 
BRANCH   7   8
ATOM      8  C   UNL     1     -33.235  -7.872  33.322  1.00  0.00     0.041 C 
ATOM      9  O   UNL     1     -34.300  -7.444  33.840  1.00  0.00    -0.550 OA
ATOM     10  O   UNL     1     -33.295  -8.829  32.317  1.00  0.00    -0.550 OA
ENDBRANCH   7   8
ENDBRANCH   6   7
ENDBRANCH   5   6
ENDBRANCH   4   5
ENDBRANCH   3   4
ENDBRANCH   2   3
ENDBRANCH   1   2
BRANCH   1  11
ATOM     11  C   UNL     1     -25.896 -11.651  33.710  1.00  0.00     0.000 C 
BRANCH  11  12
ATOM     12  C   UNL     1     -25.233 -11.930  32.350  1.00  0.00    -0.000 C 
BRANCH  12  13
ATOM     13  C   UNL     1     -23.702 -11.792  32.400  1.00  0.00    -0.000 C 
BRANCH  13  14
ATOM     14  C   UNL     1     -22.978 -13.045  31.877  1.00  0.00    -0.000 C 
BRANCH  14  15
ATOM     15  C   UNL     1     -22.416 -13.917  33.012  1.00  0.00    -0.000 C 
BRANCH  15  16
ATOM     16  C   UNL     1     -21.551 -13.118  34.003  1.00  0.00    -0.000 C 
BRANCH  16  17
ATOM     17  C   UNL     1     -22.004 -13.302  35.460  1.00  0.00    -0.003 C 
ATOM     18  C   UNL     1     -22.817 -12.115  35.978  1.00  0.00     0.004 C 
ENDBRANCH  16  17
ENDBRANCH  15  16
ENDBRANCH  14  15
ENDBRANCH  13  14
ENDBRANCH  12  13
ENDBRANCH  11  12
ENDBRANCH   1  11
TORSDOF 14
ENDMDL
MODEL 9
REMARK VINA RESULT:    -3.976      6.267      8.454
REMARK INTER + INTRA:          -8.047
REMARK INTER:                  -6.320
REMARK INTRA:                  -1.727
REMARK UNBOUND:                -0.816
REMARK SMILES CCCCCCCCCCCCCCCC(=O)[O-]
REMARK SMILES IDX 9 1 10 2 11 3 12 4 13 5 14 6 15 7 16 8 17 9 18 10 8 11 7 12
REMARK SMILES IDX 6 13 5 14 4 15 3 16 2 17 1 18
REMARK H PARENT
REMARK Flexibility Score: inf
ROOT
ATOM      1  C   UNL     1     -22.430 -11.578  40.285  1.00  0.00     0.000 C 
ENDROOT
BRANCH   1   2
ATOM      2  C   UNL     1     -23.440 -11.464  39.131  1.00  0.00     0.000 C 
BRANCH   2   3
ATOM      3  C   UNL     1     -23.772 -12.825  38.492  1.00  0.00     0.000 C 
BRANCH   3   4
ATOM      4  C   UNL     1     -22.863 -13.991  38.929  1.00  0.00     0.000 C 
BRANCH   4   5
ATOM      5  C   UNL     1     -21.686 -14.298  37.981  1.00  0.00     0.000 C 
BRANCH   5   6
ATOM      6  C   UNL     1     -21.353 -13.180  36.978  1.00  0.00     0.006 C 
BRANCH   6   7
ATOM      7  C   UNL     1     -21.376 -13.662  35.522  1.00  0.00     0.053 C 
BRANCH   7   8
ATOM      8  C   UNL     1     -22.342 -12.850  34.719  1.00  0.00     0.041 C 
ATOM      9  O   UNL     1     -23.101 -12.022  35.289  1.00  0.00    -0.550 OA
ATOM     10  O   UNL     1     -22.371 -12.972  33.335  1.00  0.00    -0.550 OA
ENDBRANCH   7   8
ENDBRANCH   6   7
ENDBRANCH   5   6
ENDBRANCH   4   5
ENDBRANCH   3   4
ENDBRANCH   2   3
ENDBRANCH   1   2
BRANCH   1  11
ATOM     11  C   UNL     1     -21.054 -10.992  39.925  1.00  0.00     0.000 C 
BRANCH  11  12
ATOM     12  C   UNL     1     -20.024 -11.171  41.054  1.00  0.00    -0.000 C 
BRANCH  12  13
ATOM     13  C   UNL     1     -19.459 -12.601  41.116  1.00  0.00    -0.000 C 
BRANCH  13  14
ATOM     14  C   UNL     1     -19.919 -13.364  42.370  1.00  0.00    -0.000 C 
BRANCH  14  15
ATOM     15  C   UNL     1     -20.833 -14.554  42.034  1.00  0.00    -0.000 C 
BRANCH  15  16
ATOM     16  C   UNL     1     -21.245 -15.358  43.280  1.00  0.00    -0.000 C 
BRANCH  16  17
ATOM     17  C   UNL     1     -22.770 -15.492  43.415  1.00  0.00    -0.003 C 
ATOM     18  C   UNL     1     -23.526 -14.382  42.685  1.00  0.00     0.004 C 
ENDBRANCH  16  17
ENDBRANCH  15  16
ENDBRANCH  14  15
ENDBRANCH  13  14
ENDBRANCH  12  13
ENDBRANCH  11  12
ENDBRANCH   1  11
TORSDOF 14
ENDMDL
