MODEL 1
REMARK VINA RESULT:    -2.837      0.000      0.000
REMARK INTER + INTRA:          -6.004
REMARK INTER:                  -5.491
REMARK INTRA:                  -0.512
REMARK UNBOUND:                -0.512
REMARK SMILES CCCCCCCCCCCCCCCCCC(=O)[O-]
REMARK SMILES IDX 10 1 11 2 12 3 13 4 14 5 15 6 16 7 17 8 18 9 19 10 20 11
REMARK SMILES IDX 9 12 8 13 7 14 6 15 5 16 4 17 3 18 2 19 1 20
REMARK H PARENT
REMARK Flexibility Score: inf
ROOT
ATOM      1  C   UNL     1       2.600  13.025  15.580  1.00  0.00     0.000 C 
ENDROOT
BRANCH   1   2
ATOM      2  C   UNL     1       2.729  14.292  16.443  1.00  0.00     0.000 C 
BRANCH   2   3
ATOM      3  C   UNL     1       1.787  14.281  17.658  1.00  0.00     0.000 C 
BRANCH   3   4
ATOM      4  C   UNL     1       0.836  15.487  17.688  1.00  0.00     0.000 C 
BRANCH   4   5
ATOM      5  C   UNL     1      -0.306  15.264  18.687  1.00  0.00     0.000 C 
BRANCH   5   6
ATOM      6  C   UNL     1      -1.409  16.316  18.501  1.00  0.00     0.000 C 
BRANCH   6   7
ATOM      7  C   UNL     1      -1.835  16.973  19.823  1.00  0.00     0.006 C 
BRANCH   7   8
ATOM      8  C   UNL     1      -1.697  18.501  19.799  1.00  0.00     0.053 C 
BRANCH   8   9
ATOM      9  C   UNL     1      -1.049  18.946  18.526  1.00  0.00     0.041 C 
ATOM     10  O   UNL     1       0.198  19.121  18.476  1.00  0.00    -0.550 OA
ATOM     11  O   UNL     1      -1.814  19.117  17.379  1.00  0.00    -0.550 OA
ENDBRANCH   8   9
ENDBRANCH   7   8
ENDBRANCH   6   7
ENDBRANCH   5   6
ENDBRANCH   4   5
ENDBRANCH   3   4
ENDBRANCH   2   3
ENDBRANCH   1   2
BRANCH   1  12
ATOM     12  C   UNL     1       3.671  12.941  14.476  1.00  0.00     0.000 C 
BRANCH  12  13
ATOM     13  C   UNL     1       5.095  12.635  14.974  1.00  0.00    -0.000 C 
BRANCH  13  14
ATOM     14  C   UNL     1       5.111  11.904  16.328  1.00  0.00    -0.000 C 
BRANCH  14  15
ATOM     15  C   UNL     1       6.496  11.919  16.996  1.00  0.00    -0.000 C 
BRANCH  15  16
ATOM     16  C   UNL     1       6.621  10.931  18.177  1.00  0.00    -0.000 C 
BRANCH  16  17
ATOM     17  C   UNL     1       5.898  11.441  19.437  1.00  0.00    -0.000 C 
BRANCH  17  18
ATOM     18  C   UNL     1       4.559  10.727  19.680  1.00  0.00    -0.000 C 
BRANCH  18  19
ATOM     19  C   UNL     1       3.406  11.343  18.874  1.00  0.00    -0.003 C 
ATOM     20  C   UNL     1       2.537  10.261  18.243  1.00  0.00     0.004 C 
ENDBRANCH  18  19
ENDBRANCH  17  18
ENDBRANCH  16  17
ENDBRANCH  15  16
ENDBRANCH  14  15
ENDBRANCH  13  14
ENDBRANCH  12  13
ENDBRANCH   1  12
TORSDOF 16
ENDMDL
MODEL 2
REMARK VINA RESULT:    -2.754      2.663      7.653
REMARK INTER + INTRA:          -5.843
REMARK INTER:                  -4.873
REMARK INTRA:                  -0.970
REMARK UNBOUND:                -0.512
REMARK SMILES CCCCCCCCCCCCCCCCCC(=O)[O-]
REMARK SMILES IDX 10 1 11 2 12 3 13 4 14 5 15 6 16 7 17 8 18 9 19 10 20 11
REMARK SMILES IDX 9 12 8 13 7 14 6 15 5 16 4 17 3 18 2 19 1 20
REMARK H PARENT
REMARK Flexibility Score: inf
ROOT
ATOM      1  C   UNL     1       2.892  11.806  17.894  1.00  0.00     0.000 C 
ENDROOT
BRANCH   1   2
ATOM      2  C   UNL     1       3.663  10.881  18.851  1.00  0.00     0.000 C 
BRANCH   2   3
ATOM      3  C   UNL     1       4.999  11.485  19.313  1.00  0.00     0.000 C 
BRANCH   3   4
ATOM      4  C   UNL     1       6.203  10.948  18.525  1.00  0.00     0.000 C 
BRANCH   4   5
ATOM      5  C   UNL     1       6.665  11.959  17.468  1.00  0.00     0.000 C 
BRANCH   5   6
ATOM      6  C   UNL     1       5.983  11.691  16.119  1.00  0.00     0.000 C 
BRANCH   6   7
ATOM      7  C   UNL     1       5.205  12.906  15.592  1.00  0.00     0.006 C 
BRANCH   7   8
ATOM      8  C   UNL     1       4.526  12.638  14.242  1.00  0.00     0.053 C 
BRANCH   8   9
ATOM      9  C   UNL     1       3.041  12.752  14.374  1.00  0.00     0.041 C 
ATOM     10  O   UNL     1       2.526  13.779  14.890  1.00  0.00    -0.550 OA
ATOM     11  O   UNL     1       2.220  11.746  13.879  1.00  0.00    -0.550 OA
ENDBRANCH   8   9
ENDBRANCH   7   8
ENDBRANCH   6   7
ENDBRANCH   5   6
ENDBRANCH   4   5
ENDBRANCH   3   4
ENDBRANCH   2   3
ENDBRANCH   1   2
BRANCH   1  12
ATOM     12  C   UNL     1       2.503  13.147  18.543  1.00  0.00     0.000 C 
BRANCH  12  13
ATOM     13  C   UNL     1       1.908  14.189  17.578  1.00  0.00    -0.000 C 
BRANCH  13  14
ATOM     14  C   UNL     1       1.278  15.388  18.307  1.00  0.00    -0.000 C 
BRANCH  14  15
ATOM     15  C   UNL     1      -0.212  15.572  17.974  1.00  0.00    -0.000 C 
BRANCH  15  16
ATOM     16  C   UNL     1      -1.143  15.405  19.195  1.00  0.00    -0.000 C 
BRANCH  16  17
ATOM     17  C   UNL     1      -1.773  16.740  19.630  1.00  0.00    -0.000 C 
BRANCH  17  18
ATOM     18  C   UNL     1      -1.558  17.859  18.600  1.00  0.00    -0.000 C 
BRANCH  18  19
ATOM     19  C   UNL     1      -0.661  18.987  19.130  1.00  0.00    -0.003 C 
ATOM     20  C   UNL     1       0.604  19.125  18.289  1.00  0.00     0.004 C 
ENDBRANCH  18  19
ENDBRANCH  17  18
ENDBRANCH  16  17
ENDBRANCH  15  16
ENDBRANCH  14  15
ENDBRANCH  13  14
ENDBRANCH  12  13
ENDBRANCH   1  12
TORSDOF 16
ENDMDL
MODEL 3
REMARK VINA RESULT:    -2.514      2.504      2.900
REMARK INTER + INTRA:          -5.377
REMARK INTER:                  -4.201
REMARK INTRA:                  -1.177
REMARK UNBOUND:                -0.512
REMARK SMILES CCCCCCCCCCCCCCCCCC(=O)[O-]
REMARK SMILES IDX 10 1 11 2 12 3 13 4 14 5 15 6 16 7 17 8 18 9 19 10 20 11
REMARK SMILES IDX 9 12 8 13 7 14 6 15 5 16 4 17 3 18 2 19 1 20
REMARK H PARENT
REMARK Flexibility Score: inf
ROOT
ATOM      1  C   UNL     1       2.728  13.789  16.395  1.00  0.00     0.000 C 
ENDROOT
BRANCH   1   2
ATOM      2  C   UNL     1       1.459  14.643  16.556  1.00  0.00     0.000 C 
BRANCH   2   3
ATOM      3  C   UNL     1       1.250  15.130  17.999  1.00  0.00     0.000 C 
BRANCH   3   4
ATOM      4  C   UNL     1       1.004  16.643  18.089  1.00  0.00     0.000 C 
BRANCH   4   5
ATOM      5  C   UNL     1      -0.224  16.952  18.955  1.00  0.00     0.000 C 
BRANCH   5   6
ATOM      6  C   UNL     1      -1.481  16.283  18.379  1.00  0.00     0.000 C 
BRANCH   6   7
ATOM      7  C   UNL     1      -1.851  14.982  19.107  1.00  0.00     0.006 C 
BRANCH   7   8
ATOM      8  C   UNL     1      -2.125  15.195  20.602  1.00  0.00     0.053 C 
BRANCH   8   9
ATOM      9  C   UNL     1      -1.923  13.918  21.356  1.00  0.00     0.041 C 
ATOM     10  O   UNL     1      -2.109  13.881  22.601  1.00  0.00    -0.550 OA
ATOM     11  O   UNL     1      -1.581  12.756  20.676  1.00  0.00    -0.550 OA
ENDBRANCH   8   9
ENDBRANCH   7   8
ENDBRANCH   6   7
ENDBRANCH   5   6
ENDBRANCH   4   5
ENDBRANCH   3   4
ENDBRANCH   2   3
ENDBRANCH   1   2
BRANCH   1  12
ATOM     12  C   UNL     1       2.801  13.077  15.031  1.00  0.00     0.000 C 
BRANCH  12  13
ATOM     13  C   UNL     1       4.127  12.349  14.747  1.00  0.00    -0.000 C 
BRANCH  13  14
ATOM     14  C   UNL     1       5.316  12.953  15.515  1.00  0.00    -0.000 C 
BRANCH  14  15
ATOM     15  C   UNL     1       6.149  11.891  16.254  1.00  0.00    -0.000 C 
BRANCH  15  16
ATOM     16  C   UNL     1       6.378  12.216  17.746  1.00  0.00    -0.000 C 
BRANCH  16  17
ATOM     17  C   UNL     1       6.283  10.961  18.633  1.00  0.00    -0.000 C 
BRANCH  17  18
ATOM     18  C   UNL     1       4.974  10.901  19.435  1.00  0.00    -0.000 C 
BRANCH  18  19
ATOM     19  C   UNL     1       3.790  11.524  18.682  1.00  0.00    -0.003 C 
ATOM     20  C   UNL     1       2.724  10.479  18.373  1.00  0.00     0.004 C 
ENDBRANCH  18  19
ENDBRANCH  17  18
ENDBRANCH  16  17
ENDBRANCH  15  16
ENDBRANCH  14  15
ENDBRANCH  13  14
ENDBRANCH  12  13
ENDBRANCH   1  12
TORSDOF 16
ENDMDL
MODEL 4
REMARK VINA RESULT:    -2.459      3.072      7.664
REMARK INTER + INTRA:          -5.271
REMARK INTER:                  -4.262
REMARK INTRA:                  -1.009
REMARK UNBOUND:                -0.512
REMARK SMILES CCCCCCCCCCCCCCCCCC(=O)[O-]
REMARK SMILES IDX 10 1 11 2 12 3 13 4 14 5 15 6 16 7 17 8 18 9 19 10 20 11
REMARK SMILES IDX 9 12 8 13 7 14 6 15 5 16 4 17 3 18 2 19 1 20
REMARK H PARENT
REMARK Flexibility Score: inf
ROOT
ATOM      1  C   UNL     1       2.903  12.258  17.847  1.00  0.00     0.000 C 
ENDROOT
BRANCH   1   2
ATOM      2  C   UNL     1       2.779  10.998  18.721  1.00  0.00     0.000 C 
BRANCH   2   3
ATOM      3  C   UNL     1       4.074  10.675  19.484  1.00  0.00     0.000 C 
BRANCH   3   4
ATOM      4  C   UNL     1       5.201  11.680  19.203  1.00  0.00     0.000 C 
BRANCH   4   5
ATOM      5  C   UNL     1       6.523  10.960  18.910  1.00  0.00     0.000 C 
BRANCH   5   6
ATOM      6  C   UNL     1       7.106  11.413  17.563  1.00  0.00     0.000 C 
BRANCH   6   7
ATOM      7  C   UNL     1       6.054  11.459  16.444  1.00  0.00     0.006 C 
BRANCH   7   8
ATOM      8  C   UNL     1       5.775  12.884  15.950  1.00  0.00     0.053 C 
BRANCH   8   9
ATOM      9  C   UNL     1       4.940  12.851  14.709  1.00  0.00     0.041 C 
ATOM     10  O   UNL     1       5.484  12.923  13.575  1.00  0.00    -0.550 OA
ATOM     11  O   UNL     1       3.563  12.689  14.802  1.00  0.00    -0.550 OA
ENDBRANCH   8   9
ENDBRANCH   7   8
ENDBRANCH   6   7
ENDBRANCH   5   6
ENDBRANCH   4   5
ENDBRANCH   3   4
ENDBRANCH   2   3
ENDBRANCH   1   2
BRANCH   1  12
ATOM     12  C   UNL     1       2.194  13.481  18.458  1.00  0.00     0.000 C 
BRANCH  12  13
ATOM     13  C   UNL     1       1.927  14.636  17.475  1.00  0.00    -0.000 C 
BRANCH  13  14
ATOM     14  C   UNL     1       0.556  15.299  17.690  1.00  0.00    -0.000 C 
BRANCH  14  15
ATOM     15  C   UNL     1       0.630  16.541  18.595  1.00  0.00    -0.000 C 
BRANCH  15  16
ATOM     16  C   UNL     1      -0.606  17.461  18.483  1.00  0.00    -0.000 C 
BRANCH  16  17
ATOM     17  C   UNL     1      -1.922  16.688  18.679  1.00  0.00    -0.000 C 
BRANCH  17  18
ATOM     18  C   UNL     1      -2.006  16.000  20.050  1.00  0.00    -0.000 C 
BRANCH  18  19
ATOM     19  C   UNL     1      -2.125  14.473  19.940  1.00  0.00    -0.003 C 
ATOM     20  C   UNL     1      -2.124  13.821  21.318  1.00  0.00     0.004 C 
ENDBRANCH  18  19
ENDBRANCH  17  18
ENDBRANCH  16  17
ENDBRANCH  15  16
ENDBRANCH  14  15
ENDBRANCH  13  14
ENDBRANCH  12  13
ENDBRANCH   1  12
TORSDOF 16
ENDMDL
MODEL 5
REMARK VINA RESULT:    -2.437      2.813      7.726
REMARK INTER + INTRA:          -5.228
REMARK INTER:                  -4.167
REMARK INTRA:                  -1.062
REMARK UNBOUND:                -0.512
REMARK SMILES CCCCCCCCCCCCCCCCCC(=O)[O-]
REMARK SMILES IDX 10 1 11 2 12 3 13 4 14 5 15 6 16 7 17 8 18 9 19 10 20 11
REMARK SMILES IDX 9 12 8 13 7 14 6 15 5 16 4 17 3 18 2 19 1 20
REMARK H PARENT
REMARK Flexibility Score: inf
ROOT
ATOM      1  C   UNL     1       1.657  14.225  16.595  1.00  0.00     0.000 C 
ENDROOT
BRANCH   1   2
ATOM      2  C   UNL     1       3.085  14.013  16.064  1.00  0.00     0.000 C 
BRANCH   2   3
ATOM      3  C   UNL     1       3.171  12.882  15.027  1.00  0.00     0.000 C 
BRANCH   3   4
ATOM      4  C   UNL     1       4.617  12.478  14.701  1.00  0.00     0.000 C 
BRANCH   4   5
ATOM      5  C   UNL     1       5.511  12.575  15.943  1.00  0.00     0.000 C 
BRANCH   5   6
ATOM      6  C   UNL     1       5.499  11.256  16.730  1.00  0.00     0.000 C 
BRANCH   6   7
ATOM      7  C   UNL     1       5.872  11.441  18.208  1.00  0.00     0.006 C 
BRANCH   7   8
ATOM      8  C   UNL     1       4.808  10.882  19.163  1.00  0.00     0.053 C 
BRANCH   8   9
ATOM      9  C   UNL     1       3.436  11.195  18.656  1.00  0.00     0.041 C 
ATOM     10  O   UNL     1       2.811  10.353  17.957  1.00  0.00    -0.550 OA
ATOM     11  O   UNL     1       2.825  12.395  18.998  1.00  0.00    -0.550 OA
ENDBRANCH   8   9
ENDBRANCH   7   8
ENDBRANCH   6   7
ENDBRANCH   5   6
ENDBRANCH   4   5
ENDBRANCH   3   4
ENDBRANCH   2   3
ENDBRANCH   1   2
BRANCH   1  12
ATOM     12  C   UNL     1       1.602  15.194  17.791  1.00  0.00     0.000 C 
BRANCH  12  13
ATOM     13  C   UNL     1       0.690  16.419  17.594  1.00  0.00    -0.000 C 
BRANCH  13  14
ATOM     14  C   UNL     1       0.930  17.517  18.644  1.00  0.00    -0.000 C 
BRANCH  14  15
ATOM     15  C   UNL     1      -0.126  18.634  18.590  1.00  0.00    -0.000 C 
BRANCH  15  16
ATOM     16  C   UNL     1      -1.142  18.580  19.752  1.00  0.00    -0.000 C 
BRANCH  16  17
ATOM     17  C   UNL     1      -2.124  17.403  19.607  1.00  0.00    -0.000 C 
BRANCH  17  18
ATOM     18  C   UNL     1      -2.114  16.470  20.828  1.00  0.00    -0.000 C 
BRANCH  18  19
ATOM     19  C   UNL     1      -2.123  14.985  20.437  1.00  0.00    -0.003 C 
ATOM     20  C   UNL     1      -2.029  14.814  18.925  1.00  0.00     0.004 C 
ENDBRANCH  18  19
ENDBRANCH  17  18
ENDBRANCH  16  17
ENDBRANCH  15  16
ENDBRANCH  14  15
ENDBRANCH  13  14
ENDBRANCH  12  13
ENDBRANCH   1  12
TORSDOF 16
ENDMDL
MODEL 6
REMARK VINA RESULT:    -2.435      1.203      3.364
REMARK INTER + INTRA:          -5.225
REMARK INTER:                  -4.058
REMARK INTRA:                  -1.168
REMARK UNBOUND:                -0.512
REMARK SMILES CCCCCCCCCCCCCCCCCC(=O)[O-]
REMARK SMILES IDX 10 1 11 2 12 3 13 4 14 5 15 6 16 7 17 8 18 9 19 10 20 11
REMARK SMILES IDX 9 12 8 13 7 14 6 15 5 16 4 17 3 18 2 19 1 20
REMARK H PARENT
REMARK Flexibility Score: inf
ROOT
ATOM      1  C   UNL     1       3.101  10.580  18.726  1.00  0.00     0.000 C 
ENDROOT
BRANCH   1   2
ATOM      2  C   UNL     1       2.997  11.915  17.969  1.00  0.00     0.000 C 
BRANCH   2   3
ATOM      3  C   UNL     1       2.107  12.939  18.692  1.00  0.00     0.000 C 
BRANCH   3   4
ATOM      4  C   UNL     1       2.353  14.381  18.224  1.00  0.00     0.000 C 
BRANCH   4   5
ATOM      5  C   UNL     1       1.121  14.946  17.505  1.00  0.00     0.000 C 
BRANCH   5   6
ATOM      6  C   UNL     1       0.323  15.873  18.433  1.00  0.00     0.000 C 
BRANCH   6   7
ATOM      7  C   UNL     1      -1.196  15.697  18.287  1.00  0.00     0.006 C 
BRANCH   7   8
ATOM      8  C   UNL     1      -1.956  17.030  18.335  1.00  0.00     0.053 C 
BRANCH   8   9
ATOM      9  C   UNL     1      -1.588  17.796  19.566  1.00  0.00     0.041 C 
ATOM     10  O   UNL     1      -2.080  17.478  20.682  1.00  0.00    -0.550 OA
ATOM     11  O   UNL     1      -0.662  18.829  19.492  1.00  0.00    -0.550 OA
ENDBRANCH   8   9
ENDBRANCH   7   8
ENDBRANCH   6   7
ENDBRANCH   5   6
ENDBRANCH   4   5
ENDBRANCH   3   4
ENDBRANCH   2   3
ENDBRANCH   1   2
BRANCH   1  12
ATOM     12  C   UNL     1       4.342  10.503  19.635  1.00  0.00     0.000 C 
BRANCH  12  13
ATOM     13  C   UNL     1       5.403  11.590  19.381  1.00  0.00    -0.000 C 
BRANCH  13  14
ATOM     14  C   UNL     1       6.661  11.044  18.683  1.00  0.00    -0.000 C 
BRANCH  14  15
ATOM     15  C   UNL     1       6.879  11.651  17.287  1.00  0.00    -0.000 C 
BRANCH  15  16
ATOM     16  C   UNL     1       5.607  11.655  16.411  1.00  0.00    -0.000 C 
BRANCH  16  17
ATOM     17  C   UNL     1       5.540  12.887  15.492  1.00  0.00    -0.000 C 
BRANCH  17  18
ATOM     18  C   UNL     1       4.516  12.726  14.358  1.00  0.00    -0.000 C 
BRANCH  18  19
ATOM     19  C   UNL     1       3.120  13.236  14.744  1.00  0.00    -0.003 C 
ATOM     20  C   UNL     1       2.032  12.293  14.243  1.00  0.00     0.004 C 
ENDBRANCH  18  19
ENDBRANCH  17  18
ENDBRANCH  16  17
ENDBRANCH  15  16
ENDBRANCH  14  15
ENDBRANCH  13  14
ENDBRANCH  12  13
ENDBRANCH   1  12
TORSDOF 16
ENDMDL
MODEL 7
REMARK VINA RESULT:    -2.427      0.653      2.952
REMARK INTER + INTRA:          -5.210
REMARK INTER:                  -4.549
REMARK INTRA:                  -0.661
REMARK UNBOUND:                -0.512
REMARK SMILES CCCCCCCCCCCCCCCCCC(=O)[O-]
REMARK SMILES IDX 10 1 11 2 12 3 13 4 14 5 15 6 16 7 17 8 18 9 19 10 20 11
REMARK SMILES IDX 9 12 8 13 7 14 6 15 5 16 4 17 3 18 2 19 1 20
REMARK H PARENT
REMARK Flexibility Score: inf
ROOT
ATOM      1  C   UNL     1       3.122  12.081  18.014  1.00  0.00     0.000 C 
ENDROOT
BRANCH   1   2
ATOM      2  C   UNL     1       2.144  13.100  18.625  1.00  0.00     0.000 C 
BRANCH   2   3
ATOM      3  C   UNL     1       2.263  14.493  17.986  1.00  0.00     0.000 C 
BRANCH   3   4
ATOM      4  C   UNL     1       0.905  15.079  17.571  1.00  0.00     0.000 C 
BRANCH   4   5
ATOM      5  C   UNL     1      -0.106  14.997  18.721  1.00  0.00     0.000 C 
BRANCH   5   6
ATOM      6  C   UNL     1      -1.303  15.925  18.464  1.00  0.00     0.000 C 
BRANCH   6   7
ATOM      7  C   UNL     1      -1.917  16.478  19.759  1.00  0.00     0.006 C 
BRANCH   7   8
ATOM      8  C   UNL     1      -2.104  18.001  19.725  1.00  0.00     0.053 C 
BRANCH   8   9
ATOM      9  C   UNL     1      -1.265  18.605  18.644  1.00  0.00     0.041 C 
ATOM     10  O   UNL     1      -1.796  18.981  17.564  1.00  0.00    -0.550 OA
ATOM     11  O   UNL     1       0.095  18.802  18.846  1.00  0.00    -0.550 OA
ENDBRANCH   8   9
ENDBRANCH   7   8
ENDBRANCH   6   7
ENDBRANCH   5   6
ENDBRANCH   4   5
ENDBRANCH   3   4
ENDBRANCH   2   3
ENDBRANCH   1   2
BRANCH   1  12
ATOM     12  C   UNL     1       3.109  10.727  18.747  1.00  0.00     0.000 C 
BRANCH  12  13
ATOM     13  C   UNL     1       4.277  10.506  19.726  1.00  0.00    -0.000 C 
BRANCH  13  14
ATOM     14  C   UNL     1       5.447  11.477  19.488  1.00  0.00    -0.000 C 
BRANCH  14  15
ATOM     15  C   UNL     1       6.478  10.932  18.486  1.00  0.00    -0.000 C 
BRANCH  15  16
ATOM     16  C   UNL     1       6.673  11.836  17.248  1.00  0.00    -0.000 C 
BRANCH  16  17
ATOM     17  C   UNL     1       5.505  11.716  16.254  1.00  0.00    -0.000 C 
BRANCH  17  18
ATOM     18  C   UNL     1       5.513  12.829  15.195  1.00  0.00    -0.000 C 
BRANCH  18  19
ATOM     19  C   UNL     1       4.430  12.634  14.123  1.00  0.00    -0.003 C 
ATOM     20  C   UNL     1       3.054  13.016  14.657  1.00  0.00     0.004 C 
ENDBRANCH  18  19
ENDBRANCH  17  18
ENDBRANCH  16  17
ENDBRANCH  15  16
ENDBRANCH  14  15
ENDBRANCH  13  14
ENDBRANCH  12  13
ENDBRANCH   1  12
TORSDOF 16
ENDMDL
MODEL 8
REMARK VINA RESULT:    -2.373      0.841      1.888
REMARK INTER + INTRA:          -5.106
REMARK INTER:                  -4.155
REMARK INTRA:                  -0.950
REMARK UNBOUND:                -0.512
REMARK SMILES CCCCCCCCCCCCCCCCCC(=O)[O-]
REMARK SMILES IDX 10 1 11 2 12 3 13 4 14 5 15 6 16 7 17 8 18 9 19 10 20 11
REMARK SMILES IDX 9 12 8 13 7 14 6 15 5 16 4 17 3 18 2 19 1 20
REMARK H PARENT
REMARK Flexibility Score: inf
ROOT
ATOM      1  C   UNL     1       1.815  14.121  17.674  1.00  0.00     0.000 C 
ENDROOT
BRANCH   1   2
ATOM      2  C   UNL     1       1.282  15.451  18.234  1.00  0.00     0.000 C 
BRANCH   2   3
ATOM      3  C   UNL     1      -0.226  15.632  17.999  1.00  0.00     0.000 C 
BRANCH   3   4
ATOM      4  C   UNL     1      -1.084  15.013  19.112  1.00  0.00     0.000 C 
BRANCH   4   5
ATOM      5  C   UNL     1      -1.750  16.100  19.965  1.00  0.00     0.000 C 
BRANCH   5   6
ATOM      6  C   UNL     1      -2.016  17.362  19.132  1.00  0.00     0.000 C 
BRANCH   6   7
ATOM      7  C   UNL     1      -1.530  18.645  19.822  1.00  0.00     0.006 C 
BRANCH   7   8
ATOM      8  C   UNL     1      -0.074  18.990  19.478  1.00  0.00     0.053 C 
BRANCH   8   9
ATOM      9  C   UNL     1       0.099  19.100  17.996  1.00  0.00     0.041 C 
ATOM     10  O   UNL     1       1.254  19.124  17.492  1.00  0.00    -0.550 OA
ATOM     11  O   UNL     1      -1.014  19.123  17.165  1.00  0.00    -0.550 OA
ENDBRANCH   8   9
ENDBRANCH   7   8
ENDBRANCH   6   7
ENDBRANCH   5   6
ENDBRANCH   4   5
ENDBRANCH   3   4
ENDBRANCH   2   3
ENDBRANCH   1   2
BRANCH   1  12
ATOM     12  C   UNL     1       2.794  14.315  16.501  1.00  0.00     0.000 C 
BRANCH  12  13
ATOM     13  C   UNL     1       2.965  13.088  15.587  1.00  0.00    -0.000 C 
BRANCH  13  14
ATOM     14  C   UNL     1       4.327  13.063  14.871  1.00  0.00    -0.000 C 
BRANCH  14  15
ATOM     15  C   UNL     1       5.264  11.970  15.412  1.00  0.00    -0.000 C 
BRANCH  15  16
ATOM     16  C   UNL     1       5.978  12.363  16.724  1.00  0.00    -0.000 C 
BRANCH  16  17
ATOM     17  C   UNL     1       6.150  11.162  17.671  1.00  0.00    -0.000 C 
BRANCH  17  18
ATOM     18  C   UNL     1       5.336  11.309  18.966  1.00  0.00    -0.000 C 
BRANCH  18  19
ATOM     19  C   UNL     1       3.866  11.668  18.704  1.00  0.00    -0.003 C 
ATOM     20  C   UNL     1       3.013  10.413  18.552  1.00  0.00     0.004 C 
ENDBRANCH  18  19
ENDBRANCH  17  18
ENDBRANCH  16  17
ENDBRANCH  15  16
ENDBRANCH  14  15
ENDBRANCH  13  14
ENDBRANCH  12  13
ENDBRANCH   1  12
TORSDOF 16
ENDMDL
MODEL 9
REMARK VINA RESULT:    -0.328      3.189      8.047
REMARK INTER + INTRA:          -1.146
REMARK INTER:                  -0.062
REMARK INTRA:                  -1.084
REMARK UNBOUND:                -0.512
REMARK SMILES CCCCCCCCCCCCCCCCCC(=O)[O-]
REMARK SMILES IDX 10 1 11 2 12 3 13 4 14 5 15 6 16 7 17 8 18 9 19 10 20 11
REMARK SMILES IDX 9 12 8 13 7 14 6 15 5 16 4 17 3 18 2 19 1 20
REMARK H PARENT
REMARK Flexibility Score: inf
ROOT
ATOM      1  C   UNL     1       2.966  13.467  16.215  1.00  0.00     0.000 C 
ENDROOT
BRANCH   1   2
ATOM      2  C   UNL     1       3.041  13.046  14.737  1.00  0.00     0.000 C 
BRANCH   2   3
ATOM      3  C   UNL     1       4.472  12.710  14.288  1.00  0.00     0.000 C 
BRANCH   3   4
ATOM      4  C   UNL     1       5.514  12.928  15.395  1.00  0.00     0.000 C 
BRANCH   4   5
ATOM      5  C   UNL     1       5.959  11.592  16.004  1.00  0.00     0.000 C 
BRANCH   5   6
ATOM      6  C   UNL     1       6.798  11.821  17.270  1.00  0.00     0.000 C 
BRANCH   6   7
ATOM      7  C   UNL     1       6.122  11.280  18.539  1.00  0.00     0.006 C 
BRANCH   7   8
ATOM      8  C   UNL     1       4.646  11.686  18.645  1.00  0.00     0.053 C 
BRANCH   8   9
ATOM      9  C   UNL     1       3.849  10.594  19.286  1.00  0.00     0.041 C 
ATOM     10  O   UNL     1       4.206  10.115  20.395  1.00  0.00    -0.550 OA
ATOM     11  O   UNL     1       2.682  10.141  18.684  1.00  0.00    -0.550 OA
ENDBRANCH   8   9
ENDBRANCH   7   8
ENDBRANCH   6   7
ENDBRANCH   5   6
ENDBRANCH   4   5
ENDBRANCH   3   4
ENDBRANCH   2   3
ENDBRANCH   1   2
BRANCH   1  12
ATOM     12  C   UNL     1       1.984  14.629  16.456  1.00  0.00     0.000 C 
BRANCH  12  13
ATOM     13  C   UNL     1       1.453  14.743  17.897  1.00  0.00    -0.000 C 
BRANCH  13  14
ATOM     14  C   UNL     1       0.224  15.663  18.010  1.00  0.00    -0.000 C 
BRANCH  14  15
ATOM     15  C   UNL     1      -0.804  15.159  19.036  1.00  0.00    -0.000 C 
BRANCH  15  16
ATOM     16  C   UNL     1      -1.992  16.124  19.244  1.00  0.00    -0.000 C 
BRANCH  16  17
ATOM     17  C   UNL     1      -1.856  17.400  18.394  1.00  0.00    -0.000 C 
BRANCH  17  18
ATOM     18  C   UNL     1      -1.734  18.671  19.249  1.00  0.00    -0.000 C 
BRANCH  18  19
ATOM     19  C   UNL     1      -0.275  19.087  19.485  1.00  0.00    -0.003 C 
ATOM     20  C   UNL     1       0.505  19.125  18.174  1.00  0.00     0.004 C 
ENDBRANCH  18  19
ENDBRANCH  17  18
ENDBRANCH  16  17
ENDBRANCH  15  16
ENDBRANCH  14  15
ENDBRANCH  13  14
ENDBRANCH  12  13
ENDBRANCH   1  12
TORSDOF 16
ENDMDL
