MODEL 1
REMARK VINA RESULT:    -3.636      0.000      0.000
REMARK INTER + INTRA:          -6.906
REMARK INTER:                  -6.187
REMARK INTRA:                  -0.719
REMARK UNBOUND:                -0.719
REMARK SMILES CCCCCCCCCCCCCC(=O)[O-]
REMARK SMILES IDX 8 1 9 2 10 3 11 4 12 5 13 6 14 7 15 8 16 9 7 10 6 11 5 12
REMARK SMILES IDX 4 13 3 14 2 15 1 16
REMARK H PARENT
REMARK Flexibility Score: inf
ROOT
ATOM      1  C   UNL     1      13.084  -8.370   6.327  1.00  0.00     0.000 C 
ENDROOT
BRANCH   1   2
ATOM      2  C   UNL     1      13.512  -7.877   4.936  1.00  0.00     0.000 C 
BRANCH   2   3
ATOM      3  C   UNL     1      15.015  -7.578   4.853  1.00  0.00     0.000 C 
BRANCH   3   4
ATOM      4  C   UNL     1      15.772  -8.244   6.009  1.00  0.00     0.000 C 
BRANCH   4   5
ATOM      5  C   UNL     1      16.708  -7.243   6.704  1.00  0.00     0.006 C 
BRANCH   5   6
ATOM      6  C   UNL     1      18.187  -7.544   6.429  1.00  0.00     0.053 C 
BRANCH   6   7
ATOM      7  C   UNL     1      18.968  -7.698   7.698  1.00  0.00     0.041 C 
ATOM      8  O   UNL     1      18.906  -6.812   8.591  1.00  0.00    -0.550 OA
ATOM      9  O   UNL     1      19.739  -8.834   7.909  1.00  0.00    -0.550 OA
ENDBRANCH   6   7
ENDBRANCH   5   6
ENDBRANCH   4   5
ENDBRANCH   3   4
ENDBRANCH   2   3
ENDBRANCH   1   2
BRANCH   1  10
ATOM     10  C   UNL     1      11.569  -8.247   6.559  1.00  0.00     0.000 C 
BRANCH  10  11
ATOM     11  C   UNL     1      10.780  -8.049   5.254  1.00  0.00    -0.000 C 
BRANCH  11  12
ATOM     12  C   UNL     1       9.393  -8.727   5.262  1.00  0.00    -0.000 C 
BRANCH  12  13
ATOM     13  C   UNL     1       9.041  -9.315   6.639  1.00  0.00    -0.000 C 
BRANCH  13  14
ATOM     14  C   UNL     1       7.669  -8.846   7.153  1.00  0.00    -0.000 C 
BRANCH  14  15
ATOM     15  C   UNL     1       6.849  -8.073   6.098  1.00  0.00    -0.003 C 
ATOM     16  C   UNL     1       6.436  -6.686   6.589  1.00  0.00     0.004 C 
ENDBRANCH  14  15
ENDBRANCH  13  14
ENDBRANCH  12  13
ENDBRANCH  11  12
ENDBRANCH  10  11
ENDBRANCH   1  10
TORSDOF 12
ENDMDL
MODEL 2
REMARK VINA RESULT:    -3.480      4.308      8.838
REMARK INTER + INTRA:          -6.639
REMARK INTER:                  -5.864
REMARK INTRA:                  -0.775
REMARK UNBOUND:                -0.719
REMARK SMILES CCCCCCCCCCCCCC(=O)[O-]
REMARK SMILES IDX 8 1 9 2 10 3 11 4 12 5 13 6 14 7 15 8 16 9 7 10 6 11 5 12
REMARK SMILES IDX 4 13 3 14 2 15 1 16
REMARK H PARENT
REMARK Flexibility Score: inf
ROOT
ATOM      1  C   UNL     1      14.657  -8.326   6.865  1.00  0.00     0.000 C 
ENDROOT
BRANCH   1   2
ATOM      2  C   UNL     1      13.148  -8.618   6.873  1.00  0.00     0.000 C 
BRANCH   2   3
ATOM      3  C   UNL     1      12.418  -7.981   5.682  1.00  0.00     0.000 C 
BRANCH   3   4
ATOM      4  C   UNL     1      11.165  -8.784   5.313  1.00  0.00     0.000 C 
BRANCH   4   5
ATOM      5  C   UNL     1      10.168  -8.817   6.481  1.00  0.00     0.006 C 
BRANCH   5   6
ATOM      6  C   UNL     1       8.718  -8.973   6.004  1.00  0.00     0.053 C 
BRANCH   6   7
ATOM      7  C   UNL     1       7.738  -8.575   7.064  1.00  0.00     0.041 C 
ATOM      8  O   UNL     1       7.730  -9.170   8.175  1.00  0.00    -0.550 OA
ATOM      9  O   UNL     1       6.855  -7.526   6.841  1.00  0.00    -0.550 OA
ENDBRANCH   6   7
ENDBRANCH   5   6
ENDBRANCH   4   5
ENDBRANCH   3   4
ENDBRANCH   2   3
ENDBRANCH   1   2
BRANCH   1  10
ATOM     10  C   UNL     1      15.228  -8.202   5.443  1.00  0.00     0.000 C 
BRANCH  10  11
ATOM     11  C   UNL     1      16.004  -6.892   5.224  1.00  0.00    -0.000 C 
BRANCH  11  12
ATOM     12  C   UNL     1      17.406  -7.099   4.613  1.00  0.00    -0.000 C 
BRANCH  12  13
ATOM     13  C   UNL     1      18.156  -8.274   5.264  1.00  0.00    -0.000 C 
BRANCH  13  14
ATOM     14  C   UNL     1      19.419  -7.828   6.019  1.00  0.00    -0.000 C 
BRANCH  14  15
ATOM     15  C   UNL     1      19.382  -8.153   7.528  1.00  0.00    -0.003 C 
ATOM     16  C   UNL     1      18.670  -7.069   8.336  1.00  0.00     0.004 C 
ENDBRANCH  14  15
ENDBRANCH  13  14
ENDBRANCH  12  13
ENDBRANCH  11  12
ENDBRANCH  10  11
ENDBRANCH   1  10
TORSDOF 12
ENDMDL
MODEL 3
REMARK VINA RESULT:    -3.447      4.726      9.325
REMARK INTER + INTRA:          -6.584
REMARK INTER:                  -6.121
REMARK INTRA:                  -0.463
REMARK UNBOUND:                -0.719
REMARK SMILES CCCCCCCCCCCCCC(=O)[O-]
REMARK SMILES IDX 8 1 9 2 10 3 11 4 12 5 13 6 14 7 15 8 16 9 7 10 6 11 5 12
REMARK SMILES IDX 4 13 3 14 2 15 1 16
REMARK H PARENT
REMARK Flexibility Score: inf
ROOT
ATOM      1  C   UNL     1      11.744  -8.476   6.205  1.00  0.00     0.000 C 
ENDROOT
BRANCH   1   2
ATOM      2  C   UNL     1      10.515  -8.165   5.337  1.00  0.00     0.000 C 
BRANCH   2   3
ATOM      3  C   UNL     1       9.378  -9.176   5.541  1.00  0.00     0.000 C 
BRANCH   3   4
ATOM      4  C   UNL     1       9.040  -9.330   7.029  1.00  0.00     0.000 C 
BRANCH   4   5
ATOM      5  C   UNL     1       7.707  -8.645   7.366  1.00  0.00     0.006 C 
BRANCH   5   6
ATOM      6  C   UNL     1       6.809  -8.484   6.132  1.00  0.00     0.053 C 
BRANCH   6   7
ATOM      7  C   UNL     1       6.253  -7.096   6.027  1.00  0.00     0.041 C 
ATOM      8  O   UNL     1       5.723  -6.706   4.954  1.00  0.00    -0.550 OA
ATOM      9  O   UNL     1       6.291  -6.245   7.124  1.00  0.00    -0.550 OA
ENDBRANCH   6   7
ENDBRANCH   5   6
ENDBRANCH   4   5
ENDBRANCH   3   4
ENDBRANCH   2   3
ENDBRANCH   1   2
BRANCH   1  10
ATOM     10  C   UNL     1      13.061  -8.030   5.549  1.00  0.00     0.000 C 
BRANCH  10  11
ATOM     11  C   UNL     1      14.298  -8.400   6.384  1.00  0.00    -0.000 C 
BRANCH  11  12
ATOM     12  C   UNL     1      15.556  -7.582   6.019  1.00  0.00    -0.000 C 
BRANCH  12  13
ATOM     13  C   UNL     1      16.829  -8.445   6.012  1.00  0.00    -0.000 C 
BRANCH  13  14
ATOM     14  C   UNL     1      18.117  -7.605   6.010  1.00  0.00    -0.000 C 
BRANCH  14  15
ATOM     15  C   UNL     1      19.116  -8.008   7.116  1.00  0.00    -0.003 C 
ATOM     16  C   UNL     1      19.027  -7.092   8.337  1.00  0.00     0.004 C 
ENDBRANCH  14  15
ENDBRANCH  13  14
ENDBRANCH  12  13
ENDBRANCH  11  12
ENDBRANCH  10  11
ENDBRANCH   1  10
TORSDOF 12
ENDMDL
MODEL 4
REMARK VINA RESULT:    -3.384      4.447      8.712
REMARK INTER + INTRA:          -6.478
REMARK INTER:                  -5.769
REMARK INTRA:                  -0.709
REMARK UNBOUND:                -0.719
REMARK SMILES CCCCCCCCCCCCCC(=O)[O-]
REMARK SMILES IDX 8 1 9 2 10 3 11 4 12 5 13 6 14 7 15 8 16 9 7 10 6 11 5 12
REMARK SMILES IDX 4 13 3 14 2 15 1 16
REMARK H PARENT
REMARK Flexibility Score: inf
ROOT
ATOM      1  C   UNL     1      12.662  -8.623   6.873  1.00  0.00     0.000 C 
ENDROOT
BRANCH   1   2
ATOM      2  C   UNL     1      12.291  -7.881   5.579  1.00  0.00     0.000 C 
BRANCH   2   3
ATOM      3  C   UNL     1      10.773  -7.755   5.387  1.00  0.00     0.000 C 
BRANCH   3   4
ATOM      4  C   UNL     1      10.217  -8.952   4.607  1.00  0.00     0.000 C 
BRANCH   4   5
ATOM      5  C   UNL     1       9.066  -9.623   5.371  1.00  0.00     0.006 C 
BRANCH   5   6
ATOM      6  C   UNL     1       9.154  -9.382   6.884  1.00  0.00     0.053 C 
BRANCH   6   7
ATOM      7  C   UNL     1       7.820  -9.035   7.471  1.00  0.00     0.041 C 
ATOM      8  O   UNL     1       7.081  -8.186   6.906  1.00  0.00    -0.550 OA
ATOM      9  O   UNL     1       7.378  -9.672   8.623  1.00  0.00    -0.550 OA
ENDBRANCH   6   7
ENDBRANCH   5   6
ENDBRANCH   4   5
ENDBRANCH   3   4
ENDBRANCH   2   3
ENDBRANCH   1   2
BRANCH   1  10
ATOM     10  C   UNL     1      14.178  -8.636   7.135  1.00  0.00     0.000 C 
BRANCH  10  11
ATOM     11  C   UNL     1      14.994  -8.114   5.940  1.00  0.00    -0.000 C 
BRANCH  11  12
ATOM     12  C   UNL     1      16.432  -8.670   5.885  1.00  0.00    -0.000 C 
BRANCH  12  13
ATOM     13  C   UNL     1      17.488  -7.581   6.143  1.00  0.00    -0.000 C 
BRANCH  13  14
ATOM     14  C   UNL     1      17.571  -7.174   7.624  1.00  0.00    -0.000 C 
BRANCH  14  15
ATOM     15  C   UNL     1      19.004  -7.223   8.195  1.00  0.00    -0.003 C 
ATOM     16  C   UNL     1      19.677  -8.574   7.953  1.00  0.00     0.004 C 
ENDBRANCH  14  15
ENDBRANCH  13  14
ENDBRANCH  12  13
ENDBRANCH  11  12
ENDBRANCH  10  11
ENDBRANCH   1  10
TORSDOF 12
ENDMDL
MODEL 5
REMARK VINA RESULT:    -3.351      3.913      8.975
REMARK INTER + INTRA:          -6.421
REMARK INTER:                  -5.241
REMARK INTRA:                  -1.179
REMARK UNBOUND:                -0.719
REMARK SMILES CCCCCCCCCCCCCC(=O)[O-]
REMARK SMILES IDX 8 1 9 2 10 3 11 4 12 5 13 6 14 7 15 8 16 9 7 10 6 11 5 12
REMARK SMILES IDX 4 13 3 14 2 15 1 16
REMARK H PARENT
REMARK Flexibility Score: inf
ROOT
ATOM      1  C   UNL     1      17.897  -7.126   6.786  1.00  0.00     0.000 C 
ENDROOT
BRANCH   1   2
ATOM      2  C   UNL     1      16.433  -7.121   7.253  1.00  0.00     0.000 C 
BRANCH   2   3
ATOM      3  C   UNL     1      15.586  -8.189   6.547  1.00  0.00     0.000 C 
BRANCH   3   4
ATOM      4  C   UNL     1      15.338  -7.812   5.082  1.00  0.00     0.000 C 
BRANCH   4   5
ATOM      5  C   UNL     1      13.834  -7.690   4.791  1.00  0.00     0.006 C 
BRANCH   5   6
ATOM      6  C   UNL     1      12.975  -8.293   5.909  1.00  0.00     0.053 C 
BRANCH   6   7
ATOM      7  C   UNL     1      11.525  -7.956   5.740  1.00  0.00     0.041 C 
ATOM      8  O   UNL     1      11.166  -7.128   4.862  1.00  0.00    -0.550 OA
ATOM      9  O   UNL     1      10.567  -8.581   6.528  1.00  0.00    -0.550 OA
ENDBRANCH   6   7
ENDBRANCH   5   6
ENDBRANCH   4   5
ENDBRANCH   3   4
ENDBRANCH   2   3
ENDBRANCH   1   2
BRANCH   1  10
ATOM     10  C   UNL     1      18.878  -7.480   7.917  1.00  0.00     0.000 C 
BRANCH  10  11
ATOM     11  C   UNL     1      19.728  -8.722   7.603  1.00  0.00    -0.000 C 
BRANCH  11  12
ATOM     12  C   UNL     1      19.403  -9.364   6.237  1.00  0.00    -0.000 C 
BRANCH  12  13
ATOM     13  C   UNL     1      20.574  -9.245   5.245  1.00  0.00    -0.000 C 
BRANCH  13  14
ATOM     14  C   UNL     1      20.476  -7.993   4.358  1.00  0.00    -0.000 C 
BRANCH  14  15
ATOM     15  C   UNL     1      21.565  -6.940   4.659  1.00  0.00    -0.003 C 
ATOM     16  C   UNL     1      20.978  -5.645   5.218  1.00  0.00     0.004 C 
ENDBRANCH  14  15
ENDBRANCH  13  14
ENDBRANCH  12  13
ENDBRANCH  11  12
ENDBRANCH  10  11
ENDBRANCH   1  10
TORSDOF 12
ENDMDL
MODEL 6
REMARK VINA RESULT:    -3.327      4.275      8.512
REMARK INTER + INTRA:          -6.380
REMARK INTER:                  -5.246
REMARK INTRA:                  -1.134
REMARK UNBOUND:                -0.719
REMARK SMILES CCCCCCCCCCCCCC(=O)[O-]
REMARK SMILES IDX 8 1 9 2 10 3 11 4 12 5 13 6 14 7 15 8 16 9 7 10 6 11 5 12
REMARK SMILES IDX 4 13 3 14 2 15 1 16
REMARK H PARENT
REMARK Flexibility Score: inf
ROOT
ATOM      1  C   UNL     1      15.706  -7.513   6.763  1.00  0.00     0.000 C 
ENDROOT
BRANCH   1   2
ATOM      2  C   UNL     1      14.938  -8.830   6.570  1.00  0.00     0.000 C 
BRANCH   2   3
ATOM      3  C   UNL     1      13.461  -8.604   6.217  1.00  0.00     0.000 C 
BRANCH   3   4
ATOM      4  C   UNL     1      13.175  -9.008   4.766  1.00  0.00     0.000 C 
BRANCH   4   5
ATOM      5  C   UNL     1      11.690  -8.811   4.421  1.00  0.00     0.006 C 
BRANCH   5   6
ATOM      6  C   UNL     1      11.320  -7.330   4.271  1.00  0.00     0.053 C 
BRANCH   6   7
ATOM      7  C   UNL     1       9.905  -7.066   4.687  1.00  0.00     0.041 C 
ATOM      8  O   UNL     1       9.328  -6.005   4.330  1.00  0.00    -0.550 OA
ATOM      9  O   UNL     1       9.213  -8.005   5.441  1.00  0.00    -0.550 OA
ENDBRANCH   6   7
ENDBRANCH   5   6
ENDBRANCH   4   5
ENDBRANCH   3   4
ENDBRANCH   2   3
ENDBRANCH   1   2
BRANCH   1  10
ATOM     10  C   UNL     1      16.012  -6.806   5.432  1.00  0.00     0.000 C 
BRANCH  10  11
ATOM     11  C   UNL     1      16.839  -7.676   4.470  1.00  0.00    -0.000 C 
BRANCH  11  12
ATOM     12  C   UNL     1      18.231  -7.091   4.150  1.00  0.00    -0.000 C 
BRANCH  12  13
ATOM     13  C   UNL     1      19.370  -7.960   4.711  1.00  0.00    -0.000 C 
BRANCH  13  14
ATOM     14  C   UNL     1      19.944  -7.409   6.028  1.00  0.00    -0.000 C 
BRANCH  14  15
ATOM     15  C   UNL     1      19.354  -8.082   7.285  1.00  0.00    -0.003 C 
ATOM     16  C   UNL     1      18.984  -7.066   8.365  1.00  0.00     0.004 C 
ENDBRANCH  14  15
ENDBRANCH  13  14
ENDBRANCH  12  13
ENDBRANCH  11  12
ENDBRANCH  10  11
ENDBRANCH   1  10
TORSDOF 12
ENDMDL
MODEL 7
REMARK VINA RESULT:    -3.171      4.304      9.151
REMARK INTER + INTRA:          -6.114
REMARK INTER:                  -5.364
REMARK INTRA:                  -0.751
REMARK UNBOUND:                -0.719
REMARK SMILES CCCCCCCCCCCCCC(=O)[O-]
REMARK SMILES IDX 8 1 9 2 10 3 11 4 12 5 13 6 14 7 15 8 16 9 7 10 6 11 5 12
REMARK SMILES IDX 4 13 3 14 2 15 1 16
REMARK H PARENT
REMARK Flexibility Score: inf
ROOT
ATOM      1  C   UNL     1      16.025  -6.926   5.435  1.00  0.00     0.000 C 
ENDROOT
BRANCH   1   2
ATOM      2  C   UNL     1      15.120  -8.043   4.889  1.00  0.00     0.000 C 
BRANCH   2   3
ATOM      3  C   UNL     1      13.930  -8.340   5.812  1.00  0.00     0.000 C 
BRANCH   3   4
ATOM      4  C   UNL     1      12.631  -8.473   5.008  1.00  0.00     0.000 C 
BRANCH   4   5
ATOM      5  C   UNL     1      11.478  -7.725   5.694  1.00  0.00     0.006 C 
BRANCH   5   6
ATOM      6  C   UNL     1      10.362  -8.672   6.152  1.00  0.00     0.053 C 
BRANCH   6   7
ATOM      7  C   UNL     1       9.052  -8.341   5.505  1.00  0.00     0.041 C 
ATOM      8  O   UNL     1       8.878  -7.216   4.966  1.00  0.00    -0.550 OA
ATOM      9  O   UNL     1       8.033  -9.285   5.468  1.00  0.00    -0.550 OA
ENDBRANCH   6   7
ENDBRANCH   5   6
ENDBRANCH   4   5
ENDBRANCH   3   4
ENDBRANCH   2   3
ENDBRANCH   1   2
BRANCH   1  10
ATOM     10  C   UNL     1      16.407  -7.141   6.908  1.00  0.00     0.000 C 
BRANCH  10  11
ATOM     11  C   UNL     1      17.924  -7.285   7.116  1.00  0.00    -0.000 C 
BRANCH  11  12
ATOM     12  C   UNL     1      18.510  -8.579   6.511  1.00  0.00    -0.000 C 
BRANCH  12  13
ATOM     13  C   UNL     1      19.782  -8.312   5.688  1.00  0.00    -0.000 C 
BRANCH  13  14
ATOM     14  C   UNL     1      19.729  -6.975   4.929  1.00  0.00    -0.000 C 
BRANCH  14  15
ATOM     15  C   UNL     1      20.964  -6.081   5.170  1.00  0.00    -0.003 C 
ATOM     16  C   UNL     1      20.987  -4.864   4.247  1.00  0.00     0.004 C 
ENDBRANCH  14  15
ENDBRANCH  13  14
ENDBRANCH  12  13
ENDBRANCH  11  12
ENDBRANCH  10  11
ENDBRANCH   1  10
TORSDOF 12
ENDMDL
MODEL 8
REMARK VINA RESULT:    -3.007      2.390      3.339
REMARK INTER + INTRA:          -5.835
REMARK INTER:                  -4.725
REMARK INTRA:                  -1.110
REMARK UNBOUND:                -0.719
REMARK SMILES CCCCCCCCCCCCCC(=O)[O-]
REMARK SMILES IDX 8 1 9 2 10 3 11 4 12 5 13 6 14 7 15 8 16 9 7 10 6 11 5 12
REMARK SMILES IDX 4 13 3 14 2 15 1 16
REMARK H PARENT
REMARK Flexibility Score: inf
ROOT
ATOM      1  C   UNL     1      10.656  -8.989   5.584  1.00  0.00     0.000 C 
ENDROOT
BRANCH   1   2
ATOM      2  C   UNL     1      11.321  -7.607   5.486  1.00  0.00     0.000 C 
BRANCH   2   3
ATOM      3  C   UNL     1      12.235  -7.478   4.260  1.00  0.00     0.000 C 
BRANCH   3   4
ATOM      4  C   UNL     1      12.906  -8.817   3.932  1.00  0.00     0.000 C 
BRANCH   4   5
ATOM      5  C   UNL     1      14.409  -8.774   4.248  1.00  0.00     0.006 C 
BRANCH   5   6
ATOM      6  C   UNL     1      14.746  -9.483   5.565  1.00  0.00     0.053 C 
BRANCH   6   7
ATOM      7  C   UNL     1      14.737  -8.535   6.725  1.00  0.00     0.041 C 
ATOM      8  O   UNL     1      15.580  -7.602   6.788  1.00  0.00    -0.550 OA
ATOM      9  O   UNL     1      13.777  -8.660   7.721  1.00  0.00    -0.550 OA
ENDBRANCH   6   7
ENDBRANCH   5   6
ENDBRANCH   4   5
ENDBRANCH   3   4
ENDBRANCH   2   3
ENDBRANCH   1   2
BRANCH   1  10
ATOM     10  C   UNL     1       9.385  -8.975   6.449  1.00  0.00     0.000 C 
BRANCH  10  11
ATOM     11  C   UNL     1       8.213  -9.730   5.799  1.00  0.00    -0.000 C 
BRANCH  11  12
ATOM     12  C   UNL     1       7.875  -9.237   4.375  1.00  0.00    -0.000 C 
BRANCH  12  13
ATOM     13  C   UNL     1       7.819  -7.703   4.289  1.00  0.00    -0.000 C 
BRANCH  13  14
ATOM     14  C   UNL     1       6.395  -7.173   4.046  1.00  0.00    -0.000 C 
BRANCH  14  15
ATOM     15  C   UNL     1       5.546  -7.080   5.331  1.00  0.00    -0.003 C 
ATOM     16  C   UNL     1       6.359  -6.589   6.528  1.00  0.00     0.004 C 
ENDBRANCH  14  15
ENDBRANCH  13  14
ENDBRANCH  12  13
ENDBRANCH  11  12
ENDBRANCH  10  11
ENDBRANCH   1  10
TORSDOF 12
ENDMDL
MODEL 9
REMARK VINA RESULT:    -2.649      2.621      4.734
REMARK INTER + INTRA:          -5.225
REMARK INTER:                  -4.397
REMARK INTRA:                  -0.829
REMARK UNBOUND:                -0.719
REMARK SMILES CCCCCCCCCCCCCC(=O)[O-]
REMARK SMILES IDX 8 1 9 2 10 3 11 4 12 5 13 6 14 7 15 8 16 9 7 10 6 11 5 12
REMARK SMILES IDX 4 13 3 14 2 15 1 16
REMARK H PARENT
REMARK Flexibility Score: inf
ROOT
ATOM      1  C   UNL     1       7.664  -7.077   5.080  1.00  0.00     0.000 C 
ENDROOT
BRANCH   1   2
ATOM      2  C   UNL     1       9.095  -7.397   4.621  1.00  0.00     0.000 C 
BRANCH   2   3
ATOM      3  C   UNL     1       9.887  -8.187   5.672  1.00  0.00     0.000 C 
BRANCH   3   4
ATOM      4  C   UNL     1      11.187  -8.742   5.078  1.00  0.00     0.000 C 
BRANCH   4   5
ATOM      5  C   UNL     1      12.415  -8.124   5.764  1.00  0.00     0.006 C 
BRANCH   5   6
ATOM      6  C   UNL     1      13.647  -8.111   4.849  1.00  0.00     0.053 C 
BRANCH   6   7
ATOM      7  C   UNL     1      14.884  -7.700   5.588  1.00  0.00     0.041 C 
ATOM      8  O   UNL     1      15.697  -6.894   5.063  1.00  0.00    -0.550 OA
ATOM      9  O   UNL     1      15.123  -8.181   6.869  1.00  0.00    -0.550 OA
ENDBRANCH   6   7
ENDBRANCH   5   6
ENDBRANCH   4   5
ENDBRANCH   3   4
ENDBRANCH   2   3
ENDBRANCH   1   2
BRANCH   1  10
ATOM     10  C   UNL     1       7.190  -7.991   6.222  1.00  0.00     0.000 C 
BRANCH  10  11
ATOM     11  C   UNL     1       6.288  -9.138   5.735  1.00  0.00    -0.000 C 
BRANCH  11  12
ATOM     12  C   UNL     1       5.478  -8.790   4.468  1.00  0.00    -0.000 C 
BRANCH  12  13
ATOM     13  C   UNL     1       3.974  -8.647   4.761  1.00  0.00    -0.000 C 
BRANCH  13  14
ATOM     14  C   UNL     1       3.351  -7.418   4.078  1.00  0.00    -0.000 C 
BRANCH  14  15
ATOM     15  C   UNL     1       4.286  -6.190   4.047  1.00  0.00    -0.003 C 
ATOM     16  C   UNL     1       3.594  -4.922   4.544  1.00  0.00     0.004 C 
ENDBRANCH  14  15
ENDBRANCH  13  14
ENDBRANCH  12  13
ENDBRANCH  11  12
ENDBRANCH  10  11
ENDBRANCH   1  10
TORSDOF 12
ENDMDL
