MODEL 1
REMARK VINA RESULT:    -4.726      0.000      0.000
REMARK INTER + INTRA:         -13.103
REMARK INTER:                 -10.251
REMARK INTRA:                  -2.851
REMARK UNBOUND:                -2.851
REMARK SMILES CCCCCCCCCCCCCCCCCCCCCC(=O)[O-]
REMARK SMILES IDX 12 1 11 2 10 3 9 4 8 5 7 6 6 7 5 8 4 9 3 10 2 11 1 12 13 13
REMARK SMILES IDX 14 14 15 15 16 16 17 17 18 18 19 19 20 20 21 21 22 22 23 23
REMARK SMILES IDX 24 24
REMARK H PARENT
REMARK Flexibility Score: inf
ROOT
ATOM      1  C   UNL     1     -12.868   3.849   4.657  1.00  0.00     0.000 C 
ENDROOT
BRANCH   1   2
ATOM      2  C   UNL     1     -13.818   4.994   4.264  1.00  0.00     0.000 C 
BRANCH   2   3
ATOM      3  C   UNL     1     -13.893   6.099   5.329  1.00  0.00     0.000 C 
BRANCH   3   4
ATOM      4  C   UNL     1     -15.135   6.990   5.169  1.00  0.00    -0.000 C 
BRANCH   4   5
ATOM      5  C   UNL     1     -14.777   8.480   5.029  1.00  0.00    -0.000 C 
BRANCH   5   6
ATOM      6  C   UNL     1     -13.335   8.782   5.463  1.00  0.00    -0.000 C 
BRANCH   6   7
ATOM      7  C   UNL     1     -12.960  10.261   5.273  1.00  0.00    -0.000 C 
BRANCH   7   8
ATOM      8  C   UNL     1     -11.986  10.473   4.103  1.00  0.00    -0.000 C 
BRANCH   8   9
ATOM      9  C   UNL     1     -12.222  11.811   3.377  1.00  0.00    -0.000 C 
BRANCH   9  10
ATOM     10  C   UNL     1     -13.312  11.717   2.295  1.00  0.00    -0.000 C 
BRANCH  10  11
ATOM     11  C   UNL     1     -13.200  10.489   1.374  1.00  0.00    -0.003 C 
ATOM     12  C   UNL     1     -14.404   9.552   1.477  1.00  0.00     0.004 C 
ENDBRANCH  10  11
ENDBRANCH   9  10
ENDBRANCH   8   9
ENDBRANCH   7   8
ENDBRANCH   6   7
ENDBRANCH   5   6
ENDBRANCH   4   5
ENDBRANCH   3   4
ENDBRANCH   2   3
ENDBRANCH   1   2
BRANCH   1  13
ATOM     13  C   UNL     1     -13.040   3.379   6.118  1.00  0.00     0.000 C 
BRANCH  13  14
ATOM     14  C   UNL     1     -11.711   2.916   6.739  1.00  0.00     0.000 C 
BRANCH  14  15
ATOM     15  C   UNL     1     -11.208   3.858   7.848  1.00  0.00     0.000 C 
BRANCH  15  16
ATOM     16  C   UNL     1     -10.793   5.260   7.366  1.00  0.00     0.000 C 
BRANCH  16  17
ATOM     17  C   UNL     1      -9.658   5.222   6.328  1.00  0.00     0.000 C 
BRANCH  17  18
ATOM     18  C   UNL     1      -9.920   6.141   5.122  1.00  0.00     0.000 C 
BRANCH  18  19
ATOM     19  C   UNL     1     -10.066   7.638   5.463  1.00  0.00     0.000 C 
BRANCH  19  20
ATOM     20  C   UNL     1      -8.919   8.536   4.966  1.00  0.00     0.006 C 
BRANCH  20  21
ATOM     21  C   UNL     1      -7.929   8.911   6.077  1.00  0.00     0.053 C 
BRANCH  21  22
ATOM     22  C   UNL     1      -8.283  10.237   6.674  1.00  0.00     0.041 C 
ATOM     23  O   UNL     1      -7.916  10.526   7.844  1.00  0.00    -0.550 OA
ATOM     24  O   UNL     1      -9.020  11.158   5.936  1.00  0.00    -0.550 OA
ENDBRANCH  21  22
ENDBRANCH  20  21
ENDBRANCH  19  20
ENDBRANCH  18  19
ENDBRANCH  17  18
ENDBRANCH  16  17
ENDBRANCH  15  16
ENDBRANCH  14  15
ENDBRANCH  13  14
ENDBRANCH   1  13
TORSDOF 20
ENDMDL
MODEL 2
REMARK VINA RESULT:    -4.623      2.462      7.006
REMARK INTER + INTRA:         -12.880
REMARK INTER:                 -10.411
REMARK INTRA:                  -2.469
REMARK UNBOUND:                -2.851
REMARK SMILES CCCCCCCCCCCCCCCCCCCCCC(=O)[O-]
REMARK SMILES IDX 12 1 11 2 10 3 9 4 8 5 7 6 6 7 5 8 4 9 3 10 2 11 1 12 13 13
REMARK SMILES IDX 14 14 15 15 16 16 17 17 18 18 19 19 20 20 21 21 22 22 23 23
REMARK SMILES IDX 24 24
REMARK H PARENT
REMARK Flexibility Score: inf
ROOT
ATOM      1  C   UNL     1      -8.298   9.994   4.941  1.00  0.00     0.000 C 
ENDROOT
BRANCH   1   2
ATOM      2  C   UNL     1      -9.392   8.915   4.867  1.00  0.00     0.000 C 
BRANCH   2   3
ATOM      3  C   UNL     1      -9.018   7.632   5.626  1.00  0.00     0.000 C 
BRANCH   3   4
ATOM      4  C   UNL     1      -9.869   6.425   5.200  1.00  0.00    -0.000 C 
BRANCH   4   5
ATOM      5  C   UNL     1      -9.822   5.280   6.226  1.00  0.00    -0.000 C 
BRANCH   5   6
ATOM      6  C   UNL     1     -10.942   5.381   7.273  1.00  0.00    -0.000 C 
BRANCH   6   7
ATOM      7  C   UNL     1     -11.058   4.113   8.136  1.00  0.00    -0.000 C 
BRANCH   7   8
ATOM      8  C   UNL     1     -11.734   2.954   7.387  1.00  0.00    -0.000 C 
BRANCH   8   9
ATOM      9  C   UNL     1     -12.978   3.409   6.601  1.00  0.00    -0.000 C 
BRANCH   9  10
ATOM     10  C   UNL     1     -12.798   3.285   5.078  1.00  0.00    -0.000 C 
BRANCH  10  11
ATOM     11  C   UNL     1     -13.298   4.495   4.270  1.00  0.00    -0.003 C 
ATOM     12  C   UNL     1     -13.872   5.606   5.150  1.00  0.00     0.004 C 
ENDBRANCH  10  11
ENDBRANCH   9  10
ENDBRANCH   8   9
ENDBRANCH   7   8
ENDBRANCH   6   7
ENDBRANCH   5   6
ENDBRANCH   4   5
ENDBRANCH   3   4
ENDBRANCH   2   3
ENDBRANCH   1   2
BRANCH   1  13
ATOM     13  C   UNL     1      -7.366   9.843   6.163  1.00  0.00     0.000 C 
BRANCH  13  14
ATOM     14  C   UNL     1      -7.857  10.660   7.371  1.00  0.00     0.000 C 
BRANCH  14  15
ATOM     15  C   UNL     1      -8.759  11.841   6.970  1.00  0.00     0.000 C 
BRANCH  15  16
ATOM     16  C   UNL     1     -10.216  11.734   7.454  1.00  0.00     0.000 C 
BRANCH  16  17
ATOM     17  C   UNL     1     -11.236  12.106   6.363  1.00  0.00     0.000 C 
BRANCH  17  18
ATOM     18  C   UNL     1     -10.607  12.896   5.202  1.00  0.00     0.000 C 
BRANCH  18  19
ATOM     19  C   UNL     1     -11.046  12.446   3.794  1.00  0.00     0.000 C 
BRANCH  19  20
ATOM     20  C   UNL     1     -12.258  11.496   3.760  1.00  0.00     0.006 C 
BRANCH  20  21
ATOM     21  C   UNL     1     -13.230  11.808   2.614  1.00  0.00     0.053 C 
BRANCH  21  22
ATOM     22  C   UNL     1     -13.236  10.696   1.611  1.00  0.00     0.041 C 
ATOM     23  O   UNL     1     -14.170   9.850   1.605  1.00  0.00    -0.550 OA
ATOM     24  O   UNL     1     -12.208  10.595   0.679  1.00  0.00    -0.550 OA
ENDBRANCH  21  22
ENDBRANCH  20  21
ENDBRANCH  19  20
ENDBRANCH  18  19
ENDBRANCH  17  18
ENDBRANCH  16  17
ENDBRANCH  15  16
ENDBRANCH  14  15
ENDBRANCH  13  14
ENDBRANCH   1  13
TORSDOF 20
ENDMDL
MODEL 3
REMARK VINA RESULT:    -4.576      2.466      6.604
REMARK INTER + INTRA:         -12.777
REMARK INTER:                  -9.749
REMARK INTRA:                  -3.028
REMARK UNBOUND:                -2.851
REMARK SMILES CCCCCCCCCCCCCCCCCCCCCC(=O)[O-]
REMARK SMILES IDX 12 1 11 2 10 3 9 4 8 5 7 6 6 7 5 8 4 9 3 10 2 11 1 12 13 13
REMARK SMILES IDX 14 14 15 15 16 16 17 17 18 18 19 19 20 20 21 21 22 22 23 23
REMARK SMILES IDX 24 24
REMARK H PARENT
REMARK Flexibility Score: inf
ROOT
ATOM      1  C   UNL     1      -9.054   8.392   4.790  1.00  0.00     0.000 C 
ENDROOT
BRANCH   1   2
ATOM      2  C   UNL     1      -9.947   7.445   5.610  1.00  0.00     0.000 C 
BRANCH   2   3
ATOM      3  C   UNL     1      -9.974   6.014   5.050  1.00  0.00     0.000 C 
BRANCH   3   4
ATOM      4  C   UNL     1      -9.762   4.949   6.138  1.00  0.00    -0.000 C 
BRANCH   4   5
ATOM      5  C   UNL     1     -10.589   5.229   7.405  1.00  0.00    -0.000 C 
BRANCH   5   6
ATOM      6  C   UNL     1     -11.257   3.963   7.962  1.00  0.00    -0.000 C 
BRANCH   6   7
ATOM      7  C   UNL     1     -11.706   2.997   6.852  1.00  0.00    -0.000 C 
BRANCH   7   8
ATOM      8  C   UNL     1     -13.095   3.349   6.296  1.00  0.00    -0.000 C 
BRANCH   8   9
ATOM      9  C   UNL     1     -13.028   3.915   4.865  1.00  0.00    -0.000 C 
BRANCH   9  10
ATOM     10  C   UNL     1     -13.862   5.197   4.692  1.00  0.00    -0.000 C 
BRANCH  10  11
ATOM     11  C   UNL     1     -13.599   6.283   5.749  1.00  0.00    -0.003 C 
ATOM     12  C   UNL     1     -13.950   7.690   5.263  1.00  0.00     0.004 C 
ENDBRANCH  10  11
ENDBRANCH   9  10
ENDBRANCH   8   9
ENDBRANCH   7   8
ENDBRANCH   6   7
ENDBRANCH   5   6
ENDBRANCH   4   5
ENDBRANCH   3   4
ENDBRANCH   2   3
ENDBRANCH   1   2
BRANCH   1  13
ATOM     13  C   UNL     1      -7.936   9.057   5.620  1.00  0.00     0.000 C 
BRANCH  13  14
ATOM     14  C   UNL     1      -8.099  10.585   5.694  1.00  0.00     0.000 C 
BRANCH  14  15
ATOM     15  C   UNL     1      -8.831  11.048   6.967  1.00  0.00     0.000 C 
BRANCH  15  16
ATOM     16  C   UNL     1     -10.158  11.786   6.717  1.00  0.00     0.000 C 
BRANCH  16  17
ATOM     17  C   UNL     1     -11.359  10.831   6.604  1.00  0.00     0.000 C 
BRANCH  17  18
ATOM     18  C   UNL     1     -12.290  11.178   5.429  1.00  0.00     0.000 C 
BRANCH  18  19
ATOM     19  C   UNL     1     -11.750  10.797   4.036  1.00  0.00     0.000 C 
BRANCH  19  20
ATOM     20  C   UNL     1     -12.302  11.635   2.869  1.00  0.00     0.006 C 
BRANCH  20  21
ATOM     21  C   UNL     1     -12.677  10.787   1.647  1.00  0.00     0.053 C 
BRANCH  21  22
ATOM     22  C   UNL     1     -14.153  10.542   1.608  1.00  0.00     0.041 C 
ATOM     23  O   UNL     1     -14.946  11.478   1.322  1.00  0.00    -0.550 OA
ATOM     24  O   UNL     1     -14.655   9.275   1.888  1.00  0.00    -0.550 OA
ENDBRANCH  21  22
ENDBRANCH  20  21
ENDBRANCH  19  20
ENDBRANCH  18  19
ENDBRANCH  17  18
ENDBRANCH  16  17
ENDBRANCH  15  16
ENDBRANCH  14  15
ENDBRANCH  13  14
ENDBRANCH   1  13
TORSDOF 20
ENDMDL
MODEL 4
REMARK VINA RESULT:    -4.556      1.029      1.885
REMARK INTER + INTRA:         -12.734
REMARK INTER:                  -9.897
REMARK INTRA:                  -2.837
REMARK UNBOUND:                -2.851
REMARK SMILES CCCCCCCCCCCCCCCCCCCCCC(=O)[O-]
REMARK SMILES IDX 12 1 11 2 10 3 9 4 8 5 7 6 6 7 5 8 4 9 3 10 2 11 1 12 13 13
REMARK SMILES IDX 14 14 15 15 16 16 17 17 18 18 19 19 20 20 21 21 22 22 23 23
REMARK SMILES IDX 24 24
REMARK H PARENT
REMARK Flexibility Score: inf
ROOT
ATOM      1  C   UNL     1     -12.959   3.381   6.153  1.00  0.00     0.000 C 
ENDROOT
BRANCH   1   2
ATOM      2  C   UNL     1     -12.855   3.729   4.658  1.00  0.00     0.000 C 
BRANCH   2   3
ATOM      3  C   UNL     1     -13.797   4.870   4.243  1.00  0.00     0.000 C 
BRANCH   3   4
ATOM      4  C   UNL     1     -13.933   5.948   5.329  1.00  0.00    -0.000 C 
BRANCH   4   5
ATOM      5  C   UNL     1     -15.117   6.897   5.074  1.00  0.00    -0.000 C 
BRANCH   5   6
ATOM      6  C   UNL     1     -14.828   8.334   5.531  1.00  0.00    -0.000 C 
BRANCH   6   7
ATOM      7  C   UNL     1     -13.436   8.481   6.168  1.00  0.00    -0.000 C 
BRANCH   7   8
ATOM      8  C   UNL     1     -13.090   9.944   6.491  1.00  0.00    -0.000 C 
BRANCH   8   9
ATOM      9  C   UNL     1     -13.858  10.939   5.601  1.00  0.00    -0.000 C 
BRANCH   9  10
ATOM     10  C   UNL     1     -13.016  11.456   4.423  1.00  0.00    -0.000 C 
BRANCH  10  11
ATOM     11  C   UNL     1     -12.961  10.513   3.208  1.00  0.00    -0.003 C 
ATOM     12  C   UNL     1     -12.475  11.206   1.934  1.00  0.00     0.004 C 
ENDBRANCH  10  11
ENDBRANCH   9  10
ENDBRANCH   8   9
ENDBRANCH   7   8
ENDBRANCH   6   7
ENDBRANCH   5   6
ENDBRANCH   4   5
ENDBRANCH   3   4
ENDBRANCH   2   3
ENDBRANCH   1   2
BRANCH   1  13
ATOM     13  C   UNL     1     -11.637   2.862   6.758  1.00  0.00     0.000 C 
BRANCH  13  14
ATOM     14  C   UNL     1     -11.112   3.778   7.878  1.00  0.00     0.000 C 
BRANCH  14  15
ATOM     15  C   UNL     1     -10.924   5.236   7.420  1.00  0.00     0.000 C 
BRANCH  15  16
ATOM     16  C   UNL     1      -9.811   5.448   6.378  1.00  0.00     0.000 C 
BRANCH  16  17
ATOM     17  C   UNL     1     -10.220   6.422   5.259  1.00  0.00     0.000 C 
BRANCH  17  18
ATOM     18  C   UNL     1      -9.300   7.652   5.172  1.00  0.00     0.000 C 
BRANCH  18  19
ATOM     19  C   UNL     1     -10.029   9.001   5.009  1.00  0.00     0.000 C 
BRANCH  19  20
ATOM     20  C   UNL     1      -9.131  10.246   5.120  1.00  0.00     0.006 C 
BRANCH  20  21
ATOM     21  C   UNL     1      -7.636   9.905   5.146  1.00  0.00     0.053 C 
BRANCH  21  22
ATOM     22  C   UNL     1      -6.993  10.445   6.386  1.00  0.00     0.041 C 
ATOM     23  O   UNL     1      -7.646  10.521   7.460  1.00  0.00    -0.550 OA
ATOM     24  O   UNL     1      -5.667  10.867   6.354  1.00  0.00    -0.550 OA
ENDBRANCH  21  22
ENDBRANCH  20  21
ENDBRANCH  19  20
ENDBRANCH  18  19
ENDBRANCH  17  18
ENDBRANCH  16  17
ENDBRANCH  15  16
ENDBRANCH  14  15
ENDBRANCH  13  14
ENDBRANCH   1  13
TORSDOF 20
ENDMDL
MODEL 5
REMARK VINA RESULT:    -4.497      1.908      5.165
REMARK INTER + INTRA:         -12.607
REMARK INTER:                  -9.617
REMARK INTRA:                  -2.989
REMARK UNBOUND:                -2.851
REMARK SMILES CCCCCCCCCCCCCCCCCCCCCC(=O)[O-]
REMARK SMILES IDX 12 1 11 2 10 3 9 4 8 5 7 6 6 7 5 8 4 9 3 10 2 11 1 12 13 13
REMARK SMILES IDX 14 14 15 15 16 16 17 17 18 18 19 19 20 20 21 21 22 22 23 23
REMARK SMILES IDX 24 24
REMARK H PARENT
REMARK Flexibility Score: inf
ROOT
ATOM      1  C   UNL     1     -11.285   3.038   6.748  1.00  0.00     0.000 C 
ENDROOT
BRANCH   1   2
ATOM      2  C   UNL     1     -11.036   4.247   7.666  1.00  0.00     0.000 C 
BRANCH   2   3
ATOM      3  C   UNL     1     -10.199   5.346   6.993  1.00  0.00     0.000 C 
BRANCH   3   4
ATOM      4  C   UNL     1      -9.899   5.040   5.517  1.00  0.00    -0.000 C 
BRANCH   4   5
ATOM      5  C   UNL     1      -9.533   6.301   4.715  1.00  0.00    -0.000 C 
BRANCH   5   6
ATOM      6  C   UNL     1      -9.558   7.573   5.576  1.00  0.00    -0.000 C 
BRANCH   6   7
ATOM      7  C   UNL     1      -9.919   8.828   4.763  1.00  0.00    -0.000 C 
BRANCH   7   8
ATOM      8  C   UNL     1     -10.385   9.990   5.654  1.00  0.00    -0.000 C 
BRANCH   8   9
ATOM      9  C   UNL     1      -9.491  11.236   5.508  1.00  0.00    -0.000 C 
BRANCH   9  10
ATOM     10  C   UNL     1      -8.718  11.569   6.796  1.00  0.00    -0.000 C 
BRANCH  10  11
ATOM     11  C   UNL     1      -7.640  10.542   7.182  1.00  0.00    -0.003 C 
ATOM     12  C   UNL     1      -6.695  10.202   6.029  1.00  0.00     0.004 C 
ENDBRANCH  10  11
ENDBRANCH   9  10
ENDBRANCH   8   9
ENDBRANCH   7   8
ENDBRANCH   6   7
ENDBRANCH   5   6
ENDBRANCH   4   5
ENDBRANCH   3   4
ENDBRANCH   2   3
ENDBRANCH   1   2
BRANCH   1  13
ATOM     13  C   UNL     1     -12.716   2.986   6.171  1.00  0.00     0.000 C 
BRANCH  13  14
ATOM     14  C   UNL     1     -13.467   4.315   6.362  1.00  0.00     0.000 C 
BRANCH  14  15
ATOM     15  C   UNL     1     -13.731   5.049   5.035  1.00  0.00     0.000 C 
BRANCH  15  16
ATOM     16  C   UNL     1     -14.135   6.527   5.183  1.00  0.00     0.000 C 
BRANCH  16  17
ATOM     17  C   UNL     1     -13.150   7.331   6.050  1.00  0.00     0.000 C 
BRANCH  17  18
ATOM     18  C   UNL     1     -13.621   8.772   6.309  1.00  0.00     0.000 C 
BRANCH  18  19
ATOM     19  C   UNL     1     -14.535   9.365   5.216  1.00  0.00     0.000 C 
BRANCH  19  20
ATOM     20  C   UNL     1     -13.906  10.495   4.381  1.00  0.00     0.006 C 
BRANCH  20  21
ATOM     21  C   UNL     1     -13.873  10.182   2.880  1.00  0.00     0.053 C 
BRANCH  21  22
ATOM     22  C   UNL     1     -12.706  10.855   2.226  1.00  0.00     0.041 C 
ATOM     23  O   UNL     1     -12.371  10.548   1.051  1.00  0.00    -0.550 OA
ATOM     24  O   UNL     1     -11.985  11.824   2.917  1.00  0.00    -0.550 OA
ENDBRANCH  21  22
ENDBRANCH  20  21
ENDBRANCH  19  20
ENDBRANCH  18  19
ENDBRANCH  17  18
ENDBRANCH  16  17
ENDBRANCH  15  16
ENDBRANCH  14  15
ENDBRANCH  13  14
ENDBRANCH   1  13
TORSDOF 20
ENDMDL
MODEL 6
REMARK VINA RESULT:    -4.480      1.598      5.581
REMARK INTER + INTRA:         -12.570
REMARK INTER:                 -10.450
REMARK INTRA:                  -2.120
REMARK UNBOUND:                -2.851
REMARK SMILES CCCCCCCCCCCCCCCCCCCCCC(=O)[O-]
REMARK SMILES IDX 12 1 11 2 10 3 9 4 8 5 7 6 6 7 5 8 4 9 3 10 2 11 1 12 13 13
REMARK SMILES IDX 14 14 15 15 16 16 17 17 18 18 19 19 20 20 21 21 22 22 23 23
REMARK SMILES IDX 24 24
REMARK H PARENT
REMARK Flexibility Score: inf
ROOT
ATOM      1  C   UNL     1     -12.960   3.762   4.687  1.00  0.00     0.000 C 
ENDROOT
BRANCH   1   2
ATOM      2  C   UNL     1     -12.886   3.590   6.214  1.00  0.00     0.000 C 
BRANCH   2   3
ATOM      3  C   UNL     1     -11.449   3.409   6.726  1.00  0.00     0.000 C 
BRANCH   3   4
ATOM      4  C   UNL     1     -10.849   4.712   7.277  1.00  0.00    -0.000 C 
BRANCH   4   5
ATOM      5  C   UNL     1      -9.753   5.289   6.364  1.00  0.00    -0.000 C 
BRANCH   5   6
ATOM      6  C   UNL     1     -10.318   6.233   5.292  1.00  0.00    -0.000 C 
BRANCH   6   7
ATOM      7  C   UNL     1      -9.344   7.368   4.935  1.00  0.00    -0.000 C 
BRANCH   7   8
ATOM      8  C   UNL     1     -10.025   8.747   4.932  1.00  0.00    -0.000 C 
BRANCH   8   9
ATOM      9  C   UNL     1      -9.073   9.872   5.377  1.00  0.00    -0.000 C 
BRANCH   9  10
ATOM     10  C   UNL     1      -7.650   9.367   5.675  1.00  0.00    -0.000 C 
BRANCH  10  11
ATOM     11  C   UNL     1      -6.657  10.458   6.110  1.00  0.00    -0.003 C 
ATOM     12  C   UNL     1      -7.089  11.186   7.384  1.00  0.00     0.004 C 
ENDBRANCH  10  11
ENDBRANCH   9  10
ENDBRANCH   8   9
ENDBRANCH   7   8
ENDBRANCH   6   7
ENDBRANCH   5   6
ENDBRANCH   4   5
ENDBRANCH   3   4
ENDBRANCH   2   3
ENDBRANCH   1   2
BRANCH   1  13
ATOM     13  C   UNL     1     -13.892   4.910   4.241  1.00  0.00     0.000 C 
BRANCH  13  14
ATOM     14  C   UNL     1     -13.961   6.039   5.284  1.00  0.00     0.000 C 
BRANCH  14  15
ATOM     15  C   UNL     1     -15.097   7.040   5.007  1.00  0.00     0.000 C 
BRANCH  15  16
ATOM     16  C   UNL     1     -14.655   8.348   4.327  1.00  0.00     0.000 C 
BRANCH  16  17
ATOM     17  C   UNL     1     -15.836   9.152   3.756  1.00  0.00     0.000 C 
BRANCH  17  18
ATOM     18  C   UNL     1     -15.396  10.218   2.737  1.00  0.00     0.000 C 
BRANCH  18  19
ATOM     19  C   UNL     1     -14.372   9.735   1.689  1.00  0.00     0.000 C 
BRANCH  19  20
ATOM     20  C   UNL     1     -13.041  10.506   1.672  1.00  0.00     0.006 C 
BRANCH  20  21
ATOM     21  C   UNL     1     -13.107  11.830   2.444  1.00  0.00     0.053 C 
BRANCH  21  22
ATOM     22  C   UNL     1     -12.151  11.818   3.597  1.00  0.00     0.041 C 
ATOM     23  O   UNL     1     -11.019  12.360   3.491  1.00  0.00    -0.550 OA
ATOM     24  O   UNL     1     -12.512  11.204   4.792  1.00  0.00    -0.550 OA
ENDBRANCH  21  22
ENDBRANCH  20  21
ENDBRANCH  19  20
ENDBRANCH  18  19
ENDBRANCH  17  18
ENDBRANCH  16  17
ENDBRANCH  15  16
ENDBRANCH  14  15
ENDBRANCH  13  14
ENDBRANCH   1  13
TORSDOF 20
ENDMDL
MODEL 7
REMARK VINA RESULT:    -4.472      1.877      4.800
REMARK INTER + INTRA:         -12.553
REMARK INTER:                  -9.211
REMARK INTRA:                  -3.341
REMARK UNBOUND:                -2.851
REMARK SMILES CCCCCCCCCCCCCCCCCCCCCC(=O)[O-]
REMARK SMILES IDX 12 1 11 2 10 3 9 4 8 5 7 6 6 7 5 8 4 9 3 10 2 11 1 12 13 13
REMARK SMILES IDX 14 14 15 15 16 16 17 17 18 18 19 19 20 20 21 21 22 22 23 23
REMARK SMILES IDX 24 24
REMARK H PARENT
REMARK Flexibility Score: inf
ROOT
ATOM      1  C   UNL     1     -11.369   2.966   6.590  1.00  0.00     0.000 C 
ENDROOT
BRANCH   1   2
ATOM      2  C   UNL     1     -11.252   3.756   7.905  1.00  0.00     0.000 C 
BRANCH   2   3
ATOM      3  C   UNL     1     -10.938   5.243   7.683  1.00  0.00     0.000 C 
BRANCH   3   4
ATOM      4  C   UNL     1      -9.944   5.473   6.534  1.00  0.00    -0.000 C 
BRANCH   4   5
ATOM      5  C   UNL     1     -10.469   6.475   5.491  1.00  0.00    -0.000 C 
BRANCH   5   6
ATOM      6  C   UNL     1      -9.348   7.329   4.881  1.00  0.00    -0.000 C 
BRANCH   6   7
ATOM      7  C   UNL     1      -8.765   8.340   5.885  1.00  0.00    -0.000 C 
BRANCH   7   8
ATOM      8  C   UNL     1      -8.223   9.603   5.197  1.00  0.00    -0.000 C 
BRANCH   8   9
ATOM      9  C   UNL     1      -7.985  10.755   6.190  1.00  0.00    -0.000 C 
BRANCH   9  10
ATOM     10  C   UNL     1      -9.173  11.730   6.269  1.00  0.00    -0.000 C 
BRANCH  10  11
ATOM     11  C   UNL     1      -9.727  11.957   7.686  1.00  0.00    -0.003 C 
ATOM     12  C   UNL     1     -11.088  12.653   7.692  1.00  0.00     0.004 C 
ENDBRANCH  10  11
ENDBRANCH   9  10
ENDBRANCH   8   9
ENDBRANCH   7   8
ENDBRANCH   6   7
ENDBRANCH   5   6
ENDBRANCH   4   5
ENDBRANCH   3   4
ENDBRANCH   2   3
ENDBRANCH   1   2
BRANCH   1  13
ATOM     13  C   UNL     1     -12.742   3.119   5.899  1.00  0.00     0.000 C 
BRANCH  13  14
ATOM     14  C   UNL     1     -12.618   3.717   4.487  1.00  0.00     0.000 C 
BRANCH  14  15
ATOM     15  C   UNL     1     -13.624   4.852   4.226  1.00  0.00     0.000 C 
BRANCH  15  16
ATOM     16  C   UNL     1     -14.025   5.659   5.474  1.00  0.00     0.000 C 
BRANCH  16  17
ATOM     17  C   UNL     1     -14.922   6.865   5.142  1.00  0.00     0.000 C 
BRANCH  17  18
ATOM     18  C   UNL     1     -14.132   8.177   4.999  1.00  0.00     0.000 C 
BRANCH  18  19
ATOM     19  C   UNL     1     -13.243   8.537   6.208  1.00  0.00     0.000 C 
BRANCH  19  20
ATOM     20  C   UNL     1     -12.275   9.712   5.980  1.00  0.00     0.006 C 
BRANCH  20  21
ATOM     21  C   UNL     1     -12.113  10.074   4.498  1.00  0.00     0.053 C 
BRANCH  21  22
ATOM     22  C   UNL     1     -12.546  11.485   4.249  1.00  0.00     0.041 C 
ATOM     23  O   UNL     1     -11.723  12.337   3.818  1.00  0.00    -0.550 OA
ATOM     24  O   UNL     1     -13.863  11.862   4.493  1.00  0.00    -0.550 OA
ENDBRANCH  21  22
ENDBRANCH  20  21
ENDBRANCH  19  20
ENDBRANCH  18  19
ENDBRANCH  17  18
ENDBRANCH  16  17
ENDBRANCH  15  16
ENDBRANCH  14  15
ENDBRANCH  13  14
ENDBRANCH   1  13
TORSDOF 20
ENDMDL
MODEL 8
REMARK VINA RESULT:    -4.422      1.131      5.917
REMARK INTER + INTRA:         -12.444
REMARK INTER:                  -9.078
REMARK INTRA:                  -3.367
REMARK UNBOUND:                -2.851
REMARK SMILES CCCCCCCCCCCCCCCCCCCCCC(=O)[O-]
REMARK SMILES IDX 12 1 11 2 10 3 9 4 8 5 7 6 6 7 5 8 4 9 3 10 2 11 1 12 13 13
REMARK SMILES IDX 14 14 15 15 16 16 17 17 18 18 19 19 20 20 21 21 22 22 23 23
REMARK SMILES IDX 24 24
REMARK H PARENT
REMARK Flexibility Score: inf
ROOT
ATOM      1  C   UNL     1     -14.437   8.535   5.565  1.00  0.00     0.000 C 
ENDROOT
BRANCH   1   2
ATOM      2  C   UNL     1     -13.552   7.277   5.518  1.00  0.00     0.000 C 
BRANCH   2   3
ATOM      3  C   UNL     1     -14.364   5.981   5.367  1.00  0.00     0.000 C 
BRANCH   3   4
ATOM      4  C   UNL     1     -13.778   5.038   4.305  1.00  0.00    -0.000 C 
BRANCH   4   5
ATOM      5  C   UNL     1     -13.020   3.851   4.924  1.00  0.00    -0.000 C 
BRANCH   5   6
ATOM      6  C   UNL     1     -13.427   3.589   6.381  1.00  0.00    -0.000 C 
BRANCH   6   7
ATOM      7  C   UNL     1     -12.280   2.995   7.216  1.00  0.00    -0.000 C 
BRANCH   7   8
ATOM      8  C   UNL     1     -11.944   3.853   8.446  1.00  0.00    -0.000 C 
BRANCH   8   9
ATOM      9  C   UNL     1     -11.399   5.241   8.062  1.00  0.00    -0.000 C 
BRANCH   9  10
ATOM     10  C   UNL     1     -10.171   5.165   7.139  1.00  0.00    -0.000 C 
BRANCH  10  11
ATOM     11  C   UNL     1     -10.244   6.066   5.894  1.00  0.00    -0.003 C 
ATOM     12  C   UNL     1      -9.732   5.379   4.627  1.00  0.00     0.004 C 
ENDBRANCH  10  11
ENDBRANCH   9  10
ENDBRANCH   8   9
ENDBRANCH   7   8
ENDBRANCH   6   7
ENDBRANCH   5   6
ENDBRANCH   4   5
ENDBRANCH   3   4
ENDBRANCH   2   3
ENDBRANCH   1   2
BRANCH   1  13
ATOM     13  C   UNL     1     -15.780   8.372   4.820  1.00  0.00     0.000 C 
BRANCH  13  14
ATOM     14  C   UNL     1     -15.942   9.397   3.684  1.00  0.00     0.000 C 
BRANCH  14  15
ATOM     15  C   UNL     1     -14.779   9.362   2.676  1.00  0.00     0.000 C 
BRANCH  15  16
ATOM     16  C   UNL     1     -14.550  10.676   1.907  1.00  0.00     0.000 C 
BRANCH  16  17
ATOM     17  C   UNL     1     -13.105  11.192   2.025  1.00  0.00     0.000 C 
BRANCH  17  18
ATOM     18  C   UNL     1     -12.331  10.541   3.184  1.00  0.00     0.000 C 
BRANCH  18  19
ATOM     19  C   UNL     1     -12.159  11.430   4.433  1.00  0.00     0.000 C 
BRANCH  19  20
ATOM     20  C   UNL     1     -11.560  10.721   5.661  1.00  0.00     0.006 C 
BRANCH  20  21
ATOM     21  C   UNL     1     -10.589   9.594   5.287  1.00  0.00     0.053 C 
BRANCH  21  22
ATOM     22  C   UNL     1      -9.195   9.934   5.714  1.00  0.00     0.041 C 
ATOM     23  O   UNL     1      -8.365   9.020   5.964  1.00  0.00    -0.550 OA
ATOM     24  O   UNL     1      -8.811  11.266   5.837  1.00  0.00    -0.550 OA
ENDBRANCH  21  22
ENDBRANCH  20  21
ENDBRANCH  19  20
ENDBRANCH  18  19
ENDBRANCH  17  18
ENDBRANCH  16  17
ENDBRANCH  15  16
ENDBRANCH  14  15
ENDBRANCH  13  14
ENDBRANCH   1  13
TORSDOF 20
ENDMDL
MODEL 9
REMARK VINA RESULT:    -4.417      2.817      6.171
REMARK INTER + INTRA:         -12.434
REMARK INTER:                  -9.484
REMARK INTRA:                  -2.950
REMARK UNBOUND:                -2.851
REMARK SMILES CCCCCCCCCCCCCCCCCCCCCC(=O)[O-]
REMARK SMILES IDX 12 1 11 2 10 3 9 4 8 5 7 6 6 7 5 8 4 9 3 10 2 11 1 12 13 13
REMARK SMILES IDX 14 14 15 15 16 16 17 17 18 18 19 19 20 20 21 21 22 22 23 23
REMARK SMILES IDX 24 24
REMARK H PARENT
REMARK Flexibility Score: inf
ROOT
ATOM      1  C   UNL     1      -6.729  10.875   6.653  1.00  0.00     0.000 C 
ENDROOT
BRANCH   1   2
ATOM      2  C   UNL     1      -7.758  11.090   7.777  1.00  0.00     0.000 C 
BRANCH   2   3
ATOM      3  C   UNL     1      -8.676  12.296   7.524  1.00  0.00     0.000 C 
BRANCH   3   4
ATOM      4  C   UNL     1     -10.149  11.995   7.840  1.00  0.00    -0.000 C 
BRANCH   4   5
ATOM      5  C   UNL     1     -11.080  12.294   6.652  1.00  0.00    -0.000 C 
BRANCH   5   6
ATOM      6  C   UNL     1     -10.391  12.081   5.296  1.00  0.00    -0.000 C 
BRANCH   6   7
ATOM      7  C   UNL     1     -11.380  12.124   4.120  1.00  0.00    -0.000 C 
BRANCH   7   8
ATOM      8  C   UNL     1     -11.838  10.722   3.687  1.00  0.00    -0.000 C 
BRANCH   8   9
ATOM      9  C   UNL     1     -13.360  10.532   3.826  1.00  0.00    -0.000 C 
BRANCH   9  10
ATOM     10  C   UNL     1     -13.797  10.266   5.277  1.00  0.00    -0.000 C 
BRANCH  10  11
ATOM     11  C   UNL     1     -13.139   9.039   5.932  1.00  0.00    -0.003 C 
ATOM     12  C   UNL     1     -13.838   7.725   5.579  1.00  0.00     0.004 C 
ENDBRANCH  10  11
ENDBRANCH   9  10
ENDBRANCH   8   9
ENDBRANCH   7   8
ENDBRANCH   6   7
ENDBRANCH   5   6
ENDBRANCH   4   5
ENDBRANCH   3   4
ENDBRANCH   2   3
ENDBRANCH   1   2
BRANCH   1  13
ATOM     13  C   UNL     1      -7.135   9.774   5.649  1.00  0.00     0.000 C 
BRANCH  13  14
ATOM     14  C   UNL     1      -8.349   8.963   6.136  1.00  0.00     0.000 C 
BRANCH  14  15
ATOM     15  C   UNL     1      -9.284   8.538   4.990  1.00  0.00     0.000 C 
BRANCH  15  16
ATOM     16  C   UNL     1      -9.396   7.018   4.777  1.00  0.00     0.000 C 
BRANCH  16  17
ATOM     17  C   UNL     1     -10.451   6.364   5.687  1.00  0.00     0.000 C 
BRANCH  17  18
ATOM     18  C   UNL     1      -9.890   5.184   6.499  1.00  0.00     0.000 C 
BRANCH  18  19
ATOM     19  C   UNL     1     -10.928   4.428   7.353  1.00  0.00     0.000 C 
BRANCH  19  20
ATOM     20  C   UNL     1     -12.395   4.643   6.939  1.00  0.00     0.006 C 
BRANCH  20  21
ATOM     21  C   UNL     1     -12.956   3.486   6.102  1.00  0.00     0.053 C 
BRANCH  21  22
ATOM     22  C   UNL     1     -12.794   3.766   4.640  1.00  0.00     0.041 C 
ATOM     23  O   UNL     1     -11.798   3.318   4.013  1.00  0.00    -0.550 OA
ATOM     24  O   UNL     1     -13.747   4.525   3.967  1.00  0.00    -0.550 OA
ENDBRANCH  21  22
ENDBRANCH  20  21
ENDBRANCH  19  20
ENDBRANCH  18  19
ENDBRANCH  17  18
ENDBRANCH  16  17
ENDBRANCH  15  16
ENDBRANCH  14  15
ENDBRANCH  13  14
ENDBRANCH   1  13
TORSDOF 20
ENDMDL
