MODEL 1
REMARK VINA RESULT:    -5.921      0.000      0.000
REMARK INTER + INTRA:         -10.720
REMARK INTER:                  -8.171
REMARK INTRA:                  -2.549
REMARK UNBOUND:                -2.549
REMARK SMILES CC[C@H](CC[C@@H](C)[C@@H]1CC[C@H]2[C@@H]3CC=C4C[C@@H](O)CC[C@@]4(C)[C@@H]3CC[C@]21C)C(C)C
REMARK SMILES IDX 5 1 4 2 3 3 2 4 1 5 28 6 29 7 30 8 6 9 7 10 8 11 9 12 26 13
REMARK SMILES IDX 10 14 11 15 25 16 27 17 12 18 24 19 23 20 13 21 21 22 14 23
REMARK SMILES IDX 15 24 20 25 22 26 16 27 19 28 17 29 18 30
REMARK H PARENT 18 31
REMARK Flexibility Score: inf
ROOT
ATOM      1  C   UNL     1      34.115  -0.173 115.076  1.00  0.00     0.004 C 
ENDROOT
BRANCH   1   2
ATOM      2  C   UNL     1      35.227   0.525 115.891  1.00  0.00     0.004 C 
BRANCH   2   3
ATOM      3  C   UNL     1      34.818   1.825 116.639  1.00  0.00    -0.009 C 
BRANCH   3   4
ATOM      4  C   UNL     1      35.160   1.686 118.157  1.00  0.00     0.000 C 
ATOM      5  C   UNL     1      34.606   0.399 118.775  1.00  0.00     0.004 C 
ENDBRANCH   3   4
BRANCH   3   6
ATOM      6  C   UNL     1      35.403   3.125 115.985  1.00  0.00    -0.014 C 
ATOM      7  C   UNL     1      34.488   3.767 114.926  1.00  0.00     0.007 C 
ATOM      8  C   UNL     1      36.808   2.899 115.407  1.00  0.00     0.007 C 
ENDBRANCH   3   6
ENDBRANCH   2   3
ENDBRANCH   1   2
BRANCH   1   9
ATOM      9  C   UNL     1      34.284  -0.051 113.531  1.00  0.00    -0.011 C 
ATOM     10  C   UNL     1      33.263   0.916 112.902  1.00  0.00     0.008 C 
BRANCH   9  11
ATOM     11  C   UNL     1      35.746   0.237 113.033  1.00  0.00    -0.002 C 
ATOM     12  C   UNL     1      35.799   1.336 111.957  1.00  0.00     0.005 C 
ATOM     13  C   UNL     1      36.699  -0.924 112.552  1.00  0.00    -0.026 C 
ATOM     14  C   UNL     1      36.716   0.841 110.851  1.00  0.00     0.005 C 
ATOM     15  C   UNL     1      37.586  -0.280 111.440  1.00  0.00    -0.001 C 
ATOM     16  C   UNL     1      37.560  -1.478 113.721  1.00  0.00     0.007 C 
ATOM     17  C   UNL     1      35.950  -2.125 111.913  1.00  0.00     0.012 C 
ATOM     18  C   UNL     1      38.991   0.238 111.903  1.00  0.00     0.000 C 
ATOM     19  C   UNL     1      38.602  -0.498 114.308  1.00  0.00     0.005 C 
ATOM     20  C   UNL     1      39.013   0.686 113.381  1.00  0.00     0.003 C 
ATOM     21  C   UNL     1      40.100  -0.803 111.661  1.00  0.00     0.031 C 
ATOM     22  C   UNL     1      40.400   1.348 113.764  1.00  0.00    -0.008 C 
ATOM     23  C   UNL     1      41.435  -0.321 112.158  1.00  0.00    -0.027 C 
ATOM     24  C   UNL     1      41.585   0.606 113.132  1.00  0.00    -0.065 C 
ATOM     25  C   UNL     1      40.447   2.819 113.234  1.00  0.00     0.014 C 
ATOM     26  C   UNL     1      40.559   1.390 115.313  1.00  0.00     0.016 C 
ATOM     27  C   UNL     1      42.961   1.196 113.355  1.00  0.00     0.063 C 
ATOM     28  C   UNL     1      41.829   3.500 113.380  1.00  0.00     0.033 C 
ATOM     29  C   UNL     1      42.999   2.646 112.836  1.00  0.00     0.118 C 
BRANCH  29  30
ATOM     30  O   UNL     1      43.046   2.680 111.429  1.00  0.00    -0.393 OA
ATOM     31  H   UNL     1      42.271   2.170 111.081  1.00  0.00     0.210 HD
ENDBRANCH  29  30
ENDBRANCH   9  11
ENDBRANCH   1   9
TORSDOF 7
ENDMDL
MODEL 2
REMARK VINA RESULT:    -5.659     12.006     14.348
REMARK INTER + INTRA:         -10.359
REMARK INTER:                  -7.436
REMARK INTRA:                  -2.923
REMARK UNBOUND:                -2.549
REMARK SMILES CC[C@H](CC[C@@H](C)[C@@H]1CC[C@H]2[C@@H]3CC=C4C[C@@H](O)CC[C@@]4(C)[C@@H]3CC[C@]21C)C(C)C
REMARK SMILES IDX 5 1 4 2 3 3 2 4 1 5 28 6 29 7 30 8 6 9 7 10 8 11 9 12 26 13
REMARK SMILES IDX 10 14 11 15 25 16 27 17 12 18 24 19 23 20 13 21 21 22 14 23
REMARK SMILES IDX 15 24 20 25 22 26 16 27 19 28 17 29 18 30
REMARK H PARENT 18 31
REMARK Flexibility Score: inf
ROOT
ATOM      1  C   UNL     1      40.340  15.412 113.525  1.00  0.00     0.004 C 
ENDROOT
BRANCH   1   2
ATOM      2  C   UNL     1      38.979  14.722 113.281  1.00  0.00     0.004 C 
BRANCH   2   3
ATOM      3  C   UNL     1      38.084  15.342 112.171  1.00  0.00    -0.009 C 
BRANCH   3   4
ATOM      4  C   UNL     1      38.856  16.499 111.459  1.00  0.00     0.000 C 
ATOM      5  C   UNL     1      38.059  17.126 110.311  1.00  0.00     0.004 C 
ENDBRANCH   3   4
BRANCH   3   6
ATOM      6  C   UNL     1      37.505  14.276 111.176  1.00  0.00    -0.014 C 
ATOM      7  C   UNL     1      35.968  14.187 111.170  1.00  0.00     0.007 C 
ATOM      8  C   UNL     1      38.117  12.885 111.399  1.00  0.00     0.007 C 
ENDBRANCH   3   6
ENDBRANCH   2   3
ENDBRANCH   1   2
BRANCH   1   9
ATOM      9  C   UNL     1      41.575  14.515 113.208  1.00  0.00    -0.011 C 
ATOM     10  C   UNL     1      41.922  13.563 114.369  1.00  0.00     0.008 C 
BRANCH   9  11
ATOM     11  C   UNL     1      41.528  13.763 111.830  1.00  0.00    -0.002 C 
ATOM     12  C   UNL     1      41.697  12.241 111.980  1.00  0.00     0.005 C 
ATOM     13  C   UNL     1      42.429  14.208 110.615  1.00  0.00    -0.026 C 
ATOM     14  C   UNL     1      42.690  11.790 110.922  1.00  0.00     0.005 C 
ATOM     15  C   UNL     1      42.749  12.886 109.848  1.00  0.00    -0.001 C 
ATOM     16  C   UNL     1      41.696  15.233 109.706  1.00  0.00     0.007 C 
ATOM     17  C   UNL     1      43.782  14.840 111.037  1.00  0.00     0.012 C 
ATOM     18  C   UNL     1      41.825  12.567 108.623  1.00  0.00     0.000 C 
ATOM     19  C   UNL     1      40.464  14.693 108.944  1.00  0.00     0.005 C 
ATOM     20  C   UNL     1      40.401  13.145 108.773  1.00  0.00     0.003 C 
ATOM     21  C   UNL     1      42.440  13.047 107.294  1.00  0.00     0.031 C 
ATOM     22  C   UNL     1      39.456  12.669 107.594  1.00  0.00    -0.008 C 
ATOM     23  C   UNL     1      41.524  12.788 106.130  1.00  0.00    -0.027 C 
ATOM     24  C   UNL     1      40.182  12.664 106.242  1.00  0.00    -0.065 C 
ATOM     25  C   UNL     1      38.977  11.204 107.861  1.00  0.00     0.014 C 
ATOM     26  C   UNL     1      38.196  13.581 107.522  1.00  0.00     0.016 C 
ATOM     27  C   UNL     1      39.407  12.145 105.050  1.00  0.00     0.063 C 
ATOM     28  C   UNL     1      38.206  10.566 106.680  1.00  0.00     0.033 C 
ATOM     29  C   UNL     1      38.934  10.704 105.321  1.00  0.00     0.118 C 
BRANCH  29  30
ATOM     30  O   UNL     1      40.000   9.791 105.218  1.00  0.00    -0.393 OA
ATOM     31  H   UNL     1      40.624   9.957 105.970  1.00  0.00     0.210 HD
ENDBRANCH  29  30
ENDBRANCH   9  11
ENDBRANCH   1   9
TORSDOF 7
ENDMDL
MODEL 3
REMARK VINA RESULT:    -5.421      1.468      2.457
REMARK INTER + INTRA:         -10.031
REMARK INTER:                  -7.643
REMARK INTRA:                  -2.387
REMARK UNBOUND:                -2.549
REMARK SMILES CC[C@H](CC[C@@H](C)[C@@H]1CC[C@H]2[C@@H]3CC=C4C[C@@H](O)CC[C@@]4(C)[C@@H]3CC[C@]21C)C(C)C
REMARK SMILES IDX 5 1 4 2 3 3 2 4 1 5 28 6 29 7 30 8 6 9 7 10 8 11 9 12 26 13
REMARK SMILES IDX 10 14 11 15 25 16 27 17 12 18 24 19 23 20 13 21 21 22 14 23
REMARK SMILES IDX 15 24 20 25 22 26 16 27 19 28 17 29 18 30
REMARK H PARENT 18 31
REMARK Flexibility Score: inf
ROOT
ATOM      1  C   UNL     1      34.638   2.928 113.428  1.00  0.00     0.004 C 
ENDROOT
BRANCH   1   2
ATOM      2  C   UNL     1      35.975   3.364 114.068  1.00  0.00     0.004 C 
BRANCH   2   3
ATOM      3  C   UNL     1      36.473   2.509 115.268  1.00  0.00    -0.009 C 
BRANCH   3   4
ATOM      4  C   UNL     1      37.711   3.201 115.926  1.00  0.00     0.000 C 
ATOM      5  C   UNL     1      38.756   3.648 114.900  1.00  0.00     0.004 C 
ENDBRANCH   3   4
BRANCH   3   6
ATOM      6  C   UNL     1      35.338   2.159 116.291  1.00  0.00    -0.014 C 
ATOM      7  C   UNL     1      35.450   2.898 117.637  1.00  0.00     0.007 C 
ATOM      8  C   UNL     1      35.219   0.646 116.525  1.00  0.00     0.007 C 
ENDBRANCH   3   6
ENDBRANCH   2   3
ENDBRANCH   1   2
BRANCH   1   9
ATOM      9  C   UNL     1      34.793   2.214 112.051  1.00  0.00    -0.011 C 
ATOM     10  C   UNL     1      34.252   3.064 110.885  1.00  0.00     0.008 C 
BRANCH   9  11
ATOM     11  C   UNL     1      36.224   1.644 111.743  1.00  0.00    -0.002 C 
ATOM     12  C   UNL     1      36.868   2.296 110.508  1.00  0.00     0.005 C 
ATOM     13  C   UNL     1      36.489   0.093 111.636  1.00  0.00    -0.026 C 
ATOM     14  C   UNL     1      37.465   1.181 109.667  1.00  0.00     0.005 C 
ATOM     15  C   UNL     1      37.630  -0.045 110.578  1.00  0.00    -0.001 C 
ATOM     16  C   UNL     1      36.903  -0.513 113.005  1.00  0.00     0.007 C 
ATOM     17  C   UNL     1      35.271  -0.716 111.115  1.00  0.00     0.012 C 
ATOM     18  C   UNL     1      39.082  -0.169 111.153  1.00  0.00     0.000 C 
ATOM     19  C   UNL     1      38.267  -0.043 113.560  1.00  0.00     0.005 C 
ATOM     20  C   UNL     1      39.257   0.546 112.510  1.00  0.00     0.003 C 
ATOM     21  C   UNL     1      39.532  -1.636 111.280  1.00  0.00     0.031 C 
ATOM     22  C   UNL     1      40.770   0.535 112.979  1.00  0.00    -0.008 C 
ATOM     23  C   UNL     1      40.905  -1.749 111.884  1.00  0.00    -0.027 C 
ATOM     24  C   UNL     1      41.453  -0.807 112.685  1.00  0.00    -0.065 C 
ATOM     25  C   UNL     1      41.571   1.634 112.206  1.00  0.00     0.014 C 
ATOM     26  C   UNL     1      40.858   0.858 114.500  1.00  0.00     0.016 C 
ATOM     27  C   UNL     1      42.928  -0.912 113.010  1.00  0.00     0.063 C 
ATOM     28  C   UNL     1      43.100   1.585 112.440  1.00  0.00     0.033 C 
ATOM     29  C   UNL     1      43.710   0.176 112.249  1.00  0.00     0.118 C 
BRANCH  29  30
ATOM     30  O   UNL     1      43.832  -0.147 110.884  1.00  0.00    -0.393 OA
ATOM     31  H   UNL     1      43.264  -0.938 110.701  1.00  0.00     0.210 HD
ENDBRANCH  29  30
ENDBRANCH   9  11
ENDBRANCH   1   9
TORSDOF 7
ENDMDL
MODEL 4
REMARK VINA RESULT:    -5.410     11.816     14.754
REMARK INTER + INTRA:         -10.015
REMARK INTER:                  -7.359
REMARK INTRA:                  -2.656
REMARK UNBOUND:                -2.549
REMARK SMILES CC[C@H](CC[C@@H](C)[C@@H]1CC[C@H]2[C@@H]3CC=C4C[C@@H](O)CC[C@@]4(C)[C@@H]3CC[C@]21C)C(C)C
REMARK SMILES IDX 5 1 4 2 3 3 2 4 1 5 28 6 29 7 30 8 6 9 7 10 8 11 9 12 26 13
REMARK SMILES IDX 10 14 11 15 25 16 27 17 12 18 24 19 23 20 13 21 21 22 14 23
REMARK SMILES IDX 15 24 20 25 22 26 16 27 19 28 17 29 18 30
REMARK H PARENT 18 31
REMARK Flexibility Score: inf
ROOT
ATOM      1  C   UNL     1      39.112  12.504 105.338  1.00  0.00     0.004 C 
ENDROOT
BRANCH   1   2
ATOM      2  C   UNL     1      39.427  14.011 105.475  1.00  0.00     0.004 C 
BRANCH   2   3
ATOM      3  C   UNL     1      40.699  14.376 106.291  1.00  0.00    -0.009 C 
BRANCH   3   4
ATOM      4  C   UNL     1      41.633  13.127 106.392  1.00  0.00     0.000 C 
ATOM      5  C   UNL     1      42.033  12.801 107.833  1.00  0.00     0.004 C 
ENDBRANCH   3   4
BRANCH   3   6
ATOM      6  C   UNL     1      41.429  15.658 105.758  1.00  0.00    -0.014 C 
ATOM      7  C   UNL     1      42.726  15.370 104.980  1.00  0.00     0.007 C 
ATOM      8  C   UNL     1      41.695  16.677 106.875  1.00  0.00     0.007 C 
ENDBRANCH   3   6
ENDBRANCH   2   3
ENDBRANCH   1   2
BRANCH   1   9
ATOM      9  C   UNL     1      38.065  11.976 106.365  1.00  0.00    -0.011 C 
ATOM     10  C   UNL     1      37.706  10.496 106.129  1.00  0.00     0.008 C 
BRANCH   9  11
ATOM     11  C   UNL     1      38.394  12.264 107.873  1.00  0.00    -0.002 C 
ATOM     12  C   UNL     1      38.886  11.012 108.622  1.00  0.00     0.005 C 
ATOM     13  C   UNL     1      37.362  12.989 108.820  1.00  0.00    -0.026 C 
ATOM     14  C   UNL     1      38.152  10.963 109.951  1.00  0.00     0.005 C 
ATOM     15  C   UNL     1      37.612  12.373 110.233  1.00  0.00    -0.001 C 
ATOM     16  C   UNL     1      37.573  14.529 108.823  1.00  0.00     0.007 C 
ATOM     17  C   UNL     1      35.878  12.721 108.451  1.00  0.00     0.012 C 
ATOM     18  C   UNL     1      38.556  13.193 111.178  1.00  0.00     0.000 C 
ATOM     19  C   UNL     1      38.900  15.022 109.442  1.00  0.00     0.005 C 
ATOM     20  C   UNL     1      39.606  14.024 110.409  1.00  0.00     0.003 C 
ATOM     21  C   UNL     1      37.767  14.111 112.130  1.00  0.00     0.031 C 
ATOM     22  C   UNL     1      40.637  14.710 111.397  1.00  0.00    -0.008 C 
ATOM     23  C   UNL     1      38.680  14.935 112.995  1.00  0.00    -0.027 C 
ATOM     24  C   UNL     1      39.952  15.251 112.658  1.00  0.00    -0.065 C 
ATOM     25  C   UNL     1      41.695  13.659 111.869  1.00  0.00     0.014 C 
ATOM     26  C   UNL     1      41.393  15.857 110.664  1.00  0.00     0.016 C 
ATOM     27  C   UNL     1      40.846  15.854 113.720  1.00  0.00     0.063 C 
ATOM     28  C   UNL     1      42.636  14.167 112.987  1.00  0.00     0.033 C 
ATOM     29  C   UNL     1      41.889  14.816 114.176  1.00  0.00     0.118 C 
BRANCH  29  30
ATOM     30  O   UNL     1      41.304  13.840 115.006  1.00  0.00    -0.393 OA
ATOM     31  H   UNL     1      41.459  12.952 114.596  1.00  0.00     0.210 HD
ENDBRANCH  29  30
ENDBRANCH   9  11
ENDBRANCH   1   9
TORSDOF 7
ENDMDL
MODEL 5
REMARK VINA RESULT:    -5.338     12.985     16.246
REMARK INTER + INTRA:          -9.916
REMARK INTER:                  -8.008
REMARK INTRA:                  -1.908
REMARK UNBOUND:                -2.549
REMARK SMILES CC[C@H](CC[C@@H](C)[C@@H]1CC[C@H]2[C@@H]3CC=C4C[C@@H](O)CC[C@@]4(C)[C@@H]3CC[C@]21C)C(C)C
REMARK SMILES IDX 5 1 4 2 3 3 2 4 1 5 28 6 29 7 30 8 6 9 7 10 8 11 9 12 26 13
REMARK SMILES IDX 10 14 11 15 25 16 27 17 12 18 24 19 23 20 13 21 21 22 14 23
REMARK SMILES IDX 15 24 20 25 22 26 16 27 19 28 17 29 18 30
REMARK H PARENT 18 31
REMARK Flexibility Score: inf
ROOT
ATOM      1  C   UNL     1      39.936  18.047 106.795  1.00  0.00     0.004 C 
ENDROOT
BRANCH   1   2
ATOM      2  C   UNL     1      40.604  17.354 105.586  1.00  0.00     0.004 C 
BRANCH   2   3
ATOM      3  C   UNL     1      41.942  16.614 105.871  1.00  0.00    -0.009 C 
BRANCH   3   4
ATOM      4  C   UNL     1      41.711  15.070 105.813  1.00  0.00     0.000 C 
ATOM      5  C   UNL     1      41.569  14.439 107.201  1.00  0.00     0.004 C 
ENDBRANCH   3   4
BRANCH   3   6
ATOM      6  C   UNL     1      43.123  17.101 104.962  1.00  0.00    -0.014 C 
ATOM      7  C   UNL     1      43.979  15.964 104.374  1.00  0.00     0.007 C 
ATOM      8  C   UNL     1      44.018  18.124 105.676  1.00  0.00     0.007 C 
ENDBRANCH   3   6
ENDBRANCH   2   3
ENDBRANCH   1   2
BRANCH   1   9
ATOM      9  C   UNL     1      38.623  17.361 107.278  1.00  0.00    -0.011 C 
ATOM     10  C   UNL     1      37.798  16.785 106.112  1.00  0.00     0.008 C 
BRANCH   9  11
ATOM     11  C   UNL     1      38.793  16.321 108.443  1.00  0.00    -0.002 C 
ATOM     12  C   UNL     1      38.132  14.967 108.130  1.00  0.00     0.005 C 
ATOM     13  C   UNL     1      38.420  16.681 109.933  1.00  0.00    -0.026 C 
ATOM     14  C   UNL     1      37.359  14.545 109.367  1.00  0.00     0.005 C 
ATOM     15  C   UNL     1      37.920  15.339 110.556  1.00  0.00    -0.001 C 
ATOM     16  C   UNL     1      39.640  17.251 110.706  1.00  0.00     0.007 C 
ATOM     17  C   UNL     1      37.264  17.711 110.057  1.00  0.00     0.012 C 
ATOM     18  C   UNL     1      38.986  14.524 111.365  1.00  0.00     0.000 C 
ATOM     19  C   UNL     1      40.801  16.259 110.951  1.00  0.00     0.005 C 
ATOM     20  C   UNL     1      40.428  14.749 110.862  1.00  0.00     0.003 C 
ATOM     21  C   UNL     1      38.915  14.819 112.876  1.00  0.00     0.031 C 
ATOM     22  C   UNL     1      41.453  13.791 111.597  1.00  0.00    -0.008 C 
ATOM     23  C   UNL     1      39.976  14.076 113.640  1.00  0.00    -0.027 C 
ATOM     24  C   UNL     1      41.138  13.652 113.092  1.00  0.00    -0.065 C 
ATOM     25  C   UNL     1      41.374  12.357 110.979  1.00  0.00     0.014 C 
ATOM     26  C   UNL     1      42.906  14.318 111.404  1.00  0.00     0.016 C 
ATOM     27  C   UNL     1      41.998  12.693 113.888  1.00  0.00     0.063 C 
ATOM     28  C   UNL     1      42.190  11.290 111.747  1.00  0.00     0.033 C 
ATOM     29  C   UNL     1      41.919  11.284 113.271  1.00  0.00     0.118 C 
BRANCH  29  30
ATOM     30  O   UNL     1      40.689  10.668 113.568  1.00  0.00    -0.393 OA
ATOM     31  H   UNL     1      40.782   9.695 113.403  1.00  0.00     0.210 HD
ENDBRANCH  29  30
ENDBRANCH   9  11
ENDBRANCH   1   9
TORSDOF 7
ENDMDL
MODEL 6
REMARK VINA RESULT:    -5.259      2.487      7.003
REMARK INTER + INTRA:          -9.807
REMARK INTER:                  -7.114
REMARK INTRA:                  -2.693
REMARK UNBOUND:                -2.549
REMARK SMILES CC[C@H](CC[C@@H](C)[C@@H]1CC[C@H]2[C@@H]3CC=C4C[C@@H](O)CC[C@@]4(C)[C@@H]3CC[C@]21C)C(C)C
REMARK SMILES IDX 5 1 4 2 3 3 2 4 1 5 28 6 29 7 30 8 6 9 7 10 8 11 9 12 26 13
REMARK SMILES IDX 10 14 11 15 25 16 27 17 12 18 24 19 23 20 13 21 21 22 14 23
REMARK SMILES IDX 15 24 20 25 22 26 16 27 19 28 17 29 18 30
REMARK H PARENT 18 31
REMARK Flexibility Score: inf
ROOT
ATOM      1  C   UNL     1      41.359  -0.316 111.774  1.00  0.00     0.004 C 
ENDROOT
BRANCH   1   2
ATOM      2  C   UNL     1      40.145  -1.270 111.843  1.00  0.00     0.004 C 
BRANCH   2   3
ATOM      3  C   UNL     1      38.825  -0.750 111.207  1.00  0.00    -0.009 C 
BRANCH   3   4
ATOM      4  C   UNL     1      39.152   0.348 110.145  1.00  0.00     0.000 C 
ATOM      5  C   UNL     1      38.236   1.571 110.255  1.00  0.00     0.004 C 
ENDBRANCH   3   4
BRANCH   3   6
ATOM      6  C   UNL     1      37.910  -1.898 110.655  1.00  0.00    -0.014 C 
ATOM      7  C   UNL     1      37.782  -1.921 109.121  1.00  0.00     0.007 C 
ATOM      8  C   UNL     1      36.519  -1.891 111.304  1.00  0.00     0.007 C 
ENDBRANCH   3   6
ENDBRANCH   2   3
ENDBRANCH   1   2
BRANCH   1   9
ATOM      9  C   UNL     1      41.511   0.613 113.017  1.00  0.00    -0.011 C 
ATOM     10  C   UNL     1      42.804   1.448 112.970  1.00  0.00     0.008 C 
BRANCH   9  11
ATOM     11  C   UNL     1      40.257   1.495 113.358  1.00  0.00    -0.002 C 
ATOM     12  C   UNL     1      40.454   2.974 112.984  1.00  0.00     0.005 C 
ATOM     13  C   UNL     1      39.592   1.466 114.788  1.00  0.00    -0.026 C 
ATOM     14  C   UNL     1      39.964   3.806 114.157  1.00  0.00     0.005 C 
ATOM     15  C   UNL     1      39.044   2.913 115.003  1.00  0.00    -0.001 C 
ATOM     16  C   UNL     1      38.457   0.408 114.870  1.00  0.00     0.007 C 
ATOM     17  C   UNL     1      40.592   1.171 115.938  1.00  0.00     0.012 C 
ATOM     18  C   UNL     1      37.530   3.128 114.663  1.00  0.00     0.000 C 
ATOM     19  C   UNL     1      37.213   0.691 113.998  1.00  0.00     0.005 C 
ATOM     20  C   UNL     1      37.018   2.175 113.561  1.00  0.00     0.003 C 
ATOM     21  C   UNL     1      36.633   3.005 115.909  1.00  0.00     0.031 C 
ATOM     22  C   UNL     1      35.533   2.527 113.135  1.00  0.00    -0.008 C 
ATOM     23  C   UNL     1      35.177   3.156 115.566  1.00  0.00    -0.027 C 
ATOM     24  C   UNL     1      34.663   2.900 114.341  1.00  0.00    -0.065 C 
ATOM     25  C   UNL     1      35.539   3.764 112.176  1.00  0.00     0.014 C 
ATOM     26  C   UNL     1      34.901   1.329 112.368  1.00  0.00     0.016 C 
ATOM     27  C   UNL     1      33.244   3.341 114.053  1.00  0.00     0.063 C 
ATOM     28  C   UNL     1      34.131   4.318 111.851  1.00  0.00     0.033 C 
ATOM     29  C   UNL     1      33.256   4.556 113.105  1.00  0.00     0.118 C 
BRANCH  29  30
ATOM     30  O   UNL     1      33.644   5.726 113.784  1.00  0.00    -0.393 OA
ATOM     31  H   UNL     1      34.487   6.053 113.381  1.00  0.00     0.210 HD
ENDBRANCH  29  30
ENDBRANCH   9  11
ENDBRANCH   1   9
TORSDOF 7
ENDMDL
MODEL 7
REMARK VINA RESULT:    -5.232     10.926     13.625
REMARK INTER + INTRA:          -9.769
REMARK INTER:                  -6.968
REMARK INTRA:                  -2.801
REMARK UNBOUND:                -2.549
REMARK SMILES CC[C@H](CC[C@@H](C)[C@@H]1CC[C@H]2[C@@H]3CC=C4C[C@@H](O)CC[C@@]4(C)[C@@H]3CC[C@]21C)C(C)C
REMARK SMILES IDX 5 1 4 2 3 3 2 4 1 5 28 6 29 7 30 8 6 9 7 10 8 11 9 12 26 13
REMARK SMILES IDX 10 14 11 15 25 16 27 17 12 18 24 19 23 20 13 21 21 22 14 23
REMARK SMILES IDX 15 24 20 25 22 26 16 27 19 28 17 29 18 30
REMARK H PARENT 18 31
REMARK Flexibility Score: inf
ROOT
ATOM      1  C   UNL     1      36.241  11.817 106.870  1.00  0.00     0.004 C 
ENDROOT
BRANCH   1   2
ATOM      2  C   UNL     1      36.479  10.313 107.130  1.00  0.00     0.004 C 
BRANCH   2   3
ATOM      3  C   UNL     1      37.915   9.910 107.570  1.00  0.00    -0.009 C 
BRANCH   3   4
ATOM      4  C   UNL     1      38.902  11.086 107.277  1.00  0.00     0.000 C 
ATOM      5  C   UNL     1      39.593  10.955 105.917  1.00  0.00     0.004 C 
ENDBRANCH   3   4
BRANCH   3   6
ATOM      6  C   UNL     1      37.987   9.391 109.048  1.00  0.00    -0.014 C 
ATOM      7  C   UNL     1      36.616   9.079 109.675  1.00  0.00     0.007 C 
ATOM      8  C   UNL     1      38.782  10.340 109.956  1.00  0.00     0.007 C 
ENDBRANCH   3   6
ENDBRANCH   2   3
ENDBRANCH   1   2
BRANCH   1   9
ATOM      9  C   UNL     1      35.492  12.553 108.023  1.00  0.00    -0.011 C 
ATOM     10  C   UNL     1      34.304  11.737 108.566  1.00  0.00     0.008 C 
BRANCH   9  11
ATOM     11  C   UNL     1      36.404  13.099 109.179  1.00  0.00    -0.002 C 
ATOM     12  C   UNL     1      35.822  12.817 110.576  1.00  0.00     0.005 C 
ATOM     13  C   UNL     1      36.922  14.589 109.189  1.00  0.00    -0.026 C 
ATOM     14  C   UNL     1      35.948  14.097 111.384  1.00  0.00     0.005 C 
ATOM     15  C   UNL     1      37.008  14.973 110.701  1.00  0.00    -0.001 C 
ATOM     16  C   UNL     1      38.302  14.719 108.487  1.00  0.00     0.007 C 
ATOM     17  C   UNL     1      35.953  15.593 108.509  1.00  0.00     0.012 C 
ATOM     18  C   UNL     1      38.420  14.823 111.363  1.00  0.00     0.000 C 
ATOM     19  C   UNL     1      39.483  14.018 109.196  1.00  0.00     0.005 C 
ATOM     20  C   UNL     1      39.279  13.717 110.711  1.00  0.00     0.003 C 
ATOM     21  C   UNL     1      39.202  16.150 111.367  1.00  0.00     0.031 C 
ATOM     22  C   UNL     1      40.630  13.490 111.507  1.00  0.00    -0.008 C 
ATOM     23  C   UNL     1      40.577  15.986 111.954  1.00  0.00    -0.027 C 
ATOM     24  C   UNL     1      41.248  14.812 111.980  1.00  0.00    -0.065 C 
ATOM     25  C   UNL     1      40.352  12.632 112.785  1.00  0.00     0.014 C 
ATOM     26  C   UNL     1      41.646  12.712 110.618  1.00  0.00     0.016 C 
ATOM     27  C   UNL     1      42.499  14.720 112.827  1.00  0.00     0.063 C 
ATOM     28  C   UNL     1      41.563  12.511 113.741  1.00  0.00     0.033 C 
ATOM     29  C   UNL     1      42.220  13.870 114.082  1.00  0.00     0.118 C 
BRANCH  29  30
ATOM     30  O   UNL     1      41.454  14.587 115.020  1.00  0.00    -0.393 OA
ATOM     31  H   UNL     1      40.500  14.360 114.879  1.00  0.00     0.210 HD
ENDBRANCH  29  30
ENDBRANCH   9  11
ENDBRANCH   1   9
TORSDOF 7
ENDMDL
MODEL 8
REMARK VINA RESULT:    -5.223     11.301     14.270
REMARK INTER + INTRA:          -9.757
REMARK INTER:                  -7.157
REMARK INTRA:                  -2.599
REMARK UNBOUND:                -2.549
REMARK SMILES CC[C@H](CC[C@@H](C)[C@@H]1CC[C@H]2[C@@H]3CC=C4C[C@@H](O)CC[C@@]4(C)[C@@H]3CC[C@]21C)C(C)C
REMARK SMILES IDX 5 1 4 2 3 3 2 4 1 5 28 6 29 7 30 8 6 9 7 10 8 11 9 12 26 13
REMARK SMILES IDX 10 14 11 15 25 16 27 17 12 18 24 19 23 20 13 21 21 22 14 23
REMARK SMILES IDX 15 24 20 25 22 26 16 27 19 28 17 29 18 30
REMARK H PARENT 18 31
REMARK Flexibility Score: inf
ROOT
ATOM      1  C   UNL     1      40.511  16.525 110.790  1.00  0.00     0.004 C 
ENDROOT
BRANCH   1   2
ATOM      2  C   UNL     1      39.338  15.654 111.292  1.00  0.00     0.004 C 
BRANCH   2   3
ATOM      3  C   UNL     1      39.429  15.160 112.764  1.00  0.00    -0.009 C 
BRANCH   3   4
ATOM      4  C   UNL     1      39.796  13.642 112.786  1.00  0.00     0.000 C 
ATOM      5  C   UNL     1      39.078  12.841 111.696  1.00  0.00     0.004 C 
ENDBRANCH   3   4
BRANCH   3   6
ATOM      6  C   UNL     1      40.372  16.042 113.654  1.00  0.00    -0.014 C 
ATOM      7  C   UNL     1      41.483  15.253 114.371  1.00  0.00     0.007 C 
ATOM      8  C   UNL     1      39.586  16.890 114.665  1.00  0.00     0.007 C 
ENDBRANCH   3   6
ENDBRANCH   2   3
ENDBRANCH   1   2
BRANCH   1   9
ATOM      9  C   UNL     1      41.623  15.729 110.042  1.00  0.00    -0.011 C 
ATOM     10  C   UNL     1      42.821  15.398 110.952  1.00  0.00     0.008 C 
BRANCH   9  11
ATOM     11  C   UNL     1      41.131  14.469 109.244  1.00  0.00    -0.002 C 
ATOM     12  C   UNL     1      42.092  13.274 109.371  1.00  0.00     0.005 C 
ATOM     13  C   UNL     1      40.712  14.563 107.727  1.00  0.00    -0.026 C 
ATOM     14  C   UNL     1      42.278  12.695 107.979  1.00  0.00     0.005 C 
ATOM     15  C   UNL     1      41.104  13.181 107.116  1.00  0.00    -0.001 C 
ATOM     16  C   UNL     1      39.193  14.847 107.569  1.00  0.00     0.007 C 
ATOM     17  C   UNL     1      41.478  15.657 106.933  1.00  0.00     0.012 C 
ATOM     18  C   UNL     1      39.953  12.122 107.028  1.00  0.00     0.000 C 
ATOM     19  C   UNL     1      38.248  13.718 108.039  1.00  0.00     0.005 C 
ATOM     20  C   UNL     1      38.885  12.298 108.129  1.00  0.00     0.003 C 
ATOM     21  C   UNL     1      39.273  12.119 105.645  1.00  0.00     0.031 C 
ATOM     22  C   UNL     1      37.828  11.119 108.104  1.00  0.00    -0.008 C 
ATOM     23  C   UNL     1      38.133  11.140 105.586  1.00  0.00    -0.027 C 
ATOM     24  C   UNL     1      37.446  10.720 106.673  1.00  0.00    -0.065 C 
ATOM     25  C   UNL     1      38.437   9.849 108.785  1.00  0.00     0.014 C 
ATOM     26  C   UNL     1      36.555  11.528 108.903  1.00  0.00     0.016 C 
ATOM     27  C   UNL     1      36.506   9.544 106.516  1.00  0.00     0.063 C 
ATOM     28  C   UNL     1      37.566   8.577 108.644  1.00  0.00     0.033 C 
ATOM     29  C   UNL     1      37.109   8.298 107.193  1.00  0.00     0.118 C 
BRANCH  29  30
ATOM     30  O   UNL     1      38.156   7.759 106.422  1.00  0.00    -0.393 OA
ATOM     31  H   UNL     1      38.068   6.773 106.425  1.00  0.00     0.210 HD
ENDBRANCH  29  30
ENDBRANCH   9  11
ENDBRANCH   1   9
TORSDOF 7
ENDMDL
MODEL 9
REMARK VINA RESULT:    -5.163     12.133     15.116
REMARK INTER + INTRA:          -9.675
REMARK INTER:                  -7.168
REMARK INTRA:                  -2.507
REMARK UNBOUND:                -2.549
REMARK SMILES CC[C@H](CC[C@@H](C)[C@@H]1CC[C@H]2[C@@H]3CC=C4C[C@@H](O)CC[C@@]4(C)[C@@H]3CC[C@]21C)C(C)C
REMARK SMILES IDX 5 1 4 2 3 3 2 4 1 5 28 6 29 7 30 8 6 9 7 10 8 11 9 12 26 13
REMARK SMILES IDX 10 14 11 15 25 16 27 17 12 18 24 19 23 20 13 21 21 22 14 23
REMARK SMILES IDX 15 24 20 25 22 26 16 27 19 28 17 29 18 30
REMARK H PARENT 18 31
REMARK Flexibility Score: inf
ROOT
ATOM      1  C   UNL     1      40.287  13.552 113.711  1.00  0.00     0.004 C 
ENDROOT
BRANCH   1   2
ATOM      2  C   UNL     1      41.727  13.386 113.176  1.00  0.00     0.004 C 
BRANCH   2   3
ATOM      3  C   UNL     1      41.909  12.399 111.988  1.00  0.00    -0.009 C 
BRANCH   3   4
ATOM      4  C   UNL     1      42.938  12.987 110.970  1.00  0.00     0.000 C 
ATOM      5  C   UNL     1      42.993  14.518 110.999  1.00  0.00     0.004 C 
ENDBRANCH   3   4
BRANCH   3   6
ATOM      6  C   UNL     1      42.250  10.938 112.445  1.00  0.00    -0.014 C 
ATOM      7  C   UNL     1      41.155   9.904 112.125  1.00  0.00     0.007 C 
ATOM      8  C   UNL     1      42.626  10.870 113.932  1.00  0.00     0.007 C 
ENDBRANCH   3   6
ENDBRANCH   2   3
ENDBRANCH   1   2
BRANCH   1   9
ATOM      9  C   UNL     1      39.618  14.909 113.332  1.00  0.00    -0.011 C 
ATOM     10  C   UNL     1      40.243  16.101 114.080  1.00  0.00     0.008 C 
BRANCH   9  11
ATOM     11  C   UNL     1      39.487  15.189 111.792  1.00  0.00    -0.002 C 
ATOM     12  C   UNL     1      39.557  16.689 111.455  1.00  0.00     0.005 C 
ATOM     13  C   UNL     1      38.307  14.581 110.939  1.00  0.00    -0.026 C 
ATOM     14  C   UNL     1      38.440  16.983 110.469  1.00  0.00     0.005 C 
ATOM     15  C   UNL     1      38.019  15.648 109.836  1.00  0.00    -0.001 C 
ATOM     16  C   UNL     1      38.697  13.210 110.320  1.00  0.00     0.007 C 
ATOM     17  C   UNL     1      36.994  14.376 111.743  1.00  0.00     0.012 C 
ATOM     18  C   UNL     1      38.711  15.403 108.452  1.00  0.00     0.000 C 
ATOM     19  C   UNL     1      39.811  13.251 109.250  1.00  0.00     0.005 C 
ATOM     20  C   UNL     1      40.045  14.634 108.571  1.00  0.00     0.003 C 
ATOM     21  C   UNL     1      37.782  14.674 107.462  1.00  0.00     0.031 C 
ATOM     22  C   UNL     1      40.788  14.545 107.175  1.00  0.00    -0.008 C 
ATOM     23  C   UNL     1      38.470  14.392 106.155  1.00  0.00    -0.027 C 
ATOM     24  C   UNL     1      39.812  14.284 106.020  1.00  0.00    -0.065 C 
ATOM     25  C   UNL     1      41.503  15.903 106.869  1.00  0.00     0.014 C 
ATOM     26  C   UNL     1      41.874  13.430 107.220  1.00  0.00     0.016 C 
ATOM     27  C   UNL     1      40.393  14.264 104.622  1.00  0.00     0.063 C 
ATOM     28  C   UNL     1      42.098  15.998 105.444  1.00  0.00     0.033 C 
ATOM     29  C   UNL     1      41.100  15.601 104.330  1.00  0.00     0.118 C 
BRANCH  29  30
ATOM     30  O   UNL     1      40.167  16.627 104.092  1.00  0.00    -0.393 OA
ATOM     31  H   UNL     1      39.325  16.396 104.560  1.00  0.00     0.210 HD
ENDBRANCH  29  30
ENDBRANCH   9  11
ENDBRANCH   1   9
TORSDOF 7
ENDMDL
