MODEL 1
REMARK VINA RESULT:    -4.812      0.000      0.000
REMARK INTER + INTRA:          -8.779
REMARK INTER:                  -7.626
REMARK INTRA:                  -1.154
REMARK UNBOUND:                -1.154
REMARK SMILES CCCCCCCCCCCC(=O)[O-]
REMARK SMILES IDX 7 1 8 2 9 3 10 4 11 5 12 6 13 7 14 8 6 9 5 10 4 11 3 12 2 13
REMARK SMILES IDX 1 14
REMARK H PARENT
REMARK Flexibility Score: inf
ROOT
ATOM      1  C   UNL     1      24.022  35.255 147.364  1.00  0.00     0.000 C 
ENDROOT
BRANCH   1   2
ATOM      2  C   UNL     1      23.849  36.537 148.194  1.00  0.00     0.000 C 
BRANCH   2   3
ATOM      3  C   UNL     1      24.266  37.801 147.422  1.00  0.00     0.000 C 
BRANCH   3   4
ATOM      4  C   UNL     1      23.299  38.975 147.646  1.00  0.00     0.006 C 
BRANCH   4   5
ATOM      5  C   UNL     1      24.024  40.322 147.759  1.00  0.00     0.053 C 
BRANCH   5   6
ATOM      6  C   UNL     1      24.659  40.462 149.106  1.00  0.00     0.041 C 
ATOM      7  O   UNL     1      24.068  40.034 150.133  1.00  0.00    -0.550 OA
ATOM      8  O   UNL     1      25.881  41.109 149.234  1.00  0.00    -0.550 OA
ENDBRANCH   5   6
ENDBRANCH   4   5
ENDBRANCH   3   4
ENDBRANCH   2   3
ENDBRANCH   1   2
BRANCH   1   9
ATOM      9  C   UNL     1      24.051  33.986 148.234  1.00  0.00     0.000 C 
BRANCH   9  10
ATOM     10  C   UNL     1      24.914  34.169 149.501  1.00  0.00    -0.000 C 
BRANCH  10  11
ATOM     11  C   UNL     1      26.426  34.082 149.231  1.00  0.00    -0.000 C 
BRANCH  11  12
ATOM     12  C   UNL     1      27.232  35.139 150.004  1.00  0.00    -0.000 C 
BRANCH  12  13
ATOM     13  C   UNL     1      27.493  36.405 149.173  1.00  0.00    -0.003 C 
ATOM     14  C   UNL     1      27.114  37.687 149.915  1.00  0.00     0.004 C 
ENDBRANCH  12  13
ENDBRANCH  11  12
ENDBRANCH  10  11
ENDBRANCH   9  10
ENDBRANCH   1   9
TORSDOF 10
ENDMDL
MODEL 2
REMARK VINA RESULT:    -4.758      3.078      5.744
REMARK INTER + INTRA:          -8.693
REMARK INTER:                  -7.391
REMARK INTRA:                  -1.302
REMARK UNBOUND:                -1.154
REMARK SMILES CCCCCCCCCCCC(=O)[O-]
REMARK SMILES IDX 7 1 8 2 9 3 10 4 11 5 12 6 13 7 14 8 6 9 5 10 4 11 3 12 2 13
REMARK SMILES IDX 1 14
REMARK H PARENT
REMARK Flexibility Score: inf
ROOT
ATOM      1  C   UNL     1      27.347  36.754 149.809  1.00  0.00     0.000 C 
ENDROOT
BRANCH   1   2
ATOM      2  C   UNL     1      27.333  35.254 150.149  1.00  0.00     0.000 C 
BRANCH   2   3
ATOM      3  C   UNL     1      28.057  34.403 149.092  1.00  0.00     0.000 C 
BRANCH   3   4
ATOM      4  C   UNL     1      27.116  33.416 148.383  1.00  0.00     0.006 C 
BRANCH   4   5
ATOM      5  C   UNL     1      25.729  34.014 148.115  1.00  0.00     0.053 C 
BRANCH   5   6
ATOM      6  C   UNL     1      24.661  33.125 148.667  1.00  0.00     0.041 C 
ATOM      7  O   UNL     1      24.269  32.122 148.013  1.00  0.00    -0.550 OA
ATOM      8  O   UNL     1      24.062  33.429 149.883  1.00  0.00    -0.550 OA
ENDBRANCH   5   6
ENDBRANCH   4   5
ENDBRANCH   3   4
ENDBRANCH   2   3
ENDBRANCH   1   2
BRANCH   1   9
ATOM      9  C   UNL     1      28.071  37.054 148.485  1.00  0.00     0.000 C 
BRANCH   9  10
ATOM     10  C   UNL     1      27.087  37.425 147.355  1.00  0.00    -0.000 C 
BRANCH  10  11
ATOM     11  C   UNL     1      26.529  38.854 147.472  1.00  0.00    -0.000 C 
BRANCH  11  12
ATOM     12  C   UNL     1      24.999  38.887 147.617  1.00  0.00    -0.000 C 
BRANCH  12  13
ATOM     13  C   UNL     1      24.365  37.492 147.499  1.00  0.00    -0.003 C 
ATOM     14  C   UNL     1      23.660  37.055 148.784  1.00  0.00     0.004 C 
ENDBRANCH  12  13
ENDBRANCH  11  12
ENDBRANCH  10  11
ENDBRANCH   9  10
ENDBRANCH   1   9
TORSDOF 10
ENDMDL
MODEL 3
REMARK VINA RESULT:    -4.740      3.141      5.105
REMARK INTER + INTRA:          -8.664
REMARK INTER:                  -7.035
REMARK INTRA:                  -1.629
REMARK UNBOUND:                -1.154
REMARK SMILES CCCCCCCCCCCC(=O)[O-]
REMARK SMILES IDX 7 1 8 2 9 3 10 4 11 5 12 6 13 7 14 8 6 9 5 10 4 11 3 12 2 13
REMARK SMILES IDX 1 14
REMARK H PARENT
REMARK Flexibility Score: inf
ROOT
ATOM      1  C   UNL     1      23.925  38.809 149.094  1.00  0.00     0.000 C 
ENDROOT
BRANCH   1   2
ATOM      2  C   UNL     1      23.515  37.332 148.979  1.00  0.00     0.000 C 
BRANCH   2   3
ATOM      3  C   UNL     1      23.592  36.810 147.534  1.00  0.00     0.000 C 
BRANCH   3   4
ATOM      4  C   UNL     1      24.003  35.330 147.463  1.00  0.00     0.006 C 
BRANCH   4   5
ATOM      5  C   UNL     1      24.375  34.755 148.836  1.00  0.00     0.053 C 
BRANCH   5   6
ATOM      6  C   UNL     1      25.077  33.444 148.680  1.00  0.00     0.041 C 
ATOM      7  O   UNL     1      26.328  33.407 148.541  1.00  0.00    -0.550 OA
ATOM      8  O   UNL     1      24.345  32.264 148.640  1.00  0.00    -0.550 OA
ENDBRANCH   5   6
ENDBRANCH   4   5
ENDBRANCH   3   4
ENDBRANCH   2   3
ENDBRANCH   1   2
BRANCH   1   9
ATOM      9  C   UNL     1      23.937  39.529 147.734  1.00  0.00     0.000 C 
BRANCH   9  10
ATOM     10  C   UNL     1      25.341  40.055 147.367  1.00  0.00    -0.000 C 
BRANCH  10  11
ATOM     11  C   UNL     1      26.480  39.340 148.116  1.00  0.00    -0.000 C 
BRANCH  11  12
ATOM     12  C   UNL     1      27.140  38.232 147.281  1.00  0.00    -0.000 C 
BRANCH  12  13
ATOM     13  C   UNL     1      27.315  36.925 148.070  1.00  0.00    -0.003 C 
ATOM     14  C   UNL     1      27.277  37.139 149.584  1.00  0.00     0.004 C 
ENDBRANCH  12  13
ENDBRANCH  11  12
ENDBRANCH  10  11
ENDBRANCH   9  10
ENDBRANCH   1   9
TORSDOF 10
ENDMDL
MODEL 4
REMARK VINA RESULT:    -4.728      0.745      1.402
REMARK INTER + INTRA:          -8.645
REMARK INTER:                  -7.784
REMARK INTRA:                  -0.861
REMARK UNBOUND:                -1.154
REMARK SMILES CCCCCCCCCCCC(=O)[O-]
REMARK SMILES IDX 7 1 8 2 9 3 10 4 11 5 12 6 13 7 14 8 6 9 5 10 4 11 3 12 2 13
REMARK SMILES IDX 1 14
REMARK H PARENT
REMARK Flexibility Score: inf
ROOT
ATOM      1  C   UNL     1      23.912  36.367 148.207  1.00  0.00     0.000 C 
ENDROOT
BRANCH   1   2
ATOM      2  C   UNL     1      24.334  37.632 147.441  1.00  0.00     0.000 C 
BRANCH   2   3
ATOM      3  C   UNL     1      23.351  38.799 147.643  1.00  0.00     0.000 C 
BRANCH   3   4
ATOM      4  C   UNL     1      24.043  40.170 147.579  1.00  0.00     0.006 C 
BRANCH   4   5
ATOM      5  C   UNL     1      25.214  40.287 148.563  1.00  0.00     0.053 C 
BRANCH   5   6
ATOM      6  C   UNL     1      24.710  40.560 149.944  1.00  0.00     0.041 C 
ATOM      7  O   UNL     1      24.620  39.625 150.783  1.00  0.00    -0.550 OA
ATOM      8  O   UNL     1      24.293  41.839 150.292  1.00  0.00    -0.550 OA
ENDBRANCH   5   6
ENDBRANCH   4   5
ENDBRANCH   3   4
ENDBRANCH   2   3
ENDBRANCH   1   2
BRANCH   1   9
ATOM      9  C   UNL     1      24.076  35.087 147.369  1.00  0.00     0.000 C 
BRANCH   9  10
ATOM     10  C   UNL     1      24.255  33.833 148.252  1.00  0.00    -0.000 C 
BRANCH  10  11
ATOM     11  C   UNL     1      25.096  34.088 149.516  1.00  0.00    -0.000 C 
BRANCH  11  12
ATOM     12  C   UNL     1      26.600  34.193 149.220  1.00  0.00    -0.000 C 
BRANCH  12  13
ATOM     13  C   UNL     1      27.330  35.124 150.200  1.00  0.00    -0.003 C 
ATOM     14  C   UNL     1      27.327  36.583 149.741  1.00  0.00     0.004 C 
ENDBRANCH  12  13
ENDBRANCH  11  12
ENDBRANCH  10  11
ENDBRANCH   9  10
ENDBRANCH   1   9
TORSDOF 10
ENDMDL
MODEL 5
REMARK VINA RESULT:    -4.700      1.229      2.021
REMARK INTER + INTRA:          -8.602
REMARK INTER:                  -7.704
REMARK INTRA:                  -0.897
REMARK UNBOUND:                -1.154
REMARK SMILES CCCCCCCCCCCC(=O)[O-]
REMARK SMILES IDX 7 1 8 2 9 3 10 4 11 5 12 6 13 7 14 8 6 9 5 10 4 11 3 12 2 13
REMARK SMILES IDX 1 14
REMARK H PARENT
REMARK Flexibility Score: inf
ROOT
ATOM      1  C   UNL     1      23.613  36.766 147.622  1.00  0.00     0.000 C 
ENDROOT
BRANCH   1   2
ATOM      2  C   UNL     1      25.129  37.024 147.582  1.00  0.00     0.000 C 
BRANCH   2   3
ATOM      3  C   UNL     1      25.469  38.508 147.361  1.00  0.00     0.000 C 
BRANCH   3   4
ATOM      4  C   UNL     1      24.343  39.447 147.825  1.00  0.00     0.006 C 
BRANCH   4   5
ATOM      5  C   UNL     1      24.849  40.857 148.152  1.00  0.00     0.053 C 
BRANCH   5   6
ATOM      6  C   UNL     1      24.449  41.246 149.540  1.00  0.00     0.041 C 
ATOM      7  O   UNL     1      24.005  42.402 149.771  1.00  0.00    -0.550 OA
ATOM      8  O   UNL     1      24.611  40.349 150.588  1.00  0.00    -0.550 OA
ENDBRANCH   5   6
ENDBRANCH   4   5
ENDBRANCH   3   4
ENDBRANCH   2   3
ENDBRANCH   1   2
BRANCH   1   9
ATOM      9  C   UNL     1      23.229  35.404 147.018  1.00  0.00     0.000 C 
BRANCH   9  10
ATOM     10  C   UNL     1      24.302  34.326 147.282  1.00  0.00    -0.000 C 
BRANCH  10  11
ATOM     11  C   UNL     1      24.011  33.462 148.522  1.00  0.00    -0.000 C 
BRANCH  11  12
ATOM     12  C   UNL     1      24.964  33.757 149.692  1.00  0.00    -0.000 C 
BRANCH  12  13
ATOM     13  C   UNL     1      26.401  34.035 149.226  1.00  0.00    -0.003 C 
ATOM     14  C   UNL     1      27.142  35.006 150.147  1.00  0.00     0.004 C 
ENDBRANCH  12  13
ENDBRANCH  11  12
ENDBRANCH  10  11
ENDBRANCH   9  10
ENDBRANCH   1   9
TORSDOF 10
ENDMDL
MODEL 6
REMARK VINA RESULT:    -4.677      2.920      5.532
REMARK INTER + INTRA:          -8.565
REMARK INTER:                  -7.369
REMARK INTRA:                  -1.197
REMARK UNBOUND:                -1.154
REMARK SMILES CCCCCCCCCCCC(=O)[O-]
REMARK SMILES IDX 7 1 8 2 9 3 10 4 11 5 12 6 13 7 14 8 6 9 5 10 4 11 3 12 2 13
REMARK SMILES IDX 1 14
REMARK H PARENT
REMARK Flexibility Score: inf
ROOT
ATOM      1  C   UNL     1      26.133  37.076 147.546  1.00  0.00     0.000 C 
ENDROOT
BRANCH   1   2
ATOM      2  C   UNL     1      26.616  37.005 149.004  1.00  0.00     0.000 C 
BRANCH   2   3
ATOM      3  C   UNL     1      27.508  35.780 149.271  1.00  0.00     0.000 C 
BRANCH   3   4
ATOM      4  C   UNL     1      26.709  34.569 149.781  1.00  0.00     0.006 C 
BRANCH   4   5
ATOM      5  C   UNL     1      26.255  33.642 148.646  1.00  0.00     0.053 C 
BRANCH   5   6
ATOM      6  C   UNL     1      24.863  33.156 148.893  1.00  0.00     0.041 C 
ATOM      7  O   UNL     1      24.257  33.480 149.949  1.00  0.00    -0.550 OA
ATOM      8  O   UNL     1      24.251  32.305 147.982  1.00  0.00    -0.550 OA
ENDBRANCH   5   6
ENDBRANCH   4   5
ENDBRANCH   3   4
ENDBRANCH   2   3
ENDBRANCH   1   2
BRANCH   1   9
ATOM      9  C   UNL     1      24.637  36.746 147.401  1.00  0.00     0.000 C 
BRANCH   9  10
ATOM     10  C   UNL     1      23.872  36.918 148.731  1.00  0.00    -0.000 C 
BRANCH  10  11
ATOM     11  C   UNL     1      23.066  38.227 148.810  1.00  0.00    -0.000 C 
BRANCH  11  12
ATOM     12  C   UNL     1      23.191  39.081 147.538  1.00  0.00    -0.000 C 
BRANCH  12  13
ATOM     13  C   UNL     1      24.012  40.360 147.765  1.00  0.00    -0.003 C 
ATOM     14  C   UNL     1      24.446  40.532 149.221  1.00  0.00     0.004 C 
ENDBRANCH  12  13
ENDBRANCH  11  12
ENDBRANCH  10  11
ENDBRANCH   9  10
ENDBRANCH   1   9
TORSDOF 10
ENDMDL
MODEL 7
REMARK VINA RESULT:    -4.662      1.410      2.606
REMARK INTER + INTRA:          -8.542
REMARK INTER:                  -7.619
REMARK INTRA:                  -0.922
REMARK UNBOUND:                -1.154
REMARK SMILES CCCCCCCCCCCC(=O)[O-]
REMARK SMILES IDX 7 1 8 2 9 3 10 4 11 5 12 6 13 7 14 8 6 9 5 10 4 11 3 12 2 13
REMARK SMILES IDX 1 14
REMARK H PARENT
REMARK Flexibility Score: inf
ROOT
ATOM      1  C   UNL     1      26.413  37.042 147.432  1.00  0.00     0.000 C 
ENDROOT
BRANCH   1   2
ATOM      2  C   UNL     1      25.152  37.257 148.286  1.00  0.00     0.000 C 
BRANCH   2   3
ATOM      3  C   UNL     1      23.907  37.559 147.435  1.00  0.00     0.000 C 
BRANCH   3   4
ATOM      4  C   UNL     1      23.275  38.918 147.776  1.00  0.00     0.006 C 
BRANCH   4   5
ATOM      5  C   UNL     1      24.296  40.063 147.762  1.00  0.00     0.053 C 
BRANCH   5   6
ATOM      6  C   UNL     1      24.256  40.813 149.055  1.00  0.00     0.041 C 
ATOM      7  O   UNL     1      24.405  40.203 150.147  1.00  0.00    -0.550 OA
ATOM      8  O   UNL     1      24.006  42.179 149.059  1.00  0.00    -0.550 OA
ENDBRANCH   5   6
ENDBRANCH   4   5
ENDBRANCH   3   4
ENDBRANCH   2   3
ENDBRANCH   1   2
BRANCH   1   9
ATOM      9  C   UNL     1      26.581  35.580 146.983  1.00  0.00     0.000 C 
BRANCH   9  10
ATOM     10  C   UNL     1      27.478  34.775 147.948  1.00  0.00    -0.000 C 
BRANCH  10  11
ATOM     11  C   UNL     1      26.748  33.605 148.631  1.00  0.00    -0.000 C 
BRANCH  11  12
ATOM     12  C   UNL     1      25.664  34.072 149.616  1.00  0.00    -0.000 C 
BRANCH  12  13
ATOM     13  C   UNL     1      24.341  33.310 149.443  1.00  0.00    -0.003 C 
ATOM     14  C   UNL     1      23.957  33.122 147.974  1.00  0.00     0.004 C 
ENDBRANCH  12  13
ENDBRANCH  11  12
ENDBRANCH  10  11
ENDBRANCH   9  10
ENDBRANCH   1   9
TORSDOF 10
ENDMDL
MODEL 8
REMARK VINA RESULT:    -4.653      0.921      1.362
REMARK INTER + INTRA:          -8.527
REMARK INTER:                  -7.310
REMARK INTRA:                  -1.217
REMARK UNBOUND:                -1.154
REMARK SMILES CCCCCCCCCCCC(=O)[O-]
REMARK SMILES IDX 7 1 8 2 9 3 10 4 11 5 12 6 13 7 14 8 6 9 5 10 4 11 3 12 2 13
REMARK SMILES IDX 1 14
REMARK H PARENT
REMARK Flexibility Score: inf
ROOT
ATOM      1  C   UNL     1      24.013  34.284 147.125  1.00  0.00     0.000 C 
ENDROOT
BRANCH   1   2
ATOM      2  C   UNL     1      23.229  35.606 147.126  1.00  0.00     0.000 C 
BRANCH   2   3
ATOM      3  C   UNL     1      23.806  36.634 148.115  1.00  0.00     0.000 C 
BRANCH   3   4
ATOM      4  C   UNL     1      24.301  37.911 147.416  1.00  0.00     0.006 C 
BRANCH   4   5
ATOM      5  C   UNL     1      23.519  39.158 147.846  1.00  0.00     0.053 C 
BRANCH   5   6
ATOM      6  C   UNL     1      24.265  39.903 148.907  1.00  0.00     0.041 C 
ATOM      7  O   UNL     1      23.969  39.743 150.121  1.00  0.00    -0.550 OA
ATOM      8  O   UNL     1      25.253  40.813 148.554  1.00  0.00    -0.550 OA
ENDBRANCH   5   6
ENDBRANCH   4   5
ENDBRANCH   3   4
ENDBRANCH   2   3
ENDBRANCH   1   2
BRANCH   1   9
ATOM      9  C   UNL     1      24.208  33.710 148.539  1.00  0.00     0.000 C 
BRANCH   9  10
ATOM     10  C   UNL     1      25.694  33.439 148.857  1.00  0.00    -0.000 C 
BRANCH  10  11
ATOM     11  C   UNL     1      26.325  34.492 149.785  1.00  0.00    -0.000 C 
BRANCH  11  12
ATOM     12  C   UNL     1      27.680  35.004 149.272  1.00  0.00    -0.000 C 
BRANCH  12  13
ATOM     13  C   UNL     1      27.550  36.294 148.447  1.00  0.00    -0.003 C 
ATOM     14  C   UNL     1      27.403  36.025 146.949  1.00  0.00     0.004 C 
ENDBRANCH  12  13
ENDBRANCH  11  12
ENDBRANCH  10  11
ENDBRANCH   9  10
ENDBRANCH   1   9
TORSDOF 10
ENDMDL
MODEL 9
REMARK VINA RESULT:    -4.652      2.945      4.620
REMARK INTER + INTRA:          -8.525
REMARK INTER:                  -7.053
REMARK INTRA:                  -1.472
REMARK UNBOUND:                -1.154
REMARK SMILES CCCCCCCCCCCC(=O)[O-]
REMARK SMILES IDX 7 1 8 2 9 3 10 4 11 5 12 6 13 7 14 8 6 9 5 10 4 11 3 12 2 13
REMARK SMILES IDX 1 14
REMARK H PARENT
REMARK Flexibility Score: inf
ROOT
ATOM      1  C   UNL     1      25.348  38.542 149.030  1.00  0.00     0.000 C 
ENDROOT
BRANCH   1   2
ATOM      2  C   UNL     1      24.425  38.840 147.838  1.00  0.00     0.000 C 
BRANCH   2   3
ATOM      3  C   UNL     1      23.572  37.625 147.434  1.00  0.00     0.000 C 
BRANCH   3   4
ATOM      4  C   UNL     1      23.907  36.370 148.256  1.00  0.00     0.006 C 
BRANCH   4   5
ATOM      5  C   UNL     1      24.109  35.128 147.378  1.00  0.00     0.053 C 
BRANCH   5   6
ATOM      6  C   UNL     1      24.064  33.887 148.212  1.00  0.00     0.041 C 
ATOM      7  O   UNL     1      24.176  33.960 149.465  1.00  0.00    -0.550 OA
ATOM      8  O   UNL     1      23.948  32.644 147.603  1.00  0.00    -0.550 OA
ENDBRANCH   5   6
ENDBRANCH   4   5
ENDBRANCH   3   4
ENDBRANCH   2   3
ENDBRANCH   1   2
BRANCH   1   9
ATOM      9  C   UNL     1      26.839  38.662 148.668  1.00  0.00     0.000 C 
BRANCH   9  10
ATOM     10  C   UNL     1      27.127  38.193 147.226  1.00  0.00    -0.000 C 
BRANCH  10  11
ATOM     11  C   UNL     1      27.406  36.683 147.116  1.00  0.00    -0.000 C 
BRANCH  11  12
ATOM     12  C   UNL     1      28.254  36.147 148.280  1.00  0.00    -0.000 C 
BRANCH  12  13
ATOM     13  C   UNL     1      27.626  34.914 148.948  1.00  0.00    -0.003 C 
ATOM     14  C   UNL     1      27.451  35.085 150.457  1.00  0.00     0.004 C 
ENDBRANCH  12  13
ENDBRANCH  11  12
ENDBRANCH  10  11
ENDBRANCH   9  10
ENDBRANCH   1   9
TORSDOF 10
ENDMDL
