MODEL 1
REMARK VINA RESULT:     0.000      0.000      0.000
REMARK INTER + INTRA:          -5.830
REMARK INTER:                   0.000
REMARK INTRA:                  -5.830
REMARK UNBOUND:                -5.830
REMARK SMILES CCCCCCCCCCCCCCCCCCCCCCCC(=O)[O-]
REMARK SMILES IDX 13 1 14 2 15 3 16 4 17 5 18 6 19 7 20 8 21 9 22 10 23 11
REMARK SMILES IDX 24 12 25 13 26 14 12 15 11 16 10 17 9 18 8 19 7 20 6 21 5 22
REMARK SMILES IDX 4 23 3 24 2 25 1 26
REMARK H PARENT
REMARK Flexibility Score: inf
ROOT
ATOM      1  C   UNL     1     176.594 175.341 174.279  1.00  0.00     0.000 C 
ENDROOT
BRANCH   1   2
ATOM      2  C   UNL     1     177.644 174.344 173.767  1.00  0.00     0.000 C 
BRANCH   2   3
ATOM      3  C   UNL     1     178.443 173.688 174.907  1.00  0.00     0.000 C 
BRANCH   3   4
ATOM      4  C   UNL     1     179.951 173.604 174.605  1.00  0.00     0.000 C 
BRANCH   4   5
ATOM      5  C   UNL     1     180.850 174.416 175.558  1.00  0.00     0.000 C 
BRANCH   5   6
ATOM      6  C   UNL     1     181.179 175.843 175.087  1.00  0.00     0.000 C 
BRANCH   6   7
ATOM      7  C   UNL     1     181.143 175.992 173.558  1.00  0.00     0.000 C 
BRANCH   7   8
ATOM      8  C   UNL     1     180.106 177.040 173.134  1.00  0.00     0.000 C 
BRANCH   8   9
ATOM      9  C   UNL     1     179.360 177.664 174.325  1.00  0.00     0.000 C 
BRANCH   9  10
ATOM     10  C   UNL     1     178.299 178.719 173.952  1.00  0.00     0.006 C 
BRANCH  10  11
ATOM     11  C   UNL     1     178.247 179.921 174.914  1.00  0.00     0.053 C 
BRANCH  11  12
ATOM     12  C   UNL     1     177.924 181.206 174.210  1.00  0.00     0.041 C 
ATOM     13  O   UNL     1     177.717 182.257 174.872  1.00  0.00    -0.550 OA
ATOM     14  O   UNL     1     177.816 181.233 172.825  1.00  0.00    -0.550 OA
ENDBRANCH  11  12
ENDBRANCH  10  11
ENDBRANCH   9  10
ENDBRANCH   8   9
ENDBRANCH   7   8
ENDBRANCH   6   7
ENDBRANCH   5   6
ENDBRANCH   4   5
ENDBRANCH   3   4
ENDBRANCH   2   3
ENDBRANCH   1   2
BRANCH   1  15
ATOM     15  C   UNL     1     176.502 175.361 175.815  1.00  0.00     0.000 C 
BRANCH  15  16
ATOM     16  C   UNL     1     176.148 176.752 176.364  1.00  0.00     0.000 C 
BRANCH  16  17
ATOM     17  C   UNL     1     177.218 177.301 177.322  1.00  0.00     0.000 C 
BRANCH  17  18
ATOM     18  C   UNL     1     178.328 176.277 177.622  1.00  0.00    -0.000 C 
BRANCH  18  19
ATOM     19  C   UNL     1     179.592 176.862 178.285  1.00  0.00    -0.000 C 
BRANCH  19  20
ATOM     20  C   UNL     1     179.918 178.317 177.901  1.00  0.00    -0.000 C 
BRANCH  20  21
ATOM     21  C   UNL     1     181.419 178.551 177.681  1.00  0.00    -0.000 C 
BRANCH  21  22
ATOM     22  C   UNL     1     181.662 179.471 176.478  1.00  0.00    -0.000 C 
BRANCH  22  23
ATOM     23  C   UNL     1     182.887 179.012 175.671  1.00  0.00    -0.000 C 
BRANCH  23  24
ATOM     24  C   UNL     1     182.820 179.464 174.198  1.00  0.00    -0.000 C 
BRANCH  24  25
ATOM     25  C   UNL     1     181.760 180.546 173.932  1.00  0.00    -0.003 C 
ATOM     26  C   UNL     1     181.258 180.553 172.489  1.00  0.00     0.004 C 
ENDBRANCH  24  25
ENDBRANCH  23  24
ENDBRANCH  22  23
ENDBRANCH  21  22
ENDBRANCH  20  21
ENDBRANCH  19  20
ENDBRANCH  18  19
ENDBRANCH  17  18
ENDBRANCH  16  17
ENDBRANCH  15  16
ENDBRANCH   1  15
TORSDOF 22
ENDMDL
MODEL 2
REMARK VINA RESULT:     0.058     10.492     13.424
REMARK INTER + INTRA:          -5.697
REMARK INTER:                   0.000
REMARK INTRA:                  -5.697
REMARK UNBOUND:                -5.830
REMARK SMILES CCCCCCCCCCCCCCCCCCCCCCCC(=O)[O-]
REMARK SMILES IDX 13 1 14 2 15 3 16 4 17 5 18 6 19 7 20 8 21 9 22 10 23 11
REMARK SMILES IDX 24 12 25 13 26 14 12 15 11 16 10 17 9 18 8 19 7 20 6 21 5 22
REMARK SMILES IDX 4 23 3 24 2 25 1 26
REMARK H PARENT
REMARK Flexibility Score: inf
ROOT
ATOM      1  C   UNL     1     180.606 181.375 187.889  1.00  0.00     0.000 C 
ENDROOT
BRANCH   1   2
ATOM      2  C   UNL     1     182.004 180.784 188.125  1.00  0.00     0.000 C 
BRANCH   2   3
ATOM      3  C   UNL     1     182.032 179.778 189.290  1.00  0.00     0.000 C 
BRANCH   3   4
ATOM      4  C   UNL     1     183.068 178.658 189.083  1.00  0.00     0.000 C 
BRANCH   4   5
ATOM      5  C   UNL     1     183.837 178.723 187.749  1.00  0.00     0.000 C 
BRANCH   5   6
ATOM      6  C   UNL     1     184.115 177.361 187.089  1.00  0.00     0.000 C 
BRANCH   6   7
ATOM      7  C   UNL     1     183.582 176.178 187.912  1.00  0.00     0.000 C 
BRANCH   7   8
ATOM      8  C   UNL     1     182.882 175.154 187.009  1.00  0.00     0.000 C 
BRANCH   8   9
ATOM      9  C   UNL     1     182.981 175.502 185.515  1.00  0.00     0.000 C 
BRANCH   9  10
ATOM     10  C   UNL     1     181.779 175.060 184.658  1.00  0.00     0.006 C 
BRANCH  10  11
ATOM     11  C   UNL     1     180.831 174.075 185.369  1.00  0.00     0.053 C 
BRANCH  11  12
ATOM     12  C   UNL     1     181.007 172.664 184.892  1.00  0.00     0.041 C 
ATOM     13  O   UNL     1     181.740 172.418 183.898  1.00  0.00    -0.550 OA
ATOM     14  O   UNL     1     180.332 171.625 185.522  1.00  0.00    -0.550 OA
ENDBRANCH  11  12
ENDBRANCH  10  11
ENDBRANCH   9  10
ENDBRANCH   8   9
ENDBRANCH   7   8
ENDBRANCH   6   7
ENDBRANCH   5   6
ENDBRANCH   4   5
ENDBRANCH   3   4
ENDBRANCH   2   3
ENDBRANCH   1   2
BRANCH   1  15
ATOM     15  C   UNL     1     179.543 180.758 188.814  1.00  0.00     0.000 C 
BRANCH  15  16
ATOM     16  C   UNL     1     178.217 180.487 188.086  1.00  0.00     0.000 C 
BRANCH  16  17
ATOM     17  C   UNL     1     177.283 179.559 188.881  1.00  0.00     0.000 C 
BRANCH  17  18
ATOM     18  C   UNL     1     177.907 179.082 190.204  1.00  0.00    -0.000 C 
BRANCH  18  19
ATOM     19  C   UNL     1     178.140 177.560 190.302  1.00  0.00    -0.000 C 
BRANCH  19  20
ATOM     20  C   UNL     1     179.617 177.125 190.306  1.00  0.00    -0.000 C 
BRANCH  20  21
ATOM     21  C   UNL     1     180.084 176.594 188.944  1.00  0.00    -0.000 C 
BRANCH  21  22
ATOM     22  C   UNL     1     178.887 176.242 188.052  1.00  0.00    -0.000 C 
BRANCH  22  23
ATOM     23  C   UNL     1     178.965 176.984 186.707  1.00  0.00    -0.000 C 
BRANCH  23  24
ATOM     24  C   UNL     1     180.251 177.825 186.576  1.00  0.00    -0.000 C 
BRANCH  24  25
ATOM     25  C   UNL     1     180.276 178.723 185.328  1.00  0.00    -0.003 C 
ATOM     26  C   UNL     1     181.686 178.970 184.795  1.00  0.00     0.004 C 
ENDBRANCH  24  25
ENDBRANCH  23  24
ENDBRANCH  22  23
ENDBRANCH  21  22
ENDBRANCH  20  21
ENDBRANCH  19  20
ENDBRANCH  18  19
ENDBRANCH  17  18
ENDBRANCH  16  17
ENDBRANCH  15  16
ENDBRANCH   1  15
TORSDOF 22
ENDMDL
MODEL 3
REMARK VINA RESULT:     0.074     10.940     13.581
REMARK INTER + INTRA:          -5.662
REMARK INTER:                   0.000
REMARK INTRA:                  -5.662
REMARK UNBOUND:                -5.830
REMARK SMILES CCCCCCCCCCCCCCCCCCCCCCCC(=O)[O-]
REMARK SMILES IDX 13 1 14 2 15 3 16 4 17 5 18 6 19 7 20 8 21 9 22 10 23 11
REMARK SMILES IDX 24 12 25 13 26 14 12 15 11 16 10 17 9 18 8 19 7 20 6 21 5 22
REMARK SMILES IDX 4 23 3 24 2 25 1 26
REMARK H PARENT
REMARK Flexibility Score: inf
ROOT
ATOM      1  C   UNL     1     183.386 181.039 187.482  1.00  0.00     0.000 C 
ENDROOT
BRANCH   1   2
ATOM      2  C   UNL     1     184.777 180.438 187.737  1.00  0.00     0.000 C 
BRANCH   2   3
ATOM      3  C   UNL     1     184.771 179.391 188.865  1.00  0.00     0.000 C 
BRANCH   3   4
ATOM      4  C   UNL     1     185.836 178.298 188.666  1.00  0.00     0.000 C 
BRANCH   4   5
ATOM      5  C   UNL     1     186.656 178.419 187.366  1.00  0.00     0.000 C 
BRANCH   5   6
ATOM      6  C   UNL     1     186.922 177.090 186.636  1.00  0.00     0.000 C 
BRANCH   6   7
ATOM      7  C   UNL     1     186.447 175.865 187.432  1.00  0.00     0.000 C 
BRANCH   7   8
ATOM      8  C   UNL     1     185.795 174.829 186.507  1.00  0.00     0.000 C 
BRANCH   8   9
ATOM      9  C   UNL     1     185.799 175.255 185.030  1.00  0.00     0.000 C 
BRANCH   9  10
ATOM     10  C   UNL     1     184.655 174.672 184.177  1.00  0.00     0.006 C 
BRANCH  10  11
ATOM     11  C   UNL     1     183.794 173.628 184.915  1.00  0.00     0.053 C 
BRANCH  11  12
ATOM     12  C   UNL     1     183.767 172.305 184.209  1.00  0.00     0.041 C 
ATOM     13  O   UNL     1     184.197 172.206 183.030  1.00  0.00    -0.550 OA
ATOM     14  O   UNL     1     183.232 171.189 184.842  1.00  0.00    -0.550 OA
ENDBRANCH  11  12
ENDBRANCH  10  11
ENDBRANCH   9  10
ENDBRANCH   8   9
ENDBRANCH   7   8
ENDBRANCH   6   7
ENDBRANCH   5   6
ENDBRANCH   4   5
ENDBRANCH   3   4
ENDBRANCH   2   3
ENDBRANCH   1   2
BRANCH   1  15
ATOM     15  C   UNL     1     182.296 180.388 188.351  1.00  0.00     0.000 C 
BRANCH  15  16
ATOM     16  C   UNL     1     180.986 180.164 187.579  1.00  0.00     0.000 C 
BRANCH  16  17
ATOM     17  C   UNL     1     180.113 179.059 188.200  1.00  0.00     0.000 C 
BRANCH  17  18
ATOM     18  C   UNL     1     180.628 178.600 189.576  1.00  0.00    -0.000 C 
BRANCH  18  19
ATOM     19  C   UNL     1     180.883 177.084 189.703  1.00  0.00    -0.000 C 
BRANCH  19  20
ATOM     20  C   UNL     1     182.365 176.677 189.802  1.00  0.00    -0.000 C 
BRANCH  20  21
ATOM     21  C   UNL     1     182.917 176.119 188.482  1.00  0.00    -0.000 C 
BRANCH  21  22
ATOM     22  C   UNL     1     181.779 175.709 187.540  1.00  0.00    -0.000 C 
BRANCH  22  23
ATOM     23  C   UNL     1     181.882 176.450 186.196  1.00  0.00    -0.000 C 
BRANCH  23  24
ATOM     24  C   UNL     1     183.065 177.439 186.162  1.00  0.00    -0.000 C 
BRANCH  24  25
ATOM     25  C   UNL     1     183.040 178.390 184.954  1.00  0.00    -0.003 C 
ATOM     26  C   UNL     1     184.431 178.695 184.402  1.00  0.00     0.004 C 
ENDBRANCH  24  25
ENDBRANCH  23  24
ENDBRANCH  22  23
ENDBRANCH  21  22
ENDBRANCH  20  21
ENDBRANCH  19  20
ENDBRANCH  18  19
ENDBRANCH  17  18
ENDBRANCH  16  17
ENDBRANCH  15  16
ENDBRANCH   1  15
TORSDOF 22
ENDMDL
MODEL 4
REMARK VINA RESULT:     0.095     11.119     13.340
REMARK INTER + INTRA:          -5.614
REMARK INTER:                   0.000
REMARK INTRA:                  -5.614
REMARK UNBOUND:                -5.830
REMARK SMILES CCCCCCCCCCCCCCCCCCCCCCCC(=O)[O-]
REMARK SMILES IDX 13 1 14 2 15 3 16 4 17 5 18 6 19 7 20 8 21 9 22 10 23 11
REMARK SMILES IDX 24 12 25 13 26 14 12 15 11 16 10 17 9 18 8 19 7 20 6 21 5 22
REMARK SMILES IDX 4 23 3 24 2 25 1 26
REMARK H PARENT
REMARK Flexibility Score: inf
ROOT
ATOM      1  C   UNL     1     173.411 186.183 184.432  1.00  0.00     0.000 C 
ENDROOT
BRANCH   1   2
ATOM      2  C   UNL     1     174.269 185.010 183.934  1.00  0.00     0.000 C 
BRANCH   2   3
ATOM      3  C   UNL     1     174.841 184.164 185.085  1.00  0.00     0.000 C 
BRANCH   3   4
ATOM      4  C   UNL     1     176.375 184.046 185.031  1.00  0.00     0.000 C 
BRANCH   4   5
ATOM      5  C   UNL     1     176.967 183.926 183.613  1.00  0.00     0.000 C 
BRANCH   5   6
ATOM      6  C   UNL     1     178.429 184.385 183.475  1.00  0.00     0.000 C 
BRANCH   6   7
ATOM      7  C   UNL     1     179.023 184.894 184.798  1.00  0.00     0.000 C 
BRANCH   7   8
ATOM      8  C   UNL     1     180.170 185.881 184.539  1.00  0.00     0.000 C 
BRANCH   8   9
ATOM      9  C   UNL     1     179.976 186.706 183.256  1.00  0.00     0.000 C 
BRANCH   9  10
ATOM     10  C   UNL     1     180.016 188.235 183.449  1.00  0.00     0.006 C 
BRANCH  10  11
ATOM     11  C   UNL     1     179.741 189.035 182.161  1.00  0.00     0.053 C 
BRANCH  11  12
ATOM     12  C   UNL     1     180.740 188.743 181.080  1.00  0.00     0.041 C 
ATOM     13  O   UNL     1     180.353 188.340 179.952  1.00  0.00    -0.550 OA
ATOM     14  O   UNL     1     182.099 188.882 181.332  1.00  0.00    -0.550 OA
ENDBRANCH  11  12
ENDBRANCH  10  11
ENDBRANCH   9  10
ENDBRANCH   8   9
ENDBRANCH   7   8
ENDBRANCH   6   7
ENDBRANCH   5   6
ENDBRANCH   4   5
ENDBRANCH   3   4
ENDBRANCH   2   3
ENDBRANCH   1   2
BRANCH   1  15
ATOM     15  C   UNL     1     173.374 186.273 185.968  1.00  0.00     0.000 C 
BRANCH  15  16
ATOM     16  C   UNL     1     173.365 187.726 186.471  1.00  0.00     0.000 C 
BRANCH  16  17
ATOM     17  C   UNL     1     174.525 188.026 187.435  1.00  0.00     0.000 C 
BRANCH  17  18
ATOM     18  C   UNL     1     175.463 186.822 187.628  1.00  0.00    -0.000 C 
BRANCH  18  19
ATOM     19  C   UNL     1     176.892 187.015 187.080  1.00  0.00    -0.000 C 
BRANCH  19  20
ATOM     20  C   UNL     1     177.054 188.166 186.070  1.00  0.00    -0.000 C 
BRANCH  20  21
ATOM     21  C   UNL     1     176.714 187.748 184.633  1.00  0.00    -0.000 C 
BRANCH  21  22
ATOM     22  C   UNL     1     176.015 188.887 183.880  1.00  0.00    -0.000 C 
BRANCH  22  23
ATOM     23  C   UNL     1     175.724 188.489 182.424  1.00  0.00    -0.000 C 
BRANCH  23  24
ATOM     24  C   UNL     1     176.449 187.191 182.016  1.00  0.00    -0.000 C 
BRANCH  24  25
ATOM     25  C   UNL     1     176.974 187.205 180.570  1.00  0.00    -0.003 C 
ATOM     26  C   UNL     1     177.779 185.957 180.212  1.00  0.00     0.004 C 
ENDBRANCH  24  25
ENDBRANCH  23  24
ENDBRANCH  22  23
ENDBRANCH  21  22
ENDBRANCH  20  21
ENDBRANCH  19  20
ENDBRANCH  18  19
ENDBRANCH  17  18
ENDBRANCH  16  17
ENDBRANCH  15  16
ENDBRANCH   1  15
TORSDOF 22
ENDMDL
MODEL 5
REMARK VINA RESULT:     0.109     10.265     12.646
REMARK INTER + INTRA:          -5.581
REMARK INTER:                   0.000
REMARK INTRA:                  -5.581
REMARK UNBOUND:                -5.830
REMARK SMILES CCCCCCCCCCCCCCCCCCCCCCCC(=O)[O-]
REMARK SMILES IDX 13 1 14 2 15 3 16 4 17 5 18 6 19 7 20 8 21 9 22 10 23 11
REMARK SMILES IDX 24 12 25 13 26 14 12 15 11 16 10 17 9 18 8 19 7 20 6 21 5 22
REMARK SMILES IDX 4 23 3 24 2 25 1 26
REMARK H PARENT
REMARK Flexibility Score: inf
ROOT
ATOM      1  C   UNL     1     172.632 186.980 181.925  1.00  0.00     0.000 C 
ENDROOT
BRANCH   1   2
ATOM      2  C   UNL     1     173.490 185.807 181.426  1.00  0.00     0.000 C 
BRANCH   2   3
ATOM      3  C   UNL     1     174.050 184.953 182.577  1.00  0.00     0.000 C 
BRANCH   3   4
ATOM      4  C   UNL     1     175.586 184.856 182.553  1.00  0.00     0.000 C 
BRANCH   4   5
ATOM      5  C   UNL     1     176.205 184.701 181.150  1.00  0.00     0.000 C 
BRANCH   5   6
ATOM      6  C   UNL     1     177.662 185.179 181.022  1.00  0.00     0.000 C 
BRANCH   6   7
ATOM      7  C   UNL     1     178.232 185.719 182.343  1.00  0.00     0.000 C 
BRANCH   7   8
ATOM      8  C   UNL     1     179.379 186.704 182.082  1.00  0.00     0.000 C 
BRANCH   8   9
ATOM      9  C   UNL     1     179.201 187.504 180.782  1.00  0.00     0.000 C 
BRANCH   9  10
ATOM     10  C   UNL     1     179.177 189.035 180.954  1.00  0.00     0.006 C 
BRANCH  10  11
ATOM     11  C   UNL     1     178.959 189.810 179.639  1.00  0.00     0.053 C 
BRANCH  11  12
ATOM     12  C   UNL     1     180.002 189.494 178.608  1.00  0.00     0.041 C 
ATOM     13  O   UNL     1     179.666 189.019 177.491  1.00  0.00    -0.550 OA
ATOM     14  O   UNL     1     181.347 189.690 178.895  1.00  0.00    -0.550 OA
ENDBRANCH  11  12
ENDBRANCH  10  11
ENDBRANCH   9  10
ENDBRANCH   8   9
ENDBRANCH   7   8
ENDBRANCH   6   7
ENDBRANCH   5   6
ENDBRANCH   4   5
ENDBRANCH   3   4
ENDBRANCH   2   3
ENDBRANCH   1   2
BRANCH   1  15
ATOM     15  C   UNL     1     172.596 187.071 183.460  1.00  0.00     0.000 C 
BRANCH  15  16
ATOM     16  C   UNL     1     172.558 188.523 183.962  1.00  0.00     0.000 C 
BRANCH  16  17
ATOM     17  C   UNL     1     173.720 188.851 184.915  1.00  0.00     0.000 C 
BRANCH  17  18
ATOM     18  C   UNL     1     174.652 187.650 185.149  1.00  0.00    -0.000 C 
BRANCH  18  19
ATOM     19  C   UNL     1     176.078 187.813 184.584  1.00  0.00    -0.000 C 
BRANCH  19  20
ATOM     20  C   UNL     1     176.252 188.956 183.568  1.00  0.00    -0.000 C 
BRANCH  20  21
ATOM     21  C   UNL     1     175.930 188.527 182.130  1.00  0.00    -0.000 C 
BRANCH  21  22
ATOM     22  C   UNL     1     175.250 189.664 181.357  1.00  0.00    -0.000 C 
BRANCH  22  23
ATOM     23  C   UNL     1     174.945 189.241 179.910  1.00  0.00    -0.000 C 
BRANCH  23  24
ATOM     24  C   UNL     1     175.687 187.950 179.509  1.00  0.00    -0.000 C 
BRANCH  24  25
ATOM     25  C   UNL     1     176.183 187.950 178.053  1.00  0.00    -0.003 C 
ATOM     26  C   UNL     1     177.024 186.724 177.706  1.00  0.00     0.004 C 
ENDBRANCH  24  25
ENDBRANCH  23  24
ENDBRANCH  22  23
ENDBRANCH  21  22
ENDBRANCH  20  21
ENDBRANCH  19  20
ENDBRANCH  18  19
ENDBRANCH  17  18
ENDBRANCH  16  17
ENDBRANCH  15  16
ENDBRANCH   1  15
TORSDOF 22
ENDMDL
MODEL 6
REMARK VINA RESULT:     0.111      7.040     10.554
REMARK INTER + INTRA:          -5.577
REMARK INTER:                   0.000
REMARK INTRA:                  -5.577
REMARK UNBOUND:                -5.830
REMARK SMILES CCCCCCCCCCCCCCCCCCCCCCCC(=O)[O-]
REMARK SMILES IDX 13 1 14 2 15 3 16 4 17 5 18 6 19 7 20 8 21 9 22 10 23 11
REMARK SMILES IDX 24 12 25 13 26 14 12 15 11 16 10 17 9 18 8 19 7 20 6 21 5 22
REMARK SMILES IDX 4 23 3 24 2 25 1 26
REMARK H PARENT
REMARK Flexibility Score: inf
ROOT
ATOM      1  C   UNL     1     182.281 188.578 180.189  1.00  0.00     0.000 C 
ENDROOT
BRANCH   1   2
ATOM      2  C   UNL     1     183.134 187.700 179.261  1.00  0.00     0.000 C 
BRANCH   2   3
ATOM      3  C   UNL     1     182.694 187.793 177.789  1.00  0.00     0.000 C 
BRANCH   3   4
ATOM      4  C   UNL     1     181.509 186.866 177.464  1.00  0.00     0.000 C 
BRANCH   4   5
ATOM      5  C   UNL     1     180.210 187.590 177.056  1.00  0.00     0.000 C 
BRANCH   5   6
ATOM      6  C   UNL     1     179.199 187.809 178.195  1.00  0.00     0.000 C 
BRANCH   6   7
ATOM      7  C   UNL     1     179.235 186.691 179.249  1.00  0.00     0.000 C 
BRANCH   7   8
ATOM      8  C   UNL     1     178.456 187.099 180.506  1.00  0.00     0.000 C 
BRANCH   8   9
ATOM      9  C   UNL     1     177.818 185.903 181.232  1.00  0.00     0.000 C 
BRANCH   9  10
ATOM     10  C   UNL     1     177.616 184.644 180.367  1.00  0.00     0.006 C 
BRANCH  10  11
ATOM     11  C   UNL     1     177.036 183.441 181.137  1.00  0.00     0.053 C 
BRANCH  11  12
ATOM     12  C   UNL     1     177.927 182.236 181.075  1.00  0.00     0.041 C 
ATOM     13  O   UNL     1     177.864 181.451 180.092  1.00  0.00    -0.550 OA
ATOM     14  O   UNL     1     178.800 181.961 182.120  1.00  0.00    -0.550 OA
ENDBRANCH  11  12
ENDBRANCH  10  11
ENDBRANCH   9  10
ENDBRANCH   8   9
ENDBRANCH   7   8
ENDBRANCH   6   7
ENDBRANCH   5   6
ENDBRANCH   4   5
ENDBRANCH   3   4
ENDBRANCH   2   3
ENDBRANCH   1   2
BRANCH   1  15
ATOM     15  C   UNL     1     181.942 187.874 181.515  1.00  0.00     0.000 C 
BRANCH  15  16
ATOM     16  C   UNL     1     182.498 186.443 181.580  1.00  0.00     0.000 C 
BRANCH  16  17
ATOM     17  C   UNL     1     181.440 185.415 182.018  1.00  0.00     0.000 C 
BRANCH  17  18
ATOM     18  C   UNL     1     181.323 184.232 181.042  1.00  0.00    -0.000 C 
BRANCH  18  19
ATOM     19  C   UNL     1     182.456 184.132 180.001  1.00  0.00    -0.000 C 
BRANCH  19  20
ATOM     20  C   UNL     1     182.038 183.563 178.632  1.00  0.00    -0.000 C 
BRANCH  20  21
ATOM     21  C   UNL     1     180.534 183.269 178.545  1.00  0.00    -0.000 C 
BRANCH  21  22
ATOM     22  C   UNL     1     180.000 183.544 177.134  1.00  0.00    -0.000 C 
BRANCH  22  23
ATOM     23  C   UNL     1     178.466 183.450 177.096  1.00  0.00    -0.000 C 
BRANCH  23  24
ATOM     24  C   UNL     1     177.817 184.714 176.495  1.00  0.00    -0.000 C 
BRANCH  24  25
ATOM     25  C   UNL     1     176.322 184.857 176.825  1.00  0.00    -0.003 C 
ATOM     26  C   UNL     1     175.963 186.226 177.399  1.00  0.00     0.004 C 
ENDBRANCH  24  25
ENDBRANCH  23  24
ENDBRANCH  22  23
ENDBRANCH  21  22
ENDBRANCH  20  21
ENDBRANCH  19  20
ENDBRANCH  18  19
ENDBRANCH  17  18
ENDBRANCH  16  17
ENDBRANCH  15  16
ENDBRANCH   1  15
TORSDOF 22
ENDMDL
MODEL 7
REMARK VINA RESULT:     0.122      8.455     10.946
REMARK INTER + INTRA:          -5.551
REMARK INTER:                   0.000
REMARK INTRA:                  -5.551
REMARK UNBOUND:                -5.830
REMARK SMILES CCCCCCCCCCCCCCCCCCCCCCCC(=O)[O-]
REMARK SMILES IDX 13 1 14 2 15 3 16 4 17 5 18 6 19 7 20 8 21 9 22 10 23 11
REMARK SMILES IDX 24 12 25 13 26 14 12 15 11 16 10 17 9 18 8 19 7 20 6 21 5 22
REMARK SMILES IDX 4 23 3 24 2 25 1 26
REMARK H PARENT
REMARK Flexibility Score: inf
ROOT
ATOM      1  C   UNL     1     176.430 183.112 183.021  1.00  0.00     0.000 C 
ENDROOT
BRANCH   1   2
ATOM      2  C   UNL     1     177.821 182.528 182.733  1.00  0.00     0.000 C 
BRANCH   2   3
ATOM      3  C   UNL     1     178.319 182.857 181.314  1.00  0.00     0.000 C 
BRANCH   3   4
ATOM      4  C   UNL     1     177.306 183.690 180.508  1.00  0.00     0.000 C 
BRANCH   4   5
ATOM      5  C   UNL     1     176.659 182.952 179.319  1.00  0.00     0.000 C 
BRANCH   5   6
ATOM      6  C   UNL     1     175.140 182.736 179.434  1.00  0.00     0.000 C 
BRANCH   6   7
ATOM      7  C   UNL     1     174.774 181.437 180.168  1.00  0.00     0.000 C 
BRANCH   7   8
ATOM      8  C   UNL     1     175.817 180.344 179.900  1.00  0.00     0.000 C 
BRANCH   8   9
ATOM      9  C   UNL     1     176.242 179.593 181.173  1.00  0.00     0.000 C 
BRANCH   9  10
ATOM     10  C   UNL     1     175.234 179.657 182.337  1.00  0.00     0.006 C 
BRANCH  10  11
ATOM     11  C   UNL     1     175.866 179.433 183.725  1.00  0.00     0.053 C 
BRANCH  11  12
ATOM     12  C   UNL     1     175.947 177.981 184.091  1.00  0.00     0.041 C 
ATOM     13  O   UNL     1     175.006 177.433 184.723  1.00  0.00    -0.550 OA
ATOM     14  O   UNL     1     177.079 177.243 183.768  1.00  0.00    -0.550 OA
ENDBRANCH  11  12
ENDBRANCH  10  11
ENDBRANCH   9  10
ENDBRANCH   8   9
ENDBRANCH   7   8
ENDBRANCH   6   7
ENDBRANCH   5   6
ENDBRANCH   4   5
ENDBRANCH   3   4
ENDBRANCH   2   3
ENDBRANCH   1   2
BRANCH   1  15
ATOM     15  C   UNL     1     176.086 183.101 184.521  1.00  0.00     0.000 C 
BRANCH  15  16
ATOM     16  C   UNL     1     174.578 183.244 184.779  1.00  0.00     0.000 C 
BRANCH  16  17
ATOM     17  C   UNL     1     173.727 182.828 183.566  1.00  0.00     0.000 C 
BRANCH  17  18
ATOM     18  C   UNL     1     172.787 183.948 183.088  1.00  0.00    -0.000 C 
BRANCH  18  19
ATOM     19  C   UNL     1     173.178 184.598 181.745  1.00  0.00    -0.000 C 
BRANCH  19  20
ATOM     20  C   UNL     1     173.544 186.091 181.824  1.00  0.00    -0.000 C 
BRANCH  20  21
ATOM     21  C   UNL     1     175.026 186.324 182.148  1.00  0.00    -0.000 C 
BRANCH  21  22
ATOM     22  C   UNL     1     175.206 186.770 183.605  1.00  0.00    -0.000 C 
BRANCH  22  23
ATOM     23  C   UNL     1     176.690 186.759 184.005  1.00  0.00    -0.000 C 
BRANCH  23  24
ATOM     24  C   UNL     1     177.626 186.650 182.784  1.00  0.00    -0.000 C 
BRANCH  24  25
ATOM     25  C   UNL     1     179.014 186.078 183.118  1.00  0.00    -0.003 C 
ATOM     26  C   UNL     1     179.102 185.506 184.531  1.00  0.00     0.004 C 
ENDBRANCH  24  25
ENDBRANCH  23  24
ENDBRANCH  22  23
ENDBRANCH  21  22
ENDBRANCH  20  21
ENDBRANCH  19  20
ENDBRANCH  18  19
ENDBRANCH  17  18
ENDBRANCH  16  17
ENDBRANCH  15  16
ENDBRANCH   1  15
TORSDOF 22
ENDMDL
MODEL 8
REMARK VINA RESULT:     0.128      4.559      8.332
REMARK INTER + INTRA:          -5.538
REMARK INTER:                   0.000
REMARK INTRA:                  -5.538
REMARK UNBOUND:                -5.830
REMARK SMILES CCCCCCCCCCCCCCCCCCCCCCCC(=O)[O-]
REMARK SMILES IDX 13 1 14 2 15 3 16 4 17 5 18 6 19 7 20 8 21 9 22 10 23 11
REMARK SMILES IDX 24 12 25 13 26 14 12 15 11 16 10 17 9 18 8 19 7 20 6 21 5 22
REMARK SMILES IDX 4 23 3 24 2 25 1 26
REMARK H PARENT
REMARK Flexibility Score: inf
ROOT
ATOM      1  C   UNL     1     181.033 178.719 182.417  1.00  0.00     0.000 C 
ENDROOT
BRANCH   1   2
ATOM      2  C   UNL     1     180.919 180.250 182.453  1.00  0.00     0.000 C 
BRANCH   2   3
ATOM      3  C   UNL     1     179.464 180.737 182.339  1.00  0.00     0.000 C 
BRANCH   3   4
ATOM      4  C   UNL     1     178.927 180.676 180.897  1.00  0.00     0.000 C 
BRANCH   4   5
ATOM      5  C   UNL     1     177.785 179.665 180.672  1.00  0.00     0.000 C 
BRANCH   5   6
ATOM      6  C   UNL     1     177.261 178.979 181.945  1.00  0.00     0.000 C 
BRANCH   6   7
ATOM      7  C   UNL     1     177.568 177.474 181.983  1.00  0.00     0.000 C 
BRANCH   7   8
ATOM      8  C   UNL     1     178.222 177.015 180.673  1.00  0.00     0.000 C 
BRANCH   8   9
ATOM      9  C   UNL     1     177.813 175.590 180.264  1.00  0.00     0.000 C 
BRANCH   9  10
ATOM     10  C   UNL     1     178.808 174.866 179.336  1.00  0.00     0.006 C 
BRANCH  10  11
ATOM     11  C   UNL     1     180.282 175.015 179.758  1.00  0.00     0.053 C 
BRANCH  11  12
ATOM     12  C   UNL     1     180.601 174.253 181.010  1.00  0.00     0.041 C 
ATOM     13  O   UNL     1     180.688 172.997 180.982  1.00  0.00    -0.550 OA
ATOM     14  O   UNL     1     180.763 174.927 182.214  1.00  0.00    -0.550 OA
ENDBRANCH  11  12
ENDBRANCH  10  11
ENDBRANCH   9  10
ENDBRANCH   8   9
ENDBRANCH   7   8
ENDBRANCH   6   7
ENDBRANCH   5   6
ENDBRANCH   4   5
ENDBRANCH   3   4
ENDBRANCH   2   3
ENDBRANCH   1   2
BRANCH   1  15
ATOM     15  C   UNL     1     181.755 178.212 181.156  1.00  0.00     0.000 C 
BRANCH  15  16
ATOM     16  C   UNL     1     182.479 179.338 180.401  1.00  0.00     0.000 C 
BRANCH  16  17
ATOM     17  C   UNL     1     181.987 179.493 178.952  1.00  0.00     0.000 C 
BRANCH  17  18
ATOM     18  C   UNL     1     180.964 178.415 178.555  1.00  0.00    -0.000 C 
BRANCH  18  19
ATOM     19  C   UNL     1     179.792 178.917 177.687  1.00  0.00    -0.000 C 
BRANCH  19  20
ATOM     20  C   UNL     1     178.900 177.813 177.090  1.00  0.00    -0.000 C 
BRANCH  20  21
ATOM     21  C   UNL     1     177.402 178.126 177.215  1.00  0.00    -0.000 C 
BRANCH  21  22
ATOM     22  C   UNL     1     176.552 176.946 176.728  1.00  0.00    -0.000 C 
BRANCH  22  23
ATOM     23  C   UNL     1     175.402 176.654 177.706  1.00  0.00    -0.000 C 
BRANCH  23  24
ATOM     24  C   UNL     1     175.170 177.812 178.698  1.00  0.00    -0.000 C 
BRANCH  24  25
ATOM     25  C   UNL     1     174.439 177.387 179.983  1.00  0.00    -0.003 C 
ATOM     26  C   UNL     1     173.798 178.558 180.724  1.00  0.00     0.004 C 
ENDBRANCH  24  25
ENDBRANCH  23  24
ENDBRANCH  22  23
ENDBRANCH  21  22
ENDBRANCH  20  21
ENDBRANCH  19  20
ENDBRANCH  18  19
ENDBRANCH  17  18
ENDBRANCH  16  17
ENDBRANCH  15  16
ENDBRANCH   1  15
TORSDOF 22
ENDMDL
MODEL 9
REMARK VINA RESULT:     0.129      4.370      7.535
REMARK INTER + INTRA:          -5.536
REMARK INTER:                   0.000
REMARK INTRA:                  -5.536
REMARK UNBOUND:                -5.830
REMARK SMILES CCCCCCCCCCCCCCCCCCCCCCCC(=O)[O-]
REMARK SMILES IDX 13 1 14 2 15 3 16 4 17 5 18 6 19 7 20 8 21 9 22 10 23 11
REMARK SMILES IDX 24 12 25 13 26 14 12 15 11 16 10 17 9 18 8 19 7 20 6 21 5 22
REMARK SMILES IDX 4 23 3 24 2 25 1 26
REMARK H PARENT
REMARK Flexibility Score: inf
ROOT
ATOM      1  C   UNL     1     184.531 181.477 176.742  1.00  0.00     0.000 C 
ENDROOT
BRANCH   1   2
ATOM      2  C   UNL     1     183.414 182.364 176.173  1.00  0.00     0.000 C 
BRANCH   2   3
ATOM      3  C   UNL     1     183.231 182.185 174.655  1.00  0.00     0.000 C 
BRANCH   3   4
ATOM      4  C   UNL     1     184.552 181.865 173.932  1.00  0.00     0.000 C 
BRANCH   4   5
ATOM      5  C   UNL     1     184.592 180.492 173.231  1.00  0.00     0.000 C 
BRANCH   5   6
ATOM      6  C   UNL     1     185.605 179.491 173.815  1.00  0.00     0.000 C 
BRANCH   6   7
ATOM      7  C   UNL     1     184.934 178.303 174.520  1.00  0.00     0.000 C 
BRANCH   7   8
ATOM      8  C   UNL     1     183.405 178.414 174.445  1.00  0.00     0.000 C 
BRANCH   8   9
ATOM      9  C   UNL     1     182.715 178.128 175.789  1.00  0.00     0.000 C 
BRANCH   9  10
ATOM     10  C   UNL     1     181.612 179.131 176.183  1.00  0.00     0.006 C 
BRANCH  10  11
ATOM     11  C   UNL     1     181.549 179.430 177.694  1.00  0.00     0.053 C 
BRANCH  11  12
ATOM     12  C   UNL     1     180.346 178.820 178.350  1.00  0.00     0.041 C 
ATOM     13  O   UNL     1     180.339 178.610 179.591  1.00  0.00    -0.550 OA
ATOM     14  O   UNL     1     179.246 178.451 177.584  1.00  0.00    -0.550 OA
ENDBRANCH  11  12
ENDBRANCH  10  11
ENDBRANCH   9  10
ENDBRANCH   8   9
ENDBRANCH   7   8
ENDBRANCH   6   7
ENDBRANCH   5   6
ENDBRANCH   4   5
ENDBRANCH   3   4
ENDBRANCH   2   3
ENDBRANCH   1   2
BRANCH   1  15
ATOM     15  C   UNL     1     184.800 181.752 178.232  1.00  0.00     0.000 C 
BRANCH  15  16
ATOM     16  C   UNL     1     185.296 180.505 178.980  1.00  0.00     0.000 C 
BRANCH  16  17
ATOM     17  C   UNL     1     185.297 179.245 178.096  1.00  0.00     0.000 C 
BRANCH  17  18
ATOM     18  C   UNL     1     186.686 178.592 177.995  1.00  0.00    -0.000 C 
BRANCH  18  19
ATOM     19  C   UNL     1     187.621 179.212 176.936  1.00  0.00    -0.000 C 
BRANCH  19  20
ATOM     20  C   UNL     1     188.703 180.155 177.492  1.00  0.00    -0.000 C 
BRANCH  20  21
ATOM     21  C   UNL     1     188.449 181.627 177.135  1.00  0.00    -0.000 C 
BRANCH  21  22
ATOM     22  C   UNL     1     187.993 181.768 175.678  1.00  0.00    -0.000 C 
BRANCH  22  23
ATOM     23  C   UNL     1     187.587 183.217 175.365  1.00  0.00    -0.000 C 
BRANCH  23  24
ATOM     24  C   UNL     1     187.327 184.041 176.643  1.00  0.00    -0.000 C 
BRANCH  24  25
ATOM     25  C   UNL     1     186.072 184.926 176.562  1.00  0.00    -0.003 C 
ATOM     26  C   UNL     1     185.645 185.233 175.128  1.00  0.00     0.004 C 
ENDBRANCH  24  25
ENDBRANCH  23  24
ENDBRANCH  22  23
ENDBRANCH  21  22
ENDBRANCH  20  21
ENDBRANCH  19  20
ENDBRANCH  18  19
ENDBRANCH  17  18
ENDBRANCH  16  17
ENDBRANCH  15  16
ENDBRANCH   1  15
TORSDOF 22
ENDMDL
