MODEL 1
REMARK VINA RESULT:    -7.147      0.000      0.000
REMARK INTER + INTRA:          -7.356
REMARK INTER:                  -7.356
REMARK INTRA:                   0.000
REMARK UNBOUND:                 0.000
REMARK SMILES CC1(C)CC[C@]2(C)CC[C@@]3(C)C(=CC[C@@H]4[C@@]5(C)CC[C@@H](O)C(C)(C)[C@H]5CC[C@]43C)[C@H]2C1
REMARK SMILES IDX 1 1 2 2 4 3 5 4 6 5 8 6 9 7 10 8 12 9 13 10 14 11 15 12
REMARK SMILES IDX 28 13 27 14 26 15 25 16 16 17 18 18 19 19 20 20 22 21 23 22
REMARK SMILES IDX 24 23 17 24 29 25 30 26 31 27 11 28 7 29 3 30 21 31
REMARK H PARENT 21 32
REMARK Flexibility Score: inf
ROOT
ATOM      1  C   UNL     1     143.491 140.620 136.482  1.00  0.00     0.011 C 
ATOM      2  C   UNL     1     144.979 140.215 136.410  1.00  0.00    -0.035 C 
ATOM      3  C   UNL     1     145.849 141.501 136.498  1.00  0.00     0.007 C 
ATOM      4  C   UNL     1     147.344 141.231 136.775  1.00  0.00     0.008 C 
ATOM      5  C   UNL     1     147.593 140.313 138.005  1.00  0.00    -0.026 C 
ATOM      6  C   UNL     1     149.138 140.018 138.129  1.00  0.00     0.008 C 
ATOM      7  C   UNL     1     149.526 138.524 138.001  1.00  0.00     0.012 C 
ATOM      8  C   UNL     1     148.689 137.582 138.942  1.00  0.00    -0.006 C 
ATOM      9  C   UNL     1     147.196 137.931 138.810  1.00  0.00    -0.064 C 
ATOM     10  C   UNL     1     146.292 137.176 139.481  1.00  0.00    -0.027 C 
ATOM     11  C   UNL     1     146.691 135.803 139.972  1.00  0.00     0.032 C 
ATOM     12  C   UNL     1     147.596 135.167 138.888  1.00  0.00     0.006 C 
ATOM     13  C   UNL     1     148.927 135.989 138.645  1.00  0.00    -0.020 C 
ATOM     14  C   UNL     1     149.284 135.687 137.149  1.00  0.00     0.008 C 
ATOM     15  C   UNL     1     148.936 134.255 136.628  1.00  0.00     0.005 C 
ATOM     16  C   UNL     1     148.758 133.140 137.711  1.00  0.00     0.003 C 
ATOM     17  C   UNL     1     147.715 133.580 138.850  1.00  0.00    -0.025 C 
ATOM     18  C   UNL     1     146.275 133.023 138.559  1.00  0.00     0.010 C 
ATOM     19  C   UNL     1     146.215 131.568 138.104  1.00  0.00     0.033 C 
ATOM     20  C   UNL     1     147.055 131.350 136.849  1.00  0.00     0.120 C 
ATOM     21  C   UNL     1     148.555 131.678 137.100  1.00  0.00    -0.006 C 
ATOM     22  C   UNL     1     149.320 131.485 135.758  1.00  0.00     0.014 C 
ATOM     23  C   UNL     1     149.167 130.611 138.053  1.00  0.00     0.014 C 
ATOM     24  C   UNL     1     148.166 133.050 140.246  1.00  0.00     0.012 C 
ATOM     25  C   UNL     1     150.125 135.506 139.522  1.00  0.00     0.012 C 
ATOM     26  C   UNL     1     146.796 138.992 137.784  1.00  0.00     0.022 C 
ATOM     27  C   UNL     1     145.281 139.242 137.590  1.00  0.00     0.015 C 
ATOM     28  C   UNL     1     149.102 137.982 140.406  1.00  0.00     0.017 C 
ATOM     29  C   UNL     1     147.123 141.051 139.293  1.00  0.00     0.012 C 
ATOM     30  C   UNL     1     145.210 139.514 135.048  1.00  0.00     0.011 C 
ENDROOT
BRANCH  20  31
ATOM     31  O   UNL     1     146.533 132.143 135.808  1.00  0.00    -0.393 OA
ATOM     32  H   UNL     1     146.151 131.530 135.127  1.00  0.00     0.210 HD
ENDBRANCH  20  31
TORSDOF 1
ENDMDL
MODEL 2
REMARK VINA RESULT:    -7.041      3.219      5.065
REMARK INTER + INTRA:          -7.247
REMARK INTER:                  -7.247
REMARK INTRA:                   0.000
REMARK UNBOUND:                 0.000
REMARK SMILES CC1(C)CC[C@]2(C)CC[C@@]3(C)C(=CC[C@@H]4[C@@]5(C)CC[C@@H](O)C(C)(C)[C@H]5CC[C@]43C)[C@H]2C1
REMARK SMILES IDX 1 1 2 2 4 3 5 4 6 5 8 6 9 7 10 8 12 9 13 10 14 11 15 12
REMARK SMILES IDX 28 13 27 14 26 15 25 16 16 17 18 18 19 19 20 20 22 21 23 22
REMARK SMILES IDX 24 23 17 24 29 25 30 26 31 27 11 28 7 29 3 30 21 31
REMARK H PARENT 21 32
REMARK Flexibility Score: inf
ROOT
ATOM      1  C   UNL     1     147.888 142.979 140.729  1.00  0.00     0.011 C 
ATOM      2  C   UNL     1     148.211 141.639 140.035  1.00  0.00    -0.035 C 
ATOM      3  C   UNL     1     149.727 141.340 140.211  1.00  0.00     0.007 C 
ATOM      4  C   UNL     1     150.125 139.888 139.867  1.00  0.00     0.008 C 
ATOM      5  C   UNL     1     149.265 138.817 140.594  1.00  0.00    -0.026 C 
ATOM      6  C   UNL     1     149.685 137.382 140.089  1.00  0.00     0.008 C 
ATOM      7  C   UNL     1     148.558 136.586 139.385  1.00  0.00     0.012 C 
ATOM      8  C   UNL     1     147.225 136.529 140.219  1.00  0.00    -0.006 C 
ATOM      9  C   UNL     1     146.877 137.944 140.715  1.00  0.00    -0.064 C 
ATOM     10  C   UNL     1     145.715 138.127 141.388  1.00  0.00    -0.027 C 
ATOM     11  C   UNL     1     144.618 137.094 141.269  1.00  0.00     0.032 C 
ATOM     12  C   UNL     1     144.607 136.595 139.802  1.00  0.00     0.006 C 
ATOM     13  C   UNL     1     145.965 135.896 139.385  1.00  0.00    -0.020 C 
ATOM     14  C   UNL     1     146.056 136.150 137.842  1.00  0.00     0.008 C 
ATOM     15  C   UNL     1     144.704 136.155 137.058  1.00  0.00     0.005 C 
ATOM     16  C   UNL     1     143.496 135.431 137.741  1.00  0.00     0.003 C 
ATOM     17  C   UNL     1     143.265 135.949 139.243  1.00  0.00    -0.025 C 
ATOM     18  C   UNL     1     142.162 137.066 139.303  1.00  0.00     0.010 C 
ATOM     19  C   UNL     1     140.910 136.798 138.473  1.00  0.00     0.033 C 
ATOM     20  C   UNL     1     141.262 136.576 137.005  1.00  0.00     0.120 C 
ATOM     21  C   UNL     1     142.194 135.346 136.818  1.00  0.00    -0.006 C 
ATOM     22  C   UNL     1     142.545 135.233 135.307  1.00  0.00     0.014 C 
ATOM     23  C   UNL     1     141.402 134.042 137.131  1.00  0.00     0.014 C 
ATOM     24  C   UNL     1     142.816 134.777 140.168  1.00  0.00     0.012 C 
ATOM     25  C   UNL     1     145.962 134.351 139.611  1.00  0.00     0.012 C 
ATOM     26  C   UNL     1     147.769 139.101 140.265  1.00  0.00     0.022 C 
ATOM     27  C   UNL     1     147.332 140.526 140.684  1.00  0.00     0.015 C 
ATOM     28  C   UNL     1     147.572 135.689 141.502  1.00  0.00     0.017 C 
ATOM     29  C   UNL     1     149.536 138.903 142.125  1.00  0.00     0.012 C 
ATOM     30  C   UNL     1     147.875 141.794 138.531  1.00  0.00     0.011 C 
ENDROOT
BRANCH  20  31
ATOM     31  O   UNL     1     141.864 137.746 136.500  1.00  0.00    -0.393 OA
ATOM     32  H   UNL     1     142.750 137.840 136.937  1.00  0.00     0.210 HD
ENDBRANCH  20  31
TORSDOF 1
ENDMDL
MODEL 3
REMARK VINA RESULT:    -6.929      4.286      6.958
REMARK INTER + INTRA:          -7.131
REMARK INTER:                  -7.131
REMARK INTRA:                   0.000
REMARK UNBOUND:                 0.000
REMARK SMILES CC1(C)CC[C@]2(C)CC[C@@]3(C)C(=CC[C@@H]4[C@@]5(C)CC[C@@H](O)C(C)(C)[C@H]5CC[C@]43C)[C@H]2C1
REMARK SMILES IDX 1 1 2 2 4 3 5 4 6 5 8 6 9 7 10 8 12 9 13 10 14 11 15 12
REMARK SMILES IDX 28 13 27 14 26 15 25 16 16 17 18 18 19 19 20 20 22 21 23 22
REMARK SMILES IDX 24 23 17 24 29 25 30 26 31 27 11 28 7 29 3 30 21 31
REMARK H PARENT 21 32
REMARK Flexibility Score: inf
ROOT
ATOM      1  C   UNL     1     149.743 139.787 140.986  1.00  0.00     0.011 C 
ATOM      2  C   UNL     1     148.378 140.198 140.393  1.00  0.00    -0.035 C 
ATOM      3  C   UNL     1     148.626 141.160 139.196  1.00  0.00     0.007 C 
ATOM      4  C   UNL     1     147.387 141.385 138.303  1.00  0.00     0.008 C 
ATOM      5  C   UNL     1     146.720 140.066 137.820  1.00  0.00    -0.026 C 
ATOM      6  C   UNL     1     145.410 140.412 137.011  1.00  0.00     0.008 C 
ATOM      7  C   UNL     1     144.102 139.855 137.625  1.00  0.00     0.012 C 
ATOM      8  C   UNL     1     144.177 138.320 137.958  1.00  0.00    -0.006 C 
ATOM      9  C   UNL     1     145.484 138.030 138.717  1.00  0.00    -0.064 C 
ATOM     10  C   UNL     1     145.704 136.771 139.170  1.00  0.00    -0.027 C 
ATOM     11  C   UNL     1     144.539 135.819 139.313  1.00  0.00     0.032 C 
ATOM     12  C   UNL     1     143.329 136.640 139.827  1.00  0.00     0.006 C 
ATOM     13  C   UNL     1     142.891 137.779 138.818  1.00  0.00    -0.020 C 
ATOM     14  C   UNL     1     142.262 138.875 139.743  1.00  0.00     0.008 C 
ATOM     15  C   UNL     1     141.487 138.362 141.000  1.00  0.00     0.005 C 
ATOM     16  C   UNL     1     140.982 136.882 140.955  1.00  0.00     0.003 C 
ATOM     17  C   UNL     1     142.164 135.861 140.581  1.00  0.00    -0.025 C 
ATOM     18  C   UNL     1     142.801 135.223 141.867  1.00  0.00     0.010 C 
ATOM     19  C   UNL     1     141.810 134.759 142.930  1.00  0.00     0.033 C 
ATOM     20  C   UNL     1     140.912 135.907 143.382  1.00  0.00     0.120 C 
ATOM     21  C   UNL     1     140.072 136.475 142.203  1.00  0.00    -0.006 C 
ATOM     22  C   UNL     1     139.236 137.672 142.742  1.00  0.00     0.014 C 
ATOM     23  C   UNL     1     139.008 135.424 141.769  1.00  0.00     0.014 C 
ATOM     24  C   UNL     1     141.632 134.705 139.681  1.00  0.00     0.012 C 
ATOM     25  C   UNL     1     141.790 137.324 137.809  1.00  0.00     0.012 C 
ATOM     26  C   UNL     1     146.380 139.214 139.079  1.00  0.00     0.022 C 
ATOM     27  C   UNL     1     147.630 138.908 139.940  1.00  0.00     0.015 C 
ATOM     28  C   UNL     1     144.309 137.598 136.568  1.00  0.00     0.017 C 
ATOM     29  C   UNL     1     147.704 139.316 136.875  1.00  0.00     0.012 C 
ATOM     30  C   UNL     1     147.584 140.931 141.503  1.00  0.00     0.011 C 
ENDROOT
BRANCH  20  31
ATOM     31  O   UNL     1     141.714 136.912 143.959  1.00  0.00    -0.393 OA
ATOM     32  H   UNL     1     142.410 136.462 144.506  1.00  0.00     0.210 HD
ENDBRANCH  20  31
TORSDOF 1
ENDMDL
MODEL 4
REMARK VINA RESULT:    -6.917      4.064      7.359
REMARK INTER + INTRA:          -7.119
REMARK INTER:                  -7.119
REMARK INTRA:                   0.000
REMARK UNBOUND:                 0.000
REMARK SMILES CC1(C)CC[C@]2(C)CC[C@@]3(C)C(=CC[C@@H]4[C@@]5(C)CC[C@@H](O)C(C)(C)[C@H]5CC[C@]43C)[C@H]2C1
REMARK SMILES IDX 1 1 2 2 4 3 5 4 6 5 8 6 9 7 10 8 12 9 13 10 14 11 15 12
REMARK SMILES IDX 28 13 27 14 26 15 25 16 16 17 18 18 19 19 20 20 22 21 23 22
REMARK SMILES IDX 24 23 17 24 29 25 30 26 31 27 11 28 7 29 3 30 21 31
REMARK H PARENT 21 32
REMARK Flexibility Score: inf
ROOT
ATOM      1  C   UNL     1     139.516 138.562 142.500  1.00  0.00     0.011 C 
ATOM      2  C   UNL     1     140.584 137.590 141.954  1.00  0.00    -0.035 C 
ATOM      3  C   UNL     1     139.905 136.224 141.650  1.00  0.00     0.007 C 
ATOM      4  C   UNL     1     140.766 135.272 140.792  1.00  0.00     0.008 C 
ATOM      5  C   UNL     1     141.301 135.922 139.486  1.00  0.00    -0.026 C 
ATOM      6  C   UNL     1     142.250 134.900 138.747  1.00  0.00     0.008 C 
ATOM      7  C   UNL     1     143.714 135.377 138.582  1.00  0.00     0.012 C 
ATOM      8  C   UNL     1     143.832 136.816 137.959  1.00  0.00    -0.006 C 
ATOM      9  C   UNL     1     142.866 137.765 138.690  1.00  0.00    -0.064 C 
ATOM     10  C   UNL     1     142.873 139.079 138.357  1.00  0.00    -0.027 C 
ATOM     11  C   UNL     1     144.067 139.655 137.630  1.00  0.00     0.032 C 
ATOM     12  C   UNL     1     145.335 138.986 138.218  1.00  0.00     0.006 C 
ATOM     13  C   UNL     1     145.355 137.418 137.998  1.00  0.00    -0.020 C 
ATOM     14  C   UNL     1     146.198 136.884 139.205  1.00  0.00     0.008 C 
ATOM     15  C   UNL     1     147.371 137.796 139.691  1.00  0.00     0.005 C 
ATOM     16  C   UNL     1     147.907 138.851 138.668  1.00  0.00     0.003 C 
ATOM     17  C   UNL     1     146.722 139.751 138.065  1.00  0.00    -0.025 C 
ATOM     18  C   UNL     1     146.580 141.110 138.840  1.00  0.00     0.010 C 
ATOM     19  C   UNL     1     147.890 141.827 139.153  1.00  0.00     0.033 C 
ATOM     20  C   UNL     1     148.827 140.933 139.959  1.00  0.00     0.120 C 
ATOM     21  C   UNL     1     149.200 139.641 139.177  1.00  0.00    -0.006 C 
ATOM     22  C   UNL     1     150.105 138.768 140.094  1.00  0.00     0.014 C 
ATOM     23  C   UNL     1     150.111 140.010 137.970  1.00  0.00     0.014 C 
ATOM     24  C   UNL     1     146.984 140.077 136.563  1.00  0.00     0.012 C 
ATOM     25  C   UNL     1     146.082 136.985 136.686  1.00  0.00     0.012 C 
ATOM     26  C   UNL     1     142.081 137.212 139.880  1.00  0.00     0.022 C 
ATOM     27  C   UNL     1     141.204 138.216 140.668  1.00  0.00     0.015 C 
ATOM     28  C   UNL     1     143.284 136.681 136.491  1.00  0.00     0.017 C 
ATOM     29  C   UNL     1     140.099 136.249 138.552  1.00  0.00     0.012 C 
ATOM     30  C   UNL     1     141.662 137.411 143.051  1.00  0.00     0.011 C 
ENDROOT
BRANCH  20  31
ATOM     31  O   UNL     1     148.211 140.619 141.187  1.00  0.00    -0.393 OA
ATOM     32  H   UNL     1     148.928 140.362 141.824  1.00  0.00     0.210 HD
ENDBRANCH  20  31
TORSDOF 1
ENDMDL
MODEL 5
REMARK VINA RESULT:    -6.730      1.683      7.270
REMARK INTER + INTRA:          -6.927
REMARK INTER:                  -6.927
REMARK INTRA:                   0.000
REMARK UNBOUND:                 0.000
REMARK SMILES CC1(C)CC[C@]2(C)CC[C@@]3(C)C(=CC[C@@H]4[C@@]5(C)CC[C@@H](O)C(C)(C)[C@H]5CC[C@]43C)[C@H]2C1
REMARK SMILES IDX 1 1 2 2 4 3 5 4 6 5 8 6 9 7 10 8 12 9 13 10 14 11 15 12
REMARK SMILES IDX 28 13 27 14 26 15 25 16 16 17 18 18 19 19 20 20 22 21 23 22
REMARK SMILES IDX 24 23 17 24 29 25 30 26 31 27 11 28 7 29 3 30 21 31
REMARK H PARENT 21 32
REMARK Flexibility Score: inf
ROOT
ATOM      1  C   UNL     1     149.554 131.255 136.104  1.00  0.00     0.011 C 
ATOM      2  C   UNL     1     148.604 131.832 137.175  1.00  0.00    -0.035 C 
ATOM      3  C   UNL     1     148.833 131.064 138.508  1.00  0.00     0.007 C 
ATOM      4  C   UNL     1     148.204 131.746 139.742  1.00  0.00     0.008 C 
ATOM      5  C   UNL     1     148.598 133.243 139.895  1.00  0.00    -0.026 C 
ATOM      6  C   UNL     1     147.818 133.863 141.119  1.00  0.00     0.008 C 
ATOM      7  C   UNL     1     146.862 135.027 140.757  1.00  0.00     0.012 C 
ATOM      8  C   UNL     1     147.549 136.147 139.892  1.00  0.00    -0.006 C 
ATOM      9  C   UNL     1     148.321 135.491 138.734  1.00  0.00    -0.064 C 
ATOM     10  C   UNL     1     148.920 136.291 137.818  1.00  0.00    -0.027 C 
ATOM     11  C   UNL     1     148.481 137.731 137.692  1.00  0.00     0.032 C 
ATOM     12  C   UNL     1     146.943 137.767 137.881  1.00  0.00     0.006 C 
ATOM     13  C   UNL     1     146.493 137.257 139.310  1.00  0.00    -0.020 C 
ATOM     14  C   UNL     1     145.059 136.674 139.063  1.00  0.00     0.008 C 
ATOM     15  C   UNL     1     144.188 137.406 137.991  1.00  0.00     0.005 C 
ATOM     16  C   UNL     1     144.588 138.879 137.651  1.00  0.00     0.003 C 
ATOM     17  C   UNL     1     146.144 139.001 137.274  1.00  0.00    -0.025 C 
ATOM     18  C   UNL     1     146.364 138.966 135.719  1.00  0.00     0.010 C 
ATOM     19  C   UNL     1     145.394 139.812 134.900  1.00  0.00     0.033 C 
ATOM     20  C   UNL     1     143.948 139.408 135.170  1.00  0.00     0.120 C 
ATOM     21  C   UNL     1     143.566 139.610 136.663  1.00  0.00    -0.006 C 
ATOM     22  C   UNL     1     142.102 139.120 136.856  1.00  0.00     0.014 C 
ATOM     23  C   UNL     1     143.510 141.133 136.984  1.00  0.00     0.014 C 
ATOM     24  C   UNL     1     146.740 140.337 137.815  1.00  0.00     0.012 C 
ATOM     25  C   UNL     1     146.362 138.401 140.365  1.00  0.00     0.012 C 
ATOM     26  C   UNL     1     148.218 133.974 138.573  1.00  0.00     0.022 C 
ATOM     27  C   UNL     1     148.911 133.352 137.335  1.00  0.00     0.015 C 
ATOM     28  C   UNL     1     148.633 136.792 140.830  1.00  0.00     0.017 C 
ATOM     29  C   UNL     1     150.125 133.339 140.179  1.00  0.00     0.012 C 
ATOM     30  C   UNL     1     147.152 131.615 136.683  1.00  0.00     0.011 C 
ENDROOT
BRANCH  20  31
ATOM     31  O   UNL     1     143.772 138.065 134.782  1.00  0.00    -0.393 OA
ATOM     32  H   UNL     1     143.704 137.520 135.609  1.00  0.00     0.210 HD
ENDBRANCH  20  31
TORSDOF 1
ENDMDL
MODEL 6
REMARK VINA RESULT:    -6.664      4.183      6.365
REMARK INTER + INTRA:          -6.858
REMARK INTER:                  -6.858
REMARK INTRA:                   0.000
REMARK UNBOUND:                 0.000
REMARK SMILES CC1(C)CC[C@]2(C)CC[C@@]3(C)C(=CC[C@@H]4[C@@]5(C)CC[C@@H](O)C(C)(C)[C@H]5CC[C@]43C)[C@H]2C1
REMARK SMILES IDX 1 1 2 2 4 3 5 4 6 5 8 6 9 7 10 8 12 9 13 10 14 11 15 12
REMARK SMILES IDX 28 13 27 14 26 15 25 16 16 17 18 18 19 19 20 20 22 21 23 22
REMARK SMILES IDX 24 23 17 24 29 25 30 26 31 27 11 28 7 29 3 30 21 31
REMARK H PARENT 21 32
REMARK Flexibility Score: inf
ROOT
ATOM      1  C   UNL     1     147.506 141.580 137.334  1.00  0.00     0.011 C 
ATOM      2  C   UNL     1     147.366 140.063 137.581  1.00  0.00    -0.035 C 
ATOM      3  C   UNL     1     148.727 139.379 137.264  1.00  0.00     0.007 C 
ATOM      4  C   UNL     1     148.838 137.929 137.782  1.00  0.00     0.008 C 
ATOM      5  C   UNL     1     148.484 137.777 139.289  1.00  0.00    -0.026 C 
ATOM      6  C   UNL     1     148.526 136.249 139.681  1.00  0.00     0.008 C 
ATOM      7  C   UNL     1     147.178 135.669 140.175  1.00  0.00     0.012 C 
ATOM      8  C   UNL     1     146.510 136.531 141.310  1.00  0.00    -0.006 C 
ATOM      9  C   UNL     1     146.523 138.012 140.894  1.00  0.00    -0.064 C 
ATOM     10  C   UNL     1     145.918 138.917 141.702  1.00  0.00    -0.027 C 
ATOM     11  C   UNL     1     144.906 138.443 142.720  1.00  0.00     0.032 C 
ATOM     12  C   UNL     1     144.088 137.302 142.065  1.00  0.00     0.006 C 
ATOM     13  C   UNL     1     144.983 136.057 141.671  1.00  0.00    -0.020 C 
ATOM     14  C   UNL     1     144.229 135.427 140.451  1.00  0.00     0.008 C 
ATOM     15  C   UNL     1     142.668 135.509 140.483  1.00  0.00     0.005 C 
ATOM     16  C   UNL     1     142.007 135.728 141.883  1.00  0.00     0.003 C 
ATOM     17  C   UNL     1     142.641 136.989 142.649  1.00  0.00    -0.025 C 
ATOM     18  C   UNL     1     141.776 138.284 142.441  1.00  0.00     0.010 C 
ATOM     19  C   UNL     1     140.268 138.094 142.572  1.00  0.00     0.033 C 
ATOM     20  C   UNL     1     139.760 137.039 141.594  1.00  0.00     0.120 C 
ATOM     21  C   UNL     1     140.411 135.651 141.859  1.00  0.00    -0.006 C 
ATOM     22  C   UNL     1     139.881 134.659 140.784  1.00  0.00     0.014 C 
ATOM     23  C   UNL     1     139.883 135.080 143.208  1.00  0.00     0.014 C 
ATOM     24  C   UNL     1     142.737 136.714 144.181  1.00  0.00     0.012 C 
ATOM     25  C   UNL     1     145.064 134.971 142.789  1.00  0.00     0.012 C 
ATOM     26  C   UNL     1     147.057 138.362 139.505  1.00  0.00     0.022 C 
ATOM     27  C   UNL     1     146.953 139.844 139.069  1.00  0.00     0.015 C 
ATOM     28  C   UNL     1     147.476 136.414 142.545  1.00  0.00     0.017 C 
ATOM     29  C   UNL     1     149.544 138.537 140.138  1.00  0.00     0.012 C 
ATOM     30  C   UNL     1     146.272 139.528 136.624  1.00  0.00     0.011 C 
ENDROOT
BRANCH  20  31
ATOM     31  O   UNL     1     140.021 137.474 140.279  1.00  0.00    -0.393 OA
ATOM     32  H   UNL     1     140.266 136.676 139.742  1.00  0.00     0.210 HD
ENDBRANCH  20  31
TORSDOF 1
ENDMDL
MODEL 7
REMARK VINA RESULT:    -6.644      3.868      6.296
REMARK INTER + INTRA:          -6.838
REMARK INTER:                  -6.838
REMARK INTRA:                   0.000
REMARK UNBOUND:                 0.000
REMARK SMILES CC1(C)CC[C@]2(C)CC[C@@]3(C)C(=CC[C@@H]4[C@@]5(C)CC[C@@H](O)C(C)(C)[C@H]5CC[C@]43C)[C@H]2C1
REMARK SMILES IDX 1 1 2 2 4 3 5 4 6 5 8 6 9 7 10 8 12 9 13 10 14 11 15 12
REMARK SMILES IDX 28 13 27 14 26 15 25 16 16 17 18 18 19 19 20 20 22 21 23 22
REMARK SMILES IDX 24 23 17 24 29 25 30 26 31 27 11 28 7 29 3 30 21 31
REMARK H PARENT 21 32
REMARK Flexibility Score: inf
ROOT
ATOM      1  C   UNL     1     149.904 141.492 139.922  1.00  0.00     0.011 C 
ATOM      2  C   UNL     1     148.406 141.134 139.822  1.00  0.00    -0.035 C 
ATOM      3  C   UNL     1     147.837 141.738 138.507  1.00  0.00     0.007 C 
ATOM      4  C   UNL     1     146.452 141.184 138.108  1.00  0.00     0.008 C 
ATOM      5  C   UNL     1     146.390 139.631 138.071  1.00  0.00    -0.026 C 
ATOM      6  C   UNL     1     144.911 139.177 137.760  1.00  0.00     0.008 C 
ATOM      7  C   UNL     1     144.243 138.334 138.874  1.00  0.00     0.012 C 
ATOM      8  C   UNL     1     145.124 137.120 139.347  1.00  0.00    -0.006 C 
ATOM      9  C   UNL     1     146.560 137.607 139.605  1.00  0.00    -0.064 C 
ATOM     10  C   UNL     1     147.464 136.726 140.100  1.00  0.00    -0.027 C 
ATOM     11  C   UNL     1     146.978 135.465 140.777  1.00  0.00     0.032 C 
ATOM     12  C   UNL     1     145.711 135.834 141.590  1.00  0.00     0.006 C 
ATOM     13  C   UNL     1     144.534 136.368 140.677  1.00  0.00    -0.020 C 
ATOM     14  C   UNL     1     143.733 137.326 141.623  1.00  0.00     0.008 C 
ATOM     15  C   UNL     1     143.664 136.915 143.130  1.00  0.00     0.005 C 
ATOM     16  C   UNL     1     143.931 135.409 143.458  1.00  0.00     0.003 C 
ATOM     17  C   UNL     1     145.306 134.894 142.809  1.00  0.00    -0.025 C 
ATOM     18  C   UNL     1     146.488 134.954 143.843  1.00  0.00     0.010 C 
ATOM     19  C   UNL     1     146.161 134.445 145.243  1.00  0.00     0.033 C 
ATOM     20  C   UNL     1     144.984 135.207 145.844  1.00  0.00     0.120 C 
ATOM     21  C   UNL     1     143.694 135.034 144.993  1.00  0.00    -0.006 C 
ATOM     22  C   UNL     1     142.570 135.889 145.646  1.00  0.00     0.014 C 
ATOM     23  C   UNL     1     143.186 133.567 145.113  1.00  0.00     0.014 C 
ATOM     24  C   UNL     1     145.168 133.421 142.318  1.00  0.00     0.012 C 
ATOM     25  C   UNL     1     143.556 135.245 140.205  1.00  0.00     0.012 C 
ATOM     26  C   UNL     1     146.847 139.102 139.464  1.00  0.00     0.022 C 
ATOM     27  C   UNL     1     148.271 139.581 139.839  1.00  0.00     0.015 C 
ATOM     28  C   UNL     1     145.205 136.157 138.106  1.00  0.00     0.017 C 
ATOM     29  C   UNL     1     147.318 139.113 136.934  1.00  0.00     0.012 C 
ATOM     30  C   UNL     1     147.689 141.760 141.044  1.00  0.00     0.011 C 
ENDROOT
BRANCH  20  31
ATOM     31  O   UNL     1     145.334 136.568 145.958  1.00  0.00    -0.393 OA
ATOM     32  H   UNL     1     144.494 137.096 145.941  1.00  0.00     0.210 HD
ENDBRANCH  20  31
TORSDOF 1
ENDMDL
MODEL 8
REMARK VINA RESULT:    -6.576      7.778     10.066
REMARK INTER + INTRA:          -6.768
REMARK INTER:                  -6.768
REMARK INTRA:                   0.000
REMARK UNBOUND:                 0.000
REMARK SMILES CC1(C)CC[C@]2(C)CC[C@@]3(C)C(=CC[C@@H]4[C@@]5(C)CC[C@@H](O)C(C)(C)[C@H]5CC[C@]43C)[C@H]2C1
REMARK SMILES IDX 1 1 2 2 4 3 5 4 6 5 8 6 9 7 10 8 12 9 13 10 14 11 15 12
REMARK SMILES IDX 28 13 27 14 26 15 25 16 16 17 18 18 19 19 20 20 22 21 23 22
REMARK SMILES IDX 24 23 17 24 29 25 30 26 31 27 11 28 7 29 3 30 21 31
REMARK H PARENT 21 32
REMARK Flexibility Score: inf
ROOT
ATOM      1  C   UNL     1     143.068 139.575 137.312  1.00  0.00     0.011 C 
ATOM      2  C   UNL     1     142.863 138.261 138.095  1.00  0.00    -0.035 C 
ATOM      3  C   UNL     1     144.236 137.541 138.227  1.00  0.00     0.007 C 
ATOM      4  C   UNL     1     144.248 136.397 139.264  1.00  0.00     0.008 C 
ATOM      5  C   UNL     1     143.711 136.817 140.662  1.00  0.00    -0.026 C 
ATOM      6  C   UNL     1     143.668 135.552 141.604  1.00  0.00     0.008 C 
ATOM      7  C   UNL     1     142.256 135.170 142.114  1.00  0.00     0.012 C 
ATOM      8  C   UNL     1     141.477 136.380 142.748  1.00  0.00    -0.006 C 
ATOM      9  C   UNL     1     141.576 137.594 141.809  1.00  0.00    -0.064 C 
ATOM     10  C   UNL     1     140.899 138.723 142.135  1.00  0.00    -0.027 C 
ATOM     11  C   UNL     1     139.760 138.644 143.126  1.00  0.00     0.032 C 
ATOM     12  C   UNL     1     139.001 137.321 142.857  1.00  0.00     0.006 C 
ATOM     13  C   UNL     1     139.907 136.042 143.074  1.00  0.00    -0.020 C 
ATOM     14  C   UNL     1     139.291 134.979 142.101  1.00  0.00     0.008 C 
ATOM     15  C   UNL     1     137.740 135.031 141.910  1.00  0.00     0.005 C 
ATOM     16  C   UNL     1     136.920 135.747 143.032  1.00  0.00     0.003 C 
ATOM     17  C   UNL     1     137.487 137.218 143.336  1.00  0.00    -0.025 C 
ATOM     18  C   UNL     1     136.685 138.318 142.551  1.00  0.00     0.010 C 
ATOM     19  C   UNL     1     135.168 138.155 142.560  1.00  0.00     0.033 C 
ATOM     20  C   UNL     1     134.757 136.797 142.000  1.00  0.00     0.120 C 
ATOM     21  C   UNL     1     135.337 135.629 142.846  1.00  0.00    -0.006 C 
ATOM     22  C   UNL     1     134.918 134.291 142.170  1.00  0.00     0.014 C 
ATOM     23  C   UNL     1     134.636 135.597 144.236  1.00  0.00     0.014 C 
ATOM     24  C   UNL     1     137.389 137.545 144.858  1.00  0.00     0.012 C 
ATOM     25  C   UNL     1     139.826 135.461 144.521  1.00  0.00     0.012 C 
ATOM     26  C   UNL     1     142.282 137.406 140.466  1.00  0.00     0.022 C 
ATOM     27  C   UNL     1     142.268 138.611 139.493  1.00  0.00     0.015 C 
ATOM     28  C   UNL     1     142.284 136.762 144.043  1.00  0.00     0.017 C 
ATOM     29  C   UNL     1     144.678 137.867 141.282  1.00  0.00     0.012 C 
ATOM     30  C   UNL     1     141.880 137.378 137.286  1.00  0.00     0.011 C 
ENDROOT
BRANCH  20  31
ATOM     31  O   UNL     1     135.185 136.710 140.660  1.00  0.00    -0.393 OA
ATOM     32  H   UNL     1     134.737 137.436 140.154  1.00  0.00     0.210 HD
ENDBRANCH  20  31
TORSDOF 1
ENDMDL
MODEL 9
REMARK VINA RESULT:    -5.217      8.912     11.534
REMARK INTER + INTRA:          -5.369
REMARK INTER:                  -5.369
REMARK INTRA:                   0.000
REMARK UNBOUND:                 0.000
REMARK SMILES CC1(C)CC[C@]2(C)CC[C@@]3(C)C(=CC[C@@H]4[C@@]5(C)CC[C@@H](O)C(C)(C)[C@H]5CC[C@]43C)[C@H]2C1
REMARK SMILES IDX 1 1 2 2 4 3 5 4 6 5 8 6 9 7 10 8 12 9 13 10 14 11 15 12
REMARK SMILES IDX 28 13 27 14 26 15 25 16 16 17 18 18 19 19 20 20 22 21 23 22
REMARK SMILES IDX 24 23 17 24 29 25 30 26 31 27 11 28 7 29 3 30 21 31
REMARK H PARENT 21 32
REMARK Flexibility Score: inf
ROOT
ATOM      1  C   UNL     1     139.903 136.239 138.669  1.00  0.00     0.011 C 
ATOM      2  C   UNL     1     139.672 134.844 138.049  1.00  0.00    -0.035 C 
ATOM      3  C   UNL     1     138.834 133.990 139.044  1.00  0.00     0.007 C 
ATOM      4  C   UNL     1     138.245 132.704 138.425  1.00  0.00     0.008 C 
ATOM      5  C   UNL     1     137.453 132.951 137.110  1.00  0.00    -0.026 C 
ATOM      6  C   UNL     1     136.991 131.565 136.513  1.00  0.00     0.008 C 
ATOM      7  C   UNL     1     137.564 131.239 135.112  1.00  0.00     0.012 C 
ATOM      8  C   UNL     1     137.362 132.403 134.073  1.00  0.00    -0.006 C 
ATOM      9  C   UNL     1     137.795 133.734 134.712  1.00  0.00    -0.064 C 
ATOM     10  C   UNL     1     137.776 134.855 133.951  1.00  0.00    -0.027 C 
ATOM     11  C   UNL     1     137.759 134.730 132.445  1.00  0.00     0.032 C 
ATOM     12  C   UNL     1     138.675 133.539 132.068  1.00  0.00     0.006 C 
ATOM     13  C   UNL     1     138.166 132.164 132.665  1.00  0.00    -0.020 C 
ATOM     14  C   UNL     1     139.477 131.324 132.839  1.00  0.00     0.008 C 
ATOM     15  C   UNL     1     140.590 131.545 131.764  1.00  0.00     0.005 C 
ATOM     16  C   UNL     1     140.133 132.152 130.397  1.00  0.00     0.003 C 
ATOM     17  C   UNL     1     139.286 133.501 130.599  1.00  0.00    -0.025 C 
ATOM     18  C   UNL     1     140.191 134.777 130.450  1.00  0.00     0.010 C 
ATOM     19  C   UNL     1     141.169 134.754 129.279  1.00  0.00     0.033 C 
ATOM     20  C   UNL     1     142.091 133.542 129.358  1.00  0.00     0.120 C 
ATOM     21  C   UNL     1     141.292 132.209 129.299  1.00  0.00    -0.006 C 
ATOM     22  C   UNL     1     142.304 131.035 129.444  1.00  0.00     0.014 C 
ATOM     23  C   UNL     1     140.689 132.027 127.875  1.00  0.00     0.014 C 
ATOM     24  C   UNL     1     138.139 133.597 129.546  1.00  0.00     0.012 C 
ATOM     25  C   UNL     1     137.226 131.377 131.698  1.00  0.00     0.012 C 
ATOM     26  C   UNL     1     138.398 133.692 136.117  1.00  0.00     0.022 C 
ATOM     27  C   UNL     1     138.929 135.028 136.691  1.00  0.00     0.015 C 
ATOM     28  C   UNL     1     135.807 132.506 133.860  1.00  0.00     0.017 C 
ATOM     29  C   UNL     1     136.189 133.800 137.431  1.00  0.00     0.012 C 
ATOM     30  C   UNL     1     141.059 134.190 137.832  1.00  0.00     0.011 C 
ENDROOT
BRANCH  20  31
ATOM     31  O   UNL     1     142.849 133.623 130.543  1.00  0.00    -0.393 OA
ATOM     32  H   UNL     1     142.417 133.035 131.216  1.00  0.00     0.210 HD
ENDBRANCH  20  31
TORSDOF 1
ENDMDL
