MODEL 1
REMARK VINA RESULT:     0.161      0.000      0.000
REMARK INTER + INTRA:           3.056
REMARK INTER:                   0.425
REMARK INTRA:                   2.630
REMARK UNBOUND:                 2.630
REMARK SMILES CCCCCCCCCCCCCCCCCCCCCCCCCCCCCC(=O)[O-]
REMARK SMILES IDX 16 1 17 2 18 3 19 4 20 5 21 6 22 7 23 8 24 9 25 10 26 11
REMARK SMILES IDX 27 12 28 13 29 14 30 15 31 16 32 17 15 18 14 19 13 20 12 21
REMARK SMILES IDX 11 22 10 23 9 24 8 25 7 26 6 27 5 28 4 29 3 30 2 31 1 32
REMARK H PARENT
REMARK Flexibility Score: inf
ROOT
ATOM      1  C   UNL     1      23.072 -15.747  -2.379  1.00  0.00     0.000 C 
ENDROOT
BRANCH   1   2
ATOM      2  C   UNL     1      23.782 -16.745  -3.308  1.00  0.00     0.000 C 
BRANCH   2   3
ATOM      3  C   UNL     1      25.314 -16.695  -3.167  1.00  0.00     0.000 C 
BRANCH   3   4
ATOM      4  C   UNL     1      25.924 -15.445  -3.818  1.00  0.00     0.000 C 
BRANCH   4   5
ATOM      5  C   UNL     1      27.424 -15.612  -4.123  1.00  0.00     0.000 C 
BRANCH   5   6
ATOM      6  C   UNL     1      28.133 -16.536  -3.120  1.00  0.00     0.000 C 
BRANCH   6   7
ATOM      7  C   UNL     1      29.596 -16.813  -3.505  1.00  0.00     0.000 C 
BRANCH   7   8
ATOM      8  C   UNL     1      30.500 -17.001  -2.275  1.00  0.00     0.000 C 
BRANCH   8   9
ATOM      9  C   UNL     1      30.417 -15.820  -1.291  1.00  0.00     0.000 C 
BRANCH   9  10
ATOM     10  C   UNL     1      31.123 -14.560  -1.822  1.00  0.00     0.000 C 
BRANCH  10  11
ATOM     11  C   UNL     1      30.354 -13.895  -2.973  1.00  0.00     0.000 C 
BRANCH  11  12
ATOM     12  C   UNL     1      30.205 -12.385  -2.735  1.00  0.00     0.000 C 
BRANCH  12  13
ATOM     13  C   UNL     1      30.497 -11.981  -1.280  1.00  0.00     0.006 C 
BRANCH  13  14
ATOM     14  C   UNL     1      31.119 -10.581  -1.164  1.00  0.00     0.053 C 
BRANCH  14  15
ATOM     15  C   UNL     1      30.663  -9.704  -2.289  1.00  0.00     0.041 C 
ATOM     16  O   UNL     1      30.615  -8.455  -2.139  1.00  0.00    -0.550 OA
ATOM     17  O   UNL     1      30.271 -10.269  -3.499  1.00  0.00    -0.550 OA
ENDBRANCH  14  15
ENDBRANCH  13  14
ENDBRANCH  12  13
ENDBRANCH  11  12
ENDBRANCH  10  11
ENDBRANCH   9  10
ENDBRANCH   8   9
ENDBRANCH   7   8
ENDBRANCH   6   7
ENDBRANCH   5   6
ENDBRANCH   4   5
ENDBRANCH   3   4
ENDBRANCH   2   3
ENDBRANCH   1   2
BRANCH   1  18
ATOM     18  C   UNL     1      23.047 -14.322  -2.951  1.00  0.00     0.000 C 
BRANCH  18  19
ATOM     19  C   UNL     1      23.718 -13.334  -1.990  1.00  0.00     0.000 C 
BRANCH  19  20
ATOM     20  C   UNL     1      25.198 -13.690  -1.781  1.00  0.00     0.000 C 
BRANCH  20  21
ATOM     21  C   UNL     1      25.523 -14.018  -0.315  1.00  0.00     0.000 C 
BRANCH  21  22
ATOM     22  C   UNL     1      26.860 -14.765  -0.160  1.00  0.00     0.000 C 
BRANCH  22  23
ATOM     23  C   UNL     1      27.900 -13.952   0.627  1.00  0.00     0.000 C 
BRANCH  23  24
ATOM     24  C   UNL     1      28.524 -14.753   1.782  1.00  0.00    -0.000 C 
BRANCH  24  25
ATOM     25  C   UNL     1      30.062 -14.752   1.743  1.00  0.00    -0.000 C 
BRANCH  25  26
ATOM     26  C   UNL     1      30.663 -13.534   1.008  1.00  0.00    -0.000 C 
BRANCH  26  27
ATOM     27  C   UNL     1      30.641 -12.263   1.874  1.00  0.00    -0.000 C 
BRANCH  27  28
ATOM     28  C   UNL     1      29.586 -12.322   2.994  1.00  0.00    -0.000 C 
BRANCH  28  29
ATOM     29  C   UNL     1      29.169 -10.955   3.571  1.00  0.00    -0.000 C 
BRANCH  29  30
ATOM     30  C   UNL     1      30.149  -9.796   3.296  1.00  0.00    -0.000 C 
BRANCH  30  31
ATOM     31  C   UNL     1      30.427  -9.523   1.808  1.00  0.00    -0.003 C 
ATOM     32  C   UNL     1      31.116  -8.179   1.570  1.00  0.00     0.004 C 
ENDBRANCH  30  31
ENDBRANCH  29  30
ENDBRANCH  28  29
ENDBRANCH  27  28
ENDBRANCH  26  27
ENDBRANCH  25  26
ENDBRANCH  24  25
ENDBRANCH  23  24
ENDBRANCH  22  23
ENDBRANCH  21  22
ENDBRANCH  20  21
ENDBRANCH  19  20
ENDBRANCH  18  19
ENDBRANCH   1  18
TORSDOF 28
ENDMDL
MODEL 2
REMARK VINA RESULT:     0.403      2.011      5.127
REMARK INTER + INTRA:           3.694
REMARK INTER:                   2.949
REMARK INTRA:                   0.745
REMARK UNBOUND:                 2.630
REMARK SMILES CCCCCCCCCCCCCCCCCCCCCCCCCCCCCC(=O)[O-]
REMARK SMILES IDX 16 1 17 2 18 3 19 4 20 5 21 6 22 7 23 8 24 9 25 10 26 11
REMARK SMILES IDX 27 12 28 13 29 14 30 15 31 16 32 17 15 18 14 19 13 20 12 21
REMARK SMILES IDX 11 22 10 23 9 24 8 25 7 26 6 27 5 28 4 29 3 30 2 31 1 32
REMARK H PARENT
REMARK Flexibility Score: inf
ROOT
ATOM      1  C   UNL     1      22.885 -15.158  -0.798  1.00  0.00     0.000 C 
ENDROOT
BRANCH   1   2
ATOM      2  C   UNL     1      22.328 -14.933  -2.213  1.00  0.00     0.000 C 
BRANCH   2   3
ATOM      3  C   UNL     1      23.434 -14.882  -3.282  1.00  0.00     0.000 C 
BRANCH   3   4
ATOM      4  C   UNL     1      23.640 -16.233  -3.982  1.00  0.00     0.000 C 
BRANCH   4   5
ATOM      5  C   UNL     1      24.710 -17.097  -3.292  1.00  0.00     0.000 C 
BRANCH   5   6
ATOM      6  C   UNL     1      26.003 -17.210  -4.116  1.00  0.00     0.000 C 
BRANCH   6   7
ATOM      7  C   UNL     1      27.216 -16.591  -3.401  1.00  0.00     0.000 C 
BRANCH   7   8
ATOM      8  C   UNL     1      27.090 -16.656  -1.870  1.00  0.00     0.000 C 
BRANCH   8   9
ATOM      9  C   UNL     1      28.433 -16.427  -1.153  1.00  0.00     0.000 C 
BRANCH   9  10
ATOM     10  C   UNL     1      28.253 -15.912   0.285  1.00  0.00     0.000 C 
BRANCH  10  11
ATOM     11  C   UNL     1      29.582 -15.823   1.050  1.00  0.00     0.000 C 
BRANCH  11  12
ATOM     12  C   UNL     1      30.635 -15.056   0.236  1.00  0.00     0.000 C 
BRANCH  12  13
ATOM     13  C   UNL     1      31.087 -13.757   0.924  1.00  0.00     0.006 C 
BRANCH  13  14
ATOM     14  C   UNL     1      30.086 -13.265   1.981  1.00  0.00     0.053 C 
BRANCH  14  15
ATOM     15  C   UNL     1      30.200 -11.783   2.169  1.00  0.00     0.041 C 
ATOM     16  O   UNL     1      31.082 -11.131   1.548  1.00  0.00    -0.550 OA
ATOM     17  O   UNL     1      29.344 -11.123   3.044  1.00  0.00    -0.550 OA
ENDBRANCH  14  15
ENDBRANCH  13  14
ENDBRANCH  12  13
ENDBRANCH  11  12
ENDBRANCH  10  11
ENDBRANCH   9  10
ENDBRANCH   8   9
ENDBRANCH   7   8
ENDBRANCH   6   7
ENDBRANCH   5   6
ENDBRANCH   4   5
ENDBRANCH   3   4
ENDBRANCH   2   3
ENDBRANCH   1   2
BRANCH   1  18
ATOM     18  C   UNL     1      24.251 -14.488  -0.587  1.00  0.00     0.000 C 
BRANCH  18  19
ATOM     19  C   UNL     1      24.300 -13.116  -1.269  1.00  0.00     0.000 C 
BRANCH  19  20
ATOM     20  C   UNL     1      25.615 -12.389  -0.948  1.00  0.00     0.000 C 
BRANCH  20  21
ATOM     21  C   UNL     1      26.601 -13.273  -0.168  1.00  0.00     0.000 C 
BRANCH  21  22
ATOM     22  C   UNL     1      27.623 -13.967  -1.086  1.00  0.00     0.000 C 
BRANCH  22  23
ATOM     23  C   UNL     1      28.112 -13.053  -2.220  1.00  0.00     0.000 C 
BRANCH  23  24
ATOM     24  C   UNL     1      29.583 -12.638  -2.052  1.00  0.00    -0.000 C 
BRANCH  24  25
ATOM     25  C   UNL     1      30.244 -12.244  -3.385  1.00  0.00    -0.000 C 
BRANCH  25  26
ATOM     26  C   UNL     1      30.941 -13.420  -4.102  1.00  0.00    -0.000 C 
BRANCH  26  27
ATOM     27  C   UNL     1      30.185 -14.747  -3.917  1.00  0.00    -0.000 C 
BRANCH  27  28
ATOM     28  C   UNL     1      31.125 -15.937  -3.652  1.00  0.00    -0.000 C 
BRANCH  28  29
ATOM     29  C   UNL     1      30.649 -16.914  -2.558  1.00  0.00    -0.000 C 
BRANCH  29  30
ATOM     30  C   UNL     1      30.864 -18.408  -2.871  1.00  0.00    -0.000 C 
BRANCH  30  31
ATOM     31  C   UNL     1      30.631 -19.358  -1.684  1.00  0.00    -0.003 C 
ATOM     32  C   UNL     1      30.909 -18.701  -0.333  1.00  0.00     0.004 C 
ENDBRANCH  30  31
ENDBRANCH  29  30
ENDBRANCH  28  29
ENDBRANCH  27  28
ENDBRANCH  26  27
ENDBRANCH  25  26
ENDBRANCH  24  25
ENDBRANCH  23  24
ENDBRANCH  22  23
ENDBRANCH  21  22
ENDBRANCH  20  21
ENDBRANCH  19  20
ENDBRANCH  18  19
ENDBRANCH   1  18
TORSDOF 28
ENDMDL
MODEL 3
REMARK VINA RESULT:     2.419      1.537      2.583
REMARK INTER + INTRA:           9.008
REMARK INTER:                   4.494
REMARK INTRA:                   4.514
REMARK UNBOUND:                 2.630
REMARK SMILES CCCCCCCCCCCCCCCCCCCCCCCCCCCCCC(=O)[O-]
REMARK SMILES IDX 16 1 17 2 18 3 19 4 20 5 21 6 22 7 23 8 24 9 25 10 26 11
REMARK SMILES IDX 27 12 28 13 29 14 30 15 31 16 32 17 15 18 14 19 13 20 12 21
REMARK SMILES IDX 11 22 10 23 9 24 8 25 7 26 6 27 5 28 4 29 3 30 2 31 1 32
REMARK H PARENT
REMARK Flexibility Score: inf
ROOT
ATOM      1  C   UNL     1      26.275 -15.699  -3.987  1.00  0.00     0.000 C 
ENDROOT
BRANCH   1   2
ATOM      2  C   UNL     1      26.508 -16.993  -3.189  1.00  0.00     0.000 C 
BRANCH   2   3
ATOM      3  C   UNL     1      28.001 -17.283  -2.958  1.00  0.00     0.000 C 
BRANCH   3   4
ATOM      4  C   UNL     1      28.914 -16.248  -3.633  1.00  0.00     0.000 C 
BRANCH   4   5
ATOM      5  C   UNL     1      30.360 -16.751  -3.788  1.00  0.00     0.000 C 
BRANCH   5   6
ATOM      6  C   UNL     1      30.515 -18.234  -3.418  1.00  0.00     0.000 C 
BRANCH   6   7
ATOM      7  C   UNL     1      29.657 -18.634  -2.206  1.00  0.00     0.000 C 
BRANCH   7   8
ATOM      8  C   UNL     1      30.331 -18.284  -0.869  1.00  0.00     0.000 C 
BRANCH   8   9
ATOM      9  C   UNL     1      31.122 -16.964  -0.930  1.00  0.00     0.000 C 
BRANCH   9  10
ATOM     10  C   UNL     1      30.482 -15.854  -0.080  1.00  0.00     0.000 C 
BRANCH  10  11
ATOM     11  C   UNL     1      28.963 -15.756  -0.284  1.00  0.00     0.000 C 
BRANCH  11  12
ATOM     12  C   UNL     1      28.627 -14.895  -1.511  1.00  0.00     0.000 C 
BRANCH  12  13
ATOM     13  C   UNL     1      28.960 -13.408  -1.301  1.00  0.00     0.006 C 
BRANCH  13  14
ATOM     14  C   UNL     1      30.371 -13.041  -1.785  1.00  0.00     0.053 C 
BRANCH  14  15
ATOM     15  C   UNL     1      30.316 -12.382  -3.129  1.00  0.00     0.041 C 
ATOM     16  O   UNL     1      31.122 -11.457  -3.414  1.00  0.00    -0.550 OA
ATOM     17  O   UNL     1      29.362 -12.776  -4.061  1.00  0.00    -0.550 OA
ENDBRANCH  14  15
ENDBRANCH  13  14
ENDBRANCH  12  13
ENDBRANCH  11  12
ENDBRANCH  10  11
ENDBRANCH   9  10
ENDBRANCH   8   9
ENDBRANCH   7   8
ENDBRANCH   6   7
ENDBRANCH   5   6
ENDBRANCH   4   5
ENDBRANCH   3   4
ENDBRANCH   2   3
ENDBRANCH   1   2
BRANCH   1  18
ATOM     18  C   UNL     1      24.823 -15.207  -3.903  1.00  0.00     0.000 C 
BRANCH  18  19
ATOM     19  C   UNL     1      24.766 -13.679  -3.803  1.00  0.00     0.000 C 
BRANCH  19  20
ATOM     20  C   UNL     1      23.872 -13.238  -2.634  1.00  0.00     0.000 C 
BRANCH  20  21
ATOM     21  C   UNL     1      24.432 -13.667  -1.269  1.00  0.00     0.000 C 
BRANCH  21  22
ATOM     22  C   UNL     1      25.307 -12.579  -0.622  1.00  0.00     0.000 C 
BRANCH  22  23
ATOM     23  C   UNL     1      26.775 -13.013  -0.480  1.00  0.00     0.000 C 
BRANCH  23  24
ATOM     24  C   UNL     1      27.409 -12.532   0.835  1.00  0.00    -0.000 C 
BRANCH  24  25
ATOM     25  C   UNL     1      27.226 -13.538   1.986  1.00  0.00    -0.000 C 
BRANCH  25  26
ATOM     26  C   UNL     1      28.556 -14.052   2.577  1.00  0.00    -0.000 C 
BRANCH  26  27
ATOM     27  C   UNL     1      29.781 -13.469   1.851  1.00  0.00    -0.000 C 
BRANCH  27  28
ATOM     28  C   UNL     1      30.580 -12.486   2.726  1.00  0.00    -0.000 C 
BRANCH  28  29
ATOM     29  C   UNL     1      31.125 -11.248   1.986  1.00  0.00    -0.000 C 
BRANCH  29  30
ATOM     30  C   UNL     1      30.424 -10.915   0.654  1.00  0.00    -0.000 C 
BRANCH  30  31
ATOM     31  C   UNL     1      30.845  -9.581   0.015  1.00  0.00    -0.003 C 
ATOM     32  C   UNL     1      30.159  -9.321  -1.326  1.00  0.00     0.004 C 
ENDBRANCH  30  31
ENDBRANCH  29  30
ENDBRANCH  28  29
ENDBRANCH  27  28
ENDBRANCH  26  27
ENDBRANCH  25  26
ENDBRANCH  24  25
ENDBRANCH  23  24
ENDBRANCH  22  23
ENDBRANCH  21  22
ENDBRANCH  20  21
ENDBRANCH  19  20
ENDBRANCH  18  19
ENDBRANCH   1  18
TORSDOF 28
ENDMDL
MODEL 4
REMARK VINA RESULT:     2.636      2.065      5.256
REMARK INTER + INTRA:           9.582
REMARK INTER:                   9.057
REMARK INTRA:                   0.525
REMARK UNBOUND:                 2.630
REMARK SMILES CCCCCCCCCCCCCCCCCCCCCCCCCCCCCC(=O)[O-]
REMARK SMILES IDX 16 1 17 2 18 3 19 4 20 5 21 6 22 7 23 8 24 9 25 10 26 11
REMARK SMILES IDX 27 12 28 13 29 14 30 15 31 16 32 17 15 18 14 19 13 20 12 21
REMARK SMILES IDX 11 22 10 23 9 24 8 25 7 26 6 27 5 28 4 29 3 30 2 31 1 32
REMARK H PARENT
REMARK Flexibility Score: inf
ROOT
ATOM      1  C   UNL     1      24.571 -14.247  -2.043  1.00  0.00     0.000 C 
ENDROOT
BRANCH   1   2
ATOM      2  C   UNL     1      25.662 -13.164  -2.022  1.00  0.00     0.000 C 
BRANCH   2   3
ATOM      3  C   UNL     1      25.606 -12.295  -0.753  1.00  0.00     0.000 C 
BRANCH   3   4
ATOM      4  C   UNL     1      24.947 -13.021   0.429  1.00  0.00     0.000 C 
BRANCH   4   5
ATOM      5  C   UNL     1      25.020 -12.208   1.734  1.00  0.00     0.000 C 
BRANCH   5   6
ATOM      6  C   UNL     1      26.136 -12.694   2.673  1.00  0.00     0.000 C 
BRANCH   6   7
ATOM      7  C   UNL     1      27.201 -13.529   1.943  1.00  0.00     0.000 C 
BRANCH   7   8
ATOM      8  C   UNL     1      28.143 -12.662   1.090  1.00  0.00     0.000 C 
BRANCH   8   9
ATOM      9  C   UNL     1      28.665 -13.401  -0.155  1.00  0.00     0.000 C 
BRANCH   9  10
ATOM     10  C   UNL     1      30.071 -13.988   0.054  1.00  0.00     0.000 C 
BRANCH  10  11
ATOM     11  C   UNL     1      31.122 -12.908   0.353  1.00  0.00     0.000 C 
BRANCH  11  12
ATOM     12  C   UNL     1      30.886 -11.657  -0.507  1.00  0.00     0.000 C 
BRANCH  12  13
ATOM     13  C   UNL     1      30.233 -10.509   0.282  1.00  0.00     0.006 C 
BRANCH  13  14
ATOM     14  C   UNL     1      31.119  -9.996   1.427  1.00  0.00     0.053 C 
BRANCH  14  15
ATOM     15  C   UNL     1      30.680 -10.576   2.737  1.00  0.00     0.041 C 
ATOM     16  O   UNL     1      30.133 -11.710   2.776  1.00  0.00    -0.550 OA
ATOM     17  O   UNL     1      30.857  -9.855   3.913  1.00  0.00    -0.550 OA
ENDBRANCH  14  15
ENDBRANCH  13  14
ENDBRANCH  12  13
ENDBRANCH  11  12
ENDBRANCH  10  11
ENDBRANCH   9  10
ENDBRANCH   8   9
ENDBRANCH   7   8
ENDBRANCH   6   7
ENDBRANCH   5   6
ENDBRANCH   4   5
ENDBRANCH   3   4
ENDBRANCH   2   3
ENDBRANCH   1   2
BRANCH   1  18
ATOM     18  C   UNL     1      23.568 -14.053  -3.189  1.00  0.00     0.000 C 
BRANCH  18  19
ATOM     19  C   UNL     1      23.104 -15.403  -3.746  1.00  0.00     0.000 C 
BRANCH  19  20
ATOM     20  C   UNL     1      23.325 -16.526  -2.721  1.00  0.00     0.000 C 
BRANCH  20  21
ATOM     21  C   UNL     1      24.581 -17.358  -3.020  1.00  0.00     0.000 C 
BRANCH  21  22
ATOM     22  C   UNL     1      25.560 -16.632  -3.961  1.00  0.00     0.000 C 
BRANCH  22  23
ATOM     23  C   UNL     1      26.890 -16.288  -3.273  1.00  0.00     0.000 C 
BRANCH  23  24
ATOM     24  C   UNL     1      27.798 -17.517  -3.095  1.00  0.00    -0.000 C 
BRANCH  24  25
ATOM     25  C   UNL     1      28.637 -17.453  -1.807  1.00  0.00    -0.000 C 
BRANCH  25  26
ATOM     26  C   UNL     1      30.139 -17.734  -2.031  1.00  0.00    -0.000 C 
BRANCH  26  27
ATOM     27  C   UNL     1      31.006 -16.484  -1.800  1.00  0.00    -0.000 C 
BRANCH  27  28
ATOM     28  C   UNL     1      31.036 -15.546  -3.020  1.00  0.00    -0.000 C 
BRANCH  28  29
ATOM     29  C   UNL     1      29.654 -15.076  -3.517  1.00  0.00    -0.000 C 
BRANCH  29  30
ATOM     30  C   UNL     1      29.593 -13.619  -4.016  1.00  0.00    -0.000 C 
BRANCH  30  31
ATOM     31  C   UNL     1      30.888 -12.813  -3.821  1.00  0.00    -0.003 C 
ATOM     32  C   UNL     1      30.714 -11.325  -4.125  1.00  0.00     0.004 C 
ENDBRANCH  30  31
ENDBRANCH  29  30
ENDBRANCH  28  29
ENDBRANCH  27  28
ENDBRANCH  26  27
ENDBRANCH  25  26
ENDBRANCH  24  25
ENDBRANCH  23  24
ENDBRANCH  22  23
ENDBRANCH  21  22
ENDBRANCH  20  21
ENDBRANCH  19  20
ENDBRANCH  18  19
ENDBRANCH   1  18
TORSDOF 28
ENDMDL
