MODEL 1
REMARK VINA RESULT:    -4.435      0.000      0.000
REMARK INTER + INTRA:          -6.358
REMARK INTER:                  -5.472
REMARK INTRA:                  -0.886
REMARK UNBOUND:                -0.886
REMARK SMILES C=CC(=C)CCC=C(C)C
REMARK SMILES IDX 5 1 6 2 7 3 9 4 8 5 10 6 3 7 4 8 2 9 1 10
REMARK H PARENT
REMARK Flexibility Score: inf
ROOT
ATOM      1  C   UNL     1     101.372 105.264 128.985  1.00  0.00     0.039 C 
ENDROOT
BRANCH   1   2
ATOM      2  C   UNL     1     100.700 104.969 127.637  1.00  0.00     0.032 C 
BRANCH   2   3
ATOM      3  C   UNL     1     101.722 104.839 126.531  1.00  0.00    -0.028 C 
ATOM      4  C   UNL     1     103.022 105.499 124.553  1.00  0.00     0.039 C 
ATOM      5  C   UNL     1     101.921 105.749 125.551  1.00  0.00    -0.080 C 
ATOM      6  C   UNL     1     101.081 106.997 125.433  1.00  0.00     0.039 C 
ENDBRANCH   2   3
ENDBRANCH   1   2
BRANCH   1   7
ATOM      7  C   UNL     1     101.490 106.752 129.247  1.00  0.00    -0.055 C 
ATOM      8  C   UNL     1     100.383 107.460 129.496  1.00  0.00     0.012 C 
BRANCH   7   9
ATOM      9  C   UNL     1     102.803 107.450 129.274  1.00  0.00    -0.005 C 
ATOM     10  C   UNL     1     103.414 107.932 128.192  1.00  0.00     0.009 C 
ENDBRANCH   7   9
ENDBRANCH   1   7
TORSDOF 4
ENDMDL
MODEL 2
REMARK VINA RESULT:    -4.407      7.869      9.478
REMARK INTER + INTRA:          -6.323
REMARK INTER:                  -5.412
REMARK INTRA:                  -0.910
REMARK UNBOUND:                -0.886
REMARK SMILES C=CC(=C)CCC=C(C)C
REMARK SMILES IDX 5 1 6 2 7 3 9 4 8 5 10 6 3 7 4 8 2 9 1 10
REMARK H PARENT
REMARK Flexibility Score: inf
ROOT
ATOM      1  C   UNL     1     111.461 107.202 129.071  1.00  0.00     0.039 C 
ENDROOT
BRANCH   1   2
ATOM      2  C   UNL     1     112.012 107.500 127.670  1.00  0.00     0.032 C 
BRANCH   2   3
ATOM      3  C   UNL     1     110.895 107.682 126.668  1.00  0.00    -0.028 C 
ATOM      4  C   UNL     1     109.426 107.119 124.781  1.00  0.00     0.039 C 
ATOM      5  C   UNL     1     110.613 106.824 125.662  1.00  0.00    -0.080 C 
ATOM      6  C   UNL     1     111.442 105.591 125.402  1.00  0.00     0.039 C 
ENDBRANCH   2   3
ENDBRANCH   1   2
BRANCH   1   7
ATOM      7  C   UNL     1     111.133 105.734 129.252  1.00  0.00    -0.055 C 
ATOM      8  C   UNL     1     112.129 104.864 129.457  1.00  0.00     0.012 C 
BRANCH   7   9
ATOM      9  C   UNL     1     109.735 105.228 129.249  1.00  0.00    -0.005 C 
ATOM     10  C   UNL     1     109.188 104.554 128.237  1.00  0.00     0.009 C 
ENDBRANCH   7   9
ENDBRANCH   1   7
TORSDOF 4
ENDMDL
MODEL 3
REMARK VINA RESULT:    -4.390      5.650      6.648
REMARK INTER + INTRA:          -6.302
REMARK INTER:                  -5.406
REMARK INTRA:                  -0.896
REMARK UNBOUND:                -0.886
REMARK SMILES C=CC(=C)CCC=C(C)C
REMARK SMILES IDX 5 1 6 2 7 3 9 4 8 5 10 6 3 7 4 8 2 9 1 10
REMARK H PARENT
REMARK Flexibility Score: inf
ROOT
ATOM      1  C   UNL     1     105.299 111.207 129.022  1.00  0.00     0.039 C 
ENDROOT
BRANCH   1   2
ATOM      2  C   UNL     1     104.981 111.834 127.658  1.00  0.00     0.032 C 
BRANCH   2   3
ATOM      3  C   UNL     1     104.840 110.777 126.587  1.00  0.00    -0.028 C 
ATOM      4  C   UNL     1     105.455 109.451 124.613  1.00  0.00     0.039 C 
ATOM      5  C   UNL     1     105.707 110.589 125.567  1.00  0.00    -0.080 C 
ATOM      6  C   UNL     1     106.910 111.477 125.363  1.00  0.00     0.039 C 
ENDBRANCH   2   3
ENDBRANCH   1   2
BRANCH   1   7
ATOM      7  C   UNL     1     106.788 111.008 129.222  1.00  0.00    -0.055 C 
ATOM      8  C   UNL     1     107.566 112.076 129.433  1.00  0.00     0.012 C 
BRANCH   7   9
ATOM      9  C   UNL     1     107.413 109.659 129.231  1.00  0.00    -0.005 C 
ATOM     10  C   UNL     1     107.981 109.093 128.165  1.00  0.00     0.009 C 
ENDBRANCH   7   9
ENDBRANCH   1   7
TORSDOF 4
ENDMDL
MODEL 4
REMARK VINA RESULT:    -4.304      5.632      6.608
REMARK INTER + INTRA:          -6.196
REMARK INTER:                  -5.303
REMARK INTRA:                  -0.893
REMARK UNBOUND:                -0.886
REMARK SMILES C=CC(=C)CCC=C(C)C
REMARK SMILES IDX 5 1 6 2 7 3 9 4 8 5 10 6 3 7 4 8 2 9 1 10
REMARK H PARENT
REMARK Flexibility Score: inf
ROOT
ATOM      1  C   UNL     1     107.263 101.390 128.846  1.00  0.00     0.039 C 
ENDROOT
BRANCH   1   2
ATOM      2  C   UNL     1     107.512 100.714 127.491  1.00  0.00     0.032 C 
BRANCH   2   3
ATOM      3  C   UNL     1     107.587 101.731 126.376  1.00  0.00    -0.028 C 
ATOM      4  C   UNL     1     106.826 103.031 124.436  1.00  0.00     0.039 C 
ATOM      5  C   UNL     1     106.624 101.936 125.451  1.00  0.00    -0.080 C 
ATOM      6  C   UNL     1     105.363 101.108 125.408  1.00  0.00     0.039 C 
ENDBRANCH   2   3
ENDBRANCH   1   2
BRANCH   1   7
ATOM      7  C   UNL     1     105.788 101.461 129.183  1.00  0.00    -0.055 C 
ATOM      8  C   UNL     1     105.120 100.329 129.435  1.00  0.00     0.012 C 
BRANCH   7   9
ATOM      9  C   UNL     1     105.058 102.753 129.281  1.00  0.00    -0.005 C 
ATOM     10  C   UNL     1     104.827 103.559 128.244  1.00  0.00     0.009 C 
ENDBRANCH   7   9
ENDBRANCH   1   7
TORSDOF 4
ENDMDL
MODEL 5
REMARK VINA RESULT:    -4.241      4.186      5.459
REMARK INTER + INTRA:          -6.118
REMARK INTER:                  -5.885
REMARK INTRA:                  -0.233
REMARK UNBOUND:                -0.886
REMARK SMILES C=CC(=C)CCC=C(C)C
REMARK SMILES IDX 5 1 6 2 7 3 9 4 8 5 10 6 3 7 4 8 2 9 1 10
REMARK H PARENT
REMARK Flexibility Score: inf
ROOT
ATOM      1  C   UNL     1     104.952 103.308 128.901  1.00  0.00     0.039 C 
ENDROOT
BRANCH   1   2
ATOM      2  C   UNL     1     104.001 103.997 127.914  1.00  0.00     0.032 C 
BRANCH   2   3
ATOM      3  C   UNL     1     102.741 104.469 128.602  1.00  0.00    -0.028 C 
ATOM      4  C   UNL     1     100.404 105.197 128.806  1.00  0.00     0.039 C 
ATOM      5  C   UNL     1     101.594 104.800 127.970  1.00  0.00    -0.080 C 
ATOM      6  C   UNL     1     101.471 104.781 126.466  1.00  0.00     0.039 C 
ENDBRANCH   2   3
ENDBRANCH   1   2
BRANCH   1   7
ATOM      7  C   UNL     1     105.442 101.972 128.380  1.00  0.00    -0.055 C 
ATOM      8  C   UNL     1     105.376 101.720 127.068  1.00  0.00     0.012 C 
BRANCH   7   9
ATOM      9  C   UNL     1     106.031 100.940 129.274  1.00  0.00    -0.005 C 
ATOM     10  C   UNL     1     107.320 100.601 129.273  1.00  0.00     0.009 C 
ENDBRANCH   7   9
ENDBRANCH   1   7
TORSDOF 4
ENDMDL
MODEL 6
REMARK VINA RESULT:    -4.239      4.820      6.601
REMARK INTER + INTRA:          -6.116
REMARK INTER:                  -5.209
REMARK INTRA:                  -0.907
REMARK UNBOUND:                -0.886
REMARK SMILES C=CC(=C)CCC=C(C)C
REMARK SMILES IDX 5 1 6 2 7 3 9 4 8 5 10 6 3 7 4 8 2 9 1 10
REMARK H PARENT
REMARK Flexibility Score: inf
ROOT
ATOM      1  C   UNL     1     107.073 111.625 128.710  1.00  0.00     0.039 C 
ENDROOT
BRANCH   1   2
ATOM      2  C   UNL     1     107.405 110.280 129.371  1.00  0.00     0.032 C 
BRANCH   2   3
ATOM      3  C   UNL     1     107.743 109.229 128.339  1.00  0.00    -0.028 C 
ATOM      4  C   UNL     1     107.372 107.317 126.842  1.00  0.00     0.039 C 
ATOM      5  C   UNL     1     106.904 108.255 127.925  1.00  0.00    -0.080 C 
ATOM      6  C   UNL     1     105.522 108.084 128.509  1.00  0.00     0.039 C 
ENDBRANCH   2   3
ENDBRANCH   1   2
BRANCH   1   7
ATOM      7  C   UNL     1     105.604 111.736 128.358  1.00  0.00    -0.055 C 
ATOM      8  C   UNL     1     104.715 111.968 129.330  1.00  0.00     0.012 C 
BRANCH   7   9
ATOM      9  C   UNL     1     105.115 111.635 126.957  1.00  0.00    -0.005 C 
ATOM     10  C   UNL     1     105.900 111.382 125.910  1.00  0.00     0.009 C 
ENDBRANCH   7   9
ENDBRANCH   1   7
TORSDOF 4
ENDMDL
MODEL 7
REMARK VINA RESULT:    -4.233      2.308      4.755
REMARK INTER + INTRA:          -6.108
REMARK INTER:                  -5.875
REMARK INTRA:                  -0.233
REMARK UNBOUND:                -0.886
REMARK SMILES C=CC(=C)CCC=C(C)C
REMARK SMILES IDX 5 1 6 2 7 3 9 4 8 5 10 6 3 7 4 8 2 9 1 10
REMARK H PARENT
REMARK Flexibility Score: inf
ROOT
ATOM      1  C   UNL     1     103.094 107.580 129.058  1.00  0.00     0.039 C 
ENDROOT
BRANCH   1   2
ATOM      2  C   UNL     1     103.868 108.383 128.005  1.00  0.00     0.032 C 
BRANCH   2   3
ATOM      3  C   UNL     1     104.393 109.679 128.580  1.00  0.00    -0.028 C 
ATOM      4  C   UNL     1     105.243 111.984 128.573  1.00  0.00     0.039 C 
ATOM      5  C   UNL     1     104.800 110.740 127.847  1.00  0.00    -0.080 C 
ATOM      6  C   UNL     1     104.822 110.713 126.339  1.00  0.00     0.039 C 
ENDBRANCH   2   3
ENDBRANCH   1   2
BRANCH   1   7
ATOM      7  C   UNL     1     101.823 106.978 128.492  1.00  0.00    -0.055 C 
ATOM      8  C   UNL     1     101.572 107.096 127.183  1.00  0.00     0.012 C 
BRANCH   7   9
ATOM      9  C   UNL     1     100.859 106.224 129.337  1.00  0.00    -0.005 C 
ATOM     10  C   UNL     1     100.550 104.941 129.152  1.00  0.00     0.009 C 
ENDBRANCH   7   9
ENDBRANCH   1   7
TORSDOF 4
ENDMDL
MODEL 8
REMARK VINA RESULT:    -4.193      6.810      8.034
REMARK INTER + INTRA:          -6.059
REMARK INTER:                  -5.830
REMARK INTRA:                  -0.230
REMARK UNBOUND:                -0.886
REMARK SMILES C=CC(=C)CCC=C(C)C
REMARK SMILES IDX 5 1 6 2 7 3 9 4 8 5 10 6 3 7 4 8 2 9 1 10
REMARK H PARENT
REMARK Flexibility Score: inf
ROOT
ATOM      1  C   UNL     1     107.535 109.303 128.931  1.00  0.00     0.039 C 
ENDROOT
BRANCH   1   2
ATOM      2  C   UNL     1     108.416 108.587 127.898  1.00  0.00     0.032 C 
BRANCH   2   3
ATOM      3  C   UNL     1     109.704 108.098 128.519  1.00  0.00    -0.028 C 
ATOM      4  C   UNL     1     112.017 107.273 128.593  1.00  0.00     0.039 C 
ATOM      5  C   UNL     1     110.784 107.675 127.825  1.00  0.00    -0.080 C 
ATOM      6  C   UNL     1     110.790 107.598 126.317  1.00  0.00     0.039 C 
ENDBRANCH   2   3
ENDBRANCH   1   2
BRANCH   1   7
ATOM      7  C   UNL     1     106.985 110.611 128.400  1.00  0.00    -0.055 C 
ATOM      8  C   UNL     1     107.115 110.893 127.099  1.00  0.00     0.012 C 
BRANCH   7   9
ATOM      9  C   UNL     1     106.267 111.580 129.270  1.00  0.00    -0.005 C 
ATOM     10  C   UNL     1     104.989 111.923 129.109  1.00  0.00     0.009 C 
ENDBRANCH   7   9
ENDBRANCH   1   7
TORSDOF 4
ENDMDL
MODEL 9
REMARK VINA RESULT:    -4.168      7.108      9.148
REMARK INTER + INTRA:          -6.028
REMARK INTER:                  -5.348
REMARK INTRA:                  -0.680
REMARK UNBOUND:                -0.886
REMARK SMILES C=CC(=C)CCC=C(C)C
REMARK SMILES IDX 5 1 6 2 7 3 9 4 8 5 10 6 3 7 4 8 2 9 1 10
REMARK H PARENT
REMARK Flexibility Score: inf
ROOT
ATOM      1  C   UNL     1     111.259 107.525 126.907  1.00  0.00     0.039 C 
ENDROOT
BRANCH   1   2
ATOM      2  C   UNL     1     109.753 107.407 126.640  1.00  0.00     0.032 C 
BRANCH   2   3
ATOM      3  C   UNL     1     108.965 108.369 127.499  1.00  0.00    -0.028 C 
ATOM      4  C   UNL     1     107.492 109.095 129.326  1.00  0.00     0.039 C 
ATOM      5  C   UNL     1     108.164 108.009 128.527  1.00  0.00    -0.080 C 
ATOM      6  C   UNL     1     107.930 106.564 128.894  1.00  0.00     0.039 C 
ENDBRANCH   2   3
ENDBRANCH   1   2
BRANCH   1   7
ATOM      7  C   UNL     1     111.646 106.934 128.248  1.00  0.00    -0.055 C 
ATOM      8  C   UNL     1     112.041 107.750 129.231  1.00  0.00     0.012 C 
BRANCH   7   9
ATOM      9  C   UNL     1     111.565 105.475 128.523  1.00  0.00    -0.005 C 
ATOM     10  C   UNL     1     112.049 104.896 129.622  1.00  0.00     0.009 C 
ENDBRANCH   7   9
ENDBRANCH   1   7
TORSDOF 4
ENDMDL
