MODEL 1
REMARK VINA RESULT:    -5.856      0.000      0.000
REMARK INTER + INTRA:          -6.413
REMARK INTER:                  -6.370
REMARK INTRA:                  -0.044
REMARK UNBOUND:                -0.044
REMARK SMILES COc1cc2ccc(=O)oc2cc1O
REMARK SMILES IDX 3 1 13 2 12 3 11 4 5 5 4 6 6 7 7 8 8 9 9 10 10 11 2 12 1 13
REMARK SMILES IDX 14 14
REMARK H PARENT 14 15
REMARK Flexibility Score: inf
ROOT
ATOM      1  C   UNL     1       5.030   3.011  16.715  1.00  0.00     0.161 A 
ATOM      2  C   UNL     1       4.798   3.912  15.657  1.00  0.00     0.161 A 
ATOM      3  C   UNL     1       5.550   5.088  15.555  1.00  0.00     0.098 A 
ATOM      4  C   UNL     1       6.537   5.381  16.498  1.00  0.00     0.142 A 
ATOM      5  C   UNL     1       6.777   4.485  17.561  1.00  0.00     0.022 A 
ATOM      6  C   UNL     1       6.027   3.306  17.668  1.00  0.00     0.062 A 
ATOM      7  C   UNL     1       7.772   4.805  18.491  1.00  0.00     0.019 A 
ATOM      8  C   UNL     1       8.492   5.990  18.342  1.00  0.00     0.094 A 
ATOM      9  C   UNL     1       8.199   6.830  17.263  1.00  0.00     0.336 A 
ATOM     10  O   UNL     1       8.837   7.905  17.111  1.00  0.00    -0.246 OA
ATOM     11  O   UNL     1       7.247   6.502  16.393  1.00  0.00    -0.423 OA
ENDROOT
BRANCH   1  12
ATOM     12  O   UNL     1       4.257   1.840  16.787  1.00  0.00    -0.493 OA
ATOM     13  C   UNL     1       4.567   0.717  17.606  1.00  0.00     0.278 C 
ENDBRANCH   1  12
BRANCH   2  14
ATOM     14  O   UNL     1       3.821   3.655  14.695  1.00  0.00    -0.504 OA
ATOM     15  H   UNL     1       2.973   4.203  14.627  1.00  0.00     0.293 HD
ENDBRANCH   2  14
TORSDOF 2
ENDMDL
MODEL 2
REMARK VINA RESULT:    -5.262      2.268      2.293
REMARK INTER + INTRA:          -5.768
REMARK INTER:                  -5.717
REMARK INTRA:                  -0.051
REMARK UNBOUND:                -0.044
REMARK SMILES COc1cc2ccc(=O)oc2cc1O
REMARK SMILES IDX 3 1 13 2 12 3 11 4 5 5 4 6 6 7 7 8 8 9 9 10 10 11 2 12 1 13
REMARK SMILES IDX 14 14
REMARK H PARENT 14 15
REMARK Flexibility Score: inf
ROOT
ATOM      1  C   UNL     1       4.364   3.372  16.916  1.00  0.00     0.161 A 
ATOM      2  C   UNL     1       4.105   4.158  15.777  1.00  0.00     0.161 A 
ATOM      3  C   UNL     1       4.232   5.551  15.836  1.00  0.00     0.098 A 
ATOM      4  C   UNL     1       4.616   6.175  17.025  1.00  0.00     0.142 A 
ATOM      5  C   UNL     1       4.878   5.397  18.172  1.00  0.00     0.022 A 
ATOM      6  C   UNL     1       4.753   4.002  18.117  1.00  0.00     0.062 A 
ATOM      7  C   UNL     1       5.262   6.051  19.348  1.00  0.00     0.019 A 
ATOM      8  C   UNL     1       5.372   7.441  19.353  1.00  0.00     0.094 A 
ATOM      9  C   UNL     1       5.097   8.147  18.177  1.00  0.00     0.336 A 
ATOM     10  O   UNL     1       5.191   9.403  18.161  1.00  0.00    -0.246 OA
ATOM     11  O   UNL     1       4.734   7.500  17.073  1.00  0.00    -0.423 OA
ENDROOT
BRANCH   1  12
ATOM     12  O   UNL     1       4.228   1.978  16.822  1.00  0.00    -0.493 OA
ATOM     13  C   UNL     1       5.180   1.037  17.306  1.00  0.00     0.278 C 
ENDBRANCH   1  12
BRANCH   2  14
ATOM     14  O   UNL     1       3.720   3.571  14.572  1.00  0.00    -0.504 OA
ATOM     15  H   UNL     1       4.139   3.829  13.687  1.00  0.00     0.293 HD
ENDBRANCH   2  14
TORSDOF 2
ENDMDL
MODEL 3
REMARK VINA RESULT:    -5.242      2.580      2.730
REMARK INTER + INTRA:          -5.745
REMARK INTER:                  -5.702
REMARK INTRA:                  -0.044
REMARK UNBOUND:                -0.044
REMARK SMILES COc1cc2ccc(=O)oc2cc1O
REMARK SMILES IDX 3 1 13 2 12 3 11 4 5 5 4 6 6 7 7 8 8 9 9 10 10 11 2 12 1 13
REMARK SMILES IDX 14 14
REMARK H PARENT 14 15
REMARK Flexibility Score: inf
ROOT
ATOM      1  C   UNL     1       4.653   3.140  17.773  1.00  0.00     0.161 A 
ATOM      2  C   UNL     1       4.090   4.354  17.333  1.00  0.00     0.161 A 
ATOM      3  C   UNL     1       4.370   5.548  18.007  1.00  0.00     0.098 A 
ATOM      4  C   UNL     1       5.209   5.549  19.124  1.00  0.00     0.142 A 
ATOM      5  C   UNL     1       5.778   4.339  19.573  1.00  0.00     0.022 A 
ATOM      6  C   UNL     1       5.501   3.142  18.900  1.00  0.00     0.062 A 
ATOM      7  C   UNL     1       6.615   4.373  20.694  1.00  0.00     0.019 A 
ATOM      8  C   UNL     1       6.860   5.589  21.329  1.00  0.00     0.094 A 
ATOM      9  C   UNL     1       6.261   6.749  20.827  1.00  0.00     0.336 A 
ATOM     10  O   UNL     1       6.470   7.858  21.387  1.00  0.00    -0.246 OA
ATOM     11  O   UNL     1       5.469   6.689  19.760  1.00  0.00    -0.423 OA
ENDROOT
BRANCH   1  12
ATOM     12  O   UNL     1       4.352   1.961  17.073  1.00  0.00    -0.493 OA
ATOM     13  C   UNL     1       4.675   0.649  17.522  1.00  0.00     0.278 C 
ENDBRANCH   1  12
BRANCH   2  14
ATOM     14  O   UNL     1       3.248   4.394  16.222  1.00  0.00    -0.504 OA
ATOM     15  H   UNL     1       2.260   4.180  16.285  1.00  0.00     0.293 HD
ENDBRANCH   2  14
TORSDOF 2
ENDMDL
MODEL 4
REMARK VINA RESULT:    -5.169      2.816      5.518
REMARK INTER + INTRA:          -5.665
REMARK INTER:                  -5.601
REMARK INTRA:                  -0.065
REMARK UNBOUND:                -0.044
REMARK SMILES COc1cc2ccc(=O)oc2cc1O
REMARK SMILES IDX 3 1 13 2 12 3 11 4 5 5 4 6 6 7 7 8 8 9 9 10 10 11 2 12 1 13
REMARK SMILES IDX 14 14
REMARK H PARENT 14 15
REMARK Flexibility Score: inf
ROOT
ATOM      1  C   UNL     1       6.872   8.949  18.869  1.00  0.00     0.161 A 
ATOM      2  C   UNL     1       5.618   8.715  18.272  1.00  0.00     0.161 A 
ATOM      3  C   UNL     1       5.244   7.417  17.905  1.00  0.00     0.098 A 
ATOM      4  C   UNL     1       6.108   6.343  18.125  1.00  0.00     0.142 A 
ATOM      5  C   UNL     1       7.366   6.567  18.722  1.00  0.00     0.022 A 
ATOM      6  C   UNL     1       7.746   7.864  19.092  1.00  0.00     0.062 A 
ATOM      7  C   UNL     1       8.210   5.470  18.929  1.00  0.00     0.019 A 
ATOM      8  C   UNL     1       7.788   4.199  18.544  1.00  0.00     0.094 A 
ATOM      9  C   UNL     1       6.526   4.052  17.958  1.00  0.00     0.336 A 
ATOM     10  O   UNL     1       6.126   2.913  17.602  1.00  0.00    -0.246 OA
ATOM     11  O   UNL     1       5.744   5.112  17.771  1.00  0.00    -0.423 OA
ENDROOT
BRANCH   1  12
ATOM     12  O   UNL     1       7.216  10.263  19.226  1.00  0.00    -0.493 OA
ATOM     13  C   UNL     1       7.069  10.811  20.532  1.00  0.00     0.278 C 
ENDBRANCH   1  12
BRANCH   2  14
ATOM     14  O   UNL     1       4.727   9.762  18.037  1.00  0.00    -0.504 OA
ATOM     15  H   UNL     1       3.725   9.645  18.116  1.00  0.00     0.293 HD
ENDBRANCH   2  14
TORSDOF 2
ENDMDL
MODEL 5
REMARK VINA RESULT:    -5.163      2.185      2.947
REMARK INTER + INTRA:          -5.659
REMARK INTER:                  -5.614
REMARK INTRA:                  -0.046
REMARK UNBOUND:                -0.044
REMARK SMILES COc1cc2ccc(=O)oc2cc1O
REMARK SMILES IDX 3 1 13 2 12 3 11 4 5 5 4 6 6 7 7 8 8 9 9 10 10 11 2 12 1 13
REMARK SMILES IDX 14 14
REMARK H PARENT 14 15
REMARK Flexibility Score: inf
ROOT
ATOM      1  C   UNL     1       3.139   5.663  16.415  1.00  0.00     0.161 A 
ATOM      2  C   UNL     1       3.842   4.862  15.493  1.00  0.00     0.161 A 
ATOM      3  C   UNL     1       5.241   4.881  15.466  1.00  0.00     0.098 A 
ATOM      4  C   UNL     1       5.955   5.693  16.350  1.00  0.00     0.142 A 
ATOM      5  C   UNL     1       5.261   6.499  17.276  1.00  0.00     0.022 A 
ATOM      6  C   UNL     1       3.860   6.483  17.308  1.00  0.00     0.062 A 
ATOM      7  C   UNL     1       6.003   7.302  18.149  1.00  0.00     0.019 A 
ATOM      8  C   UNL     1       7.395   7.284  18.078  1.00  0.00     0.094 A 
ATOM      9  C   UNL     1       8.016   6.459  17.134  1.00  0.00     0.336 A 
ATOM     10  O   UNL     1       9.272   6.428  17.054  1.00  0.00    -0.246 OA
ATOM     11  O   UNL     1       7.286   5.705  16.316  1.00  0.00    -0.423 OA
ENDROOT
BRANCH   1  12
ATOM     12  O   UNL     1       1.736   5.619  16.415  1.00  0.00    -0.493 OA
ATOM     13  C   UNL     1       0.893   6.710  16.773  1.00  0.00     0.278 C 
ENDBRANCH   1  12
BRANCH   2  14
ATOM     14  O   UNL     1       3.165   4.037  14.595  1.00  0.00    -0.504 OA
ATOM     15  H   UNL     1       3.617   3.638  13.782  1.00  0.00     0.293 HD
ENDBRANCH   2  14
TORSDOF 2
ENDMDL
MODEL 6
REMARK VINA RESULT:    -5.116      3.493      4.761
REMARK INTER + INTRA:          -5.609
REMARK INTER:                  -5.546
REMARK INTRA:                  -0.063
REMARK UNBOUND:                -0.044
REMARK SMILES COc1cc2ccc(=O)oc2cc1O
REMARK SMILES IDX 3 1 13 2 12 3 11 4 5 5 4 6 6 7 7 8 8 9 9 10 10 11 2 12 1 13
REMARK SMILES IDX 14 14
REMARK H PARENT 14 15
REMARK Flexibility Score: inf
ROOT
ATOM      1  C   UNL     1       7.032   5.176  19.226  1.00  0.00     0.161 A 
ATOM      2  C   UNL     1       6.784   5.255  20.610  1.00  0.00     0.161 A 
ATOM      3  C   UNL     1       6.729   6.500  21.247  1.00  0.00     0.098 A 
ATOM      4  C   UNL     1       6.922   7.676  20.518  1.00  0.00     0.142 A 
ATOM      5  C   UNL     1       7.172   7.608  19.132  1.00  0.00     0.022 A 
ATOM      6  C   UNL     1       7.226   6.364  18.490  1.00  0.00     0.062 A 
ATOM      7  C   UNL     1       7.360   8.803  18.429  1.00  0.00     0.019 A 
ATOM      8  C   UNL     1       7.297  10.017  19.113  1.00  0.00     0.094 A 
ATOM      9  C   UNL     1       7.044  10.007  20.488  1.00  0.00     0.336 A 
ATOM     10  O   UNL     1       6.983  11.092  21.124  1.00  0.00    -0.246 OA
ATOM     11  O   UNL     1       6.869   8.856  21.133  1.00  0.00    -0.423 OA
ENDROOT
BRANCH   1  12
ATOM     12  O   UNL     1       7.080   3.911  18.618  1.00  0.00    -0.493 OA
ATOM     13  C   UNL     1       5.979   3.285  17.966  1.00  0.00     0.278 C 
ENDBRANCH   1  12
BRANCH   2  14
ATOM     14  O   UNL     1       6.586   4.104  21.371  1.00  0.00    -0.504 OA
ATOM     15  H   UNL     1       6.603   4.116  22.383  1.00  0.00     0.293 HD
ENDBRANCH   2  14
TORSDOF 2
ENDMDL
MODEL 7
REMARK VINA RESULT:    -5.107      2.039      4.711
REMARK INTER + INTRA:          -5.599
REMARK INTER:                  -5.541
REMARK INTRA:                  -0.058
REMARK UNBOUND:                -0.044
REMARK SMILES COc1cc2ccc(=O)oc2cc1O
REMARK SMILES IDX 3 1 13 2 12 3 11 4 5 5 4 6 6 7 7 8 8 9 9 10 10 11 2 12 1 13
REMARK SMILES IDX 14 14
REMARK H PARENT 14 15
REMARK Flexibility Score: inf
ROOT
ATOM      1  C   UNL     1       7.011   5.126  19.652  1.00  0.00     0.161 A 
ATOM      2  C   UNL     1       7.188   6.084  18.635  1.00  0.00     0.161 A 
ATOM      3  C   UNL     1       6.676   5.854  17.352  1.00  0.00     0.098 A 
ATOM      4  C   UNL     1       5.987   4.674  17.067  1.00  0.00     0.142 A 
ATOM      5  C   UNL     1       5.804   3.707  18.078  1.00  0.00     0.022 A 
ATOM      6  C   UNL     1       6.314   3.934  19.364  1.00  0.00     0.062 A 
ATOM      7  C   UNL     1       5.109   2.535  17.763  1.00  0.00     0.019 A 
ATOM      8  C   UNL     1       4.621   2.356  16.469  1.00  0.00     0.094 A 
ATOM      9  C   UNL     1       4.839   3.357  15.518  1.00  0.00     0.336 A 
ATOM     10  O   UNL     1       4.407   3.215  14.344  1.00  0.00    -0.246 OA
ATOM     11  O   UNL     1       5.505   4.463  15.844  1.00  0.00    -0.423 OA
ENDROOT
BRANCH   1  12
ATOM     12  O   UNL     1       7.536   5.389  20.927  1.00  0.00    -0.493 OA
ATOM     13  C   UNL     1       6.762   5.478  22.118  1.00  0.00     0.278 C 
ENDBRANCH   1  12
BRANCH   2  14
ATOM     14  O   UNL     1       7.870   7.275  18.880  1.00  0.00    -0.504 OA
ATOM     15  H   UNL     1       8.145   7.558  19.813  1.00  0.00     0.293 HD
ENDBRANCH   2  14
TORSDOF 2
ENDMDL
MODEL 8
REMARK VINA RESULT:    -5.094      2.293      3.076
REMARK INTER + INTRA:          -5.584
REMARK INTER:                  -5.524
REMARK INTRA:                  -0.060
REMARK UNBOUND:                -0.044
REMARK SMILES COc1cc2ccc(=O)oc2cc1O
REMARK SMILES IDX 3 1 13 2 12 3 11 4 5 5 4 6 6 7 7 8 8 9 9 10 10 11 2 12 1 13
REMARK SMILES IDX 14 14
REMARK H PARENT 14 15
REMARK Flexibility Score: inf
ROOT
ATOM      1  C   UNL     1       5.617   3.978  17.190  1.00  0.00     0.161 A 
ATOM      2  C   UNL     1       5.100   3.741  18.478  1.00  0.00     0.161 A 
ATOM      3  C   UNL     1       5.324   4.660  19.509  1.00  0.00     0.098 A 
ATOM      4  C   UNL     1       6.063   5.822  19.272  1.00  0.00     0.142 A 
ATOM      5  C   UNL     1       6.585   6.069  17.986  1.00  0.00     0.022 A 
ATOM      6  C   UNL     1       6.362   5.152  16.950  1.00  0.00     0.062 A 
ATOM      7  C   UNL     1       7.320   7.242  17.779  1.00  0.00     0.019 A 
ATOM      8  C   UNL     1       7.515   8.124  18.841  1.00  0.00     0.094 A 
ATOM      9  C   UNL     1       6.967   7.813  20.089  1.00  0.00     0.336 A 
ATOM     10  O   UNL     1       7.131   8.596  21.061  1.00  0.00    -0.246 OA
ATOM     11  O   UNL     1       6.272   6.691  20.259  1.00  0.00    -0.423 OA
ENDROOT
BRANCH   1  12
ATOM     12  O   UNL     1       5.373   3.035  16.179  1.00  0.00    -0.493 OA
ATOM     13  C   UNL     1       4.611   3.289  15.003  1.00  0.00     0.278 C 
ENDBRANCH   1  12
BRANCH   2  14
ATOM     14  O   UNL     1       4.358   2.593  18.754  1.00  0.00    -0.504 OA
ATOM     15  H   UNL     1       3.982   2.401  19.675  1.00  0.00     0.293 HD
ENDBRANCH   2  14
TORSDOF 2
ENDMDL
MODEL 9
REMARK VINA RESULT:    -5.090      1.977      5.208
REMARK INTER + INTRA:          -5.580
REMARK INTER:                  -5.536
REMARK INTRA:                  -0.044
REMARK UNBOUND:                -0.044
REMARK SMILES COc1cc2ccc(=O)oc2cc1O
REMARK SMILES IDX 3 1 13 2 12 3 11 4 5 5 4 6 6 7 7 8 8 9 9 10 10 11 2 12 1 13
REMARK SMILES IDX 14 14
REMARK H PARENT 14 15
REMARK Flexibility Score: inf
ROOT
ATOM      1  C   UNL     1       7.224   7.429  18.812  1.00  0.00     0.161 A 
ATOM      2  C   UNL     1       7.718   7.210  17.511  1.00  0.00     0.161 A 
ATOM      3  C   UNL     1       7.314   6.083  16.784  1.00  0.00     0.098 A 
ATOM      4  C   UNL     1       6.421   5.166  17.340  1.00  0.00     0.142 A 
ATOM      5  C   UNL     1       5.921   5.376  18.643  1.00  0.00     0.022 A 
ATOM      6  C   UNL     1       6.321   6.503  19.374  1.00  0.00     0.062 A 
ATOM      7  C   UNL     1       5.027   4.439  19.172  1.00  0.00     0.019 A 
ATOM      8  C   UNL     1       4.659   3.334  18.406  1.00  0.00     0.094 A 
ATOM      9  C   UNL     1       5.195   3.191  17.122  1.00  0.00     0.336 A 
ATOM     10  O   UNL     1       4.876   2.201  16.413  1.00  0.00    -0.246 OA
ATOM     11  O   UNL     1       6.044   4.097  16.642  1.00  0.00    -0.423 OA
ENDROOT
BRANCH   1  12
ATOM     12  O   UNL     1       7.649   8.569  19.513  1.00  0.00    -0.493 OA
ATOM     13  C   UNL     1       6.971   9.129  20.633  1.00  0.00     0.278 C 
ENDBRANCH   1  12
BRANCH   2  14
ATOM     14  O   UNL     1       8.611   8.103  16.922  1.00  0.00    -0.504 OA
ATOM     15  H   UNL     1       8.312   8.807  16.258  1.00  0.00     0.293 HD
ENDBRANCH   2  14
TORSDOF 2
ENDMDL
