MODEL 1
REMARK VINA RESULT:    -6.675      0.000      0.000
REMARK INTER + INTRA:          -8.338
REMARK INTER:                  -8.041
REMARK INTRA:                  -0.297
REMARK UNBOUND:                -0.297
REMARK SMILES O=c1c(O)c(-c2ccc(O)c(O)c2)oc2cc(O)cc(O)c12
REMARK SMILES IDX 5 1 3 2 2 3 1 4 22 5 20 6 19 7 17 8 16 9 15 10 14 11 6 12
REMARK SMILES IDX 7 13 8 14 9 15 13 16 11 17 10 18 12 20 4 22 21 24 18 26
REMARK H PARENT 10 19 12 21 4 23 21 25 18 27
REMARK Flexibility Score: inf
ROOT
ATOM      1  C   UNL     1     -37.688   4.842  79.366  1.00  0.00     0.180 A 
ATOM      2  C   UNL     1     -38.185   4.764  80.679  1.00  0.00     0.208 A 
ATOM      3  C   UNL     1     -39.461   4.217  80.893  1.00  0.00     0.238 A 
ATOM      4  O   UNL     1     -39.878   4.101  82.075  1.00  0.00    -0.285 OA
ATOM      5  C   UNL     1     -40.229   3.770  79.791  1.00  0.00     0.111 A 
ATOM      6  C   UNL     1     -41.549   3.237  79.887  1.00  0.00     0.134 A 
ATOM      7  C   UNL     1     -42.164   2.705  78.747  1.00  0.00     0.093 A 
ATOM      8  C   UNL     1     -41.532   2.747  77.502  1.00  0.00     0.123 A 
ATOM      9  C   UNL     1     -40.269   3.320  77.387  1.00  0.00     0.094 A 
ATOM     10  C   UNL     1     -39.614   3.825  78.513  1.00  0.00     0.146 A 
ATOM     11  O   UNL     1     -38.406   4.354  78.361  1.00  0.00    -0.452 OA
ENDROOT
BRANCH   1  12
ATOM     12  C   UNL     1     -36.363   5.427  79.059  1.00  0.00     0.025 A 
ATOM     13  C   UNL     1     -35.209   4.643  79.211  1.00  0.00     0.016 A 
ATOM     14  C   UNL     1     -33.950   5.168  78.906  1.00  0.00     0.051 A 
ATOM     15  C   UNL     1     -33.830   6.480  78.430  1.00  0.00     0.157 A 
ATOM     16  C   UNL     1     -36.240   6.737  78.560  1.00  0.00     0.062 A 
ATOM     17  C   UNL     1     -34.977   7.265  78.252  1.00  0.00     0.158 A 
BRANCH  15  18
ATOM     18  O   UNL     1     -32.577   7.009  78.126  1.00  0.00    -0.504 OA
ATOM     19  H   UNL     1     -32.071   7.587  78.788  1.00  0.00     0.293 HD
ENDBRANCH  15  18
BRANCH  17  20
ATOM     20  O   UNL     1     -34.855   8.565  77.766  1.00  0.00    -0.504 OA
ATOM     21  H   UNL     1     -33.951   9.009  77.659  1.00  0.00     0.293 HD
ENDBRANCH  17  20
ENDBRANCH   1  12
BRANCH   2  22
ATOM     22  O   UNL     1     -37.401   5.191  81.754  1.00  0.00    -0.502 OA
ATOM     23  H   UNL     1     -37.412   6.146  82.089  1.00  0.00     0.293 HD
ENDBRANCH   2  22
BRANCH   6  24
ATOM     24  O   UNL     1     -42.305   3.230  81.064  1.00  0.00    -0.507 OA
ATOM     25  H   UNL     1     -42.875   2.459  81.376  1.00  0.00     0.293 HD
ENDBRANCH   6  24
BRANCH   8  26
ATOM     26  O   UNL     1     -42.158   2.230  76.369  1.00  0.00    -0.508 OA
ATOM     27  H   UNL     1     -42.573   2.835  75.670  1.00  0.00     0.293 HD
ENDBRANCH   8  26
TORSDOF 6
ENDMDL
MODEL 2
REMARK VINA RESULT:    -6.269      1.523      6.953
REMARK INTER + INTRA:          -7.849
REMARK INTER:                  -7.620
REMARK INTRA:                  -0.229
REMARK UNBOUND:                -0.297
REMARK SMILES O=c1c(O)c(-c2ccc(O)c(O)c2)oc2cc(O)cc(O)c12
REMARK SMILES IDX 5 1 3 2 2 3 1 4 22 5 20 6 19 7 17 8 16 9 15 10 14 11 6 12
REMARK SMILES IDX 7 13 8 14 9 15 13 16 11 17 10 18 12 20 4 22 21 24 18 26
REMARK H PARENT 10 19 12 21 4 23 21 25 18 27
REMARK Flexibility Score: inf
ROOT
ATOM      1  C   UNL     1     -38.007   4.884  78.429  1.00  0.00     0.180 A 
ATOM      2  C   UNL     1     -36.814   4.316  78.908  1.00  0.00     0.208 A 
ATOM      3  C   UNL     1     -35.610   5.020  78.745  1.00  0.00     0.238 A 
ATOM      4  O   UNL     1     -34.554   4.529  79.224  1.00  0.00    -0.285 OA
ATOM      5  C   UNL     1     -35.611   6.276  78.092  1.00  0.00     0.111 A 
ATOM      6  C   UNL     1     -34.445   7.057  77.836  1.00  0.00     0.134 A 
ATOM      7  C   UNL     1     -34.580   8.343  77.299  1.00  0.00     0.093 A 
ATOM      8  C   UNL     1     -35.833   8.850  76.948  1.00  0.00     0.123 A 
ATOM      9  C   UNL     1     -36.972   8.071  77.138  1.00  0.00     0.094 A 
ATOM     10  C   UNL     1     -36.874   6.798  77.706  1.00  0.00     0.146 A 
ATOM     11  O   UNL     1     -37.985   6.094  77.879  1.00  0.00    -0.452 OA
ENDROOT
BRANCH   1  12
ATOM     12  C   UNL     1     -39.311   4.192  78.542  1.00  0.00     0.025 A 
ATOM     13  C   UNL     1     -39.888   3.615  77.401  1.00  0.00     0.016 A 
ATOM     14  C   UNL     1     -41.108   2.938  77.489  1.00  0.00     0.051 A 
ATOM     15  C   UNL     1     -41.759   2.817  78.723  1.00  0.00     0.157 A 
ATOM     16  C   UNL     1     -39.958   4.049  79.783  1.00  0.00     0.062 A 
ATOM     17  C   UNL     1     -41.182   3.369  79.873  1.00  0.00     0.158 A 
BRANCH  15  18
ATOM     18  O   UNL     1     -42.977   2.144  78.816  1.00  0.00    -0.504 OA
ATOM     19  H   UNL     1     -43.140   1.438  79.525  1.00  0.00     0.293 HD
ENDBRANCH  15  18
BRANCH  17  20
ATOM     20  O   UNL     1     -41.825   3.235  81.102  1.00  0.00    -0.504 OA
ATOM     21  H   UNL     1     -42.755   3.607  81.258  1.00  0.00     0.293 HD
ENDBRANCH  17  20
ENDBRANCH   1  12
BRANCH   2  22
ATOM     22  O   UNL     1     -36.839   3.085  79.569  1.00  0.00    -0.502 OA
ATOM     23  H   UNL     1     -35.996   2.561  79.775  1.00  0.00     0.293 HD
ENDBRANCH   2  22
BRANCH   6  24
ATOM     24  O   UNL     1     -33.140   6.609  78.064  1.00  0.00    -0.507 OA
ATOM     25  H   UNL     1     -32.798   6.263  78.947  1.00  0.00     0.293 HD
ENDBRANCH   6  24
BRANCH   8  26
ATOM     26  O   UNL     1     -35.957  10.125  76.399  1.00  0.00    -0.508 OA
ATOM     27  H   UNL     1     -36.831  10.449  76.002  1.00  0.00     0.293 HD
ENDBRANCH   8  26
TORSDOF 6
ENDMDL
MODEL 3
REMARK VINA RESULT:    -6.243      2.073      7.020
REMARK INTER + INTRA:          -7.817
REMARK INTER:                  -7.501
REMARK INTRA:                  -0.316
REMARK UNBOUND:                -0.297
REMARK SMILES O=c1c(O)c(-c2ccc(O)c(O)c2)oc2cc(O)cc(O)c12
REMARK SMILES IDX 5 1 3 2 2 3 1 4 22 5 20 6 19 7 17 8 16 9 15 10 14 11 6 12
REMARK SMILES IDX 7 13 8 14 9 15 13 16 11 17 10 18 12 20 4 22 21 24 18 26
REMARK H PARENT 10 19 12 21 4 23 21 25 18 27
REMARK Flexibility Score: inf
ROOT
ATOM      1  C   UNL     1     -36.606   5.439  79.064  1.00  0.00     0.180 A 
ATOM      2  C   UNL     1     -35.950   5.348  80.304  1.00  0.00     0.208 A 
ATOM      3  C   UNL     1     -34.896   6.233  80.584  1.00  0.00     0.238 A 
ATOM      4  O   UNL     1     -34.349   6.181  81.717  1.00  0.00    -0.285 OA
ATOM      5  C   UNL     1     -34.500   7.187  79.616  1.00  0.00     0.111 A 
ATOM      6  C   UNL     1     -33.420   8.104  79.776  1.00  0.00     0.134 A 
ATOM      7  C   UNL     1     -33.201   9.090  78.807  1.00  0.00     0.093 A 
ATOM      8  C   UNL     1     -33.983   9.149  77.651  1.00  0.00     0.123 A 
ATOM      9  C   UNL     1     -35.001   8.220  77.456  1.00  0.00     0.094 A 
ATOM     10  C   UNL     1     -35.268   7.248  78.423  1.00  0.00     0.146 A 
ATOM     11  O   UNL     1     -36.255   6.388  78.203  1.00  0.00    -0.452 OA
ENDROOT
BRANCH   1  12
ATOM     12  C   UNL     1     -37.709   4.526  78.687  1.00  0.00     0.025 A 
ATOM     13  C   UNL     1     -39.036   4.977  78.767  1.00  0.00     0.016 A 
ATOM     14  C   UNL     1     -40.092   4.139  78.396  1.00  0.00     0.051 A 
ATOM     15  C   UNL     1     -39.833   2.846  77.925  1.00  0.00     0.157 A 
ATOM     16  C   UNL     1     -37.453   3.235  78.193  1.00  0.00     0.062 A 
ATOM     17  C   UNL     1     -38.512   2.393  77.818  1.00  0.00     0.158 A 
BRANCH  15  18
ATOM     18  O   UNL     1     -40.883   2.006  77.554  1.00  0.00    -0.504 OA
ATOM     19  H   UNL     1     -41.842   2.334  77.534  1.00  0.00     0.293 HD
ENDBRANCH  15  18
BRANCH  17  20
ATOM     20  O   UNL     1     -38.257   1.112  77.336  1.00  0.00    -0.504 OA
ATOM     21  H   UNL     1     -37.480   0.923  76.713  1.00  0.00     0.293 HD
ENDBRANCH  17  20
ENDBRANCH   1  12
BRANCH   2  22
ATOM     22  O   UNL     1     -36.371   4.414  81.255  1.00  0.00    -0.502 OA
ATOM     23  H   UNL     1     -36.893   3.583  81.006  1.00  0.00     0.293 HD
ENDBRANCH   2  22
BRANCH   6  24
ATOM     24  O   UNL     1     -32.522   8.074  80.849  1.00  0.00    -0.507 OA
ATOM     25  H   UNL     1     -31.766   7.413  80.945  1.00  0.00     0.293 HD
ENDBRANCH   6  24
BRANCH   8  26
ATOM     26  O   UNL     1     -33.748  10.124  76.682  1.00  0.00    -0.508 OA
ATOM     27  H   UNL     1     -32.839  10.561  76.580  1.00  0.00     0.293 HD
ENDBRANCH   8  26
TORSDOF 6
ENDMDL
MODEL 4
REMARK VINA RESULT:    -6.162      2.907      4.571
REMARK INTER + INTRA:          -7.720
REMARK INTER:                  -7.702
REMARK INTRA:                  -0.018
REMARK UNBOUND:                -0.297
REMARK SMILES O=c1c(O)c(-c2ccc(O)c(O)c2)oc2cc(O)cc(O)c12
REMARK SMILES IDX 5 1 3 2 2 3 1 4 22 5 20 6 19 7 17 8 16 9 15 10 14 11 6 12
REMARK SMILES IDX 7 13 8 14 9 15 13 16 11 17 10 18 12 20 4 22 21 24 18 26
REMARK H PARENT 10 19 12 21 4 23 21 25 18 27
REMARK Flexibility Score: inf
ROOT
ATOM      1  C   UNL     1     -38.841   5.390  79.610  1.00  0.00     0.180 A 
ATOM      2  C   UNL     1     -40.094   4.759  79.691  1.00  0.00     0.208 A 
ATOM      3  C   UNL     1     -40.284   3.741  80.640  1.00  0.00     0.238 A 
ATOM      4  O   UNL     1     -41.424   3.217  80.744  1.00  0.00    -0.285 OA
ATOM      5  C   UNL     1     -39.215   3.356  81.484  1.00  0.00     0.111 A 
ATOM      6  C   UNL     1     -39.283   2.310  82.453  1.00  0.00     0.134 A 
ATOM      7  C   UNL     1     -38.205   2.104  83.323  1.00  0.00     0.093 A 
ATOM      8  C   UNL     1     -37.037   2.861  83.215  1.00  0.00     0.123 A 
ATOM      9  C   UNL     1     -36.938   3.844  82.234  1.00  0.00     0.094 A 
ATOM     10  C   UNL     1     -38.010   4.099  81.375  1.00  0.00     0.146 A 
ATOM     11  O   UNL     1     -37.877   5.052  80.460  1.00  0.00    -0.452 OA
ENDROOT
BRANCH   1  12
ATOM     12  C   UNL     1     -38.557   6.454  78.620  1.00  0.00     0.025 A 
ATOM     13  C   UNL     1     -37.924   7.635  79.038  1.00  0.00     0.016 A 
ATOM     14  C   UNL     1     -37.627   8.643  78.116  1.00  0.00     0.051 A 
ATOM     15  C   UNL     1     -37.945   8.477  76.762  1.00  0.00     0.157 A 
ATOM     16  C   UNL     1     -38.855   6.283  77.256  1.00  0.00     0.062 A 
ATOM     17  C   UNL     1     -38.556   7.293  76.330  1.00  0.00     0.158 A 
BRANCH  15  18
ATOM     18  O   UNL     1     -37.652   9.480  75.840  1.00  0.00    -0.504 OA
ATOM     19  H   UNL     1     -37.275  10.375  76.132  1.00  0.00     0.293 HD
ENDBRANCH  15  18
BRANCH  17  20
ATOM     20  O   UNL     1     -38.859   7.125  74.981  1.00  0.00    -0.504 OA
ATOM     21  H   UNL     1     -39.067   6.212  74.593  1.00  0.00     0.293 HD
ENDBRANCH  17  20
ENDBRANCH   1  12
BRANCH   2  22
ATOM     22  O   UNL     1     -41.142   5.169  78.863  1.00  0.00    -0.502 OA
ATOM     23  H   UNL     1     -42.081   5.325  79.211  1.00  0.00     0.293 HD
ENDBRANCH   2  22
BRANCH   6  24
ATOM     24  O   UNL     1     -40.367   1.436  82.582  1.00  0.00    -0.507 OA
ATOM     25  H   UNL     1     -40.830   1.221  83.452  1.00  0.00     0.293 HD
ENDBRANCH   6  24
BRANCH   8  26
ATOM     26  O   UNL     1     -35.963   2.638  84.074  1.00  0.00    -0.508 OA
ATOM     27  H   UNL     1     -35.705   1.703  84.369  1.00  0.00     0.293 HD
ENDBRANCH   8  26
TORSDOF 6
ENDMDL
MODEL 5
REMARK VINA RESULT:    -6.091     11.058     13.780
REMARK INTER + INTRA:          -7.635
REMARK INTER:                  -7.510
REMARK INTRA:                  -0.124
REMARK UNBOUND:                -0.297
REMARK SMILES O=c1c(O)c(-c2ccc(O)c(O)c2)oc2cc(O)cc(O)c12
REMARK SMILES IDX 5 1 3 2 2 3 1 4 22 5 20 6 19 7 17 8 16 9 15 10 14 11 6 12
REMARK SMILES IDX 7 13 8 14 9 15 13 16 11 17 10 18 12 20 4 22 21 24 18 26
REMARK H PARENT 10 19 12 21 4 23 21 25 18 27
REMARK Flexibility Score: inf
ROOT
ATOM      1  C   UNL     1     -40.279  -7.098  81.247  1.00  0.00     0.180 A 
ATOM      2  C   UNL     1     -40.209  -7.833  80.051  1.00  0.00     0.208 A 
ATOM      3  C   UNL     1     -39.089  -8.647  79.816  1.00  0.00     0.238 A 
ATOM      4  O   UNL     1     -39.058  -9.344  78.767  1.00  0.00    -0.285 OA
ATOM      5  C   UNL     1     -38.047  -8.705  80.772  1.00  0.00     0.111 A 
ATOM      6  C   UNL     1     -36.849  -9.464  80.619  1.00  0.00     0.134 A 
ATOM      7  C   UNL     1     -35.945  -9.550  81.686  1.00  0.00     0.093 A 
ATOM      8  C   UNL     1     -36.166  -8.851  82.875  1.00  0.00     0.123 A 
ATOM      9  C   UNL     1     -37.302  -8.059  83.011  1.00  0.00     0.094 A 
ATOM     10  C   UNL     1     -38.241  -7.982  81.978  1.00  0.00     0.146 A 
ATOM     11  O   UNL     1     -39.316  -7.224  82.154  1.00  0.00    -0.452 OA
ENDROOT
BRANCH   1  12
ATOM     12  C   UNL     1     -41.415  -6.200  81.555  1.00  0.00     0.025 A 
ATOM     13  C   UNL     1     -42.702  -6.740  81.706  1.00  0.00     0.016 A 
ATOM     14  C   UNL     1     -43.785  -5.913  82.017  1.00  0.00     0.051 A 
ATOM     15  C   UNL     1     -43.592  -4.537  82.198  1.00  0.00     0.157 A 
ATOM     16  C   UNL     1     -41.223  -4.821  81.759  1.00  0.00     0.062 A 
ATOM     17  C   UNL     1     -42.310  -3.990  82.074  1.00  0.00     0.158 A 
BRANCH  15  18
ATOM     18  O   UNL     1     -44.670  -3.708  82.508  1.00  0.00    -0.504 OA
ATOM     19  H   UNL     1     -45.625  -3.985  82.311  1.00  0.00     0.293 HD
ENDBRANCH  15  18
BRANCH  17  20
ATOM     20  O   UNL     1     -42.119  -2.624  82.267  1.00  0.00    -0.504 OA
ATOM     21  H   UNL     1     -42.442  -1.942  81.591  1.00  0.00     0.293 HD
ENDBRANCH  17  20
ENDBRANCH   1  12
BRANCH   2  22
ATOM     22  O   UNL     1     -41.259  -7.779  79.130  1.00  0.00    -0.502 OA
ATOM     23  H   UNL     1     -41.819  -8.589  78.895  1.00  0.00     0.293 HD
ENDBRANCH   2  22
BRANCH   6  24
ATOM     24  O   UNL     1     -36.488 -10.125  79.441  1.00  0.00    -0.507 OA
ATOM     25  H   UNL     1     -35.870  -9.749  78.738  1.00  0.00     0.293 HD
ENDBRANCH   6  24
BRANCH   8  26
ATOM     26  O   UNL     1     -35.253  -8.929  83.925  1.00  0.00    -0.508 OA
ATOM     27  H   UNL     1     -34.389  -9.452  83.839  1.00  0.00     0.293 HD
ENDBRANCH   8  26
TORSDOF 6
ENDMDL
MODEL 6
REMARK VINA RESULT:    -6.080      1.656      7.175
REMARK INTER + INTRA:          -7.622
REMARK INTER:                  -7.341
REMARK INTRA:                  -0.281
REMARK UNBOUND:                -0.297
REMARK SMILES O=c1c(O)c(-c2ccc(O)c(O)c2)oc2cc(O)cc(O)c12
REMARK SMILES IDX 5 1 3 2 2 3 1 4 22 5 20 6 19 7 17 8 16 9 15 10 14 11 6 12
REMARK SMILES IDX 7 13 8 14 9 15 13 16 11 17 10 18 12 20 4 22 21 24 18 26
REMARK H PARENT 10 19 12 21 4 23 21 25 18 27
REMARK Flexibility Score: inf
ROOT
ATOM      1  C   UNL     1     -38.683   5.557  78.024  1.00  0.00     0.180 A 
ATOM      2  C   UNL     1     -38.936   6.822  77.467  1.00  0.00     0.208 A 
ATOM      3  C   UNL     1     -37.874   7.729  77.323  1.00  0.00     0.238 A 
ATOM      4  O   UNL     1     -38.098   8.840  76.774  1.00  0.00    -0.285 OA
ATOM      5  C   UNL     1     -36.574   7.365  77.751  1.00  0.00     0.111 A 
ATOM      6  C   UNL     1     -35.433   8.219  77.691  1.00  0.00     0.134 A 
ATOM      7  C   UNL     1     -34.171   7.710  78.021  1.00  0.00     0.093 A 
ATOM      8  C   UNL     1     -34.020   6.397  78.473  1.00  0.00     0.123 A 
ATOM      9  C   UNL     1     -35.137   5.574  78.593  1.00  0.00     0.094 A 
ATOM     10  C   UNL     1     -36.404   6.042  78.236  1.00  0.00     0.146 A 
ATOM     11  O   UNL     1     -37.441   5.222  78.355  1.00  0.00    -0.452 OA
ENDROOT
BRANCH   1  12
ATOM     12  C   UNL     1     -39.755   4.557  78.230  1.00  0.00     0.025 A 
ATOM     13  C   UNL     1     -40.197   3.785  77.144  1.00  0.00     0.016 A 
ATOM     14  C   UNL     1     -41.193   2.820  77.320  1.00  0.00     0.051 A 
ATOM     15  C   UNL     1     -41.749   2.604  78.588  1.00  0.00     0.157 A 
ATOM     16  C   UNL     1     -40.301   4.322  79.504  1.00  0.00     0.062 A 
ATOM     17  C   UNL     1     -41.300   3.352  79.683  1.00  0.00     0.158 A 
BRANCH  15  18
ATOM     18  O   UNL     1     -42.744   1.644  78.769  1.00  0.00    -0.504 OA
ATOM     19  H   UNL     1     -43.726   1.871  78.656  1.00  0.00     0.293 HD
ENDBRANCH  15  18
BRANCH  17  20
ATOM     20  O   UNL     1     -41.845   3.126  80.945  1.00  0.00    -0.504 OA
ATOM     21  H   UNL     1     -42.798   3.390  81.167  1.00  0.00     0.293 HD
ENDBRANCH  17  20
ENDBRANCH   1  12
BRANCH   2  22
ATOM     22  O   UNL     1     -40.222   7.153  77.030  1.00  0.00    -0.502 OA
ATOM     23  H   UNL     1     -40.460   8.076  76.687  1.00  0.00     0.293 HD
ENDBRANCH   2  22
BRANCH   6  24
ATOM     24  O   UNL     1     -35.487   9.572  77.341  1.00  0.00    -0.507 OA
ATOM     25  H   UNL     1     -35.067  10.320  77.872  1.00  0.00     0.293 HD
ENDBRANCH   6  24
BRANCH   8  26
ATOM     26  O   UNL     1     -32.763   5.903  78.815  1.00  0.00    -0.508 OA
ATOM     27  H   UNL     1     -32.314   5.174  78.273  1.00  0.00     0.293 HD
ENDBRANCH   8  26
TORSDOF 6
ENDMDL
MODEL 7
REMARK VINA RESULT:    -6.014      8.955     11.544
REMARK INTER + INTRA:          -7.542
REMARK INTER:                  -7.372
REMARK INTRA:                  -0.170
REMARK UNBOUND:                -0.297
REMARK SMILES O=c1c(O)c(-c2ccc(O)c(O)c2)oc2cc(O)cc(O)c12
REMARK SMILES IDX 5 1 3 2 2 3 1 4 22 5 20 6 19 7 17 8 16 9 15 10 14 11 6 12
REMARK SMILES IDX 7 13 8 14 9 15 13 16 11 17 10 18 12 20 4 22 21 24 18 26
REMARK H PARENT 10 19 12 21 4 23 21 25 18 27
REMARK Flexibility Score: inf
ROOT
ATOM      1  C   UNL     1     -43.052  -5.211  81.448  1.00  0.00     0.180 A 
ATOM      2  C   UNL     1     -43.624  -6.267  82.179  1.00  0.00     0.208 A 
ATOM      3  C   UNL     1     -44.812  -6.854  81.713  1.00  0.00     0.238 A 
ATOM      4  O   UNL     1     -45.289  -7.834  82.343  1.00  0.00    -0.285 OA
ATOM      5  C   UNL     1     -45.420  -6.370  80.530  1.00  0.00     0.111 A 
ATOM      6  C   UNL     1     -46.644  -6.863  79.988  1.00  0.00     0.134 A 
ATOM      7  C   UNL     1     -47.085  -6.398  78.742  1.00  0.00     0.093 A 
ATOM      8  C   UNL     1     -46.379  -5.410  78.052  1.00  0.00     0.123 A 
ATOM      9  C   UNL     1     -45.215  -4.879  78.601  1.00  0.00     0.094 A 
ATOM     10  C   UNL     1     -44.730  -5.349  79.824  1.00  0.00     0.146 A 
ATOM     11  O   UNL     1     -43.611  -4.823  80.307  1.00  0.00    -0.452 OA
ENDROOT
BRANCH   1  12
ATOM     12  C   UNL     1     -41.816  -4.526  81.889  1.00  0.00     0.025 A 
ATOM     13  C   UNL     1     -40.599  -5.224  81.880  1.00  0.00     0.016 A 
ATOM     14  C   UNL     1     -39.416  -4.590  82.272  1.00  0.00     0.051 A 
ATOM     15  C   UNL     1     -39.433  -3.245  82.663  1.00  0.00     0.157 A 
ATOM     16  C   UNL     1     -41.825  -3.170  82.262  1.00  0.00     0.062 A 
ATOM     17  C   UNL     1     -40.638  -2.532  82.654  1.00  0.00     0.158 A 
BRANCH  15  18
ATOM     18  O   UNL     1     -38.257  -2.609  83.056  1.00  0.00    -0.504 OA
ATOM     19  H   UNL     1     -38.259  -1.876  83.757  1.00  0.00     0.293 HD
ENDBRANCH  15  18
BRANCH  17  20
ATOM     20  O   UNL     1     -40.650  -1.190  83.030  1.00  0.00    -0.504 OA
ATOM     21  H   UNL     1     -41.382  -0.810  83.618  1.00  0.00     0.293 HD
ENDBRANCH  17  20
ENDBRANCH   1  12
BRANCH   2  22
ATOM     22  O   UNL     1     -42.996  -6.744  83.333  1.00  0.00    -0.502 OA
ATOM     23  H   UNL     1     -42.789  -7.726  83.473  1.00  0.00     0.293 HD
ENDBRANCH   2  22
BRANCH   6  24
ATOM     24  O   UNL     1     -47.472  -7.782  80.639  1.00  0.00    -0.507 OA
ATOM     25  H   UNL     1     -47.148  -8.612  81.113  1.00  0.00     0.293 HD
ENDBRANCH   6  24
BRANCH   8  26
ATOM     26  O   UNL     1     -46.834  -4.941  76.820  1.00  0.00    -0.508 OA
ATOM     27  H   UNL     1     -46.393  -5.221  75.951  1.00  0.00     0.293 HD
ENDBRANCH   8  26
TORSDOF 6
ENDMDL
MODEL 8
REMARK VINA RESULT:    -5.999      1.894      6.848
REMARK INTER + INTRA:          -7.523
REMARK INTER:                  -7.399
REMARK INTRA:                  -0.124
REMARK UNBOUND:                -0.297
REMARK SMILES O=c1c(O)c(-c2ccc(O)c(O)c2)oc2cc(O)cc(O)c12
REMARK SMILES IDX 5 1 3 2 2 3 1 4 22 5 20 6 19 7 17 8 16 9 15 10 14 11 6 12
REMARK SMILES IDX 7 13 8 14 9 15 13 16 11 17 10 18 12 20 4 22 21 24 18 26
REMARK H PARENT 10 19 12 21 4 23 21 25 18 27
REMARK Flexibility Score: inf
ROOT
ATOM      1  C   UNL     1     -37.427   5.278  80.271  1.00  0.00     0.180 A 
ATOM      2  C   UNL     1     -36.117   4.821  80.496  1.00  0.00     0.208 A 
ATOM      3  C   UNL     1     -35.053   5.445  79.825  1.00  0.00     0.238 A 
ATOM      4  O   UNL     1     -33.878   5.067  80.071  1.00  0.00    -0.285 OA
ATOM      5  C   UNL     1     -35.314   6.507  78.925  1.00  0.00     0.111 A 
ATOM      6  C   UNL     1     -34.318   7.184  78.161  1.00  0.00     0.134 A 
ATOM      7  C   UNL     1     -34.673   8.306  77.402  1.00  0.00     0.093 A 
ATOM      8  C   UNL     1     -36.001   8.734  77.328  1.00  0.00     0.123 A 
ATOM      9  C   UNL     1     -36.990   8.043  78.022  1.00  0.00     0.094 A 
ATOM     10  C   UNL     1     -36.661   6.942  78.818  1.00  0.00     0.146 A 
ATOM     11  O   UNL     1     -37.633   6.319  79.472  1.00  0.00    -0.452 OA
ENDROOT
BRANCH   1  12
ATOM     12  C   UNL     1     -38.602   4.655  80.923  1.00  0.00     0.025 A 
ATOM     13  C   UNL     1     -38.727   4.711  82.320  1.00  0.00     0.016 A 
ATOM     14  C   UNL     1     -39.838   4.148  82.955  1.00  0.00     0.051 A 
ATOM     15  C   UNL     1     -40.847   3.536  82.199  1.00  0.00     0.157 A 
ATOM     16  C   UNL     1     -39.628   4.059  80.168  1.00  0.00     0.062 A 
ATOM     17  C   UNL     1     -40.745   3.495  80.803  1.00  0.00     0.158 A 
BRANCH  15  18
ATOM     18  O   UNL     1     -41.956   2.973  82.828  1.00  0.00    -0.504 OA
ATOM     19  H   UNL     1     -42.212   2.003  82.682  1.00  0.00     0.293 HD
ENDBRANCH  15  18
BRANCH  17  20
ATOM     20  O   UNL     1     -41.755   2.898  80.054  1.00  0.00    -0.504 OA
ATOM     21  H   UNL     1     -41.600   2.595  79.099  1.00  0.00     0.293 HD
ENDBRANCH  17  20
ENDBRANCH   1  12
BRANCH   2  22
ATOM     22  O   UNL     1     -35.880   3.786  81.405  1.00  0.00    -0.502 OA
ATOM     23  H   UNL     1     -36.545   3.039  81.563  1.00  0.00     0.293 HD
ENDBRANCH   2  22
BRANCH   6  24
ATOM     24  O   UNL     1     -32.980   6.783  78.091  1.00  0.00    -0.507 OA
ATOM     25  H   UNL     1     -32.594   6.192  77.371  1.00  0.00     0.293 HD
ENDBRANCH   6  24
BRANCH   8  26
ATOM     26  O   UNL     1     -36.349   9.841  76.557  1.00  0.00    -0.508 OA
ATOM     27  H   UNL     1     -36.870  10.617  76.948  1.00  0.00     0.293 HD
ENDBRANCH   8  26
TORSDOF 6
ENDMDL
MODEL 9
REMARK VINA RESULT:    -5.998      9.272     12.776
REMARK INTER + INTRA:          -7.523
REMARK INTER:                  -7.207
REMARK INTRA:                  -0.316
REMARK UNBOUND:                -0.297
REMARK SMILES O=c1c(O)c(-c2ccc(O)c(O)c2)oc2cc(O)cc(O)c12
REMARK SMILES IDX 5 1 3 2 2 3 1 4 22 5 20 6 19 7 17 8 16 9 15 10 14 11 6 12
REMARK SMILES IDX 7 13 8 14 9 15 13 16 11 17 10 18 12 20 4 22 21 24 18 26
REMARK H PARENT 10 19 12 21 4 23 21 25 18 27
REMARK Flexibility Score: inf
ROOT
ATOM      1  C   UNL     1     -41.919  -5.403  81.361  1.00  0.00     0.180 A 
ATOM      2  C   UNL     1     -42.052  -4.055  81.739  1.00  0.00     0.208 A 
ATOM      3  C   UNL     1     -40.945  -3.390  82.292  1.00  0.00     0.238 A 
ATOM      4  O   UNL     1     -41.056  -2.169  82.578  1.00  0.00    -0.285 OA
ATOM      5  C   UNL     1     -39.725  -4.084  82.474  1.00  0.00     0.111 A 
ATOM      6  C   UNL     1     -38.553  -3.522  83.062  1.00  0.00     0.134 A 
ATOM      7  C   UNL     1     -37.363  -4.260  83.073  1.00  0.00     0.093 A 
ATOM      8  C   UNL     1     -37.321  -5.565  82.577  1.00  0.00     0.123 A 
ATOM      9  C   UNL     1     -38.475  -6.145  82.056  1.00  0.00     0.094 A 
ATOM     10  C   UNL     1     -39.668  -5.420  81.998  1.00  0.00     0.146 A 
ATOM     11  O   UNL     1     -40.742  -6.007  81.484  1.00  0.00    -0.452 OA
ENDROOT
BRANCH   1  12
ATOM     12  C   UNL     1     -43.046  -6.177  80.794  1.00  0.00     0.025 A 
ATOM     13  C   UNL     1     -43.976  -6.776  81.657  1.00  0.00     0.016 A 
ATOM     14  C   UNL     1     -45.060  -7.494  81.144  1.00  0.00     0.051 A 
ATOM     15  C   UNL     1     -45.237  -7.608  79.759  1.00  0.00     0.157 A 
ATOM     16  C   UNL     1     -43.240  -6.276  79.404  1.00  0.00     0.062 A 
ATOM     17  C   UNL     1     -44.329  -6.995  78.887  1.00  0.00     0.158 A 
BRANCH  15  18
ATOM     18  O   UNL     1     -46.316  -8.324  79.241  1.00  0.00    -0.504 OA
ATOM     19  H   UNL     1     -47.271  -8.104  79.500  1.00  0.00     0.293 HD
ENDBRANCH  15  18
BRANCH  17  20
ATOM     20  O   UNL     1     -44.515  -7.099  77.510  1.00  0.00    -0.504 OA
ATOM     21  H   UNL     1     -44.622  -7.998  77.055  1.00  0.00     0.293 HD
ENDBRANCH  17  20
ENDBRANCH   1  12
BRANCH   2  22
ATOM     22  O   UNL     1     -43.259  -3.382  81.530  1.00  0.00    -0.502 OA
ATOM     23  H   UNL     1     -43.422  -2.441  81.865  1.00  0.00     0.293 HD
ENDBRANCH   2  22
BRANCH   6  24
ATOM     24  O   UNL     1     -38.511  -2.262  83.668  1.00  0.00    -0.507 OA
ATOM     25  H   UNL     1     -37.687  -1.850  84.078  1.00  0.00     0.293 HD
ENDBRANCH   6  24
BRANCH   8  26
ATOM     26  O   UNL     1     -36.137  -6.299  82.606  1.00  0.00    -0.508 OA
ATOM     27  H   UNL     1     -35.242  -5.855  82.777  1.00  0.00     0.293 HD
ENDBRANCH   8  26
TORSDOF 6
ENDMDL
