MODEL 1
REMARK VINA RESULT:    49.928      0.000      0.000
REMARK INTER + INTRA:          60.686
REMARK INTER:                  60.143
REMARK INTRA:                   0.542
REMARK UNBOUND:                 0.542
REMARK SMILES O=c1c(O)c(-c2ccc(O)c(O)c2)oc2cc(O)cc(O)c12
REMARK SMILES IDX 5 1 3 2 2 3 1 4 22 5 20 6 19 7 17 8 16 9 15 10 14 11 6 12
REMARK SMILES IDX 7 13 8 14 9 15 13 16 11 17 10 18 12 20 4 22 21 24 18 26
REMARK H PARENT 10 19 12 21 4 23 21 25 18 27
REMARK Flexibility Score: inf
ROOT
ATOM      1  C   UNL     1     -30.804  28.481 -17.263  1.00  0.00     0.180 A 
ATOM      2  C   UNL     1     -31.359  29.024 -16.092  1.00  0.00     0.208 A 
ATOM      3  C   UNL     1     -31.282  28.291 -14.897  1.00  0.00     0.238 A 
ATOM      4  O   UNL     1     -31.733  28.806 -13.841  1.00  0.00    -0.285 OA
ATOM      5  C   UNL     1     -30.664  27.017 -14.892  1.00  0.00     0.111 A 
ATOM      6  C   UNL     1     -30.565  26.169 -13.747  1.00  0.00     0.134 A 
ATOM      7  C   UNL     1     -29.818  24.987 -13.826  1.00  0.00     0.093 A 
ATOM      8  C   UNL     1     -29.223  24.590 -15.025  1.00  0.00     0.123 A 
ATOM      9  C   UNL     1     -29.364  25.382 -16.163  1.00  0.00     0.094 A 
ATOM     10  C   UNL     1     -30.072  26.584 -16.107  1.00  0.00     0.146 A 
ATOM     11  O   UNL     1     -30.173  27.313 -17.211  1.00  0.00    -0.452 OA
ENDROOT
BRANCH   1  12
ATOM     12  C   UNL     1     -30.869  29.182 -18.565  1.00  0.00     0.025 A 
ATOM     13  C   UNL     1     -30.323  28.616 -19.728  1.00  0.00     0.016 A 
ATOM     14  C   UNL     1     -30.375  29.307 -20.941  1.00  0.00     0.051 A 
ATOM     15  C   UNL     1     -30.957  30.577 -21.015  1.00  0.00     0.157 A 
ATOM     16  C   UNL     1     -31.433  30.465 -18.633  1.00  0.00     0.062 A 
ATOM     17  C   UNL     1     -31.490  31.167 -19.844  1.00  0.00     0.158 A 
BRANCH  15  18
ATOM     18  O   UNL     1     -30.980  31.212 -22.258  1.00  0.00    -0.504 OA
ATOM     19  H   UNL     1     -31.718  31.096 -22.938  1.00  0.00     0.293 HD
ENDBRANCH  15  18
BRANCH  17  20
ATOM     20  O   UNL     1     -32.078  32.433 -19.837  1.00  0.00    -0.504 OA
ATOM     21  H   UNL     1     -32.930  32.656 -19.343  1.00  0.00     0.293 HD
ENDBRANCH  17  20
ENDBRANCH   1  12
BRANCH   2  22
ATOM     22  O   UNL     1     -31.946  30.293 -16.115  1.00  0.00    -0.502 OA
ATOM     23  H   UNL     1     -32.934  30.433 -16.291  1.00  0.00     0.293 HD
ENDBRANCH   2  22
BRANCH   6  24
ATOM     24  O   UNL     1     -31.199  26.427 -12.528  1.00  0.00    -0.507 OA
ATOM     25  H   UNL     1     -31.762  27.241 -12.334  1.00  0.00     0.293 HD
ENDBRANCH   6  24
BRANCH   8  26
ATOM     26  O   UNL     1     -28.494  23.404 -15.099  1.00  0.00    -0.508 OA
ATOM     27  H   UNL     1     -28.687  22.708 -15.809  1.00  0.00     0.293 HD
ENDBRANCH   8  26
TORSDOF 6
ENDMDL
MODEL 2
REMARK VINA RESULT:    51.272      1.079      6.698
REMARK INTER + INTRA:          62.305
REMARK INTER:                  61.853
REMARK INTRA:                   0.451
REMARK UNBOUND:                 0.542
REMARK SMILES O=c1c(O)c(-c2ccc(O)c(O)c2)oc2cc(O)cc(O)c12
REMARK SMILES IDX 5 1 3 2 2 3 1 4 22 5 20 6 19 7 17 8 16 9 15 10 14 11 6 12
REMARK SMILES IDX 7 13 8 14 9 15 13 16 11 17 10 18 12 20 4 22 21 24 18 26
REMARK H PARENT 10 19 12 21 4 23 21 25 18 27
REMARK Flexibility Score: inf
ROOT
ATOM      1  C   UNL     1     -30.700  27.862 -16.712  1.00  0.00     0.180 A 
ATOM      2  C   UNL     1     -31.638  28.713 -16.101  1.00  0.00     0.208 A 
ATOM      3  C   UNL     1     -32.107  29.831 -16.810  1.00  0.00     0.238 A 
ATOM      4  O   UNL     1     -32.986  30.558 -16.278  1.00  0.00    -0.285 OA
ATOM      5  C   UNL     1     -31.622  30.092 -18.114  1.00  0.00     0.111 A 
ATOM      6  C   UNL     1     -31.998  31.217 -18.908  1.00  0.00     0.134 A 
ATOM      7  C   UNL     1     -31.555  31.306 -20.234  1.00  0.00     0.093 A 
ATOM      8  C   UNL     1     -30.698  30.344 -20.772  1.00  0.00     0.123 A 
ATOM      9  C   UNL     1     -30.278  29.273 -19.986  1.00  0.00     0.094 A 
ATOM     10  C   UNL     1     -30.731  29.138 -18.672  1.00  0.00     0.146 A 
ATOM     11  O   UNL     1     -30.315  28.098 -17.961  1.00  0.00    -0.452 OA
ENDROOT
BRANCH   1  12
ATOM     12  C   UNL     1     -30.141  26.679 -16.020  1.00  0.00     0.025 A 
ATOM     13  C   UNL     1     -30.423  26.422 -14.669  1.00  0.00     0.016 A 
ATOM     14  C   UNL     1     -29.866  25.312 -14.030  1.00  0.00     0.051 A 
ATOM     15  C   UNL     1     -29.007  24.448 -14.719  1.00  0.00     0.157 A 
ATOM     16  C   UNL     1     -29.263  25.826 -16.706  1.00  0.00     0.062 A 
ATOM     17  C   UNL     1     -28.698  24.711 -16.074  1.00  0.00     0.158 A 
BRANCH  15  18
ATOM     18  O   UNL     1     -28.487  23.355 -14.023  1.00  0.00    -0.504 OA
ATOM     19  H   UNL     1     -28.270  23.365 -13.037  1.00  0.00     0.293 HD
ENDBRANCH  15  18
BRANCH  17  20
ATOM     20  O   UNL     1     -27.844  23.900 -16.824  1.00  0.00    -0.504 OA
ATOM     21  H   UNL     1     -27.451  23.032 -16.489  1.00  0.00     0.293 HD
ENDBRANCH  17  20
ENDBRANCH   1  12
BRANCH   2  22
ATOM     22  O   UNL     1     -32.119  28.424 -14.821  1.00  0.00    -0.502 OA
ATOM     23  H   UNL     1     -32.659  29.089 -14.280  1.00  0.00     0.293 HD
ENDBRANCH   2  22
BRANCH   6  24
ATOM     24  O   UNL     1     -32.774  32.280 -18.437  1.00  0.00    -0.507 OA
ATOM     25  H   UNL     1     -33.734  32.449 -18.696  1.00  0.00     0.293 HD
ENDBRANCH   6  24
BRANCH   8  26
ATOM     26  O   UNL     1     -30.249  30.447 -22.088  1.00  0.00    -0.508 OA
ATOM     27  H   UNL     1     -30.484  31.246 -22.666  1.00  0.00     0.293 HD
ENDBRANCH   8  26
TORSDOF 6
ENDMDL
MODEL 3
REMARK VINA RESULT:    51.949     10.347     11.919
REMARK INTER + INTRA:          63.120
REMARK INTER:                  63.426
REMARK INTRA:                  -0.306
REMARK UNBOUND:                 0.542
REMARK SMILES O=c1c(O)c(-c2ccc(O)c(O)c2)oc2cc(O)cc(O)c12
REMARK SMILES IDX 5 1 3 2 2 3 1 4 22 5 20 6 19 7 17 8 16 9 15 10 14 11 6 12
REMARK SMILES IDX 7 13 8 14 9 15 13 16 11 17 10 18 12 20 4 22 21 24 18 26
REMARK H PARENT 10 19 12 21 4 23 21 25 18 27
REMARK Flexibility Score: inf
ROOT
ATOM      1  C   UNL     1     -40.952  29.432 -21.901  1.00  0.00     0.180 A 
ATOM      2  C   UNL     1     -39.737  29.778 -21.285  1.00  0.00     0.208 A 
ATOM      3  C   UNL     1     -38.701  28.830 -21.241  1.00  0.00     0.238 A 
ATOM      4  O   UNL     1     -37.598  29.163 -20.736  1.00  0.00    -0.285 OA
ATOM      5  C   UNL     1     -38.901  27.543 -21.798  1.00  0.00     0.111 A 
ATOM      6  C   UNL     1     -37.935  26.492 -21.773  1.00  0.00     0.134 A 
ATOM      7  C   UNL     1     -38.191  25.303 -22.469  1.00  0.00     0.093 A 
ATOM      8  C   UNL     1     -39.404  25.105 -23.133  1.00  0.00     0.123 A 
ATOM      9  C   UNL     1     -40.375  26.103 -23.113  1.00  0.00     0.094 A 
ATOM     10  C   UNL     1     -40.136  27.313 -22.458  1.00  0.00     0.146 A 
ATOM     11  O   UNL     1     -41.084  28.241 -22.472  1.00  0.00    -0.452 OA
ENDROOT
BRANCH   1  12
ATOM     12  C   UNL     1     -42.097  30.368 -21.965  1.00  0.00     0.025 A 
ATOM     13  C   UNL     1     -42.323  31.170 -23.095  1.00  0.00     0.016 A 
ATOM     14  C   UNL     1     -43.397  32.063 -23.124  1.00  0.00     0.051 A 
ATOM     15  C   UNL     1     -44.254  32.184 -22.025  1.00  0.00     0.157 A 
ATOM     16  C   UNL     1     -42.944  30.504 -20.853  1.00  0.00     0.062 A 
ATOM     17  C   UNL     1     -44.022  31.397 -20.872  1.00  0.00     0.158 A 
BRANCH  15  18
ATOM     18  O   UNL     1     -45.311  33.093 -22.119  1.00  0.00    -0.504 OA
ATOM     19  H   UNL     1     -45.392  33.924 -21.551  1.00  0.00     0.293 HD
ENDBRANCH  15  18
BRANCH  17  20
ATOM     20  O   UNL     1     -44.829  31.469 -19.734  1.00  0.00    -0.504 OA
ATOM     21  H   UNL     1     -45.028  32.326 -19.237  1.00  0.00     0.293 HD
ENDBRANCH  17  20
ENDBRANCH   1  12
BRANCH   2  22
ATOM     22  O   UNL     1     -39.554  31.061 -20.760  1.00  0.00    -0.502 OA
ATOM     23  H   UNL     1     -39.264  31.221 -19.803  1.00  0.00     0.293 HD
ENDBRANCH   2  22
BRANCH   6  24
ATOM     24  O   UNL     1     -36.733  26.553 -21.063  1.00  0.00    -0.507 OA
ATOM     25  H   UNL     1     -36.513  25.989 -20.256  1.00  0.00     0.293 HD
ENDBRANCH   6  24
BRANCH   8  26
ATOM     26  O   UNL     1     -39.656  23.913 -23.811  1.00  0.00    -0.508 OA
ATOM     27  H   UNL     1     -39.661  23.870 -24.823  1.00  0.00     0.293 HD
ENDBRANCH   8  26
TORSDOF 6
ENDMDL
MODEL 4
REMARK VINA RESULT:    52.678      2.220      6.986
REMARK INTER + INTRA:          63.999
REMARK INTER:                  63.990
REMARK INTRA:                   0.009
REMARK UNBOUND:                 0.542
REMARK SMILES O=c1c(O)c(-c2ccc(O)c(O)c2)oc2cc(O)cc(O)c12
REMARK SMILES IDX 5 1 3 2 2 3 1 4 22 5 20 6 19 7 17 8 16 9 15 10 14 11 6 12
REMARK SMILES IDX 7 13 8 14 9 15 13 16 11 17 10 18 12 20 4 22 21 24 18 26
REMARK H PARENT 10 19 12 21 4 23 21 25 18 27
REMARK Flexibility Score: inf
ROOT
ATOM      1  C   UNL     1     -30.750  28.974 -16.407  1.00  0.00     0.180 A 
ATOM      2  C   UNL     1     -31.337  29.082 -17.679  1.00  0.00     0.208 A 
ATOM      3  C   UNL     1     -31.723  30.350 -18.146  1.00  0.00     0.238 A 
ATOM      4  O   UNL     1     -32.199  30.447 -19.307  1.00  0.00    -0.285 OA
ATOM      5  C   UNL     1     -31.531  31.490 -17.328  1.00  0.00     0.111 A 
ATOM      6  C   UNL     1     -31.920  32.816 -17.684  1.00  0.00     0.134 A 
ATOM      7  C   UNL     1     -31.563  33.887 -16.854  1.00  0.00     0.093 A 
ATOM      8  C   UNL     1     -30.888  33.670 -15.650  1.00  0.00     0.123 A 
ATOM      9  C   UNL     1     -30.556  32.372 -15.267  1.00  0.00     0.094 A 
ATOM     10  C   UNL     1     -30.867  31.288 -16.090  1.00  0.00     0.146 A 
ATOM     11  O   UNL     1     -30.523  30.070 -15.692  1.00  0.00    -0.452 OA
ENDROOT
BRANCH   1  12
ATOM     12  C   UNL     1     -30.341  27.671 -15.836  1.00  0.00     0.025 A 
ATOM     13  C   UNL     1     -30.739  27.279 -14.548  1.00  0.00     0.016 A 
ATOM     14  C   UNL     1     -30.321  26.055 -14.022  1.00  0.00     0.051 A 
ATOM     15  C   UNL     1     -29.490  25.206 -14.761  1.00  0.00     0.157 A 
ATOM     16  C   UNL     1     -29.489  26.831 -16.570  1.00  0.00     0.062 A 
ATOM     17  C   UNL     1     -29.064  25.601 -16.051  1.00  0.00     0.158 A 
BRANCH  15  18
ATOM     18  O   UNL     1     -29.111  23.995 -14.178  1.00  0.00    -0.504 OA
ATOM     19  H   UNL     1     -28.660  23.919 -13.278  1.00  0.00     0.293 HD
ENDBRANCH  15  18
BRANCH  17  20
ATOM     20  O   UNL     1     -28.228  24.813 -16.844  1.00  0.00    -0.504 OA
ATOM     21  H   UNL     1     -27.737  23.996 -16.508  1.00  0.00     0.293 HD
ENDBRANCH  17  20
ENDBRANCH   1  12
BRANCH   2  22
ATOM     22  O   UNL     1     -31.499  27.946 -18.478  1.00  0.00    -0.502 OA
ATOM     23  H   UNL     1     -31.274  27.015 -18.151  1.00  0.00     0.293 HD
ENDBRANCH   2  22
BRANCH   6  24
ATOM     24  O   UNL     1     -32.677  33.131 -18.817  1.00  0.00    -0.507 OA
ATOM     25  H   UNL     1     -33.684  33.165 -18.843  1.00  0.00     0.293 HD
ENDBRANCH   6  24
BRANCH   8  26
ATOM     26  O   UNL     1     -30.550  34.739 -14.822  1.00  0.00    -0.508 OA
ATOM     27  H   UNL     1     -30.749  34.724 -13.829  1.00  0.00     0.293 HD
ENDBRANCH   8  26
TORSDOF 6
ENDMDL
