MODEL 1
REMARK VINA RESULT:    -6.793      0.000      0.000
REMARK INTER + INTRA:         -11.683
REMARK INTER:                  -9.771
REMARK INTRA:                  -1.912
REMARK UNBOUND:                -1.912
REMARK SMILES O=c1c(O[C@@H]2O[C@@H](CO)[C@@H](O)[C@@H](O)[C@@H]2O)c(-c2ccc(O)cc2)oc2cc(O)cc(O)c12
REMARK SMILES IDX 4 1 3 2 16 3 24 4 2 5 25 6 1 7 32 8 26 9 30 10 27 11 29 12
REMARK SMILES IDX 17 13 18 14 19 15 20 16 23 17 22 18 21 19 31 21 28 23 5 25
REMARK SMILES IDX 14 26 6 27 12 28 7 29 10 30 15 31 13 33 8 35 9 36 11 38
REMARK H PARENT 21 20 31 22 28 24 15 32 13 34 9 37 11 39
REMARK Flexibility Score: inf
ROOT
ATOM      1  O   UNL     1      -0.614 -19.755  28.122  1.00  0.00    -0.454 OA
ENDROOT
BRANCH   1   2
ATOM      2  C   UNL     1      -0.569 -21.112  28.499  1.00  0.00     0.214 A 
ATOM      3  C   UNL     1       0.091 -22.017  27.647  1.00  0.00     0.180 A 
ATOM      4  O   UNL     1       0.111 -23.311  27.936  1.00  0.00    -0.452 OA
ATOM      5  C   UNL     1      -1.169 -21.613  29.674  1.00  0.00     0.239 A 
ATOM      6  C   UNL     1      -0.469 -23.829  29.010  1.00  0.00     0.146 A 
ATOM      7  O   UNL     1      -1.648 -20.811  30.515  1.00  0.00    -0.285 OA
ATOM      8  C   UNL     1      -1.177 -23.007  29.922  1.00  0.00     0.111 A 
ATOM      9  C   UNL     1      -0.356 -25.205  29.231  1.00  0.00     0.094 A 
ATOM     10  C   UNL     1      -1.819 -23.626  31.037  1.00  0.00     0.134 A 
ATOM     11  C   UNL     1      -0.932 -25.788  30.360  1.00  0.00     0.123 A 
ATOM     12  C   UNL     1      -1.653 -24.999  31.256  1.00  0.00     0.093 A 
BRANCH   3  13
ATOM     13  C   UNL     1       0.752 -21.571  26.400  1.00  0.00     0.021 A 
ATOM     14  C   UNL     1       1.987 -20.907  26.471  1.00  0.00     0.016 A 
ATOM     15  C   UNL     1       2.627 -20.478  25.305  1.00  0.00     0.047 A 
ATOM     16  C   UNL     1       2.034 -20.693  24.057  1.00  0.00     0.115 A 
ATOM     17  C   UNL     1       0.148 -21.764  25.144  1.00  0.00     0.016 A 
ATOM     18  C   UNL     1       0.791 -21.334  23.979  1.00  0.00     0.047 A 
BRANCH  16  19
ATOM     19  O   UNL     1       2.685 -20.262  22.902  1.00  0.00    -0.508 OA
ATOM     20  H   UNL     1       2.205 -19.719  22.195  1.00  0.00     0.293 HD
ENDBRANCH  16  19
ENDBRANCH   3  13
BRANCH  10  21
ATOM     21  O   UNL     1      -2.649 -22.946  31.934  1.00  0.00    -0.507 OA
ATOM     22  H   UNL     1      -2.735 -21.942  31.985  1.00  0.00     0.293 HD
ENDBRANCH  10  21
BRANCH  11  23
ATOM     23  O   UNL     1      -0.804 -27.155  30.598  1.00  0.00    -0.508 OA
ATOM     24  H   UNL     1       0.101 -27.612  30.585  1.00  0.00     0.293 HD
ENDBRANCH  11  23
ENDBRANCH   1   2
BRANCH   1  25
ATOM     25  C   UNL     1      -1.727 -19.060  27.550  1.00  0.00     0.339 C 
ATOM     26  C   UNL     1      -2.024 -17.767  28.341  1.00  0.00     0.214 C 
ATOM     27  O   UNL     1      -1.505 -18.774  26.174  1.00  0.00    -0.332 OA
ATOM     28  C   UNL     1      -0.891 -16.736  28.138  1.00  0.00     0.180 C 
ATOM     29  C   UNL     1      -0.381 -17.923  25.989  1.00  0.00     0.179 C 
ATOM     30  C   UNL     1      -0.619 -16.538  26.636  1.00  0.00     0.177 C 
BRANCH  26  31
ATOM     31  O   UNL     1      -2.230 -18.042  29.705  1.00  0.00    -0.384 OA
ATOM     32  H   UNL     1      -2.629 -18.947  29.778  1.00  0.00     0.211 HD
ENDBRANCH  26  31
BRANCH  28  33
ATOM     33  O   UNL     1      -1.186 -15.514  28.770  1.00  0.00    -0.387 OA
ATOM     34  H   UNL     1      -1.639 -15.713  29.630  1.00  0.00     0.211 HD
ENDBRANCH  28  33
BRANCH  29  35
ATOM     35  C   UNL     1      -0.065 -17.817  24.488  1.00  0.00     0.191 C 
BRANCH  35  36
ATOM     36  O   UNL     1       0.372 -16.528  24.144  1.00  0.00    -0.394 OA
ATOM     37  H   UNL     1      -0.065 -16.297  23.283  1.00  0.00     0.210 HD
ENDBRANCH  35  36
ENDBRANCH  29  35
BRANCH  30  38
ATOM     38  O   UNL     1      -1.716 -15.896  26.033  1.00  0.00    -0.387 OA
ATOM     39  H   UNL     1      -1.388 -15.034  25.668  1.00  0.00     0.211 HD
ENDBRANCH  30  38
ENDBRANCH   1  25
TORSDOF 11
ENDMDL
MODEL 2
REMARK VINA RESULT:    -6.572      1.889      3.317
REMARK INTER + INTRA:         -11.365
REMARK INTER:                 -10.231
REMARK INTRA:                  -1.134
REMARK UNBOUND:                -1.912
REMARK SMILES O=c1c(O[C@@H]2O[C@@H](CO)[C@@H](O)[C@@H](O)[C@@H]2O)c(-c2ccc(O)cc2)oc2cc(O)cc(O)c12
REMARK SMILES IDX 4 1 3 2 16 3 24 4 2 5 25 6 1 7 32 8 26 9 30 10 27 11 29 12
REMARK SMILES IDX 17 13 18 14 19 15 20 16 23 17 22 18 21 19 31 21 28 23 5 25
REMARK SMILES IDX 14 26 6 27 12 28 7 29 10 30 15 31 13 33 8 35 9 36 11 38
REMARK H PARENT 21 20 31 22 28 24 15 32 13 34 9 37 11 39
REMARK Flexibility Score: inf
ROOT
ATOM      1  O   UNL     1      -0.579 -18.574  26.597  1.00  0.00    -0.454 OA
ENDROOT
BRANCH   1   2
ATOM      2  C   UNL     1      -0.764 -19.430  27.701  1.00  0.00     0.214 A 
ATOM      3  C   UNL     1      -0.204 -20.719  27.642  1.00  0.00     0.180 A 
ATOM      4  O   UNL     1      -0.399 -21.577  28.635  1.00  0.00    -0.452 OA
ATOM      5  C   UNL     1      -1.500 -19.070  28.850  1.00  0.00     0.239 A 
ATOM      6  C   UNL     1      -1.111 -21.292  29.716  1.00  0.00     0.146 A 
ATOM      7  O   UNL     1      -1.897 -17.884  28.985  1.00  0.00    -0.285 OA
ATOM      8  C   UNL     1      -1.736 -20.029  29.865  1.00  0.00     0.111 A 
ATOM      9  C   UNL     1      -1.224 -22.263  30.715  1.00  0.00     0.094 A 
ATOM     10  C   UNL     1      -2.527 -19.794  31.030  1.00  0.00     0.134 A 
ATOM     11  C   UNL     1      -1.946 -21.998  31.880  1.00  0.00     0.123 A 
ATOM     12  C   UNL     1      -2.586 -20.769  32.032  1.00  0.00     0.093 A 
BRANCH   3  13
ATOM     13  C   UNL     1       0.587 -21.171  26.476  1.00  0.00     0.021 A 
ATOM     14  C   UNL     1       1.989 -21.109  26.525  1.00  0.00     0.016 A 
ATOM     15  C   UNL     1       2.754 -21.532  25.433  1.00  0.00     0.047 A 
ATOM     16  C   UNL     1       2.128 -22.006  24.277  1.00  0.00     0.115 A 
ATOM     17  C   UNL     1      -0.038 -21.627  25.301  1.00  0.00     0.016 A 
ATOM     18  C   UNL     1       0.730 -22.050  24.211  1.00  0.00     0.047 A 
BRANCH  16  19
ATOM     19  O   UNL     1       2.903 -22.426  23.197  1.00  0.00    -0.508 OA
ATOM     20  H   UNL     1       3.365 -23.327  23.195  1.00  0.00     0.293 HD
ENDBRANCH  16  19
ENDBRANCH   3  13
BRANCH  10  21
ATOM     21  O   UNL     1      -3.292 -18.641  31.233  1.00  0.00    -0.507 OA
ATOM     22  H   UNL     1      -2.991 -17.707  31.001  1.00  0.00     0.293 HD
ENDBRANCH  10  21
BRANCH  11  23
ATOM     23  O   UNL     1      -2.042 -22.954  32.889  1.00  0.00    -0.508 OA
ATOM     24  H   UNL     1      -2.941 -23.296  33.211  1.00  0.00     0.293 HD
ENDBRANCH  11  23
ENDBRANCH   1   2
BRANCH   1  25
ATOM     25  C   UNL     1       0.300 -17.446  26.523  1.00  0.00     0.339 C 
ATOM     26  C   UNL     1       0.783 -17.228  25.072  1.00  0.00     0.214 C 
ATOM     27  O   UNL     1      -0.321 -16.273  27.035  1.00  0.00    -0.332 OA
ATOM     28  C   UNL     1      -0.386 -16.754  24.179  1.00  0.00     0.180 C 
ATOM     29  C   UNL     1      -1.472 -15.916  26.279  1.00  0.00     0.179 C 
ATOM     30  C   UNL     1      -1.091 -15.547  24.825  1.00  0.00     0.177 C 
BRANCH  26  31
ATOM     31  O   UNL     1       1.386 -18.389  24.557  1.00  0.00    -0.384 OA
ATOM     32  H   UNL     1       1.123 -18.474  23.605  1.00  0.00     0.211 HD
ENDBRANCH  26  31
BRANCH  28  33
ATOM     33  O   UNL     1       0.049 -16.454  22.875  1.00  0.00    -0.387 OA
ATOM     34  H   UNL     1      -0.736 -16.147  22.352  1.00  0.00     0.211 HD
ENDBRANCH  28  33
BRANCH  29  35
ATOM     35  C   UNL     1      -2.216 -14.775  26.992  1.00  0.00     0.191 C 
BRANCH  35  36
ATOM     36  O   UNL     1      -3.554 -14.697  26.579  1.00  0.00    -0.394 OA
ATOM     37  H   UNL     1      -4.097 -14.536  27.394  1.00  0.00     0.210 HD
ENDBRANCH  35  36
ENDBRANCH  29  35
BRANCH  30  38
ATOM     38  O   UNL     1      -0.234 -14.431  24.811  1.00  0.00    -0.387 OA
ATOM     39  H   UNL     1       0.336 -14.509  24.002  1.00  0.00     0.211 HD
ENDBRANCH  30  38
ENDBRANCH   1  25
TORSDOF 11
ENDMDL
MODEL 3
REMARK VINA RESULT:    -6.519      3.810      6.403
REMARK INTER + INTRA:         -11.289
REMARK INTER:                  -9.392
REMARK INTRA:                  -1.897
REMARK UNBOUND:                -1.912
REMARK SMILES O=c1c(O[C@@H]2O[C@@H](CO)[C@@H](O)[C@@H](O)[C@@H]2O)c(-c2ccc(O)cc2)oc2cc(O)cc(O)c12
REMARK SMILES IDX 4 1 3 2 16 3 24 4 2 5 25 6 1 7 32 8 26 9 30 10 27 11 29 12
REMARK SMILES IDX 17 13 18 14 19 15 20 16 23 17 22 18 21 19 31 21 28 23 5 25
REMARK SMILES IDX 14 26 6 27 12 28 7 29 10 30 15 31 13 33 8 35 9 36 11 38
REMARK H PARENT 21 20 31 22 28 24 15 32 13 34 9 37 11 39
REMARK Flexibility Score: inf
ROOT
ATOM      1  O   UNL     1      -1.055 -15.139  27.307  1.00  0.00    -0.454 OA
ENDROOT
BRANCH   1   2
ATOM      2  C   UNL     1      -0.609 -16.301  26.647  1.00  0.00     0.214 A 
ATOM      3  C   UNL     1       0.540 -16.207  25.841  1.00  0.00     0.180 A 
ATOM      4  O   UNL     1       0.965 -17.263  25.160  1.00  0.00    -0.452 OA
ATOM      5  C   UNL     1      -1.268 -17.547  26.734  1.00  0.00     0.239 A 
ATOM      6  C   UNL     1       0.358 -18.441  25.185  1.00  0.00     0.146 A 
ATOM      7  O   UNL     1      -2.216 -17.690  27.548  1.00  0.00    -0.285 OA
ATOM      8  C   UNL     1      -0.820 -18.637  25.949  1.00  0.00     0.111 A 
ATOM      9  C   UNL     1       0.912 -19.494  24.451  1.00  0.00     0.094 A 
ATOM     10  C   UNL     1      -1.456 -19.915  25.904  1.00  0.00     0.134 A 
ATOM     11  C   UNL     1       0.319 -20.756  24.468  1.00  0.00     0.123 A 
ATOM     12  C   UNL     1      -0.854 -20.960  25.194  1.00  0.00     0.093 A 
BRANCH   3  13
ATOM     13  C   UNL     1       1.292 -14.940  25.703  1.00  0.00     0.021 A 
ATOM     14  C   UNL     1       1.038 -14.101  24.606  1.00  0.00     0.016 A 
ATOM     15  C   UNL     1       1.738 -12.900  24.458  1.00  0.00     0.047 A 
ATOM     16  C   UNL     1       2.709 -12.531  25.393  1.00  0.00     0.115 A 
ATOM     17  C   UNL     1       2.287 -14.576  26.629  1.00  0.00     0.016 A 
ATOM     18  C   UNL     1       2.984 -13.373  26.479  1.00  0.00     0.047 A 
BRANCH  16  19
ATOM     19  O   UNL     1       3.398 -11.330  25.235  1.00  0.00    -0.508 OA
ATOM     20  H   UNL     1       4.205 -11.102  25.803  1.00  0.00     0.293 HD
ENDBRANCH  16  19
ENDBRANCH   3  13
BRANCH  10  21
ATOM     21  O   UNL     1      -2.685 -20.195  26.509  1.00  0.00    -0.507 OA
ATOM     22  H   UNL     1      -2.798 -20.754  27.340  1.00  0.00     0.293 HD
ENDBRANCH  10  21
BRANCH  11  23
ATOM     23  O   UNL     1       0.880 -21.815  23.756  1.00  0.00    -0.508 OA
ATOM     24  H   UNL     1       1.630 -21.667  23.090  1.00  0.00     0.293 HD
ENDBRANCH  11  23
ENDBRANCH   1   2
BRANCH   1  25
ATOM     25  C   UNL     1      -2.232 -14.380  27.008  1.00  0.00     0.339 C 
ATOM     26  C   UNL     1      -3.101 -14.205  28.272  1.00  0.00     0.214 C 
ATOM     27  O   UNL     1      -1.900 -13.118  26.439  1.00  0.00    -0.332 OA
ATOM     28  C   UNL     1      -2.398 -13.277  29.288  1.00  0.00     0.180 C 
ATOM     29  C   UNL     1      -1.143 -12.319  27.339  1.00  0.00     0.179 C 
ATOM     30  C   UNL     1      -1.968 -11.968  28.601  1.00  0.00     0.177 C 
BRANCH  26  31
ATOM     31  O   UNL     1      -3.420 -15.448  28.846  1.00  0.00    -0.384 OA
ATOM     32  H   UNL     1      -3.145 -15.426  29.798  1.00  0.00     0.211 HD
ENDBRANCH  26  31
BRANCH  28  33
ATOM     33  O   UNL     1      -3.213 -13.023  30.406  1.00  0.00    -0.387 OA
ATOM     34  H   UNL     1      -2.674 -12.523  31.073  1.00  0.00     0.211 HD
ENDBRANCH  28  33
BRANCH  29  35
ATOM     35  C   UNL     1      -0.640 -11.065  26.607  1.00  0.00     0.191 C 
BRANCH  35  36
ATOM     36  O   UNL     1      -1.626 -10.532  25.762  1.00  0.00    -0.394 OA
ATOM     37  H   UNL     1      -1.170 -10.260  24.924  1.00  0.00     0.210 HD
ENDBRANCH  35  36
ENDBRANCH  29  35
BRANCH  30  38
ATOM     38  O   UNL     1      -3.105 -11.217  28.251  1.00  0.00    -0.387 OA
ATOM     39  H   UNL     1      -3.303 -11.410  27.298  1.00  0.00     0.211 HD
ENDBRANCH  30  38
ENDBRANCH   1  25
TORSDOF 11
ENDMDL
MODEL 4
REMARK VINA RESULT:    -6.491      2.121      6.738
REMARK INTER + INTRA:         -11.249
REMARK INTER:                  -9.766
REMARK INTRA:                  -1.483
REMARK UNBOUND:                -1.912
REMARK SMILES O=c1c(O[C@@H]2O[C@@H](CO)[C@@H](O)[C@@H](O)[C@@H]2O)c(-c2ccc(O)cc2)oc2cc(O)cc(O)c12
REMARK SMILES IDX 4 1 3 2 16 3 24 4 2 5 25 6 1 7 32 8 26 9 30 10 27 11 29 12
REMARK SMILES IDX 17 13 18 14 19 15 20 16 23 17 22 18 21 19 31 21 28 23 5 25
REMARK SMILES IDX 14 26 6 27 12 28 7 29 10 30 15 31 13 33 8 35 9 36 11 38
REMARK H PARENT 21 20 31 22 28 24 15 32 13 34 9 37 11 39
REMARK Flexibility Score: inf
ROOT
ATOM      1  O   UNL     1      -0.555 -21.362  28.846  1.00  0.00    -0.454 OA
ENDROOT
BRANCH   1   2
ATOM      2  C   UNL     1      -0.388 -20.533  27.719  1.00  0.00     0.214 A 
ATOM      3  C   UNL     1       0.466 -20.974  26.692  1.00  0.00     0.180 A 
ATOM      4  O   UNL     1       0.695 -20.202  25.638  1.00  0.00    -0.452 OA
ATOM      5  C   UNL     1      -1.014 -19.275  27.578  1.00  0.00     0.239 A 
ATOM      6  C   UNL     1       0.155 -19.001  25.481  1.00  0.00     0.146 A 
ATOM      7  O   UNL     1      -1.881 -18.918  28.416  1.00  0.00    -0.285 OA
ATOM      8  C   UNL     1      -0.703 -18.454  26.468  1.00  0.00     0.111 A 
ATOM      9  C   UNL     1       0.442 -18.287  24.314  1.00  0.00     0.094 A 
ATOM     10  C   UNL     1      -1.220 -17.138  26.267  1.00  0.00     0.134 A 
ATOM     11  C   UNL     1      -0.122 -17.030  24.098  1.00  0.00     0.123 A 
ATOM     12  C   UNL     1      -0.949 -16.466  25.068  1.00  0.00     0.093 A 
BRANCH   3  13
ATOM     13  C   UNL     1       1.154 -22.282  26.760  1.00  0.00     0.021 A 
ATOM     14  C   UNL     1       2.284 -22.428  27.581  1.00  0.00     0.016 A 
ATOM     15  C   UNL     1       2.947 -23.657  27.658  1.00  0.00     0.047 A 
ATOM     16  C   UNL     1       2.501 -24.746  26.905  1.00  0.00     0.115 A 
ATOM     17  C   UNL     1       0.723 -23.375  25.986  1.00  0.00     0.016 A 
ATOM     18  C   UNL     1       1.388 -24.603  26.066  1.00  0.00     0.047 A 
BRANCH  16  19
ATOM     19  O   UNL     1       3.170 -25.966  26.994  1.00  0.00    -0.508 OA
ATOM     20  H   UNL     1       3.009 -26.708  26.325  1.00  0.00     0.293 HD
ENDBRANCH  16  19
ENDBRANCH   3  13
BRANCH  10  21
ATOM     21  O   UNL     1      -1.971 -16.442  27.219  1.00  0.00    -0.507 OA
ATOM     22  H   UNL     1      -2.122 -15.445  27.210  1.00  0.00     0.293 HD
ENDBRANCH  10  21
BRANCH  11  23
ATOM     23  O   UNL     1       0.142 -16.324  22.925  1.00  0.00    -0.508 OA
ATOM     24  H   UNL     1       1.015 -16.438  22.424  1.00  0.00     0.293 HD
ENDBRANCH  11  23
ENDBRANCH   1   2
BRANCH   1  25
ATOM     25  C   UNL     1      -0.286 -21.021  30.210  1.00  0.00     0.339 C 
ATOM     26  C   UNL     1      -1.520 -21.304  31.095  1.00  0.00     0.214 C 
ATOM     27  O   UNL     1       0.859 -21.711  30.698  1.00  0.00    -0.332 OA
ATOM     28  C   UNL     1      -1.766 -22.825  31.210  1.00  0.00     0.180 C 
ATOM     29  C   UNL     1       0.668 -23.121  30.682  1.00  0.00     0.179 C 
ATOM     30  C   UNL     1      -0.471 -23.539  31.641  1.00  0.00     0.177 C 
BRANCH  26  31
ATOM     31  O   UNL     1      -2.657 -20.634  30.609  1.00  0.00    -0.384 OA
ATOM     32  H   UNL     1      -3.254 -21.307  30.191  1.00  0.00     0.211 HD
ENDBRANCH  26  31
BRANCH  28  33
ATOM     33  O   UNL     1      -2.825 -23.112  32.090  1.00  0.00    -0.387 OA
ATOM     34  H   UNL     1      -2.436 -23.421  32.950  1.00  0.00     0.211 HD
ENDBRANCH  28  33
BRANCH  29  35
ATOM     35  C   UNL     1       1.996 -23.817  31.020  1.00  0.00     0.191 C 
BRANCH  35  36
ATOM     36  O   UNL     1       2.500 -23.394  32.259  1.00  0.00    -0.394 OA
ATOM     37  H   UNL     1       2.177 -22.465  32.398  1.00  0.00     0.210 HD
ENDBRANCH  35  36
ENDBRANCH  29  35
BRANCH  30  38
ATOM     38  O   UNL     1      -0.152 -23.188  32.966  1.00  0.00    -0.387 OA
ATOM     39  H   UNL     1       0.769 -22.819  32.959  1.00  0.00     0.211 HD
ENDBRANCH  30  38
ENDBRANCH   1  25
TORSDOF 11
ENDMDL
MODEL 5
REMARK VINA RESULT:    -6.470      1.827      7.322
REMARK INTER + INTRA:         -11.218
REMARK INTER:                  -9.740
REMARK INTRA:                  -1.478
REMARK UNBOUND:                -1.912
REMARK SMILES O=c1c(O[C@@H]2O[C@@H](CO)[C@@H](O)[C@@H](O)[C@@H]2O)c(-c2ccc(O)cc2)oc2cc(O)cc(O)c12
REMARK SMILES IDX 4 1 3 2 16 3 24 4 2 5 25 6 1 7 32 8 26 9 30 10 27 11 29 12
REMARK SMILES IDX 17 13 18 14 19 15 20 16 23 17 22 18 21 19 31 21 28 23 5 25
REMARK SMILES IDX 14 26 6 27 12 28 7 29 10 30 15 31 13 33 8 35 9 36 11 38
REMARK H PARENT 21 20 31 22 28 24 15 32 13 34 9 37 11 39
REMARK Flexibility Score: inf
ROOT
ATOM      1  O   UNL     1       0.402 -20.826  26.351  1.00  0.00    -0.454 OA
ENDROOT
BRANCH   1   2
ATOM      2  C   UNL     1      -0.230 -19.600  26.643  1.00  0.00     0.214 A 
ATOM      3  C   UNL     1      -0.947 -19.494  27.848  1.00  0.00     0.180 A 
ATOM      4  O   UNL     1      -1.601 -18.377  28.139  1.00  0.00    -0.452 OA
ATOM      5  C   UNL     1      -0.198 -18.484  25.780  1.00  0.00     0.239 A 
ATOM      6  C   UNL     1      -1.627 -17.318  27.342  1.00  0.00     0.146 A 
ATOM      7  O   UNL     1       0.542 -18.507  24.764  1.00  0.00    -0.285 OA
ATOM      8  C   UNL     1      -0.954 -17.329  26.095  1.00  0.00     0.111 A 
ATOM      9  C   UNL     1      -2.324 -16.182  27.765  1.00  0.00     0.094 A 
ATOM     10  C   UNL     1      -1.053 -16.175  25.259  1.00  0.00     0.134 A 
ATOM     11  C   UNL     1      -2.358 -15.037  26.968  1.00  0.00     0.123 A 
ATOM     12  C   UNL     1      -1.722 -15.038  25.727  1.00  0.00     0.093 A 
BRANCH   3  13
ATOM     13  C   UNL     1      -1.023 -20.616  28.811  1.00  0.00     0.021 A 
ATOM     14  C   UNL     1      -0.160 -20.637  29.918  1.00  0.00     0.016 A 
ATOM     15  C   UNL     1      -0.216 -21.689  30.838  1.00  0.00     0.047 A 
ATOM     16  C   UNL     1      -1.122 -22.737  30.654  1.00  0.00     0.115 A 
ATOM     17  C   UNL     1      -1.917 -21.685  28.617  1.00  0.00     0.016 A 
ATOM     18  C   UNL     1      -1.971 -22.735  29.540  1.00  0.00     0.047 A 
BRANCH  16  19
ATOM     19  O   UNL     1      -1.170 -23.778  31.580  1.00  0.00    -0.508 OA
ATOM     20  H   UNL     1      -0.738 -23.695  32.493  1.00  0.00     0.293 HD
ENDBRANCH  16  19
ENDBRANCH   3  13
BRANCH  10  21
ATOM     21  O   UNL     1      -0.543 -16.110  23.959  1.00  0.00    -0.507 OA
ATOM     22  H   UNL     1      -0.785 -15.400  23.284  1.00  0.00     0.293 HD
ENDBRANCH  10  21
BRANCH  11  23
ATOM     23  O   UNL     1      -3.032 -13.894  27.394  1.00  0.00    -0.508 OA
ATOM     24  H   UNL     1      -3.965 -13.945  27.787  1.00  0.00     0.293 HD
ENDBRANCH  11  23
ENDBRANCH   1   2
BRANCH   1  25
ATOM     25  C   UNL     1       1.749 -21.193  26.663  1.00  0.00     0.339 C 
ATOM     26  C   UNL     1       1.878 -22.726  26.797  1.00  0.00     0.214 C 
ATOM     27  O   UNL     1       2.659 -20.689  25.693  1.00  0.00    -0.332 OA
ATOM     28  C   UNL     1       1.694 -23.407  25.422  1.00  0.00     0.180 C 
ATOM     29  C   UNL     1       2.402 -21.228  24.402  1.00  0.00     0.179 C 
ATOM     30  C   UNL     1       2.626 -22.758  24.382  1.00  0.00     0.177 C 
BRANCH  26  31
ATOM     31  O   UNL     1       0.971 -23.231  27.746  1.00  0.00    -0.384 OA
ATOM     32  H   UNL     1       1.312 -23.002  28.648  1.00  0.00     0.211 HD
ENDBRANCH  26  31
BRANCH  28  33
ATOM     33  O   UNL     1       1.904 -24.796  25.501  1.00  0.00    -0.387 OA
ATOM     34  H   UNL     1       2.720 -25.013  24.979  1.00  0.00     0.211 HD
ENDBRANCH  28  33
BRANCH  29  35
ATOM     35  C   UNL     1       3.271 -20.499  23.364  1.00  0.00     0.191 C 
BRANCH  35  36
ATOM     36  O   UNL     1       2.664 -19.313  22.926  1.00  0.00    -0.394 OA
ATOM     37  H   UNL     1       2.734 -19.303  21.936  1.00  0.00     0.210 HD
ENDBRANCH  35  36
ENDBRANCH  29  35
BRANCH  30  38
ATOM     38  O   UNL     1       3.966 -23.062  24.688  1.00  0.00    -0.387 OA
ATOM     39  H   UNL     1       4.098 -24.028  24.500  1.00  0.00     0.211 HD
ENDBRANCH  30  38
ENDBRANCH   1  25
TORSDOF 11
ENDMDL
MODEL 6
REMARK VINA RESULT:    -6.389      1.922      7.775
REMARK INTER + INTRA:         -11.103
REMARK INTER:                  -9.163
REMARK INTRA:                  -1.940
REMARK UNBOUND:                -1.912
REMARK SMILES O=c1c(O[C@@H]2O[C@@H](CO)[C@@H](O)[C@@H](O)[C@@H]2O)c(-c2ccc(O)cc2)oc2cc(O)cc(O)c12
REMARK SMILES IDX 4 1 3 2 16 3 24 4 2 5 25 6 1 7 32 8 26 9 30 10 27 11 29 12
REMARK SMILES IDX 17 13 18 14 19 15 20 16 23 17 22 18 21 19 31 21 28 23 5 25
REMARK SMILES IDX 14 26 6 27 12 28 7 29 10 30 15 31 13 33 8 35 9 36 11 38
REMARK H PARENT 21 20 31 22 28 24 15 32 13 34 9 37 11 39
REMARK Flexibility Score: inf
ROOT
ATOM      1  O   UNL     1       1.117 -20.575  26.595  1.00  0.00    -0.454 OA
ENDROOT
BRANCH   1   2
ATOM      2  C   UNL     1       0.399 -19.366  26.688  1.00  0.00     0.214 A 
ATOM      3  C   UNL     1      -0.347 -19.125  27.856  1.00  0.00     0.180 A 
ATOM      4  O   UNL     1      -1.080 -18.025  27.964  1.00  0.00    -0.452 OA
ATOM      5  C   UNL     1       0.373 -18.396  25.663  1.00  0.00     0.239 A 
ATOM      6  C   UNL     1      -1.161 -17.105  27.013  1.00  0.00     0.146 A 
ATOM      7  O   UNL     1       1.133 -18.525  24.669  1.00  0.00    -0.285 OA
ATOM      8  C   UNL     1      -0.465 -17.261  25.788  1.00  0.00     0.111 A 
ATOM      9  C   UNL     1      -1.940 -15.969  27.248  1.00  0.00     0.094 A 
ATOM     10  C   UNL     1      -0.624 -16.260  24.782  1.00  0.00     0.134 A 
ATOM     11  C   UNL     1      -2.036 -14.966  26.283  1.00  0.00     0.123 A 
ATOM     12  C   UNL     1      -1.377 -15.113  25.063  1.00  0.00     0.093 A 
BRANCH   3  13
ATOM     13  C   UNL     1      -0.365 -20.088  28.980  1.00  0.00     0.021 A 
ATOM     14  C   UNL     1       0.729 -20.149  29.858  1.00  0.00     0.016 A 
ATOM     15  C   UNL     1       0.729 -21.052  30.925  1.00  0.00     0.047 A 
ATOM     16  C   UNL     1      -0.354 -21.914  31.118  1.00  0.00     0.115 A 
ATOM     17  C   UNL     1      -1.443 -20.974  29.164  1.00  0.00     0.016 A 
ATOM     18  C   UNL     1      -1.439 -21.876  30.233  1.00  0.00     0.047 A 
BRANCH  16  19
ATOM     19  O   UNL     1      -0.341 -22.808  32.188  1.00  0.00    -0.508 OA
ATOM     20  H   UNL     1      -0.587 -22.515  33.126  1.00  0.00     0.293 HD
ENDBRANCH  16  19
ENDBRANCH   3  13
BRANCH  10  21
ATOM     21  O   UNL     1      -0.094 -16.360  23.492  1.00  0.00    -0.507 OA
ATOM     22  H   UNL     1      -0.619 -16.206  22.645  1.00  0.00     0.293 HD
ENDBRANCH  10  21
BRANCH  11  23
ATOM     23  O   UNL     1      -2.793 -13.820  26.521  1.00  0.00    -0.508 OA
ATOM     24  H   UNL     1      -2.843 -13.068  25.843  1.00  0.00     0.293 HD
ENDBRANCH  11  23
ENDBRANCH   1   2
BRANCH   1  25
ATOM     25  C   UNL     1       0.703 -21.769  25.923  1.00  0.00     0.339 C 
ATOM     26  C   UNL     1       1.742 -22.180  24.856  1.00  0.00     0.214 C 
ATOM     27  O   UNL     1       0.476 -22.828  26.846  1.00  0.00    -0.332 OA
ATOM     28  C   UNL     1       3.050 -22.654  25.529  1.00  0.00     0.180 C 
ATOM     29  C   UNL     1       1.661 -23.173  27.552  1.00  0.00     0.179 C 
ATOM     30  C   UNL     1       2.741 -23.725  26.591  1.00  0.00     0.177 C 
BRANCH  26  31
ATOM     31  O   UNL     1       1.981 -21.133  23.949  1.00  0.00    -0.384 OA
ATOM     32  H   UNL     1       1.104 -20.796  23.631  1.00  0.00     0.211 HD
ENDBRANCH  26  31
BRANCH  28  33
ATOM     33  O   UNL     1       3.977 -23.127  24.582  1.00  0.00    -0.387 OA
ATOM     34  H   UNL     1       4.354 -23.980  24.920  1.00  0.00     0.211 HD
ENDBRANCH  28  33
BRANCH  29  35
ATOM     35  C   UNL     1       1.315 -24.168  28.671  1.00  0.00     0.191 C 
BRANCH  35  36
ATOM     36  O   UNL     1       0.440 -25.167  28.219  1.00  0.00    -0.394 OA
ATOM     37  H   UNL     1       0.339 -25.039  27.240  1.00  0.00     0.210 HD
ENDBRANCH  35  36
ENDBRANCH  29  35
BRANCH  30  38
ATOM     38  O   UNL     1       2.286 -24.900  25.965  1.00  0.00    -0.387 OA
ATOM     39  H   UNL     1       3.023 -25.563  26.014  1.00  0.00     0.211 HD
ENDBRANCH  30  38
ENDBRANCH   1  25
TORSDOF 11
ENDMDL
MODEL 7
REMARK VINA RESULT:    -6.246      1.638      6.663
REMARK INTER + INTRA:         -10.897
REMARK INTER:                  -9.271
REMARK INTRA:                  -1.626
REMARK UNBOUND:                -1.912
REMARK SMILES O=c1c(O[C@@H]2O[C@@H](CO)[C@@H](O)[C@@H](O)[C@@H]2O)c(-c2ccc(O)cc2)oc2cc(O)cc(O)c12
REMARK SMILES IDX 4 1 3 2 16 3 24 4 2 5 25 6 1 7 32 8 26 9 30 10 27 11 29 12
REMARK SMILES IDX 17 13 18 14 19 15 20 16 23 17 22 18 21 19 31 21 28 23 5 25
REMARK SMILES IDX 14 26 6 27 12 28 7 29 10 30 15 31 13 33 8 35 9 36 11 38
REMARK H PARENT 21 20 31 22 28 24 15 32 13 34 9 37 11 39
REMARK Flexibility Score: inf
ROOT
ATOM      1  O   UNL     1      -0.929 -20.441  28.052  1.00  0.00    -0.454 OA
ENDROOT
BRANCH   1   2
ATOM      2  C   UNL     1      -1.062 -19.134  27.539  1.00  0.00     0.214 A 
ATOM      3  C   UNL     1      -0.397 -18.821  26.340  1.00  0.00     0.180 A 
ATOM      4  O   UNL     1      -0.451 -17.589  25.851  1.00  0.00    -0.452 OA
ATOM      5  C   UNL     1      -1.808 -18.120  28.179  1.00  0.00     0.239 A 
ATOM      6  C   UNL     1      -1.110 -16.599  26.435  1.00  0.00     0.146 A 
ATOM      7  O   UNL     1      -2.516 -18.408  29.177  1.00  0.00    -0.285 OA
ATOM      8  C   UNL     1      -1.796 -16.803  27.659  1.00  0.00     0.111 A 
ATOM      9  C   UNL     1      -1.124 -15.347  25.813  1.00  0.00     0.094 A 
ATOM     10  C   UNL     1      -2.452 -15.690  28.265  1.00  0.00     0.134 A 
ATOM     11  C   UNL     1      -1.825 -14.283  26.382  1.00  0.00     0.123 A 
ATOM     12  C   UNL     1      -2.485 -14.460  27.597  1.00  0.00     0.093 A 
BRANCH   3  13
ATOM     13  C   UNL     1       0.399 -19.829  25.605  1.00  0.00     0.021 A 
ATOM     14  C   UNL     1       1.711 -20.110  26.019  1.00  0.00     0.016 A 
ATOM     15  C   UNL     1       2.479 -21.059  25.337  1.00  0.00     0.047 A 
ATOM     16  C   UNL     1       1.951 -21.725  24.227  1.00  0.00     0.115 A 
ATOM     17  C   UNL     1      -0.119 -20.485  24.474  1.00  0.00     0.016 A 
ATOM     18  C   UNL     1       0.651 -21.434  23.794  1.00  0.00     0.047 A 
BRANCH  16  19
ATOM     19  O   UNL     1       2.727 -22.671  23.558  1.00  0.00    -0.508 OA
ATOM     20  H   UNL     1       2.305 -23.434  23.044  1.00  0.00     0.293 HD
ENDBRANCH  16  19
ENDBRANCH   3  13
BRANCH  10  21
ATOM     21  O   UNL     1      -3.054 -15.732  29.527  1.00  0.00    -0.507 OA
ATOM     22  H   UNL     1      -2.584 -16.010  30.375  1.00  0.00     0.293 HD
ENDBRANCH  10  21
BRANCH  11  23
ATOM     23  O   UNL     1      -1.862 -13.039  25.754  1.00  0.00    -0.508 OA
ATOM     24  H   UNL     1      -1.628 -12.188  26.251  1.00  0.00     0.293 HD
ENDBRANCH  11  23
ENDBRANCH   1   2
BRANCH   1  25
ATOM     25  C   UNL     1      -0.420 -20.811  29.337  1.00  0.00     0.339 C 
ATOM     26  C   UNL     1      -1.467 -21.633  30.120  1.00  0.00     0.214 C 
ATOM     27  O   UNL     1       0.804 -21.526  29.220  1.00  0.00    -0.332 OA
ATOM     28  C   UNL     1      -1.665 -23.020  29.466  1.00  0.00     0.180 C 
ATOM     29  C   UNL     1       0.635 -22.744  28.506  1.00  0.00     0.179 C 
ATOM     30  C   UNL     1      -0.303 -23.710  29.267  1.00  0.00     0.177 C 
BRANCH  26  31
ATOM     31  O   UNL     1      -2.684 -20.937  30.227  1.00  0.00    -0.384 OA
ATOM     32  H   UNL     1      -3.313 -21.313  29.558  1.00  0.00     0.211 HD
ENDBRANCH  26  31
BRANCH  28  33
ATOM     33  O   UNL     1      -2.541 -23.825  30.217  1.00  0.00    -0.387 OA
ATOM     34  H   UNL     1      -2.246 -23.799  31.164  1.00  0.00     0.211 HD
ENDBRANCH  28  33
BRANCH  29  35
ATOM     35  C   UNL     1       2.013 -23.368  28.231  1.00  0.00     0.191 C 
BRANCH  35  36
ATOM     36  O   UNL     1       1.945 -24.769  28.196  1.00  0.00    -0.394 OA
ATOM     37  H   UNL     1       2.373 -25.056  27.348  1.00  0.00     0.210 HD
ENDBRANCH  35  36
ENDBRANCH  29  35
BRANCH  30  38
ATOM     38  O   UNL     1       0.248 -24.047  30.517  1.00  0.00    -0.387 OA
ATOM     39  H   UNL     1      -0.461 -23.906  31.198  1.00  0.00     0.211 HD
ENDBRANCH  30  38
ENDBRANCH   1  25
TORSDOF 11
ENDMDL
MODEL 8
REMARK VINA RESULT:    -6.163      1.844      4.817
REMARK INTER + INTRA:         -10.777
REMARK INTER:                  -8.950
REMARK INTRA:                  -1.827
REMARK UNBOUND:                -1.912
REMARK SMILES O=c1c(O[C@@H]2O[C@@H](CO)[C@@H](O)[C@@H](O)[C@@H]2O)c(-c2ccc(O)cc2)oc2cc(O)cc(O)c12
REMARK SMILES IDX 4 1 3 2 16 3 24 4 2 5 25 6 1 7 32 8 26 9 30 10 27 11 29 12
REMARK SMILES IDX 17 13 18 14 19 15 20 16 23 17 22 18 21 19 31 21 28 23 5 25
REMARK SMILES IDX 14 26 6 27 12 28 7 29 10 30 15 31 13 33 8 35 9 36 11 38
REMARK H PARENT 21 20 31 22 28 24 15 32 13 34 9 37 11 39
REMARK Flexibility Score: inf
ROOT
ATOM      1  O   UNL     1       1.126 -22.256  26.565  1.00  0.00    -0.454 OA
ENDROOT
BRANCH   1   2
ATOM      2  C   UNL     1       0.434 -23.016  27.530  1.00  0.00     0.214 A 
ATOM      3  C   UNL     1      -0.621 -22.402  28.227  1.00  0.00     0.180 A 
ATOM      4  O   UNL     1      -1.265 -23.062  29.181  1.00  0.00    -0.452 OA
ATOM      5  C   UNL     1       0.759 -24.353  27.846  1.00  0.00     0.239 A 
ATOM      6  C   UNL     1      -0.970 -24.306  29.534  1.00  0.00     0.146 A 
ATOM      7  O   UNL     1       1.607 -24.966  27.148  1.00  0.00    -0.285 OA
ATOM      8  C   UNL     1       0.090 -25.009  28.907  1.00  0.00     0.111 A 
ATOM      9  C   UNL     1      -1.736 -24.916  30.532  1.00  0.00     0.094 A 
ATOM     10  C   UNL     1       0.391 -26.329  29.359  1.00  0.00     0.134 A 
ATOM     11  C   UNL     1      -1.474 -26.231  30.918  1.00  0.00     0.123 A 
ATOM     12  C   UNL     1      -0.421 -26.929  30.330  1.00  0.00     0.093 A 
BRANCH   3  13
ATOM     13  C   UNL     1      -1.030 -21.006  27.950  1.00  0.00     0.021 A 
ATOM     14  C   UNL     1      -1.635 -20.694  26.722  1.00  0.00     0.016 A 
ATOM     15  C   UNL     1      -2.028 -19.381  26.442  1.00  0.00     0.047 A 
ATOM     16  C   UNL     1      -1.806 -18.366  27.376  1.00  0.00     0.115 A 
ATOM     17  C   UNL     1      -0.787 -19.976  28.877  1.00  0.00     0.016 A 
ATOM     18  C   UNL     1      -1.182 -18.665  28.594  1.00  0.00     0.047 A 
BRANCH  16  19
ATOM     19  O   UNL     1      -2.205 -17.062  27.084  1.00  0.00    -0.508 OA
ATOM     20  H   UNL     1      -3.047 -16.665  27.480  1.00  0.00     0.293 HD
ENDBRANCH  16  19
ENDBRANCH   3  13
BRANCH  10  21
ATOM     21  O   UNL     1       1.485 -27.075  28.911  1.00  0.00    -0.507 OA
ATOM     22  H   UNL     1       1.746 -27.980  29.272  1.00  0.00     0.293 HD
ENDBRANCH  10  21
BRANCH  11  23
ATOM     23  O   UNL     1      -2.250 -26.852  31.896  1.00  0.00    -0.508 OA
ATOM     24  H   UNL     1      -2.004 -26.800  32.878  1.00  0.00     0.293 HD
ENDBRANCH  11  23
ENDBRANCH   1   2
BRANCH   1  25
ATOM     25  C   UNL     1       2.425 -21.672  26.704  1.00  0.00     0.339 C 
ATOM     26  C   UNL     1       3.333 -22.082  25.523  1.00  0.00     0.214 C 
ATOM     27  O   UNL     1       2.345 -20.256  26.816  1.00  0.00    -0.332 OA
ATOM     28  C   UNL     1       2.847 -21.422  24.213  1.00  0.00     0.180 C 
ATOM     29  C   UNL     1       1.779 -19.668  25.652  1.00  0.00     0.179 C 
ATOM     30  C   UNL     1       2.677 -19.905  24.415  1.00  0.00     0.177 C 
BRANCH  26  31
ATOM     31  O   UNL     1       3.405 -23.481  25.399  1.00  0.00    -0.384 OA
ATOM     32  H   UNL     1       2.895 -23.882  26.149  1.00  0.00     0.211 HD
ENDBRANCH  26  31
BRANCH  28  33
ATOM     33  O   UNL     1       3.715 -21.701  23.141  1.00  0.00    -0.387 OA
ATOM     34  H   UNL     1       3.543 -21.036  22.425  1.00  0.00     0.211 HD
ENDBRANCH  28  33
BRANCH  29  35
ATOM     35  C   UNL     1       1.526 -18.173  25.908  1.00  0.00     0.191 C 
BRANCH  35  36
ATOM     36  O   UNL     1       1.558 -17.434  24.715  1.00  0.00    -0.394 OA
ATOM     37  H   UNL     1       0.890 -17.843  24.106  1.00  0.00     0.210 HD
ENDBRANCH  35  36
ENDBRANCH  29  35
BRANCH  30  38
ATOM     38  O   UNL     1       3.937 -19.305  24.600  1.00  0.00    -0.387 OA
ATOM     39  H   UNL     1       4.421 -19.367  23.736  1.00  0.00     0.211 HD
ENDBRANCH  30  38
ENDBRANCH   1  25
TORSDOF 11
ENDMDL
MODEL 9
REMARK VINA RESULT:    -6.083      5.839      8.619
REMARK INTER + INTRA:         -10.662
REMARK INTER:                  -8.770
REMARK INTRA:                  -1.892
REMARK UNBOUND:                -1.912
REMARK SMILES O=c1c(O[C@@H]2O[C@@H](CO)[C@@H](O)[C@@H](O)[C@@H]2O)c(-c2ccc(O)cc2)oc2cc(O)cc(O)c12
REMARK SMILES IDX 4 1 3 2 16 3 24 4 2 5 25 6 1 7 32 8 26 9 30 10 27 11 29 12
REMARK SMILES IDX 17 13 18 14 19 15 20 16 23 17 22 18 21 19 31 21 28 23 5 25
REMARK SMILES IDX 14 26 6 27 12 28 7 29 10 30 15 31 13 33 8 35 9 36 11 38
REMARK H PARENT 21 20 31 22 28 24 15 32 13 34 9 37 11 39
REMARK Flexibility Score: inf
ROOT
ATOM      1  O   UNL     1      -0.764 -12.599  27.628  1.00  0.00    -0.454 OA
ENDROOT
BRANCH   1   2
ATOM      2  C   UNL     1      -2.028 -13.043  28.066  1.00  0.00     0.214 A 
ATOM      3  C   UNL     1      -2.496 -14.283  27.597  1.00  0.00     0.180 A 
ATOM      4  O   UNL     1      -3.702 -14.715  27.940  1.00  0.00    -0.452 OA
ATOM      5  C   UNL     1      -2.857 -12.297  28.932  1.00  0.00     0.239 A 
ATOM      6  C   UNL     1      -4.527 -14.032  28.723  1.00  0.00     0.146 A 
ATOM      7  O   UNL     1      -2.410 -11.251  29.469  1.00  0.00    -0.285 OA
ATOM      8  C   UNL     1      -4.161 -12.761  29.232  1.00  0.00     0.111 A 
ATOM      9  C   UNL     1      -5.763 -14.598  29.045  1.00  0.00     0.094 A 
ATOM     10  C   UNL     1      -5.106 -12.052  30.034  1.00  0.00     0.134 A 
ATOM     11  C   UNL     1      -6.652 -13.924  29.883  1.00  0.00     0.123 A 
ATOM     12  C   UNL     1      -6.319 -12.663  30.374  1.00  0.00     0.093 A 
BRANCH   3  13
ATOM     13  C   UNL     1      -1.685 -15.129  26.692  1.00  0.00     0.021 A 
ATOM     14  C   UNL     1      -1.874 -15.037  25.304  1.00  0.00     0.016 A 
ATOM     15  C   UNL     1      -1.118 -15.827  24.433  1.00  0.00     0.047 A 
ATOM     16  C   UNL     1      -0.177 -16.729  24.939  1.00  0.00     0.115 A 
ATOM     17  C   UNL     1      -0.754 -16.054  27.197  1.00  0.00     0.016 A 
ATOM     18  C   UNL     1       0.002 -16.843  26.324  1.00  0.00     0.047 A 
BRANCH  16  19
ATOM     19  O   UNL     1       0.572 -17.509  24.060  1.00  0.00    -0.508 OA
ATOM     20  H   UNL     1       0.530 -18.521  24.082  1.00  0.00     0.293 HD
ENDBRANCH  16  19
ENDBRANCH   3  13
BRANCH  10  21
ATOM     21  O   UNL     1      -4.915 -10.743  30.489  1.00  0.00    -0.507 OA
ATOM     22  H   UNL     1      -4.838 -10.481  31.460  1.00  0.00     0.293 HD
ENDBRANCH  10  21
BRANCH  11  23
ATOM     23  O   UNL     1      -7.877 -14.494  30.227  1.00  0.00    -0.508 OA
ATOM     24  H   UNL     1      -8.470 -14.084  30.939  1.00  0.00     0.293 HD
ENDBRANCH  11  23
ENDBRANCH   1   2
BRANCH   1  25
ATOM     25  C   UNL     1      -0.490 -11.780  26.487  1.00  0.00     0.339 C 
ATOM     26  C   UNL     1       0.290 -10.513  26.902  1.00  0.00     0.214 C 
ATOM     27  O   UNL     1       0.216 -12.507  25.488  1.00  0.00    -0.332 OA
ATOM     28  C   UNL     1       1.720 -10.883  27.356  1.00  0.00     0.180 C 
ATOM     29  C   UNL     1       1.483 -12.952  25.959  1.00  0.00     0.179 C 
ATOM     30  C   UNL     1       2.406 -11.755  26.287  1.00  0.00     0.177 C 
BRANCH  26  31
ATOM     31  O   UNL     1      -0.397  -9.798  27.899  1.00  0.00    -0.384 OA
ATOM     32  H   UNL     1      -0.153  -8.841  27.813  1.00  0.00     0.211 HD
ENDBRANCH  26  31
BRANCH  28  33
ATOM     33  O   UNL     1       2.483  -9.736  27.646  1.00  0.00    -0.387 OA
ATOM     34  H   UNL     1       3.200  -9.997  28.280  1.00  0.00     0.211 HD
ENDBRANCH  28  33
BRANCH  29  35
ATOM     35  C   UNL     1       2.107 -13.899  24.921  1.00  0.00     0.191 C 
BRANCH  35  36
ATOM     36  O   UNL     1       1.604 -13.655  23.634  1.00  0.00    -0.394 OA
ATOM     37  H   UNL     1       2.376 -13.390  23.069  1.00  0.00     0.210 HD
ENDBRANCH  35  36
ENDBRANCH  29  35
BRANCH  30  38
ATOM     38  O   UNL     1       2.648 -10.989  25.132  1.00  0.00    -0.387 OA
ATOM     39  H   UNL     1       3.049 -10.131  25.427  1.00  0.00     0.211 HD
ENDBRANCH  30  38
ENDBRANCH   1  25
TORSDOF 11
ENDMDL
