MODEL 1
REMARK VINA RESULT:    -6.327      0.000      0.000
REMARK INTER + INTRA:          -7.944
REMARK INTER:                  -7.621
REMARK INTRA:                  -0.323
REMARK UNBOUND:                -0.323
REMARK SMILES O=c1c(O)c(-c2ccc(O)c(O)c2)oc2cc(O)cc(O)c12
REMARK SMILES IDX 5 1 3 2 2 3 1 4 22 5 20 6 19 7 17 8 16 9 15 10 14 11 6 12
REMARK SMILES IDX 7 13 8 14 9 15 13 16 11 17 10 18 12 20 4 22 21 24 18 26
REMARK H PARENT 10 19 12 21 4 23 21 25 18 27
REMARK Flexibility Score: inf
ROOT
ATOM      1  C   UNL     1      -6.838  15.893  18.152  1.00  0.00     0.180 A 
ATOM      2  C   UNL     1      -6.814  15.457  16.816  1.00  0.00     0.208 A 
ATOM      3  C   UNL     1      -6.990  14.091  16.543  1.00  0.00     0.238 A 
ATOM      4  O   UNL     1      -6.892  13.697  15.352  1.00  0.00    -0.285 OA
ATOM      5  C   UNL     1      -7.244  13.187  17.604  1.00  0.00     0.111 A 
ATOM      6  C   UNL     1      -7.482  11.788  17.439  1.00  0.00     0.134 A 
ATOM      7  C   UNL     1      -7.617  10.973  18.570  1.00  0.00     0.093 A 
ATOM      8  C   UNL     1      -7.587  11.512  19.855  1.00  0.00     0.123 A 
ATOM      9  C   UNL     1      -7.410  12.886  20.027  1.00  0.00     0.094 A 
ATOM     10  C   UNL     1      -7.234  13.720  18.919  1.00  0.00     0.146 A 
ATOM     11  O   UNL     1      -7.047  15.017  19.128  1.00  0.00    -0.452 OA
ENDROOT
BRANCH   1  12
ATOM     12  C   UNL     1      -6.646  17.315  18.520  1.00  0.00     0.025 A 
ATOM     13  C   UNL     1      -5.346  17.805  18.724  1.00  0.00     0.016 A 
ATOM     14  C   UNL     1      -5.138  19.147  19.050  1.00  0.00     0.051 A 
ATOM     15  C   UNL     1      -6.227  20.023  19.164  1.00  0.00     0.157 A 
ATOM     16  C   UNL     1      -7.733  18.201  18.614  1.00  0.00     0.062 A 
ATOM     17  C   UNL     1      -7.526  19.550  18.942  1.00  0.00     0.158 A 
BRANCH  15  18
ATOM     18  O   UNL     1      -6.024  21.361  19.491  1.00  0.00    -0.504 OA
ATOM     19  H   UNL     1      -5.110  21.711  19.752  1.00  0.00     0.293 HD
ENDBRANCH  15  18
BRANCH  17  20
ATOM     20  O   UNL     1      -8.605  20.426  19.041  1.00  0.00    -0.504 OA
ATOM     21  H   UNL     1      -9.266  20.368  19.807  1.00  0.00     0.293 HD
ENDBRANCH  17  20
ENDBRANCH   1  12
BRANCH   2  22
ATOM     22  O   UNL     1      -6.638  16.376  15.779  1.00  0.00    -0.502 OA
ATOM     23  H   UNL     1      -7.161  16.326  14.914  1.00  0.00     0.293 HD
ENDBRANCH   2  22
BRANCH   6  24
ATOM     24  O   UNL     1      -7.620  11.157  16.199  1.00  0.00    -0.507 OA
ATOM     25  H   UNL     1      -8.490  11.040  15.705  1.00  0.00     0.293 HD
ENDBRANCH   6  24
BRANCH   8  26
ATOM     26  O   UNL     1      -7.742  10.673  20.957  1.00  0.00    -0.508 OA
ATOM     27  H   UNL     1      -8.349  10.922  21.731  1.00  0.00     0.293 HD
ENDBRANCH   8  26
TORSDOF 6
ENDMDL
MODEL 2
REMARK VINA RESULT:    -6.113      1.685      1.800
REMARK INTER + INTRA:          -7.687
REMARK INTER:                  -7.565
REMARK INTRA:                  -0.122
REMARK UNBOUND:                -0.323
REMARK SMILES O=c1c(O)c(-c2ccc(O)c(O)c2)oc2cc(O)cc(O)c12
REMARK SMILES IDX 5 1 3 2 2 3 1 4 22 5 20 6 19 7 17 8 16 9 15 10 14 11 6 12
REMARK SMILES IDX 7 13 8 14 9 15 13 16 11 17 10 18 12 20 4 22 21 24 18 26
REMARK H PARENT 10 19 12 21 4 23 21 25 18 27
REMARK Flexibility Score: inf
ROOT
ATOM      1  C   UNL     1      -6.250  14.984  17.751  1.00  0.00     0.180 A 
ATOM      2  C   UNL     1      -7.190  14.622  16.771  1.00  0.00     0.208 A 
ATOM      3  C   UNL     1      -7.371  13.263  16.470  1.00  0.00     0.238 A 
ATOM      4  O   UNL     1      -8.159  12.951  15.540  1.00  0.00    -0.285 OA
ATOM      5  C   UNL     1      -6.650  12.279  17.191  1.00  0.00     0.111 A 
ATOM      6  C   UNL     1      -6.788  10.870  17.001  1.00  0.00     0.134 A 
ATOM      7  C   UNL     1      -5.946   9.995  17.698  1.00  0.00     0.093 A 
ATOM      8  C   UNL     1      -5.019  10.470  18.623  1.00  0.00     0.123 A 
ATOM      9  C   UNL     1      -4.913  11.842  18.858  1.00  0.00     0.094 A 
ATOM     10  C   UNL     1      -5.713  12.743  18.150  1.00  0.00     0.146 A 
ATOM     11  O   UNL     1      -5.566  14.041  18.388  1.00  0.00    -0.452 OA
ENDROOT
BRANCH   1  12
ATOM     12  C   UNL     1      -5.993  16.396  18.113  1.00  0.00     0.025 A 
ATOM     13  C   UNL     1      -4.722  16.948  17.883  1.00  0.00     0.016 A 
ATOM     14  C   UNL     1      -4.463  18.285  18.196  1.00  0.00     0.051 A 
ATOM     15  C   UNL     1      -5.475  19.093  18.730  1.00  0.00     0.157 A 
ATOM     16  C   UNL     1      -7.011  17.218  18.629  1.00  0.00     0.062 A 
ATOM     17  C   UNL     1      -6.752  18.560  18.944  1.00  0.00     0.158 A 
BRANCH  15  18
ATOM     18  O   UNL     1      -5.219  20.426  19.046  1.00  0.00    -0.504 OA
ATOM     19  H   UNL     1      -5.109  20.733  20.005  1.00  0.00     0.293 HD
ENDBRANCH  15  18
BRANCH  17  20
ATOM     20  O   UNL     1      -7.759  19.371  19.462  1.00  0.00    -0.504 OA
ATOM     21  H   UNL     1      -7.569  20.313  19.786  1.00  0.00     0.293 HD
ENDBRANCH  17  20
ENDBRANCH   1  12
BRANCH   2  22
ATOM     22  O   UNL     1      -7.946  15.604  16.125  1.00  0.00    -0.502 OA
ATOM     23  H   UNL     1      -7.766  16.594  16.244  1.00  0.00     0.293 HD
ENDBRANCH   2  22
BRANCH   6  24
ATOM     24  O   UNL     1      -7.743  10.281  16.167  1.00  0.00    -0.507 OA
ATOM     25  H   UNL     1      -8.699  10.587  16.077  1.00  0.00     0.293 HD
ENDBRANCH   6  24
BRANCH   8  26
ATOM     26  O   UNL     1      -4.209   9.568  19.312  1.00  0.00    -0.508 OA
ATOM     27  H   UNL     1      -4.603   8.783  19.818  1.00  0.00     0.293 HD
ENDBRANCH   8  26
TORSDOF 6
ENDMDL
MODEL 3
REMARK VINA RESULT:    -5.999      2.447      7.637
REMARK INTER + INTRA:          -7.549
REMARK INTER:                  -7.224
REMARK INTRA:                  -0.325
REMARK UNBOUND:                -0.323
REMARK SMILES O=c1c(O)c(-c2ccc(O)c(O)c2)oc2cc(O)cc(O)c12
REMARK SMILES IDX 5 1 3 2 2 3 1 4 22 5 20 6 19 7 17 8 16 9 15 10 14 11 6 12
REMARK SMILES IDX 7 13 8 14 9 15 13 16 11 17 10 18 12 20 4 22 21 24 18 26
REMARK H PARENT 10 19 12 21 4 23 21 25 18 27
REMARK Flexibility Score: inf
ROOT
ATOM      1  C   UNL     1      -6.668  11.259  18.113  1.00  0.00     0.180 A 
ATOM      2  C   UNL     1      -7.384  11.615  16.958  1.00  0.00     0.208 A 
ATOM      3  C   UNL     1      -7.541  12.975  16.645  1.00  0.00     0.238 A 
ATOM      4  O   UNL     1      -8.246  13.288  15.651  1.00  0.00    -0.285 OA
ATOM      5  C   UNL     1      -6.931  13.960  17.460  1.00  0.00     0.111 A 
ATOM      6  C   UNL     1      -6.986  15.366  17.212  1.00  0.00     0.134 A 
ATOM      7  C   UNL     1      -6.434  16.253  18.146  1.00  0.00     0.093 A 
ATOM      8  C   UNL     1      -5.776  15.786  19.282  1.00  0.00     0.123 A 
ATOM      9  C   UNL     1      -5.669  14.413  19.507  1.00  0.00     0.094 A 
ATOM     10  C   UNL     1      -6.242  13.504  18.613  1.00  0.00     0.146 A 
ATOM     11  O   UNL     1      -6.135  12.207  18.876  1.00  0.00    -0.452 OA
ENDROOT
BRANCH   1  12
ATOM     12  C   UNL     1      -6.473   9.848  18.517  1.00  0.00     0.025 A 
ATOM     13  C   UNL     1      -5.269   9.199  18.200  1.00  0.00     0.016 A 
ATOM     14  C   UNL     1      -5.054   7.875  18.589  1.00  0.00     0.051 A 
ATOM     15  C   UNL     1      -6.035   7.184  19.314  1.00  0.00     0.157 A 
ATOM     16  C   UNL     1      -7.446   9.158  19.263  1.00  0.00     0.062 A 
ATOM     17  C   UNL     1      -7.231   7.828  19.655  1.00  0.00     0.158 A 
BRANCH  15  18
ATOM     18  O   UNL     1      -5.825   5.863  19.702  1.00  0.00    -0.504 OA
ATOM     19  H   UNL     1      -6.436   5.402  20.365  1.00  0.00     0.293 HD
ENDBRANCH  15  18
BRANCH  17  20
ATOM     20  O   UNL     1      -8.197   7.143  20.388  1.00  0.00    -0.504 OA
ATOM     21  H   UNL     1      -8.411   6.169  20.204  1.00  0.00     0.293 HD
ENDBRANCH  17  20
ENDBRANCH   1  12
BRANCH   2  22
ATOM     22  O   UNL     1      -7.913  10.625  16.125  1.00  0.00    -0.502 OA
ATOM     23  H   UNL     1      -8.898  10.578  15.895  1.00  0.00     0.293 HD
ENDBRANCH   2  22
BRANCH   6  24
ATOM     24  O   UNL     1      -7.541  15.938  16.065  1.00  0.00    -0.507 OA
ATOM     25  H   UNL     1      -8.178  16.720  16.059  1.00  0.00     0.293 HD
ENDBRANCH   6  24
BRANCH   8  26
ATOM     26  O   UNL     1      -5.225  16.698  20.180  1.00  0.00    -0.508 OA
ATOM     27  H   UNL     1      -4.414  16.463  20.742  1.00  0.00     0.293 HD
ENDBRANCH   8  26
TORSDOF 6
ENDMDL
MODEL 4
REMARK VINA RESULT:    -5.996      2.376      3.215
REMARK INTER + INTRA:          -7.546
REMARK INTER:                  -7.224
REMARK INTRA:                  -0.322
REMARK UNBOUND:                -0.323
REMARK SMILES O=c1c(O)c(-c2ccc(O)c(O)c2)oc2cc(O)cc(O)c12
REMARK SMILES IDX 5 1 3 2 2 3 1 4 22 5 20 6 19 7 17 8 16 9 15 10 14 11 6 12
REMARK SMILES IDX 7 13 8 14 9 15 13 16 11 17 10 18 12 20 4 22 21 24 18 26
REMARK H PARENT 10 19 12 21 4 23 21 25 18 27
REMARK Flexibility Score: inf
ROOT
ATOM      1  C   UNL     1      -5.822  14.552  17.978  1.00  0.00     0.180 A 
ATOM      2  C   UNL     1      -4.594  14.143  18.525  1.00  0.00     0.208 A 
ATOM      3  C   UNL     1      -4.354  12.772  18.709  1.00  0.00     0.238 A 
ATOM      4  O   UNL     1      -3.284  12.417  19.269  1.00  0.00    -0.285 OA
ATOM      5  C   UNL     1      -5.322  11.825  18.292  1.00  0.00     0.111 A 
ATOM      6  C   UNL     1      -5.165  10.408  18.389  1.00  0.00     0.134 A 
ATOM      7  C   UNL     1      -6.233   9.571  18.042  1.00  0.00     0.093 A 
ATOM      8  C   UNL     1      -7.424  10.092  17.542  1.00  0.00     0.123 A 
ATOM      9  C   UNL     1      -7.569  11.472  17.392  1.00  0.00     0.094 A 
ATOM     10  C   UNL     1      -6.536  12.335  17.766  1.00  0.00     0.146 A 
ATOM     11  O   UNL     1      -6.723  13.642  17.625  1.00  0.00    -0.452 OA
ENDROOT
BRANCH   1  12
ATOM     12  C   UNL     1      -6.154  15.980  17.767  1.00  0.00     0.025 A 
ATOM     13  C   UNL     1      -6.732  16.716  18.814  1.00  0.00     0.016 A 
ATOM     14  C   UNL     1      -7.034  18.070  18.646  1.00  0.00     0.051 A 
ATOM     15  C   UNL     1      -6.748  18.711  17.433  1.00  0.00     0.157 A 
ATOM     16  C   UNL     1      -5.849  16.633  16.559  1.00  0.00     0.062 A 
ATOM     17  C   UNL     1      -6.151  17.993  16.389  1.00  0.00     0.158 A 
BRANCH  15  18
ATOM     18  O   UNL     1      -7.049  20.060  17.261  1.00  0.00    -0.504 OA
ATOM     19  H   UNL     1      -7.922  20.455  17.589  1.00  0.00     0.293 HD
ENDBRANCH  15  18
BRANCH  17  20
ATOM     20  O   UNL     1      -5.855  18.637  15.190  1.00  0.00    -0.504 OA
ATOM     21  H   UNL     1      -4.899  18.836  14.917  1.00  0.00     0.293 HD
ENDBRANCH  17  20
ENDBRANCH   1  12
BRANCH   2  22
ATOM     22  O   UNL     1      -3.622  15.090  18.860  1.00  0.00    -0.502 OA
ATOM     23  H   UNL     1      -3.377  15.857  18.246  1.00  0.00     0.293 HD
ENDBRANCH   2  22
BRANCH   6  24
ATOM     24  O   UNL     1      -3.985   9.776  18.791  1.00  0.00    -0.507 OA
ATOM     25  H   UNL     1      -3.936   8.873  19.236  1.00  0.00     0.293 HD
ENDBRANCH   6  24
BRANCH   8  26
ATOM     26  O   UNL     1      -8.459   9.227  17.191  1.00  0.00    -0.508 OA
ATOM     27  H   UNL     1      -8.364   8.222  17.283  1.00  0.00     0.293 HD
ENDBRANCH   8  26
TORSDOF 6
ENDMDL
MODEL 5
REMARK VINA RESULT:    -5.966      1.626      6.879
REMARK INTER + INTRA:          -7.510
REMARK INTER:                  -7.416
REMARK INTRA:                  -0.094
REMARK UNBOUND:                -0.323
REMARK SMILES O=c1c(O)c(-c2ccc(O)c(O)c2)oc2cc(O)cc(O)c12
REMARK SMILES IDX 5 1 3 2 2 3 1 4 22 5 20 6 19 7 17 8 16 9 15 10 14 11 6 12
REMARK SMILES IDX 7 13 8 14 9 15 13 16 11 17 10 18 12 20 4 22 21 24 18 26
REMARK H PARENT 10 19 12 21 4 23 21 25 18 27
REMARK Flexibility Score: inf
ROOT
ATOM      1  C   UNL     1      -6.339  15.170  17.422  1.00  0.00     0.180 A 
ATOM      2  C   UNL     1      -5.132  15.508  16.785  1.00  0.00     0.208 A 
ATOM      3  C   UNL     1      -4.742  16.856  16.738  1.00  0.00     0.238 A 
ATOM      4  O   UNL     1      -3.699  17.159  16.102  1.00  0.00    -0.285 OA
ATOM      5  C   UNL     1      -5.534  17.842  17.376  1.00  0.00     0.111 A 
ATOM      6  C   UNL     1      -5.211  19.232  17.429  1.00  0.00     0.134 A 
ATOM      7  C   UNL     1      -6.123  20.131  17.997  1.00  0.00     0.093 A 
ATOM      8  C   UNL     1      -7.313  19.685  18.569  1.00  0.00     0.123 A 
ATOM      9  C   UNL     1      -7.614  18.323  18.571  1.00  0.00     0.094 A 
ATOM     10  C   UNL     1      -6.742  17.406  17.978  1.00  0.00     0.146 A 
ATOM     11  O   UNL     1      -7.077  16.121  17.984  1.00  0.00    -0.452 OA
ENDROOT
BRANCH   1  12
ATOM     12  C   UNL     1      -6.825  13.774  17.500  1.00  0.00     0.025 A 
ATOM     13  C   UNL     1      -7.054  13.055  16.316  1.00  0.00     0.016 A 
ATOM     14  C   UNL     1      -7.491  11.729  16.365  1.00  0.00     0.051 A 
ATOM     15  C   UNL     1      -7.692  11.097  17.599  1.00  0.00     0.157 A 
ATOM     16  C   UNL     1      -7.007  13.128  18.736  1.00  0.00     0.062 A 
ATOM     17  C   UNL     1      -7.446  11.797  18.787  1.00  0.00     0.158 A 
BRANCH  15  18
ATOM     18  O   UNL     1      -8.130   9.776  17.652  1.00  0.00    -0.504 OA
ATOM     19  H   UNL     1      -7.592   9.022  17.240  1.00  0.00     0.293 HD
ENDBRANCH  15  18
BRANCH  17  20
ATOM     20  O   UNL     1      -7.632  11.161  20.012  1.00  0.00    -0.504 OA
ATOM     21  H   UNL     1      -8.002  11.657  20.816  1.00  0.00     0.293 HD
ENDBRANCH  17  20
ENDBRANCH   1  12
BRANCH   2  22
ATOM     22  O   UNL     1      -4.328  14.510  16.228  1.00  0.00    -0.502 OA
ATOM     23  H   UNL     1      -4.696  13.797  15.612  1.00  0.00     0.293 HD
ENDBRANCH   2  22
BRANCH   6  24
ATOM     24  O   UNL     1      -4.008  19.776  16.968  1.00  0.00    -0.507 OA
ATOM     25  H   UNL     1      -3.295  20.181  17.554  1.00  0.00     0.293 HD
ENDBRANCH   6  24
BRANCH   8  26
ATOM     26  O   UNL     1      -8.189  20.607  19.141  1.00  0.00    -0.508 OA
ATOM     27  H   UNL     1      -7.862  21.320  19.783  1.00  0.00     0.293 HD
ENDBRANCH   8  26
TORSDOF 6
ENDMDL
MODEL 6
REMARK VINA RESULT:    -5.941      1.947      7.360
REMARK INTER + INTRA:          -7.479
REMARK INTER:                  -7.202
REMARK INTRA:                  -0.277
REMARK UNBOUND:                -0.323
REMARK SMILES O=c1c(O)c(-c2ccc(O)c(O)c2)oc2cc(O)cc(O)c12
REMARK SMILES IDX 5 1 3 2 2 3 1 4 22 5 20 6 19 7 17 8 16 9 15 10 14 11 6 12
REMARK SMILES IDX 7 13 8 14 9 15 13 16 11 17 10 18 12 20 4 22 21 24 18 26
REMARK H PARENT 10 19 12 21 4 23 21 25 18 27
REMARK Flexibility Score: inf
ROOT
ATOM      1  C   UNL     1      -6.624  13.512  18.144  1.00  0.00     0.180 A 
ATOM      2  C   UNL     1      -7.067  14.028  19.374  1.00  0.00     0.208 A 
ATOM      3  C   UNL     1      -7.167  15.420  19.532  1.00  0.00     0.238 A 
ATOM      4  O   UNL     1      -7.492  15.877  20.658  1.00  0.00    -0.285 OA
ATOM      5  C   UNL     1      -6.877  16.276  18.441  1.00  0.00     0.111 A 
ATOM      6  C   UNL     1      -6.989  17.699  18.475  1.00  0.00     0.134 A 
ATOM      7  C   UNL     1      -6.574  18.450  17.367  1.00  0.00     0.093 A 
ATOM      8  C   UNL     1      -6.113  17.830  16.208  1.00  0.00     0.123 A 
ATOM      9  C   UNL     1      -6.051  16.437  16.143  1.00  0.00     0.094 A 
ATOM     10  C   UNL     1      -6.423  15.662  17.245  1.00  0.00     0.146 A 
ATOM     11  O   UNL     1      -6.329  14.341  17.149  1.00  0.00    -0.452 OA
ENDROOT
BRANCH   1  12
ATOM     12  C   UNL     1      -6.478  12.058  17.906  1.00  0.00     0.025 A 
ATOM     13  C   UNL     1      -5.206  11.470  17.983  1.00  0.00     0.016 A 
ATOM     14  C   UNL     1      -5.047  10.096  17.785  1.00  0.00     0.051 A 
ATOM     15  C   UNL     1      -6.161   9.288  17.519  1.00  0.00     0.157 A 
ATOM     16  C   UNL     1      -7.596  11.240  17.661  1.00  0.00     0.062 A 
ATOM     17  C   UNL     1      -7.437   9.860  17.461  1.00  0.00     0.158 A 
BRANCH  15  18
ATOM     18  O   UNL     1      -6.006   7.918  17.318  1.00  0.00    -0.504 OA
ATOM     19  H   UNL     1      -5.250   7.401  17.751  1.00  0.00     0.293 HD
ENDBRANCH  15  18
BRANCH  17  20
ATOM     20  O   UNL     1      -8.544   9.052  17.212  1.00  0.00    -0.504 OA
ATOM     21  H   UNL     1      -9.096   9.153  16.367  1.00  0.00     0.293 HD
ENDBRANCH  17  20
ENDBRANCH   1  12
BRANCH   2  22
ATOM     22  O   UNL     1      -7.421  13.163  20.413  1.00  0.00    -0.502 OA
ATOM     23  H   UNL     1      -7.352  12.157  20.329  1.00  0.00     0.293 HD
ENDBRANCH   2  22
BRANCH   6  24
ATOM     24  O   UNL     1      -7.519  18.419  19.549  1.00  0.00    -0.507 OA
ATOM     25  H   UNL     1      -8.500  18.492  19.768  1.00  0.00     0.293 HD
ENDBRANCH   6  24
BRANCH   8  26
ATOM     26  O   UNL     1      -5.725  18.609  15.119  1.00  0.00    -0.508 OA
ATOM     27  H   UNL     1      -6.401  18.956  14.448  1.00  0.00     0.293 HD
ENDBRANCH   8  26
TORSDOF 6
ENDMDL
MODEL 7
REMARK VINA RESULT:    -5.854      2.817      7.591
REMARK INTER + INTRA:          -7.374
REMARK INTER:                  -7.364
REMARK INTRA:                  -0.010
REMARK UNBOUND:                -0.323
REMARK SMILES O=c1c(O)c(-c2ccc(O)c(O)c2)oc2cc(O)cc(O)c12
REMARK SMILES IDX 5 1 3 2 2 3 1 4 22 5 20 6 19 7 17 8 16 9 15 10 14 11 6 12
REMARK SMILES IDX 7 13 8 14 9 15 13 16 11 17 10 18 12 20 4 22 21 24 18 26
REMARK H PARENT 10 19 12 21 4 23 21 25 18 27
REMARK Flexibility Score: inf
ROOT
ATOM      1  C   UNL     1      -5.401  12.612  16.939  1.00  0.00     0.180 A 
ATOM      2  C   UNL     1      -4.168  12.876  16.318  1.00  0.00     0.208 A 
ATOM      3  C   UNL     1      -3.783  14.209  16.105  1.00  0.00     0.238 A 
ATOM      4  O   UNL     1      -2.715  14.436  15.482  1.00  0.00    -0.285 OA
ATOM      5  C   UNL     1      -4.610  15.263  16.567  1.00  0.00     0.111 A 
ATOM      6  C   UNL     1      -4.298  16.651  16.446  1.00  0.00     0.134 A 
ATOM      7  C   UNL     1      -5.240  17.608  16.845  1.00  0.00     0.093 A 
ATOM      8  C   UNL     1      -6.453  17.229  17.418  1.00  0.00     0.123 A 
ATOM      9  C   UNL     1      -6.746  15.876  17.591  1.00  0.00     0.094 A 
ATOM     10  C   UNL     1      -5.842  14.898  17.168  1.00  0.00     0.146 A 
ATOM     11  O   UNL     1      -6.169  13.622  17.333  1.00  0.00    -0.452 OA
ENDROOT
BRANCH   1  12
ATOM     12  C   UNL     1      -5.882  11.234  17.184  1.00  0.00     0.025 A 
ATOM     13  C   UNL     1      -7.142  10.846  16.703  1.00  0.00     0.016 A 
ATOM     14  C   UNL     1      -7.607   9.544  16.903  1.00  0.00     0.051 A 
ATOM     15  C   UNL     1      -6.812   8.606  17.575  1.00  0.00     0.157 A 
ATOM     16  C   UNL     1      -5.078  10.283  17.839  1.00  0.00     0.062 A 
ATOM     17  C   UNL     1      -5.544   8.975  18.040  1.00  0.00     0.158 A 
BRANCH  15  18
ATOM     18  O   UNL     1      -7.274   7.307  17.778  1.00  0.00    -0.504 OA
ATOM     19  H   UNL     1      -7.540   6.977  18.698  1.00  0.00     0.293 HD
ENDBRANCH  15  18
BRANCH  17  20
ATOM     20  O   UNL     1      -4.750   8.036  18.695  1.00  0.00    -0.504 OA
ATOM     21  H   UNL     1      -4.374   7.228  18.210  1.00  0.00     0.293 HD
ENDBRANCH  17  20
ENDBRANCH   1  12
BRANCH   2  22
ATOM     22  O   UNL     1      -3.333  11.821  15.938  1.00  0.00    -0.502 OA
ATOM     23  H   UNL     1      -2.835  11.253  16.613  1.00  0.00     0.293 HD
ENDBRANCH   2  22
BRANCH   6  24
ATOM     24  O   UNL     1      -3.078  17.142  15.970  1.00  0.00    -0.507 OA
ATOM     25  H   UNL     1      -2.973  17.751  15.174  1.00  0.00     0.293 HD
ENDBRANCH   6  24
BRANCH   8  26
ATOM     26  O   UNL     1      -7.359  18.209  17.819  1.00  0.00    -0.508 OA
ATOM     27  H   UNL     1      -7.195  19.192  17.631  1.00  0.00     0.293 HD
ENDBRANCH   8  26
TORSDOF 6
ENDMDL
MODEL 8
REMARK VINA RESULT:    -5.801      2.762      4.220
REMARK INTER + INTRA:          -7.311
REMARK INTER:                  -7.114
REMARK INTRA:                  -0.197
REMARK UNBOUND:                -0.323
REMARK SMILES O=c1c(O)c(-c2ccc(O)c(O)c2)oc2cc(O)cc(O)c12
REMARK SMILES IDX 5 1 3 2 2 3 1 4 22 5 20 6 19 7 17 8 16 9 15 10 14 11 6 12
REMARK SMILES IDX 7 13 8 14 9 15 13 16 11 17 10 18 12 20 4 22 21 24 18 26
REMARK H PARENT 10 19 12 21 4 23 21 25 18 27
REMARK Flexibility Score: inf
ROOT
ATOM      1  C   UNL     1      -5.356  15.616  17.280  1.00  0.00     0.180 A 
ATOM      2  C   UNL     1      -5.889  15.880  18.554  1.00  0.00     0.208 A 
ATOM      3  C   UNL     1      -6.719  14.922  19.158  1.00  0.00     0.238 A 
ATOM      4  O   UNL     1      -7.252  15.197  20.264  1.00  0.00    -0.285 OA
ATOM      5  C   UNL     1      -6.959  13.687  18.506  1.00  0.00     0.111 A 
ATOM      6  C   UNL     1      -7.747  12.625  19.045  1.00  0.00     0.134 A 
ATOM      7  C   UNL     1      -8.003  11.491  18.264  1.00  0.00     0.093 A 
ATOM      8  C   UNL     1      -7.450  11.351  16.993  1.00  0.00     0.123 A 
ATOM      9  C   UNL     1      -6.634  12.359  16.477  1.00  0.00     0.094 A 
ATOM     10  C   UNL     1      -6.391  13.519  17.217  1.00  0.00     0.146 A 
ATOM     11  O   UNL     1      -5.625  14.462  16.680  1.00  0.00    -0.452 OA
ENDROOT
BRANCH   1  12
ATOM     12  C   UNL     1      -4.486  16.583  16.574  1.00  0.00     0.025 A 
ATOM     13  C   UNL     1      -5.028  17.797  16.121  1.00  0.00     0.016 A 
ATOM     14  C   UNL     1      -4.222  18.734  15.472  1.00  0.00     0.051 A 
ATOM     15  C   UNL     1      -2.858  18.478  15.278  1.00  0.00     0.157 A 
ATOM     16  C   UNL     1      -3.112  16.340  16.397  1.00  0.00     0.062 A 
ATOM     17  C   UNL     1      -2.301  17.281  15.745  1.00  0.00     0.158 A 
BRANCH  15  18
ATOM     18  O   UNL     1      -2.051  19.410  14.629  1.00  0.00    -0.504 OA
ATOM     19  H   UNL     1      -1.171  19.144  14.202  1.00  0.00     0.293 HD
ENDBRANCH  15  18
BRANCH  17  20
ATOM     20  O   UNL     1      -0.942  17.036  15.564  1.00  0.00    -0.504 OA
ATOM     21  H   UNL     1      -0.235  17.591  16.034  1.00  0.00     0.293 HD
ENDBRANCH  17  20
ENDBRANCH   1  12
BRANCH   2  22
ATOM     22  O   UNL     1      -5.577  17.073  19.213  1.00  0.00    -0.502 OA
ATOM     23  H   UNL     1      -5.772  17.217  20.196  1.00  0.00     0.293 HD
ENDBRANCH   2  22
BRANCH   6  24
ATOM     24  O   UNL     1      -8.276  12.620  20.339  1.00  0.00    -0.507 OA
ATOM     25  H   UNL     1      -8.571  11.796  20.839  1.00  0.00     0.293 HD
ENDBRANCH   6  24
BRANCH   8  26
ATOM     26  O   UNL     1      -7.712  10.201  16.251  1.00  0.00    -0.508 OA
ATOM     27  H   UNL     1      -7.332  10.073  15.319  1.00  0.00     0.293 HD
ENDBRANCH   8  26
TORSDOF 6
ENDMDL
MODEL 9
REMARK VINA RESULT:    -5.719      2.562      8.256
REMARK INTER + INTRA:          -7.213
REMARK INTER:                  -7.020
REMARK INTRA:                  -0.193
REMARK UNBOUND:                -0.323
REMARK SMILES O=c1c(O)c(-c2ccc(O)c(O)c2)oc2cc(O)cc(O)c12
REMARK SMILES IDX 5 1 3 2 2 3 1 4 22 5 20 6 19 7 17 8 16 9 15 10 14 11 6 12
REMARK SMILES IDX 7 13 8 14 9 15 13 16 11 17 10 18 12 20 4 22 21 24 18 26
REMARK H PARENT 10 19 12 21 4 23 21 25 18 27
REMARK Flexibility Score: inf
ROOT
ATOM      1  C   UNL     1      -6.761  11.175  18.371  1.00  0.00     0.180 A 
ATOM      2  C   UNL     1      -6.909  11.586  19.708  1.00  0.00     0.208 A 
ATOM      3  C   UNL     1      -6.976  12.959  19.995  1.00  0.00     0.238 A 
ATOM      4  O   UNL     1      -7.033  13.320  21.199  1.00  0.00    -0.285 OA
ATOM      5  C   UNL     1      -6.950  13.902  18.938  1.00  0.00     0.111 A 
ATOM      6  C   UNL     1      -7.057  15.316  19.111  1.00  0.00     0.134 A 
ATOM      7  C   UNL     1      -6.913  16.158  18.001  1.00  0.00     0.093 A 
ATOM      8  C   UNL     1      -6.731  15.639  16.721  1.00  0.00     0.123 A 
ATOM      9  C   UNL     1      -6.680  14.257  16.533  1.00  0.00     0.094 A 
ATOM     10  C   UNL     1      -6.782  13.392  17.626  1.00  0.00     0.146 A 
ATOM     11  O   UNL     1      -6.708  12.085  17.405  1.00  0.00    -0.452 OA
ENDROOT
BRANCH   1  12
ATOM     12  C   UNL     1      -6.668   9.748  17.991  1.00  0.00     0.025 A 
ATOM     13  C   UNL     1      -7.656   9.188  17.165  1.00  0.00     0.016 A 
ATOM     14  C   UNL     1      -7.578   7.849  16.775  1.00  0.00     0.051 A 
ATOM     15  C   UNL     1      -6.504   7.053  17.195  1.00  0.00     0.157 A 
ATOM     16  C   UNL     1      -5.580   8.951  18.392  1.00  0.00     0.062 A 
ATOM     17  C   UNL     1      -5.501   7.606  18.001  1.00  0.00     0.158 A 
BRANCH  15  18
ATOM     18  O   UNL     1      -6.423   5.716  16.810  1.00  0.00    -0.504 OA
ATOM     19  H   UNL     1      -6.622   4.965  17.459  1.00  0.00     0.293 HD
ENDBRANCH  15  18
BRANCH  17  20
ATOM     20  O   UNL     1      -4.426   6.816  18.403  1.00  0.00    -0.504 OA
ATOM     21  H   UNL     1      -4.389   5.824  18.196  1.00  0.00     0.293 HD
ENDBRANCH  17  20
ENDBRANCH   1  12
BRANCH   2  22
ATOM     22  O   UNL     1      -7.009  10.636  20.728  1.00  0.00    -0.502 OA
ATOM     23  H   UNL     1      -7.298   9.681  20.555  1.00  0.00     0.293 HD
ENDBRANCH   2  22
BRANCH   6  24
ATOM     24  O   UNL     1      -7.327  15.939  20.332  1.00  0.00    -0.507 OA
ATOM     25  H   UNL     1      -7.733  16.855  20.436  1.00  0.00     0.293 HD
ENDBRANCH   6  24
BRANCH   8  26
ATOM     26  O   UNL     1      -6.609  16.508  15.637  1.00  0.00    -0.508 OA
ATOM     27  H   UNL     1      -5.711  16.693  15.205  1.00  0.00     0.293 HD
ENDBRANCH   8  26
TORSDOF 6
ENDMDL
