MODEL 1
REMARK VINA RESULT:    -5.664      0.000      0.000
REMARK INTER + INTRA:          -6.954
REMARK INTER:                  -6.658
REMARK INTRA:                  -0.296
REMARK UNBOUND:                -0.296
REMARK SMILES O=c1cc(-c2ccc(O)c(O)c2)oc2cc(O)cc(O)c12
REMARK SMILES IDX 4 1 3 2 2 3 1 4 21 5 19 6 18 7 16 8 15 9 14 10 13 11 5 12
REMARK SMILES IDX 6 13 7 14 8 15 12 16 10 17 9 18 11 20 20 22 17 24
REMARK H PARENT 9 19 11 21 20 23 17 25
REMARK Flexibility Score: inf
ROOT
ATOM      1  C   UNL     1     149.277 143.329 138.317  1.00  0.00     0.138 A 
ATOM      2  C   UNL     1     150.361 142.440 138.299  1.00  0.00     0.100 A 
ATOM      3  C   UNL     1     151.663 142.938 138.352  1.00  0.00     0.197 A 
ATOM      4  O   UNL     1     152.613 142.114 138.397  1.00  0.00    -0.289 OA
ATOM      5  C   UNL     1     151.880 144.336 138.391  1.00  0.00     0.107 A 
ATOM      6  C   UNL     1     153.165 144.959 138.407  1.00  0.00     0.134 A 
ATOM      7  C   UNL     1     153.257 146.347 138.564  1.00  0.00     0.093 A 
ATOM      8  C   UNL     1     152.113 147.140 138.647  1.00  0.00     0.123 A 
ATOM      9  C   UNL     1     150.851 146.548 138.578  1.00  0.00     0.094 A 
ATOM     10  C   UNL     1     150.727 145.162 138.456  1.00  0.00     0.146 A 
ATOM     11  O   UNL     1     149.508 144.635 138.410  1.00  0.00    -0.456 OA
ENDROOT
BRANCH   1  12
ATOM     12  C   UNL     1     147.872 142.853 138.261  1.00  0.00     0.021 A 
ATOM     13  C   UNL     1     146.823 143.769 138.455  1.00  0.00     0.016 A 
ATOM     14  C   UNL     1     145.492 143.349 138.399  1.00  0.00     0.051 A 
ATOM     15  C   UNL     1     145.186 142.008 138.140  1.00  0.00     0.157 A 
ATOM     16  C   UNL     1     147.556 141.508 137.986  1.00  0.00     0.062 A 
ATOM     17  C   UNL     1     146.219 141.086 137.929  1.00  0.00     0.158 A 
BRANCH  15  18
ATOM     18  O   UNL     1     143.860 141.583 138.085  1.00  0.00    -0.504 OA
ATOM     19  H   UNL     1     143.573 140.689 138.465  1.00  0.00     0.293 HD
ENDBRANCH  15  18
BRANCH  17  20
ATOM     20  O   UNL     1     145.911 139.754 137.659  1.00  0.00    -0.504 OA
ATOM     21  H   UNL     1     146.140 139.014 138.312  1.00  0.00     0.293 HD
ENDBRANCH  17  20
ENDBRANCH   1  12
BRANCH   6  22
ATOM     22  O   UNL     1     154.370 144.268 138.247  1.00  0.00    -0.507 OA
ATOM     23  H   UNL     1     155.210 144.443 138.777  1.00  0.00     0.293 HD
ENDBRANCH   6  22
BRANCH   8  24
ATOM     24  O   UNL     1     152.241 148.520 138.788  1.00  0.00    -0.508 OA
ATOM     25  H   UNL     1     151.638 149.163 138.290  1.00  0.00     0.293 HD
ENDBRANCH   8  24
TORSDOF 5
ENDMDL
MODEL 2
REMARK VINA RESULT:    -5.662      5.001      8.180
REMARK INTER + INTRA:          -6.951
REMARK INTER:                  -6.655
REMARK INTRA:                  -0.296
REMARK UNBOUND:                -0.296
REMARK SMILES O=c1cc(-c2ccc(O)c(O)c2)oc2cc(O)cc(O)c12
REMARK SMILES IDX 4 1 3 2 2 3 1 4 21 5 19 6 18 7 16 8 15 9 14 10 13 11 5 12
REMARK SMILES IDX 6 13 7 14 8 15 12 16 10 17 9 18 11 20 20 22 17 24
REMARK H PARENT 9 19 11 21 20 23 17 25
REMARK Flexibility Score: inf
ROOT
ATOM      1  C   UNL     1     143.290 146.297 138.321  1.00  0.00     0.138 A 
ATOM      2  C   UNL     1     142.405 145.210 138.285  1.00  0.00     0.100 A 
ATOM      3  C   UNL     1     142.908 143.909 138.333  1.00  0.00     0.197 A 
ATOM      4  O   UNL     1     142.087 142.956 138.362  1.00  0.00    -0.289 OA
ATOM      5  C   UNL     1     144.306 143.697 138.387  1.00  0.00     0.107 A 
ATOM      6  C   UNL     1     144.934 142.415 138.400  1.00  0.00     0.134 A 
ATOM      7  C   UNL     1     146.320 142.327 138.573  1.00  0.00     0.093 A 
ATOM      8  C   UNL     1     147.108 143.474 138.673  1.00  0.00     0.123 A 
ATOM      9  C   UNL     1     146.512 144.734 138.608  1.00  0.00     0.094 A 
ATOM     10  C   UNL     1     145.127 144.853 138.470  1.00  0.00     0.146 A 
ATOM     11  O   UNL     1     144.595 146.071 138.428  1.00  0.00    -0.456 OA
ENDROOT
BRANCH   1  12
ATOM     12  C   UNL     1     142.809 147.701 138.271  1.00  0.00     0.021 A 
ATOM     13  C   UNL     1     143.720 148.752 138.481  1.00  0.00     0.016 A 
ATOM     14  C   UNL     1     143.294 150.082 138.431  1.00  0.00     0.051 A 
ATOM     15  C   UNL     1     141.954 150.384 138.161  1.00  0.00     0.157 A 
ATOM     16  C   UNL     1     141.465 148.014 137.986  1.00  0.00     0.062 A 
ATOM     17  C   UNL     1     141.039 149.349 137.935  1.00  0.00     0.158 A 
BRANCH  15  18
ATOM     18  O   UNL     1     141.526 151.709 138.112  1.00  0.00    -0.504 OA
ATOM     19  H   UNL     1     141.617 152.326 138.911  1.00  0.00     0.293 HD
ENDBRANCH  15  18
BRANCH  17  20
ATOM     20  O   UNL     1     139.708 149.654 137.655  1.00  0.00    -0.504 OA
ATOM     21  H   UNL     1     138.953 149.324 138.244  1.00  0.00     0.293 HD
ENDBRANCH  17  20
ENDBRANCH   1  12
BRANCH   6  22
ATOM     22  O   UNL     1     144.250 141.209 138.222  1.00  0.00    -0.507 OA
ATOM     23  H   UNL     1     144.581 140.434 137.669  1.00  0.00     0.293 HD
ENDBRANCH   6  22
BRANCH   8  24
ATOM     24  O   UNL     1     148.487 143.349 138.829  1.00  0.00    -0.508 OA
ATOM     25  H   UNL     1     148.911 142.480 139.130  1.00  0.00     0.293 HD
ENDBRANCH   8  24
TORSDOF 5
ENDMDL
MODEL 3
REMARK VINA RESULT:    -5.657      4.976      8.161
REMARK INTER + INTRA:          -6.945
REMARK INTER:                  -6.649
REMARK INTRA:                  -0.296
REMARK UNBOUND:                -0.296
REMARK SMILES O=c1cc(-c2ccc(O)c(O)c2)oc2cc(O)cc(O)c12
REMARK SMILES IDX 4 1 3 2 2 3 1 4 21 5 19 6 18 7 16 8 15 9 14 10 13 11 5 12
REMARK SMILES IDX 6 13 7 14 8 15 12 16 10 17 9 18 11 20 20 22 17 24
REMARK H PARENT 9 19 11 21 20 23 17 25
REMARK Flexibility Score: inf
ROOT
ATOM      1  C   UNL     1     152.236 149.291 138.316  1.00  0.00     0.138 A 
ATOM      2  C   UNL     1     153.128 150.371 138.280  1.00  0.00     0.100 A 
ATOM      3  C   UNL     1     152.635 151.676 138.322  1.00  0.00     0.197 A 
ATOM      4  O   UNL     1     153.462 152.623 138.351  1.00  0.00    -0.289 OA
ATOM      5  C   UNL     1     151.237 151.898 138.369  1.00  0.00     0.107 A 
ATOM      6  C   UNL     1     150.619 153.185 138.376  1.00  0.00     0.134 A 
ATOM      7  C   UNL     1     149.233 153.283 138.543  1.00  0.00     0.093 A 
ATOM      8  C   UNL     1     148.436 152.142 138.643  1.00  0.00     0.123 A 
ATOM      9  C   UNL     1     149.024 150.878 138.584  1.00  0.00     0.094 A 
ATOM     10  C   UNL     1     150.409 150.748 138.453  1.00  0.00     0.146 A 
ATOM     11  O   UNL     1     150.931 149.527 138.416  1.00  0.00    -0.456 OA
ENDROOT
BRANCH   1  12
ATOM     12  C   UNL     1     152.707 147.884 138.271  1.00  0.00     0.021 A 
ATOM     13  C   UNL     1     151.785 146.839 138.463  1.00  0.00     0.016 A 
ATOM     14  C   UNL     1     152.201 145.506 138.418  1.00  0.00     0.051 A 
ATOM     15  C   UNL     1     153.543 145.194 138.172  1.00  0.00     0.157 A 
ATOM     16  C   UNL     1     154.053 147.561 138.011  1.00  0.00     0.062 A 
ATOM     17  C   UNL     1     154.470 146.222 137.964  1.00  0.00     0.158 A 
BRANCH  15  18
ATOM     18  O   UNL     1     153.962 143.866 138.128  1.00  0.00    -0.504 OA
ATOM     19  H   UNL     1     153.371 143.112 138.460  1.00  0.00     0.293 HD
ENDBRANCH  15  18
BRANCH  17  20
ATOM     20  O   UNL     1     155.804 145.908 137.708  1.00  0.00    -0.504 OA
ATOM     21  H   UNL     1     156.561 146.382 138.185  1.00  0.00     0.293 HD
ENDBRANCH  17  20
ENDBRANCH   1  12
BRANCH   6  22
ATOM     22  O   UNL     1     151.313 154.386 138.197  1.00  0.00    -0.507 OA
ATOM     23  H   UNL     1     151.587 154.766 137.305  1.00  0.00     0.293 HD
ENDBRANCH   6  22
BRANCH   8  24
ATOM     24  O   UNL     1     147.057 152.277 138.793  1.00  0.00    -0.508 OA
ATOM     25  H   UNL     1     146.409 151.831 138.157  1.00  0.00     0.293 HD
ENDBRANCH   8  24
TORSDOF 5
ENDMDL
MODEL 4
REMARK VINA RESULT:    -5.625      1.855      6.837
REMARK INTER + INTRA:          -6.907
REMARK INTER:                  -6.644
REMARK INTRA:                  -0.263
REMARK UNBOUND:                -0.296
REMARK SMILES O=c1cc(-c2ccc(O)c(O)c2)oc2cc(O)cc(O)c12
REMARK SMILES IDX 4 1 3 2 2 3 1 4 21 5 19 6 18 7 16 8 15 9 14 10 13 11 5 12
REMARK SMILES IDX 6 13 7 14 8 15 12 16 10 17 9 18 11 20 20 22 17 24
REMARK H PARENT 9 19 11 21 20 23 17 25
REMARK Flexibility Score: inf
ROOT
ATOM      1  C   UNL     1     148.806 142.952 138.265  1.00  0.00     0.138 A 
ATOM      2  C   UNL     1     148.304 141.663 138.044  1.00  0.00     0.100 A 
ATOM      3  C   UNL     1     146.925 141.450 138.042  1.00  0.00     0.197 A 
ATOM      4  O   UNL     1     146.502 140.294 137.779  1.00  0.00    -0.289 OA
ATOM      5  C   UNL     1     146.046 142.530 138.295  1.00  0.00     0.107 A 
ATOM      6  C   UNL     1     144.624 142.424 138.358  1.00  0.00     0.134 A 
ATOM      7  C   UNL     1     143.851 143.582 138.499  1.00  0.00     0.093 A 
ATOM      8  C   UNL     1     144.448 144.834 138.640  1.00  0.00     0.123 A 
ATOM      9  C   UNL     1     145.839 144.945 138.634  1.00  0.00     0.094 A 
ATOM     10  C   UNL     1     146.637 143.811 138.461  1.00  0.00     0.146 A 
ATOM     11  O   UNL     1     147.957 143.960 138.445  1.00  0.00    -0.456 OA
ENDROOT
BRANCH   1  12
ATOM     12  C   UNL     1     150.264 143.234 138.279  1.00  0.00     0.021 A 
ATOM     13  C   UNL     1     150.854 143.880 137.177  1.00  0.00     0.016 A 
ATOM     14  C   UNL     1     152.222 144.164 137.169  1.00  0.00     0.051 A 
ATOM     15  C   UNL     1     153.021 143.815 138.264  1.00  0.00     0.157 A 
ATOM     16  C   UNL     1     151.073 142.899 139.382  1.00  0.00     0.062 A 
ATOM     17  C   UNL     1     152.446 143.186 139.374  1.00  0.00     0.158 A 
BRANCH  15  18
ATOM     18  O   UNL     1     154.387 144.096 138.258  1.00  0.00    -0.504 OA
ATOM     19  H   UNL     1     154.913 144.149 137.394  1.00  0.00     0.293 HD
ENDBRANCH  15  18
BRANCH  17  20
ATOM     20  O   UNL     1     153.243 142.851 140.467  1.00  0.00    -0.504 OA
ATOM     21  H   UNL     1     153.659 141.932 140.558  1.00  0.00     0.293 HD
ENDBRANCH  17  20
ENDBRANCH   1  12
BRANCH   6  22
ATOM     22  O   UNL     1     143.929 141.211 138.312  1.00  0.00    -0.507 OA
ATOM     23  H   UNL     1     144.313 140.316 138.574  1.00  0.00     0.293 HD
ENDBRANCH   6  22
BRANCH   8  24
ATOM     24  O   UNL     1     143.648 145.965 138.794  1.00  0.00    -0.508 OA
ATOM     25  H   UNL     1     143.694 146.538 139.627  1.00  0.00     0.293 HD
ENDBRANCH   8  24
TORSDOF 5
ENDMDL
MODEL 5
REMARK VINA RESULT:    -5.616      7.457      9.451
REMARK INTER + INTRA:          -6.896
REMARK INTER:                  -6.633
REMARK INTRA:                  -0.264
REMARK UNBOUND:                -0.296
REMARK SMILES O=c1cc(-c2ccc(O)c(O)c2)oc2cc(O)cc(O)c12
REMARK SMILES IDX 4 1 3 2 2 3 1 4 21 5 19 6 18 7 16 8 15 9 14 10 13 11 5 12
REMARK SMILES IDX 6 13 7 14 8 15 12 16 10 17 9 18 11 20 20 22 17 24
REMARK H PARENT 9 19 11 21 20 23 17 25
REMARK Flexibility Score: inf
ROOT
ATOM      1  C   UNL     1     146.779 152.583 138.263  1.00  0.00     0.138 A 
ATOM      2  C   UNL     1     147.290 153.874 138.071  1.00  0.00     0.100 A 
ATOM      3  C   UNL     1     148.670 154.077 138.069  1.00  0.00     0.197 A 
ATOM      4  O   UNL     1     149.100 155.235 137.832  1.00  0.00    -0.289 OA
ATOM      5  C   UNL     1     149.543 152.984 138.292  1.00  0.00     0.107 A 
ATOM      6  C   UNL     1     150.965 153.080 138.351  1.00  0.00     0.134 A 
ATOM      7  C   UNL     1     151.731 151.913 138.460  1.00  0.00     0.093 A 
ATOM      8  C   UNL     1     151.126 150.661 138.572  1.00  0.00     0.123 A 
ATOM      9  C   UNL     1     149.734 150.561 138.570  1.00  0.00     0.094 A 
ATOM     10  C   UNL     1     148.943 151.704 138.428  1.00  0.00     0.146 A 
ATOM     11  O   UNL     1     147.622 151.565 138.415  1.00  0.00    -0.456 OA
ENDROOT
BRANCH   1  12
ATOM     12  C   UNL     1     145.320 152.311 138.277  1.00  0.00     0.021 A 
ATOM     13  C   UNL     1     144.724 151.682 137.169  1.00  0.00     0.016 A 
ATOM     14  C   UNL     1     143.354 151.408 137.159  1.00  0.00     0.051 A 
ATOM     15  C   UNL     1     142.558 151.749 138.259  1.00  0.00     0.157 A 
ATOM     16  C   UNL     1     144.515 152.638 139.385  1.00  0.00     0.062 A 
ATOM     17  C   UNL     1     143.140 152.361 139.376  1.00  0.00     0.158 A 
BRANCH  15  18
ATOM     18  O   UNL     1     141.191 151.478 138.254  1.00  0.00    -0.504 OA
ATOM     19  H   UNL     1     140.526 152.102 138.696  1.00  0.00     0.293 HD
ENDBRANCH  15  18
BRANCH  17  20
ATOM     20  O   UNL     1     142.347 152.689 140.475  1.00  0.00    -0.504 OA
ATOM     21  H   UNL     1     142.669 152.542 141.424  1.00  0.00     0.293 HD
ENDBRANCH  17  20
ENDBRANCH   1  12
BRANCH   6  22
ATOM     22  O   UNL     1     151.669 154.288 138.332  1.00  0.00    -0.507 OA
ATOM     23  H   UNL     1     152.058 154.741 139.144  1.00  0.00     0.293 HD
ENDBRANCH   6  22
BRANCH   8  24
ATOM     24  O   UNL     1     151.918 149.522 138.695  1.00  0.00    -0.508 OA
ATOM     25  H   UNL     1     152.068 149.074 139.590  1.00  0.00     0.293 HD
ENDBRANCH   8  24
TORSDOF 5
ENDMDL
MODEL 6
REMARK VINA RESULT:    -5.613      3.303      8.105
REMARK INTER + INTRA:          -6.893
REMARK INTER:                  -6.630
REMARK INTRA:                  -0.264
REMARK UNBOUND:                -0.296
REMARK SMILES O=c1cc(-c2ccc(O)c(O)c2)oc2cc(O)cc(O)c12
REMARK SMILES IDX 4 1 3 2 2 3 1 4 21 5 19 6 18 7 16 8 15 9 14 10 13 11 5 12
REMARK SMILES IDX 6 13 7 14 8 15 12 16 10 17 9 18 11 20 20 22 17 24
REMARK H PARENT 9 19 11 21 20 23 17 25
REMARK Flexibility Score: inf
ROOT
ATOM      1  C   UNL     1     152.602 148.789 138.257  1.00  0.00     0.138 A 
ATOM      2  C   UNL     1     153.893 148.289 138.039  1.00  0.00     0.100 A 
ATOM      3  C   UNL     1     154.108 146.911 138.037  1.00  0.00     0.197 A 
ATOM      4  O   UNL     1     155.265 146.491 137.777  1.00  0.00    -0.289 OA
ATOM      5  C   UNL     1     153.029 146.029 138.284  1.00  0.00     0.107 A 
ATOM      6  C   UNL     1     153.138 144.608 138.345  1.00  0.00     0.134 A 
ATOM      7  C   UNL     1     151.980 143.832 138.481  1.00  0.00     0.093 A 
ATOM      8  C   UNL     1     150.726 144.427 138.618  1.00  0.00     0.123 A 
ATOM      9  C   UNL     1     150.613 145.818 138.614  1.00  0.00     0.094 A 
ATOM     10  C   UNL     1     151.746 146.618 138.446  1.00  0.00     0.146 A 
ATOM     11  O   UNL     1     151.595 147.938 138.432  1.00  0.00    -0.456 OA
ENDROOT
BRANCH   1  12
ATOM     12  C   UNL     1     152.317 150.246 138.272  1.00  0.00     0.021 A 
ATOM     13  C   UNL     1     151.663 150.834 137.174  1.00  0.00     0.016 A 
ATOM     14  C   UNL     1     151.377 152.202 137.166  1.00  0.00     0.051 A 
ATOM     15  C   UNL     1     151.730 153.002 138.259  1.00  0.00     0.157 A 
ATOM     16  C   UNL     1     152.657 151.056 139.373  1.00  0.00     0.062 A 
ATOM     17  C   UNL     1     152.367 152.429 139.365  1.00  0.00     0.158 A 
BRANCH  15  18
ATOM     18  O   UNL     1     151.447 154.367 138.255  1.00  0.00    -0.504 OA
ATOM     19  H   UNL     1     151.443 154.910 139.111  1.00  0.00     0.293 HD
ENDBRANCH  15  18
BRANCH  17  20
ATOM     20  O   UNL     1     152.708 153.227 140.456  1.00  0.00    -0.504 OA
ATOM     21  H   UNL     1     153.661 153.531 140.614  1.00  0.00     0.293 HD
ENDBRANCH  17  20
ENDBRANCH   1  12
BRANCH   6  22
ATOM     22  O   UNL     1     154.352 143.915 138.303  1.00  0.00    -0.507 OA
ATOM     23  H   UNL     1     154.868 143.707 137.462  1.00  0.00     0.293 HD
ENDBRANCH   6  22
BRANCH   8  24
ATOM     24  O   UNL     1     149.597 143.624 138.766  1.00  0.00    -0.508 OA
ATOM     25  H   UNL     1     148.769 143.763 138.199  1.00  0.00     0.293 HD
ENDBRANCH   8  24
TORSDOF 5
ENDMDL
MODEL 7
REMARK VINA RESULT:    -5.604      7.365     11.479
REMARK INTER + INTRA:          -6.882
REMARK INTER:                  -6.586
REMARK INTRA:                  -0.296
REMARK UNBOUND:                -0.296
REMARK SMILES O=c1cc(-c2ccc(O)c(O)c2)oc2cc(O)cc(O)c12
REMARK SMILES IDX 4 1 3 2 2 3 1 4 21 5 19 6 18 7 16 8 15 9 14 10 13 11 5 12
REMARK SMILES IDX 6 13 7 14 8 15 12 16 10 17 9 18 11 20 20 22 17 24
REMARK H PARENT 9 19 11 21 20 23 17 25
REMARK Flexibility Score: inf
ROOT
ATOM      1  C   UNL     1     146.338 152.167 138.348  1.00  0.00     0.138 A 
ATOM      2  C   UNL     1     145.277 153.081 138.304  1.00  0.00     0.100 A 
ATOM      3  C   UNL     1     143.962 152.615 138.328  1.00  0.00     0.197 A 
ATOM      4  O   UNL     1     143.032 153.461 138.351  1.00  0.00    -0.289 OA
ATOM      5  C   UNL     1     143.711 151.222 138.364  1.00  0.00     0.107 A 
ATOM      6  C   UNL     1     142.412 150.630 138.351  1.00  0.00     0.134 A 
ATOM      7  C   UNL     1     142.283 149.245 138.509  1.00  0.00     0.093 A 
ATOM      8  C   UNL     1     143.406 148.425 138.618  1.00  0.00     0.123 A 
ATOM      9  C   UNL     1     144.682 148.987 138.578  1.00  0.00     0.094 A 
ATOM     10  C   UNL     1     144.842 150.370 138.456  1.00  0.00     0.146 A 
ATOM     11  O   UNL     1     146.074 150.867 138.437  1.00  0.00    -0.456 OA
ENDROOT
BRANCH   1  12
ATOM     12  C   UNL     1     147.755 152.609 138.323  1.00  0.00     0.021 A 
ATOM     13  C   UNL     1     148.777 151.669 138.549  1.00  0.00     0.016 A 
ATOM     14  C   UNL     1     150.119 152.058 138.523  1.00  0.00     0.051 A 
ATOM     15  C   UNL     1     150.463 153.390 138.263  1.00  0.00     0.157 A 
ATOM     16  C   UNL     1     148.110 153.944 138.048  1.00  0.00     0.062 A 
ATOM     17  C   UNL     1     149.458 154.333 138.021  1.00  0.00     0.158 A 
BRANCH  15  18
ATOM     18  O   UNL     1     151.800 153.782 138.238  1.00  0.00    -0.504 OA
ATOM     19  H   UNL     1     152.091 154.692 138.575  1.00  0.00     0.293 HD
ENDBRANCH  15  18
BRANCH  17  20
ATOM     20  O   UNL     1     149.804 155.656 137.750  1.00  0.00    -0.504 OA
ATOM     21  H   UNL     1     150.162 155.936 136.845  1.00  0.00     0.293 HD
ENDBRANCH  17  20
ENDBRANCH   1  12
BRANCH   6  22
ATOM     22  O   UNL     1     141.228 151.350 138.163  1.00  0.00    -0.507 OA
ATOM     23  H   UNL     1     140.401 151.258 138.733  1.00  0.00     0.293 HD
ENDBRANCH   6  22
BRANCH   8  24
ATOM     24  O   UNL     1     143.241 147.049 138.758  1.00  0.00    -0.508 OA
ATOM     25  H   UNL     1     142.770 146.496 138.052  1.00  0.00     0.293 HD
ENDBRANCH   8  24
TORSDOF 5
ENDMDL
MODEL 8
REMARK VINA RESULT:    -5.600      6.388      8.441
REMARK INTER + INTRA:          -6.878
REMARK INTER:                  -6.614
REMARK INTRA:                  -0.263
REMARK UNBOUND:                -0.296
REMARK SMILES O=c1cc(-c2ccc(O)c(O)c2)oc2cc(O)cc(O)c12
REMARK SMILES IDX 4 1 3 2 2 3 1 4 21 5 19 6 18 7 16 8 15 9 14 10 13 11 5 12
REMARK SMILES IDX 6 13 7 14 8 15 12 16 10 17 9 18 11 20 20 22 17 24
REMARK H PARENT 9 19 11 21 20 23 17 25
REMARK Flexibility Score: inf
ROOT
ATOM      1  C   UNL     1     142.918 146.789 138.240  1.00  0.00     0.138 A 
ATOM      2  C   UNL     1     141.632 147.298 138.014  1.00  0.00     0.100 A 
ATOM      3  C   UNL     1     141.427 148.678 138.009  1.00  0.00     0.197 A 
ATOM      4  O   UNL     1     140.275 149.107 137.742  1.00  0.00    -0.289 OA
ATOM      5  C   UNL     1     142.512 149.551 138.264  1.00  0.00     0.107 A 
ATOM      6  C   UNL     1     142.413 150.974 138.323  1.00  0.00     0.134 A 
ATOM      7  C   UNL     1     143.576 151.741 138.466  1.00  0.00     0.093 A 
ATOM      8  C   UNL     1     144.824 151.137 138.611  1.00  0.00     0.123 A 
ATOM      9  C   UNL     1     144.927 149.745 138.609  1.00  0.00     0.094 A 
ATOM     10  C   UNL     1     143.789 148.953 138.434  1.00  0.00     0.146 A 
ATOM     11  O   UNL     1     143.930 147.632 138.422  1.00  0.00    -0.456 OA
ENDROOT
BRANCH   1  12
ATOM     12  C   UNL     1     143.191 145.330 138.258  1.00  0.00     0.021 A 
ATOM     13  C   UNL     1     143.803 144.727 137.144  1.00  0.00     0.016 A 
ATOM     14  C   UNL     1     144.079 143.358 137.138  1.00  0.00     0.051 A 
ATOM     15  C   UNL     1     143.755 142.568 138.248  1.00  0.00     0.157 A 
ATOM     16  C   UNL     1     142.882 144.531 139.376  1.00  0.00     0.062 A 
ATOM     17  C   UNL     1     143.160 143.156 139.370  1.00  0.00     0.158 A 
BRANCH  15  18
ATOM     18  O   UNL     1     144.027 141.201 138.246  1.00  0.00    -0.504 OA
ATOM     19  H   UNL     1     144.718 140.798 138.868  1.00  0.00     0.293 HD
ENDBRANCH  15  18
BRANCH  17  20
ATOM     20  O   UNL     1     142.850 142.370 140.479  1.00  0.00    -0.504 OA
ATOM     21  H   UNL     1     143.558 142.093 141.148  1.00  0.00     0.293 HD
ENDBRANCH  17  20
ENDBRANCH   1  12
BRANCH   6  22
ATOM     22  O   UNL     1     141.205 151.676 138.273  1.00  0.00    -0.507 OA
ATOM     23  H   UNL     1     140.481 151.530 137.585  1.00  0.00     0.293 HD
ENDBRANCH   6  22
BRANCH   8  24
ATOM     24  O   UNL     1     145.959 151.931 138.767  1.00  0.00    -0.508 OA
ATOM     25  H   UNL     1     146.801 151.763 138.230  1.00  0.00     0.293 HD
ENDBRANCH   8  24
TORSDOF 5
ENDMDL
MODEL 9
REMARK VINA RESULT:    -5.455      5.520      7.542
REMARK INTER + INTRA:          -6.708
REMARK INTER:                  -6.394
REMARK INTRA:                  -0.314
REMARK UNBOUND:                -0.296
REMARK SMILES O=c1cc(-c2ccc(O)c(O)c2)oc2cc(O)cc(O)c12
REMARK SMILES IDX 4 1 3 2 2 3 1 4 21 5 19 6 18 7 16 8 15 9 14 10 13 11 5 12
REMARK SMILES IDX 6 13 7 14 8 15 12 16 10 17 9 18 11 20 20 22 17 24
REMARK H PARENT 9 19 11 21 20 23 17 25
REMARK Flexibility Score: inf
ROOT
ATOM      1  C   UNL     1     144.237 146.723 138.664  1.00  0.00     0.138 A 
ATOM      2  C   UNL     1     145.578 147.117 138.565  1.00  0.00     0.100 A 
ATOM      3  C   UNL     1     145.893 148.471 138.446  1.00  0.00     0.197 A 
ATOM      4  O   UNL     1     147.108 148.799 138.422  1.00  0.00    -0.289 OA
ATOM      5  C   UNL     1     144.855 149.433 138.396  1.00  0.00     0.107 A 
ATOM      6  C   UNL     1     145.056 150.837 138.237  1.00  0.00     0.134 A 
ATOM      7  C   UNL     1     143.959 151.704 138.320  1.00  0.00     0.093 A 
ATOM      8  C   UNL     1     142.665 151.215 138.495  1.00  0.00     0.123 A 
ATOM      9  C   UNL     1     142.451 149.840 138.597  1.00  0.00     0.094 A 
ATOM     10  C   UNL     1     143.529 148.952 138.554  1.00  0.00     0.146 A 
ATOM     11  O   UNL     1     143.285 147.651 138.671  1.00  0.00    -0.456 OA
ENDROOT
BRANCH   1  12
ATOM     12  C   UNL     1     143.847 145.296 138.790  1.00  0.00     0.021 A 
ATOM     13  C   UNL     1     144.774 144.293 138.452  1.00  0.00     0.016 A 
ATOM     14  C   UNL     1     144.435 142.943 138.570  1.00  0.00     0.051 A 
ATOM     15  C   UNL     1     143.167 142.572 139.034  1.00  0.00     0.157 A 
ATOM     16  C   UNL     1     142.579 144.914 139.269  1.00  0.00     0.062 A 
ATOM     17  C   UNL     1     142.240 143.558 139.388  1.00  0.00     0.158 A 
BRANCH  15  18
ATOM     18  O   UNL     1     142.824 141.226 139.151  1.00  0.00    -0.504 OA
ATOM     19  H   UNL     1     142.668 140.796 140.055  1.00  0.00     0.293 HD
ENDBRANCH  15  18
BRANCH  17  20
ATOM     20  O   UNL     1     140.982 143.185 139.861  1.00  0.00    -0.504 OA
ATOM     21  H   UNL     1     140.176 143.789 139.757  1.00  0.00     0.293 HD
ENDBRANCH  17  20
ENDBRANCH   1  12
BRANCH   6  22
ATOM     22  O   UNL     1     146.297 151.424 137.974  1.00  0.00    -0.507 OA
ATOM     23  H   UNL     1     147.096 150.939 137.595  1.00  0.00     0.293 HD
ENDBRANCH   6  22
BRANCH   8  24
ATOM     24  O   UNL     1     141.596 152.106 138.557  1.00  0.00    -0.508 OA
ATOM     25  H   UNL     1     140.640 151.782 138.638  1.00  0.00     0.293 HD
ENDBRANCH   8  24
TORSDOF 5
ENDMDL
