MODEL 1
REMARK VINA RESULT:     4.134      0.000      0.000
REMARK INTER + INTRA:           4.562
REMARK INTER:                   4.859
REMARK INTRA:                  -0.297
REMARK UNBOUND:                -0.297
REMARK SMILES O=c1cc(-c2ccc(O)c(O)c2)oc2cc(O)cc(O)c12
REMARK SMILES IDX 4 1 3 2 2 3 1 4 21 5 19 6 18 7 16 8 15 9 14 10 13 11 5 12
REMARK SMILES IDX 6 13 7 14 8 15 12 16 10 17 9 18 11 20 20 22 17 24
REMARK H PARENT 9 19 11 21 20 23 17 25
REMARK Flexibility Score: inf
ROOT
ATOM      1  C   UNL     1     -34.655 -36.069 -34.738  1.00  0.00     0.138 A 
ATOM      2  C   UNL     1     -35.819 -36.066 -33.956  1.00  0.00     0.100 A 
ATOM      3  C   UNL     1     -37.068 -36.042 -34.577  1.00  0.00     0.197 A 
ATOM      4  O   UNL     1     -38.094 -36.102 -33.852  1.00  0.00    -0.289 OA
ATOM      5  C   UNL     1     -37.151 -35.991 -35.990  1.00  0.00     0.107 A 
ATOM      6  C   UNL     1     -38.368 -35.923 -36.730  1.00  0.00     0.134 A 
ATOM      7  C   UNL     1     -38.330 -35.994 -38.129  1.00  0.00     0.093 A 
ATOM      8  C   UNL     1     -37.115 -36.070 -38.814  1.00  0.00     0.123 A 
ATOM      9  C   UNL     1     -35.917 -36.082 -38.101  1.00  0.00     0.094 A 
ATOM     10  C   UNL     1     -35.925 -36.048 -36.705  1.00  0.00     0.146 A 
ATOM     11  O   UNL     1     -34.761 -36.076 -36.063  1.00  0.00    -0.456 OA
ENDROOT
BRANCH   1  12
ATOM     12  C   UNL     1     -33.302 -36.093 -34.128  1.00  0.00     0.021 A 
ATOM     13  C   UNL     1     -32.168 -36.087 -34.960  1.00  0.00     0.016 A 
ATOM     14  C   UNL     1     -30.884 -36.100 -34.412  1.00  0.00     0.051 A 
ATOM     15  C   UNL     1     -30.708 -36.110 -33.022  1.00  0.00     0.157 A 
ATOM     16  C   UNL     1     -33.118 -36.090 -32.731  1.00  0.00     0.062 A 
ATOM     17  C   UNL     1     -31.832 -36.101 -32.180  1.00  0.00     0.158 A 
BRANCH  15  18
ATOM     18  O   UNL     1     -29.425 -36.125 -32.478  1.00  0.00    -0.504 OA
ATOM     19  H   UNL     1     -29.226 -35.710 -31.575  1.00  0.00     0.293 HD
ENDBRANCH  15  18
BRANCH  17  20
ATOM     20  O   UNL     1     -31.691 -36.099 -30.793  1.00  0.00    -0.504 OA
ATOM     21  H   UNL     1     -30.798 -36.260 -30.342  1.00  0.00     0.293 HD
ENDBRANCH  17  20
ENDBRANCH   1  12
BRANCH   6  22
ATOM     22  O   UNL     1     -39.629 -35.761 -36.148  1.00  0.00    -0.507 OA
ATOM     23  H   UNL     1     -40.022 -36.368 -35.445  1.00  0.00     0.293 HD
ENDBRANCH   6  22
BRANCH   8  24
ATOM     24  O   UNL     1     -37.086 -36.125 -40.205  1.00  0.00    -0.508 OA
ATOM     25  H   UNL     1     -37.933 -36.240 -40.748  1.00  0.00     0.293 HD
ENDBRANCH   8  24
TORSDOF 5
ENDMDL
MODEL 2
REMARK VINA RESULT:     5.398      1.285      2.903
REMARK INTER + INTRA:           6.048
REMARK INTER:                   6.366
REMARK INTRA:                  -0.318
REMARK UNBOUND:                -0.297
REMARK SMILES O=c1cc(-c2ccc(O)c(O)c2)oc2cc(O)cc(O)c12
REMARK SMILES IDX 4 1 3 2 2 3 1 4 21 5 19 6 18 7 16 8 15 9 14 10 13 11 5 12
REMARK SMILES IDX 6 13 7 14 8 15 12 16 10 17 9 18 11 20 20 22 17 24
REMARK H PARENT 9 19 11 21 20 23 17 25
REMARK Flexibility Score: inf
ROOT
ATOM      1  C   UNL     1     -34.453 -36.008 -34.676  1.00  0.00     0.138 A 
ATOM      2  C   UNL     1     -34.662 -35.965 -36.062  1.00  0.00     0.100 A 
ATOM      3  C   UNL     1     -35.963 -35.931 -36.564  1.00  0.00     0.197 A 
ATOM      4  O   UNL     1     -36.118 -35.831 -37.807  1.00  0.00    -0.289 OA
ATOM      5  C   UNL     1     -37.062 -35.972 -35.672  1.00  0.00     0.107 A 
ATOM      6  C   UNL     1     -38.432 -35.984 -36.071  1.00  0.00     0.134 A 
ATOM      7  C   UNL     1     -39.435 -35.908 -35.096  1.00  0.00     0.093 A 
ATOM      8  C   UNL     1     -39.118 -35.882 -33.736  1.00  0.00     0.123 A 
ATOM      9  C   UNL     1     -37.785 -35.925 -33.334  1.00  0.00     0.094 A 
ATOM     10  C   UNL     1     -36.761 -35.965 -34.284  1.00  0.00     0.146 A 
ATOM     11  O   UNL     1     -35.501 -35.991 -33.859  1.00  0.00    -0.456 OA
ENDROOT
BRANCH   1  12
ATOM     12  C   UNL     1     -33.090 -36.047 -34.090  1.00  0.00     0.021 A 
ATOM     13  C   UNL     1     -31.972 -36.095 -34.942  1.00  0.00     0.016 A 
ATOM     14  C   UNL     1     -30.679 -36.123 -34.417  1.00  0.00     0.051 A 
ATOM     15  C   UNL     1     -30.478 -36.094 -33.030  1.00  0.00     0.157 A 
ATOM     16  C   UNL     1     -32.880 -36.005 -32.697  1.00  0.00     0.062 A 
ATOM     17  C   UNL     1     -31.585 -36.032 -32.169  1.00  0.00     0.158 A 
BRANCH  15  18
ATOM     18  O   UNL     1     -29.185 -36.125 -32.509  1.00  0.00    -0.504 OA
ATOM     19  H   UNL     1     -28.916 -35.544 -31.722  1.00  0.00     0.293 HD
ENDBRANCH  15  18
BRANCH  17  20
ATOM     20  O   UNL     1     -31.418 -35.990 -30.785  1.00  0.00    -0.504 OA
ATOM     21  H   UNL     1     -31.432 -36.828 -30.215  1.00  0.00     0.293 HD
ENDBRANCH  17  20
ENDBRANCH   1  12
BRANCH   6  22
ATOM     22  O   UNL     1     -38.859 -36.094 -37.398  1.00  0.00    -0.507 OA
ATOM     23  H   UNL     1     -38.617 -35.451 -38.136  1.00  0.00     0.293 HD
ENDBRANCH   6  22
BRANCH   8  24
ATOM     24  O   UNL     1     -40.122 -35.821 -32.773  1.00  0.00    -0.508 OA
ATOM     25  H   UNL     1     -41.095 -35.972 -33.013  1.00  0.00     0.293 HD
ENDBRANCH   8  24
TORSDOF 5
ENDMDL
MODEL 3
REMARK VINA RESULT:     6.234     21.365     23.958
REMARK INTER + INTRA:           7.031
REMARK INTER:                   7.327
REMARK INTRA:                  -0.297
REMARK UNBOUND:                -0.297
REMARK SMILES O=c1cc(-c2ccc(O)c(O)c2)oc2cc(O)cc(O)c12
REMARK SMILES IDX 4 1 3 2 2 3 1 4 21 5 19 6 18 7 16 8 15 9 14 10 13 11 5 12
REMARK SMILES IDX 6 13 7 14 8 15 12 16 10 17 9 18 11 20 20 22 17 24
REMARK H PARENT 9 19 11 21 20 23 17 25
REMARK Flexibility Score: inf
ROOT
ATOM      1  C   UNL     1     -20.237 -20.171 -27.026  1.00  0.00     0.138 A 
ATOM      2  C   UNL     1     -20.293 -18.861 -26.528  1.00  0.00     0.100 A 
ATOM      3  C   UNL     1     -20.391 -18.648 -25.153  1.00  0.00     0.197 A 
ATOM      4  O   UNL     1     -20.377 -17.463 -24.733  1.00  0.00    -0.289 OA
ATOM      5  C   UNL     1     -20.465 -19.755 -24.273  1.00  0.00     0.107 A 
ATOM      6  C   UNL     1     -20.608 -19.659 -22.857  1.00  0.00     0.134 A 
ATOM      7  C   UNL     1     -20.552 -20.822 -22.078  1.00  0.00     0.093 A 
ATOM      8  C   UNL     1     -20.421 -22.080 -22.669  1.00  0.00     0.123 A 
ATOM      9  C   UNL     1     -20.335 -22.189 -24.056  1.00  0.00     0.094 A 
ATOM     10  C   UNL     1     -20.352 -21.045 -24.857  1.00  0.00     0.146 A 
ATOM     11  O   UNL     1     -20.253 -21.191 -26.175  1.00  0.00    -0.456 OA
ENDROOT
BRANCH   1  12
ATOM     12  C   UNL     1     -20.133 -20.453 -28.479  1.00  0.00     0.021 A 
ATOM     13  C   UNL     1     -20.152 -21.786 -28.928  1.00  0.00     0.016 A 
ATOM     14  C   UNL     1     -20.065 -22.078 -30.291  1.00  0.00     0.051 A 
ATOM     15  C   UNL     1     -19.966 -21.044 -31.231  1.00  0.00     0.157 A 
ATOM     16  C   UNL     1     -20.047 -19.418 -29.431  1.00  0.00     0.062 A 
ATOM     17  C   UNL     1     -19.961 -19.708 -30.798  1.00  0.00     0.158 A 
BRANCH  15  18
ATOM     18  O   UNL     1     -19.877 -21.339 -32.591  1.00  0.00    -0.504 OA
ATOM     19  H   UNL     1     -19.306 -20.785 -33.218  1.00  0.00     0.293 HD
ENDBRANCH  15  18
BRANCH  17  20
ATOM     20  O   UNL     1     -19.876 -18.656 -31.709  1.00  0.00    -0.504 OA
ATOM     21  H   UNL     1     -19.974 -18.799 -32.707  1.00  0.00     0.293 HD
ENDBRANCH  17  20
ENDBRANCH   1  12
BRANCH   6  22
ATOM     22  O   UNL     1     -20.830 -18.460 -22.173  1.00  0.00    -0.507 OA
ATOM     23  H   UNL     1     -21.432 -18.357 -21.371  1.00  0.00     0.293 HD
ENDBRANCH   6  22
BRANCH   8  24
ATOM     24  O   UNL     1     -20.382 -23.232 -21.887  1.00  0.00    -0.508 OA
ATOM     25  H   UNL     1     -20.279 -24.151 -22.302  1.00  0.00     0.293 HD
ENDBRANCH   8  24
TORSDOF 5
ENDMDL
MODEL 4
REMARK VINA RESULT:     6.636     21.484     24.195
REMARK INTER + INTRA:           7.503
REMARK INTER:                   7.819
REMARK INTRA:                  -0.315
REMARK UNBOUND:                -0.297
REMARK SMILES O=c1cc(-c2ccc(O)c(O)c2)oc2cc(O)cc(O)c12
REMARK SMILES IDX 4 1 3 2 2 3 1 4 21 5 19 6 18 7 16 8 15 9 14 10 13 11 5 12
REMARK SMILES IDX 6 13 7 14 8 15 12 16 10 17 9 18 11 20 20 22 17 24
REMARK H PARENT 9 19 11 21 20 23 17 25
REMARK Flexibility Score: inf
ROOT
ATOM      1  C   UNL     1     -20.330 -20.259 -27.069  1.00  0.00     0.138 A 
ATOM      2  C   UNL     1     -20.185 -21.348 -26.197  1.00  0.00     0.100 A 
ATOM      3  C   UNL     1     -20.314 -21.153 -24.822  1.00  0.00     0.197 A 
ATOM      4  O   UNL     1     -20.241 -22.158 -24.070  1.00  0.00    -0.289 OA
ATOM      5  C   UNL     1     -20.558 -19.853 -24.315  1.00  0.00     0.107 A 
ATOM      6  C   UNL     1     -20.667 -19.528 -22.930  1.00  0.00     0.134 A 
ATOM      7  C   UNL     1     -21.026 -18.228 -22.552  1.00  0.00     0.093 A 
ATOM      8  C   UNL     1     -21.219 -17.228 -23.508  1.00  0.00     0.123 A 
ATOM      9  C   UNL     1     -21.062 -17.522 -24.861  1.00  0.00     0.094 A 
ATOM     10  C   UNL     1     -20.739 -18.818 -25.270  1.00  0.00     0.146 A 
ATOM     11  O   UNL     1     -20.612 -19.059 -26.571  1.00  0.00    -0.456 OA
ENDROOT
BRANCH   1  12
ATOM     12  C   UNL     1     -20.201 -20.411 -28.540  1.00  0.00     0.021 A 
ATOM     13  C   UNL     1     -20.220 -21.698 -29.106  1.00  0.00     0.016 A 
ATOM     14  C   UNL     1     -20.109 -21.868 -30.488  1.00  0.00     0.051 A 
ATOM     15  C   UNL     1     -19.988 -20.755 -31.331  1.00  0.00     0.157 A 
ATOM     16  C   UNL     1     -20.092 -19.295 -29.394  1.00  0.00     0.062 A 
ATOM     17  C   UNL     1     -19.983 -19.463 -30.779  1.00  0.00     0.158 A 
BRANCH  15  18
ATOM     18  O   UNL     1     -19.876 -20.928 -32.709  1.00  0.00    -0.504 OA
ATOM     19  H   UNL     1     -20.693 -21.035 -33.299  1.00  0.00     0.293 HD
ENDBRANCH  15  18
BRANCH  17  20
ATOM     20  O   UNL     1     -19.875 -18.335 -31.591  1.00  0.00    -0.504 OA
ATOM     21  H   UNL     1     -19.503 -17.457 -31.247  1.00  0.00     0.293 HD
ENDBRANCH  17  20
ENDBRANCH   1  12
BRANCH   6  22
ATOM     22  O   UNL     1     -20.411 -20.431 -21.893  1.00  0.00    -0.507 OA
ATOM     23  H   UNL     1     -20.130 -21.392 -22.021  1.00  0.00     0.293 HD
ENDBRANCH   6  22
BRANCH   8  24
ATOM     24  O   UNL     1     -21.561 -15.934 -23.122  1.00  0.00    -0.508 OA
ATOM     25  H   UNL     1     -20.972 -15.141 -23.349  1.00  0.00     0.293 HD
ENDBRANCH   8  24
TORSDOF 5
ENDMDL
