MODEL 1
REMARK VINA RESULT:    -3.291      0.000      0.000
REMARK INTER + INTRA:         -13.820
REMARK INTER:                  -8.294
REMARK INTRA:                  -5.526
REMARK UNBOUND:                -5.526
REMARK SMILES CCCCCCCCCCCCCCCCCCCCCCCCCCCC(=O)[O-]
REMARK SMILES IDX 15 1 16 2 17 3 18 4 19 5 20 6 21 7 22 8 23 9 24 10 25 11
REMARK SMILES IDX 26 12 27 13 28 14 29 15 30 16 14 17 13 18 12 19 11 20 10 21
REMARK SMILES IDX 9 22 8 23 7 24 6 25 5 26 4 27 3 28 2 29 1 30
REMARK H PARENT
REMARK Flexibility Score: inf
ROOT
ATOM      1  C   UNL     1       8.387  -8.185 -22.814  1.00  0.00     0.000 C 
ENDROOT
BRANCH   1   2
ATOM      2  C   UNL     1       8.566  -8.504 -24.308  1.00  0.00     0.000 C 
BRANCH   2   3
ATOM      3  C   UNL     1       9.298  -7.387 -25.074  1.00  0.00     0.000 C 
BRANCH   3   4
ATOM      4  C   UNL     1      10.153  -7.923 -26.238  1.00  0.00     0.000 C 
BRANCH   4   5
ATOM      5  C   UNL     1      11.679  -7.753 -26.076  1.00  0.00     0.000 C 
BRANCH   5   6
ATOM      6  C   UNL     1      12.122  -7.044 -24.783  1.00  0.00     0.000 C 
BRANCH   6   7
ATOM      7  C   UNL     1      12.987  -7.940 -23.880  1.00  0.00     0.000 C 
BRANCH   7   8
ATOM      8  C   UNL     1      12.277  -9.246 -23.475  1.00  0.00     0.000 C 
BRANCH   8   9
ATOM      9  C   UNL     1      13.088 -10.529 -23.742  1.00  0.00     0.000 C 
BRANCH   9  10
ATOM     10  C   UNL     1      12.328 -11.550 -24.607  1.00  0.00     0.000 C 
BRANCH  10  11
ATOM     11  C   UNL     1      10.813 -11.297 -24.619  1.00  0.00     0.000 C 
BRANCH  11  12
ATOM     12  C   UNL     1      10.166 -11.646 -25.969  1.00  0.00     0.006 C 
BRANCH  12  13
ATOM     13  C   UNL     1       9.845 -13.142 -26.053  1.00  0.00     0.053 C 
BRANCH  13  14
ATOM     14  C   UNL     1      10.517 -13.766 -27.236  1.00  0.00     0.041 C 
ATOM     15  O   UNL     1      11.636 -13.341 -27.629  1.00  0.00    -0.550 OA
ATOM     16  O   UNL     1       9.900 -14.815 -27.913  1.00  0.00    -0.550 OA
ENDBRANCH  13  14
ENDBRANCH  12  13
ENDBRANCH  11  12
ENDBRANCH  10  11
ENDBRANCH   9  10
ENDBRANCH   8   9
ENDBRANCH   7   8
ENDBRANCH   6   7
ENDBRANCH   5   6
ENDBRANCH   4   5
ENDBRANCH   3   4
ENDBRANCH   2   3
ENDBRANCH   1   2
BRANCH   1  17
ATOM     17  C   UNL     1       9.370  -7.112 -22.313  1.00  0.00     0.000 C 
BRANCH  17  18
ATOM     18  C   UNL     1       9.949  -7.426 -20.921  1.00  0.00     0.000 C 
BRANCH  18  19
ATOM     19  C   UNL     1      11.423  -7.021 -20.721  1.00  0.00     0.000 C 
BRANCH  19  20
ATOM     20  C   UNL     1      11.593  -5.838 -19.753  1.00  0.00     0.000 C 
BRANCH  20  21
ATOM     21  C   UNL     1      12.596  -4.790 -20.259  1.00  0.00     0.000 C 
BRANCH  21  22
ATOM     22  C   UNL     1      13.555  -5.349 -21.325  1.00  0.00    -0.000 C 
BRANCH  22  23
ATOM     23  C   UNL     1      13.629  -4.451 -22.577  1.00  0.00    -0.000 C 
BRANCH  23  24
ATOM     24  C   UNL     1      12.820  -3.147 -22.460  1.00  0.00    -0.000 C 
BRANCH  24  25
ATOM     25  C   UNL     1      11.747  -3.010 -23.552  1.00  0.00    -0.000 C 
BRANCH  25  26
ATOM     26  C   UNL     1      10.502  -3.879 -23.290  1.00  0.00    -0.000 C 
BRANCH  26  27
ATOM     27  C   UNL     1       9.318  -3.157 -22.618  1.00  0.00    -0.000 C 
BRANCH  27  28
ATOM     28  C   UNL     1       9.468  -3.042 -21.090  1.00  0.00    -0.000 C 
BRANCH  28  29
ATOM     29  C   UNL     1       9.761  -1.602 -20.633  1.00  0.00    -0.003 C 
ATOM     30  C   UNL     1      10.963  -1.511 -19.691  1.00  0.00     0.004 C 
ENDBRANCH  28  29
ENDBRANCH  27  28
ENDBRANCH  26  27
ENDBRANCH  25  26
ENDBRANCH  24  25
ENDBRANCH  23  24
ENDBRANCH  22  23
ENDBRANCH  21  22
ENDBRANCH  20  21
ENDBRANCH  19  20
ENDBRANCH  18  19
ENDBRANCH  17  18
ENDBRANCH   1  17
TORSDOF 26
ENDMDL
MODEL 2
REMARK VINA RESULT:    -3.265      2.410      3.863
REMARK INTER + INTRA:         -13.753
REMARK INTER:                  -8.753
REMARK INTRA:                  -5.001
REMARK UNBOUND:                -5.526
REMARK SMILES CCCCCCCCCCCCCCCCCCCCCCCCCCCC(=O)[O-]
REMARK SMILES IDX 15 1 16 2 17 3 18 4 19 5 20 6 21 7 22 8 23 9 24 10 25 11
REMARK SMILES IDX 26 12 27 13 28 14 29 15 30 16 14 17 13 18 12 19 11 20 10 21
REMARK SMILES IDX 9 22 8 23 7 24 6 25 5 26 4 27 3 28 2 29 1 30
REMARK H PARENT
REMARK Flexibility Score: inf
ROOT
ATOM      1  C   UNL     1       9.718  -6.412 -21.474  1.00  0.00     0.000 C 
ENDROOT
BRANCH   1   2
ATOM      2  C   UNL     1      10.346  -7.663 -22.112  1.00  0.00     0.000 C 
BRANCH   2   3
ATOM      3  C   UNL     1       9.295  -8.668 -22.616  1.00  0.00     0.000 C 
BRANCH   3   4
ATOM      4  C   UNL     1       9.729 -10.134 -22.422  1.00  0.00     0.000 C 
BRANCH   4   5
ATOM      5  C   UNL     1      10.813 -10.369 -21.347  1.00  0.00     0.000 C 
BRANCH   5   6
ATOM      6  C   UNL     1      11.861 -11.440 -21.702  1.00  0.00     0.000 C 
BRANCH   6   7
ATOM      7  C   UNL     1      12.115 -11.544 -23.216  1.00  0.00     0.000 C 
BRANCH   7   8
ATOM      8  C   UNL     1      13.394 -10.809 -23.661  1.00  0.00     0.000 C 
BRANCH   8   9
ATOM      9  C   UNL     1      13.198  -9.316 -23.987  1.00  0.00     0.000 C 
BRANCH   9  10
ATOM     10  C   UNL     1      13.815  -8.911 -25.337  1.00  0.00     0.000 C 
BRANCH  10  11
ATOM     11  C   UNL     1      12.750  -8.569 -26.391  1.00  0.00     0.000 C 
BRANCH  11  12
ATOM     12  C   UNL     1      11.338  -8.469 -25.792  1.00  0.00     0.006 C 
BRANCH  12  13
ATOM     13  C   UNL     1      10.811  -7.032 -25.868  1.00  0.00     0.053 C 
BRANCH  13  14
ATOM     14  C   UNL     1       9.315  -7.012 -25.859  1.00  0.00     0.041 C 
ATOM     15  O   UNL     1       8.695  -5.964 -25.532  1.00  0.00    -0.550 OA
ATOM     16  O   UNL     1       8.602  -8.156 -26.204  1.00  0.00    -0.550 OA
ENDBRANCH  13  14
ENDBRANCH  12  13
ENDBRANCH  11  12
ENDBRANCH  10  11
ENDBRANCH   9  10
ENDBRANCH   8   9
ENDBRANCH   7   8
ENDBRANCH   6   7
ENDBRANCH   5   6
ENDBRANCH   4   5
ENDBRANCH   3   4
ENDBRANCH   2   3
ENDBRANCH   1   2
BRANCH   1  17
ATOM     17  C   UNL     1      10.497  -5.919 -20.242  1.00  0.00     0.000 C 
BRANCH  17  18
ATOM     18  C   UNL     1      11.768  -6.741 -19.961  1.00  0.00     0.000 C 
BRANCH  18  19
ATOM     19  C   UNL     1      13.062  -5.916 -19.820  1.00  0.00     0.000 C 
BRANCH  19  20
ATOM     20  C   UNL     1      13.298  -4.963 -21.004  1.00  0.00     0.000 C 
BRANCH  20  21
ATOM     21  C   UNL     1      13.570  -5.703 -22.323  1.00  0.00     0.000 C 
BRANCH  21  22
ATOM     22  C   UNL     1      12.642  -5.248 -23.464  1.00  0.00    -0.000 C 
BRANCH  22  23
ATOM     23  C   UNL     1      12.396  -3.725 -23.449  1.00  0.00    -0.000 C 
BRANCH  23  24
ATOM     24  C   UNL     1      10.918  -3.330 -23.607  1.00  0.00    -0.000 C 
BRANCH  24  25
ATOM     25  C   UNL     1      10.289  -2.834 -22.295  1.00  0.00    -0.000 C 
BRANCH  25  26
ATOM     26  C   UNL     1      11.300  -2.135 -21.365  1.00  0.00    -0.000 C 
BRANCH  26  27
ATOM     27  C   UNL     1      11.099  -2.386 -19.858  1.00  0.00    -0.000 C 
BRANCH  27  28
ATOM     28  C   UNL     1      11.123  -1.094 -19.021  1.00  0.00    -0.000 C 
BRANCH  28  29
ATOM     29  C   UNL     1      10.382   0.067 -19.706  1.00  0.00    -0.003 C 
ATOM     30  C   UNL     1      10.127   1.247 -18.766  1.00  0.00     0.004 C 
ENDBRANCH  28  29
ENDBRANCH  27  28
ENDBRANCH  26  27
ENDBRANCH  25  26
ENDBRANCH  24  25
ENDBRANCH  23  24
ENDBRANCH  22  23
ENDBRANCH  21  22
ENDBRANCH  20  21
ENDBRANCH  19  20
ENDBRANCH  18  19
ENDBRANCH  17  18
ENDBRANCH   1  17
TORSDOF 26
ENDMDL
MODEL 3
REMARK VINA RESULT:    -3.246     12.259     14.622
REMARK INTER + INTRA:         -13.705
REMARK INTER:                  -9.074
REMARK INTRA:                  -4.631
REMARK UNBOUND:                -5.526
REMARK SMILES CCCCCCCCCCCCCCCCCCCCCCCCCCCC(=O)[O-]
REMARK SMILES IDX 15 1 16 2 17 3 18 4 19 5 20 6 21 7 22 8 23 9 24 10 25 11
REMARK SMILES IDX 26 12 27 13 28 14 29 15 30 16 14 17 13 18 12 19 11 20 10 21
REMARK SMILES IDX 9 22 8 23 7 24 6 25 5 26 4 27 3 28 2 29 1 30
REMARK H PARENT
REMARK Flexibility Score: inf
ROOT
ATOM      1  C   UNL     1      -3.023  -0.581 -24.018  1.00  0.00     0.000 C 
ENDROOT
BRANCH   1   2
ATOM      2  C   UNL     1      -4.029   0.401 -24.640  1.00  0.00     0.000 C 
BRANCH   2   3
ATOM      3  C   UNL     1      -5.029  -0.287 -25.586  1.00  0.00     0.000 C 
BRANCH   3   4
ATOM      4  C   UNL     1      -4.934  -1.824 -25.541  1.00  0.00     0.000 C 
BRANCH   4   5
ATOM      5  C   UNL     1      -5.342  -2.554 -26.839  1.00  0.00     0.000 C 
BRANCH   5   6
ATOM      6  C   UNL     1      -4.601  -3.876 -27.104  1.00  0.00     0.000 C 
BRANCH   6   7
ATOM      7  C   UNL     1      -4.188  -4.596 -25.809  1.00  0.00     0.000 C 
BRANCH   7   8
ATOM      8  C   UNL     1      -4.274  -6.131 -25.922  1.00  0.00     0.000 C 
BRANCH   8   9
ATOM      9  C   UNL     1      -3.025  -6.884 -25.423  1.00  0.00     0.000 C 
BRANCH   9  10
ATOM     10  C   UNL     1      -2.089  -7.315 -26.565  1.00  0.00     0.000 C 
BRANCH  10  11
ATOM     11  C   UNL     1      -1.027  -8.325 -26.106  1.00  0.00     0.000 C 
BRANCH  11  12
ATOM     12  C   UNL     1      -1.270  -9.735 -26.668  1.00  0.00     0.006 C 
BRANCH  12  13
ATOM     13  C   UNL     1      -2.032  -9.672 -27.996  1.00  0.00     0.053 C 
BRANCH  13  14
ATOM     14  C   UNL     1      -1.085  -9.695 -29.155  1.00  0.00     0.041 C 
ATOM     15  O   UNL     1      -1.493 -10.021 -30.302  1.00  0.00    -0.550 OA
ATOM     16  O   UNL     1       0.254  -9.366 -28.965  1.00  0.00    -0.550 OA
ENDBRANCH  13  14
ENDBRANCH  12  13
ENDBRANCH  11  12
ENDBRANCH  10  11
ENDBRANCH   9  10
ENDBRANCH   8   9
ENDBRANCH   7   8
ENDBRANCH   6   7
ENDBRANCH   5   6
ENDBRANCH   4   5
ENDBRANCH   3   4
ENDBRANCH   2   3
ENDBRANCH   1   2
BRANCH   1  17
ATOM     17  C   UNL     1      -1.570  -0.283 -24.429  1.00  0.00     0.000 C 
BRANCH  17  18
ATOM     18  C   UNL     1      -0.702  -1.551 -24.544  1.00  0.00     0.000 C 
BRANCH  18  19
ATOM     19  C   UNL     1      -1.421  -2.869 -24.197  1.00  0.00     0.000 C 
BRANCH  19  20
ATOM     20  C   UNL     1      -0.702  -4.109 -24.753  1.00  0.00     0.000 C 
BRANCH  20  21
ATOM     21  C   UNL     1       0.341  -3.766 -25.827  1.00  0.00     0.000 C 
BRANCH  21  22
ATOM     22  C   UNL     1       0.115  -4.530 -27.144  1.00  0.00    -0.000 C 
BRANCH  22  23
ATOM     23  C   UNL     1      -1.006  -3.904 -28.000  1.00  0.00    -0.000 C 
BRANCH  23  24
ATOM     24  C   UNL     1      -0.769  -2.426 -28.357  1.00  0.00    -0.000 C 
BRANCH  24  25
ATOM     25  C   UNL     1      -1.973  -1.531 -28.020  1.00  0.00    -0.000 C 
BRANCH  25  26
ATOM     26  C   UNL     1      -1.711  -0.037 -28.288  1.00  0.00    -0.000 C 
BRANCH  26  27
ATOM     27  C   UNL     1      -1.994   0.439 -29.726  1.00  0.00    -0.000 C 
BRANCH  27  28
ATOM     28  C   UNL     1      -0.738   0.954 -30.452  1.00  0.00    -0.000 C 
BRANCH  28  29
ATOM     29  C   UNL     1      -0.387   0.113 -31.691  1.00  0.00    -0.003 C 
ATOM     30  C   UNL     1       0.753  -0.874 -31.436  1.00  0.00     0.004 C 
ENDBRANCH  28  29
ENDBRANCH  27  28
ENDBRANCH  26  27
ENDBRANCH  25  26
ENDBRANCH  24  25
ENDBRANCH  23  24
ENDBRANCH  22  23
ENDBRANCH  21  22
ENDBRANCH  20  21
ENDBRANCH  19  20
ENDBRANCH  18  19
ENDBRANCH  17  18
ENDBRANCH   1  17
TORSDOF 26
ENDMDL
MODEL 4
REMARK VINA RESULT:    -3.219     13.247     16.103
REMARK INTER + INTRA:         -13.638
REMARK INTER:                  -8.473
REMARK INTRA:                  -5.165
REMARK UNBOUND:                -5.526
REMARK SMILES CCCCCCCCCCCCCCCCCCCCCCCCCCCC(=O)[O-]
REMARK SMILES IDX 15 1 16 2 17 3 18 4 19 5 20 6 21 7 22 8 23 9 24 10 25 11
REMARK SMILES IDX 26 12 27 13 28 14 29 15 30 16 14 17 13 18 12 19 11 20 10 21
REMARK SMILES IDX 9 22 8 23 7 24 6 25 5 26 4 27 3 28 2 29 1 30
REMARK H PARENT
REMARK Flexibility Score: inf
ROOT
ATOM      1  C   UNL     1      -4.498   0.295 -24.540  1.00  0.00     0.000 C 
ENDROOT
BRANCH   1   2
ATOM      2  C   UNL     1      -3.097  -0.049 -24.008  1.00  0.00     0.000 C 
BRANCH   2   3
ATOM      3  C   UNL     1      -3.135  -0.976 -22.780  1.00  0.00     0.000 C 
BRANCH   3   4
ATOM      4  C   UNL     1      -3.487  -2.432 -23.141  1.00  0.00     0.000 C 
BRANCH   4   5
ATOM      5  C   UNL     1      -2.306  -3.426 -23.123  1.00  0.00     0.000 C 
BRANCH   5   6
ATOM      6  C   UNL     1      -1.629  -3.658 -24.486  1.00  0.00     0.000 C 
BRANCH   6   7
ATOM      7  C   UNL     1      -0.416  -2.739 -24.712  1.00  0.00     0.000 C 
BRANCH   7   8
ATOM      8  C   UNL     1       0.396  -3.115 -25.966  1.00  0.00     0.000 C 
BRANCH   8   9
ATOM      9  C   UNL     1      -0.155  -4.321 -26.752  1.00  0.00     0.000 C 
BRANCH   9  10
ATOM     10  C   UNL     1      -0.594  -3.955 -28.180  1.00  0.00     0.000 C 
BRANCH  10  11
ATOM     11  C   UNL     1       0.195  -2.768 -28.752  1.00  0.00     0.000 C 
BRANCH  11  12
ATOM     12  C   UNL     1      -0.679  -1.519 -28.950  1.00  0.00     0.006 C 
BRANCH  12  13
ATOM     13  C   UNL     1       0.017  -0.501 -29.859  1.00  0.00     0.053 C 
BRANCH  13  14
ATOM     14  C   UNL     1      -0.783   0.760 -29.960  1.00  0.00     0.041 C 
ATOM     15  O   UNL     1      -2.039   0.723 -29.870  1.00  0.00    -0.550 OA
ATOM     16  O   UNL     1      -0.140   1.977 -30.163  1.00  0.00    -0.550 OA
ENDBRANCH  13  14
ENDBRANCH  12  13
ENDBRANCH  11  12
ENDBRANCH  10  11
ENDBRANCH   9  10
ENDBRANCH   8   9
ENDBRANCH   7   8
ENDBRANCH   6   7
ENDBRANCH   5   6
ENDBRANCH   4   5
ENDBRANCH   3   4
ENDBRANCH   2   3
ENDBRANCH   1   2
BRANCH   1  17
ATOM     17  C   UNL     1      -4.726  -0.203 -25.978  1.00  0.00     0.000 C 
BRANCH  17  18
ATOM     18  C   UNL     1      -3.470  -0.837 -26.606  1.00  0.00     0.000 C 
BRANCH  18  19
ATOM     19  C   UNL     1      -3.645  -2.288 -27.094  1.00  0.00     0.000 C 
BRANCH  19  20
ATOM     20  C   UNL     1      -5.040  -2.859 -26.790  1.00  0.00     0.000 C 
BRANCH  20  21
ATOM     21  C   UNL     1      -4.988  -4.207 -26.055  1.00  0.00     0.000 C 
BRANCH  21  22
ATOM     22  C   UNL     1      -3.960  -5.179 -26.663  1.00  0.00    -0.000 C 
BRANCH  22  23
ATOM     23  C   UNL     1      -4.203  -6.638 -26.227  1.00  0.00    -0.000 C 
BRANCH  23  24
ATOM     24  C   UNL     1      -4.496  -6.801 -24.725  1.00  0.00    -0.000 C 
BRANCH  24  25
ATOM     25  C   UNL     1      -3.220  -6.962 -23.882  1.00  0.00    -0.000 C 
BRANCH  25  26
ATOM     26  C   UNL     1      -3.481  -6.882 -22.366  1.00  0.00    -0.000 C 
BRANCH  26  27
ATOM     27  C   UNL     1      -4.963  -6.793 -21.952  1.00  0.00    -0.000 C 
BRANCH  27  28
ATOM     28  C   UNL     1      -5.279  -5.552 -21.099  1.00  0.00    -0.000 C 
BRANCH  28  29
ATOM     29  C   UNL     1      -4.047  -5.025 -20.343  1.00  0.00    -0.003 C 
ATOM     30  C   UNL     1      -4.325  -3.727 -19.583  1.00  0.00     0.004 C 
ENDBRANCH  28  29
ENDBRANCH  27  28
ENDBRANCH  26  27
ENDBRANCH  25  26
ENDBRANCH  24  25
ENDBRANCH  23  24
ENDBRANCH  22  23
ENDBRANCH  21  22
ENDBRANCH  20  21
ENDBRANCH  19  20
ENDBRANCH  18  19
ENDBRANCH  17  18
ENDBRANCH   1  17
TORSDOF 26
ENDMDL
MODEL 5
REMARK VINA RESULT:    -3.209     12.124     14.601
REMARK INTER + INTRA:         -13.613
REMARK INTER:                  -8.665
REMARK INTRA:                  -4.948
REMARK UNBOUND:                -5.526
REMARK SMILES CCCCCCCCCCCCCCCCCCCCCCCCCCCC(=O)[O-]
REMARK SMILES IDX 15 1 16 2 17 3 18 4 19 5 20 6 21 7 22 8 23 9 24 10 25 11
REMARK SMILES IDX 26 12 27 13 28 14 29 15 30 16 14 17 13 18 12 19 11 20 10 21
REMARK SMILES IDX 9 22 8 23 7 24 6 25 5 26 4 27 3 28 2 29 1 30
REMARK H PARENT
REMARK Flexibility Score: inf
ROOT
ATOM      1  C   UNL     1      -2.563  -1.081 -23.809  1.00  0.00     0.000 C 
ENDROOT
BRANCH   1   2
ATOM      2  C   UNL     1      -3.505  -2.114 -23.169  1.00  0.00     0.000 C 
BRANCH   2   3
ATOM      3  C   UNL     1      -3.147  -3.563 -23.546  1.00  0.00     0.000 C 
BRANCH   3   4
ATOM      4  C   UNL     1      -4.369  -4.502 -23.537  1.00  0.00     0.000 C 
BRANCH   4   5
ATOM      5  C   UNL     1      -4.066  -5.989 -23.821  1.00  0.00     0.000 C 
BRANCH   5   6
ATOM      6  C   UNL     1      -3.088  -6.245 -24.982  1.00  0.00     0.000 C 
BRANCH   6   7
ATOM      7  C   UNL     1      -3.804  -6.621 -26.291  1.00  0.00     0.000 C 
BRANCH   7   8
ATOM      8  C   UNL     1      -4.380  -8.050 -26.269  1.00  0.00     0.000 C 
BRANCH   8   9
ATOM      9  C   UNL     1      -3.328  -9.166 -26.111  1.00  0.00     0.000 C 
BRANCH   9  10
ATOM     10  C   UNL     1      -2.411  -9.303 -27.339  1.00  0.00     0.000 C 
BRANCH  10  11
ATOM     11  C   UNL     1      -0.954  -8.926 -27.029  1.00  0.00     0.000 C 
BRANCH  11  12
ATOM     12  C   UNL     1      -0.572  -7.542 -27.580  1.00  0.00     0.006 C 
BRANCH  12  13
ATOM     13  C   UNL     1       0.040  -7.659 -28.979  1.00  0.00     0.053 C 
BRANCH  13  14
ATOM     14  C   UNL     1       1.523  -7.463 -28.930  1.00  0.00     0.041 C 
ATOM     15  O   UNL     1       2.275  -8.101 -29.715  1.00  0.00    -0.550 OA
ATOM     16  O   UNL     1       2.078  -6.581 -28.008  1.00  0.00    -0.550 OA
ENDBRANCH  13  14
ENDBRANCH  12  13
ENDBRANCH  11  12
ENDBRANCH  10  11
ENDBRANCH   9  10
ENDBRANCH   8   9
ENDBRANCH   7   8
ENDBRANCH   6   7
ENDBRANCH   5   6
ENDBRANCH   4   5
ENDBRANCH   3   4
ENDBRANCH   2   3
ENDBRANCH   1   2
BRANCH   1  17
ATOM     17  C   UNL     1      -3.318   0.005 -24.596  1.00  0.00     0.000 C 
BRANCH  17  18
ATOM     18  C   UNL     1      -4.738  -0.426 -25.010  1.00  0.00     0.000 C 
BRANCH  18  19
ATOM     19  C   UNL     1      -4.872  -0.918 -26.464  1.00  0.00     0.000 C 
BRANCH  19  20
ATOM     20  C   UNL     1      -5.337  -2.381 -26.561  1.00  0.00     0.000 C 
BRANCH  20  21
ATOM     21  C   UNL     1      -4.240  -3.326 -27.075  1.00  0.00     0.000 C 
BRANCH  21  22
ATOM     22  C   UNL     1      -2.897  -2.609 -27.306  1.00  0.00    -0.000 C 
BRANCH  22  23
ATOM     23  C   UNL     1      -1.691  -3.472 -26.881  1.00  0.00    -0.000 C 
BRANCH  23  24
ATOM     24  C   UNL     1      -0.843  -3.985 -28.058  1.00  0.00    -0.000 C 
BRANCH  24  25
ATOM     25  C   UNL     1       0.529  -3.298 -28.149  1.00  0.00    -0.000 C 
BRANCH  25  26
ATOM     26  C   UNL     1       0.741  -2.542 -29.475  1.00  0.00    -0.000 C 
BRANCH  26  27
ATOM     27  C   UNL     1       0.622  -1.008 -29.390  1.00  0.00    -0.000 C 
BRANCH  27  28
ATOM     28  C   UNL     1      -0.803  -0.494 -29.666  1.00  0.00    -0.000 C 
BRANCH  28  29
ATOM     29  C   UNL     1      -1.405   0.249 -28.461  1.00  0.00    -0.003 C 
ATOM     30  C   UNL     1      -0.506   0.204 -27.224  1.00  0.00     0.004 C 
ENDBRANCH  28  29
ENDBRANCH  27  28
ENDBRANCH  26  27
ENDBRANCH  25  26
ENDBRANCH  24  25
ENDBRANCH  23  24
ENDBRANCH  22  23
ENDBRANCH  21  22
ENDBRANCH  20  21
ENDBRANCH  19  20
ENDBRANCH  18  19
ENDBRANCH  17  18
ENDBRANCH   1  17
TORSDOF 26
ENDMDL
MODEL 6
REMARK VINA RESULT:    -3.192      1.608      2.956
REMARK INTER + INTRA:         -13.568
REMARK INTER:                  -9.424
REMARK INTRA:                  -4.144
REMARK UNBOUND:                -5.526
REMARK SMILES CCCCCCCCCCCCCCCCCCCCCCCCCCCC(=O)[O-]
REMARK SMILES IDX 15 1 16 2 17 3 18 4 19 5 20 6 21 7 22 8 23 9 24 10 25 11
REMARK SMILES IDX 26 12 27 13 28 14 29 15 30 16 14 17 13 18 12 19 11 20 10 21
REMARK SMILES IDX 9 22 8 23 7 24 6 25 5 26 4 27 3 28 2 29 1 30
REMARK H PARENT
REMARK Flexibility Score: inf
ROOT
ATOM      1  C   UNL     1      10.145  -8.749 -21.897  1.00  0.00     0.000 C 
ENDROOT
BRANCH   1   2
ATOM      2  C   UNL     1       9.782  -9.764 -22.994  1.00  0.00     0.000 C 
BRANCH   2   3
ATOM      3  C   UNL     1      10.486 -11.120 -22.811  1.00  0.00     0.000 C 
BRANCH   3   4
ATOM      4  C   UNL     1      11.985 -10.976 -22.485  1.00  0.00     0.000 C 
BRANCH   4   5
ATOM      5  C   UNL     1      12.935 -11.003 -23.701  1.00  0.00     0.000 C 
BRANCH   5   6
ATOM      6  C   UNL     1      13.732  -9.707 -23.935  1.00  0.00     0.000 C 
BRANCH   6   7
ATOM      7  C   UNL     1      13.523  -9.126 -25.344  1.00  0.00     0.000 C 
BRANCH   7   8
ATOM      8  C   UNL     1      12.037  -8.906 -25.687  1.00  0.00     0.000 C 
BRANCH   8   9
ATOM      9  C   UNL     1      11.463  -9.889 -26.726  1.00  0.00     0.000 C 
BRANCH   9  10
ATOM     10  C   UNL     1       9.958 -10.148 -26.539  1.00  0.00     0.000 C 
BRANCH  10  11
ATOM     11  C   UNL     1       9.606 -11.641 -26.601  1.00  0.00     0.000 C 
BRANCH  11  12
ATOM     12  C   UNL     1      10.793 -12.544 -26.228  1.00  0.00     0.006 C 
BRANCH  12  13
ATOM     13  C   UNL     1      11.112 -13.526 -27.360  1.00  0.00     0.053 C 
BRANCH  13  14
ATOM     14  C   UNL     1      10.197 -14.709 -27.313  1.00  0.00     0.041 C 
ATOM     15  O   UNL     1       9.917 -15.253 -26.212  1.00  0.00    -0.550 OA
ATOM     16  O   UNL     1       9.658 -15.218 -28.492  1.00  0.00    -0.550 OA
ENDBRANCH  13  14
ENDBRANCH  12  13
ENDBRANCH  11  12
ENDBRANCH  10  11
ENDBRANCH   9  10
ENDBRANCH   8   9
ENDBRANCH   7   8
ENDBRANCH   6   7
ENDBRANCH   5   6
ENDBRANCH   4   5
ENDBRANCH   3   4
ENDBRANCH   2   3
ENDBRANCH   1   2
BRANCH   1  17
ATOM     17  C   UNL     1      10.682  -7.425 -22.466  1.00  0.00     0.000 C 
BRANCH  17  18
ATOM     18  C   UNL     1      12.052  -7.028 -21.885  1.00  0.00     0.000 C 
BRANCH  18  19
ATOM     19  C   UNL     1      12.976  -6.263 -22.853  1.00  0.00     0.000 C 
BRANCH  19  20
ATOM     20  C   UNL     1      13.551  -4.974 -22.242  1.00  0.00     0.000 C 
BRANCH  20  21
ATOM     21  C   UNL     1      13.349  -3.744 -23.139  1.00  0.00     0.000 C 
BRANCH  21  22
ATOM     22  C   UNL     1      12.198  -2.840 -22.661  1.00  0.00    -0.000 C 
BRANCH  22  23
ATOM     23  C   UNL     1      10.854  -3.199 -23.328  1.00  0.00    -0.000 C 
BRANCH  23  24
ATOM     24  C   UNL     1       9.803  -3.759 -22.354  1.00  0.00    -0.000 C 
BRANCH  24  25
ATOM     25  C   UNL     1      10.165  -3.514 -20.880  1.00  0.00    -0.000 C 
BRANCH  25  26
ATOM     26  C   UNL     1       9.310  -2.414 -20.221  1.00  0.00    -0.000 C 
BRANCH  26  27
ATOM     27  C   UNL     1       9.363  -1.033 -20.906  1.00  0.00    -0.000 C 
BRANCH  27  28
ATOM     28  C   UNL     1       8.789   0.097 -20.033  1.00  0.00    -0.000 C 
BRANCH  28  29
ATOM     29  C   UNL     1       9.792   1.245 -19.820  1.00  0.00    -0.003 C 
ATOM     30  C   UNL     1      10.366   1.277 -18.403  1.00  0.00     0.004 C 
ENDBRANCH  28  29
ENDBRANCH  27  28
ENDBRANCH  26  27
ENDBRANCH  25  26
ENDBRANCH  24  25
ENDBRANCH  23  24
ENDBRANCH  22  23
ENDBRANCH  21  22
ENDBRANCH  20  21
ENDBRANCH  19  20
ENDBRANCH  18  19
ENDBRANCH  17  18
ENDBRANCH   1  17
TORSDOF 26
ENDMDL
MODEL 7
REMARK VINA RESULT:    -3.178     12.591     15.288
REMARK INTER + INTRA:         -13.534
REMARK INTER:                  -8.580
REMARK INTRA:                  -4.953
REMARK UNBOUND:                -5.526
REMARK SMILES CCCCCCCCCCCCCCCCCCCCCCCCCCCC(=O)[O-]
REMARK SMILES IDX 15 1 16 2 17 3 18 4 19 5 20 6 21 7 22 8 23 9 24 10 25 11
REMARK SMILES IDX 26 12 27 13 28 14 29 15 30 16 14 17 13 18 12 19 11 20 10 21
REMARK SMILES IDX 9 22 8 23 7 24 6 25 5 26 4 27 3 28 2 29 1 30
REMARK H PARENT
REMARK Flexibility Score: inf
ROOT
ATOM      1  C   UNL     1       0.409  -4.280 -25.677  1.00  0.00     0.000 C 
ENDROOT
BRANCH   1   2
ATOM      2  C   UNL     1      -0.462  -4.129 -24.419  1.00  0.00     0.000 C 
BRANCH   2   3
ATOM      3  C   UNL     1      -1.492  -2.992 -24.539  1.00  0.00     0.000 C 
BRANCH   3   4
ATOM      4  C   UNL     1      -2.298  -2.777 -23.243  1.00  0.00     0.000 C 
BRANCH   4   5
ATOM      5  C   UNL     1      -3.469  -1.776 -23.347  1.00  0.00     0.000 C 
BRANCH   5   6
ATOM      6  C   UNL     1      -3.528  -0.975 -24.660  1.00  0.00     0.000 C 
BRANCH   6   7
ATOM      7  C   UNL     1      -4.850  -1.177 -25.421  1.00  0.00     0.000 C 
BRANCH   7   8
ATOM      8  C   UNL     1      -4.653  -1.830 -26.802  1.00  0.00     0.000 C 
BRANCH   8   9
ATOM      9  C   UNL     1      -5.043  -3.320 -26.871  1.00  0.00     0.000 C 
BRANCH   9  10
ATOM     10  C   UNL     1      -3.828  -4.261 -26.797  1.00  0.00     0.000 C 
BRANCH  10  11
ATOM     11  C   UNL     1      -4.060  -5.448 -25.850  1.00  0.00     0.000 C 
BRANCH  11  12
ATOM     12  C   UNL     1      -5.261  -5.230 -24.915  1.00  0.00     0.006 C 
BRANCH  12  13
ATOM     13  C   UNL     1      -4.855  -5.414 -23.449  1.00  0.00     0.053 C 
BRANCH  13  14
ATOM     14  C   UNL     1      -5.226  -6.779 -22.960  1.00  0.00     0.041 C 
ATOM     15  O   UNL     1      -6.072  -7.470 -23.587  1.00  0.00    -0.550 OA
ATOM     16  O   UNL     1      -4.643  -7.284 -21.801  1.00  0.00    -0.550 OA
ENDBRANCH  13  14
ENDBRANCH  12  13
ENDBRANCH  11  12
ENDBRANCH  10  11
ENDBRANCH   9  10
ENDBRANCH   8   9
ENDBRANCH   7   8
ENDBRANCH   6   7
ENDBRANCH   5   6
ENDBRANCH   4   5
ENDBRANCH   3   4
ENDBRANCH   2   3
ENDBRANCH   1   2
BRANCH   1  17
ATOM     17  C   UNL     1       0.309  -5.680 -26.306  1.00  0.00     0.000 C 
BRANCH  17  18
ATOM     18  C   UNL     1      -0.488  -5.696 -27.624  1.00  0.00     0.000 C 
BRANCH  18  19
ATOM     19  C   UNL     1       0.098  -6.593 -28.731  1.00  0.00     0.000 C 
BRANCH  19  20
ATOM     20  C   UNL     1       1.563  -6.260 -29.060  1.00  0.00     0.000 C 
BRANCH  20  21
ATOM     21  C   UNL     1       1.703  -5.147 -30.109  1.00  0.00     0.000 C 
BRANCH  21  22
ATOM     22  C   UNL     1       2.035  -3.779 -29.486  1.00  0.00    -0.000 C 
BRANCH  22  23
ATOM     23  C   UNL     1       0.914  -2.743 -29.714  1.00  0.00    -0.000 C 
BRANCH  23  24
ATOM     24  C   UNL     1       0.379  -2.106 -28.420  1.00  0.00    -0.000 C 
BRANCH  24  25
ATOM     25  C   UNL     1      -1.143  -1.895 -28.444  1.00  0.00    -0.000 C 
BRANCH  25  26
ATOM     26  C   UNL     1      -1.551  -0.414 -28.312  1.00  0.00    -0.000 C 
BRANCH  26  27
ATOM     27  C   UNL     1      -1.734   0.344 -29.642  1.00  0.00    -0.000 C 
BRANCH  27  28
ATOM     28  C   UNL     1      -0.616   1.367 -29.914  1.00  0.00    -0.000 C 
BRANCH  28  29
ATOM     29  C   UNL     1       0.183   1.042 -31.187  1.00  0.00    -0.003 C 
ATOM     30  C   UNL     1      -0.392  -0.143 -31.965  1.00  0.00     0.004 C 
ENDBRANCH  28  29
ENDBRANCH  27  28
ENDBRANCH  26  27
ENDBRANCH  25  26
ENDBRANCH  24  25
ENDBRANCH  23  24
ENDBRANCH  22  23
ENDBRANCH  21  22
ENDBRANCH  20  21
ENDBRANCH  19  20
ENDBRANCH  18  19
ENDBRANCH  17  18
ENDBRANCH   1  17
TORSDOF 26
ENDMDL
MODEL 8
REMARK VINA RESULT:    -3.169     14.449     17.410
REMARK INTER + INTRA:         -13.511
REMARK INTER:                  -9.112
REMARK INTRA:                  -4.398
REMARK UNBOUND:                -5.526
REMARK SMILES CCCCCCCCCCCCCCCCCCCCCCCCCCCC(=O)[O-]
REMARK SMILES IDX 15 1 16 2 17 3 18 4 19 5 20 6 21 7 22 8 23 9 24 10 25 11
REMARK SMILES IDX 26 12 27 13 28 14 29 15 30 16 14 17 13 18 12 19 11 20 10 21
REMARK SMILES IDX 9 22 8 23 7 24 6 25 5 26 4 27 3 28 2 29 1 30
REMARK H PARENT
REMARK Flexibility Score: inf
ROOT
ATOM      1  C   UNL     1      -1.511  -9.190 -17.111  1.00  0.00     0.000 C 
ENDROOT
BRANCH   1   2
ATOM      2  C   UNL     1      -1.779  -9.177 -15.597  1.00  0.00     0.000 C 
BRANCH   2   3
ATOM      3  C   UNL     1      -1.174 -10.393 -14.872  1.00  0.00     0.000 C 
BRANCH   3   4
ATOM      4  C   UNL     1       0.159 -10.068 -14.170  1.00  0.00     0.000 C 
BRANCH   4   5
ATOM      5  C   UNL     1       0.185  -8.746 -13.373  1.00  0.00     0.000 C 
BRANCH   5   6
ATOM      6  C   UNL     1       1.097  -7.651 -13.956  1.00  0.00     0.000 C 
BRANCH   6   7
ATOM      7  C   UNL     1       0.454  -6.255 -13.911  1.00  0.00     0.000 C 
BRANCH   7   8
ATOM      8  C   UNL     1      -0.870  -6.230 -13.124  1.00  0.00     0.000 C 
BRANCH   8   9
ATOM      9  C   UNL     1      -1.257  -4.849 -12.558  1.00  0.00     0.000 C 
BRANCH   9  10
ATOM     10  C   UNL     1      -1.307  -3.752 -13.636  1.00  0.00     0.000 C 
BRANCH  10  11
ATOM     11  C   UNL     1      -2.407  -4.002 -14.678  1.00  0.00     0.000 C 
BRANCH  11  12
ATOM     12  C   UNL     1      -2.500  -2.876 -15.720  1.00  0.00     0.006 C 
BRANCH  12  13
ATOM     13  C   UNL     1      -3.913  -2.783 -16.304  1.00  0.00     0.053 C 
BRANCH  13  14
ATOM     14  C   UNL     1      -4.264  -1.366 -16.630  1.00  0.00     0.041 C 
ATOM     15  O   UNL     1      -3.515  -0.682 -17.378  1.00  0.00    -0.550 OA
ATOM     16  O   UNL     1      -5.417  -0.795 -16.099  1.00  0.00    -0.550 OA
ENDBRANCH  13  14
ENDBRANCH  12  13
ENDBRANCH  11  12
ENDBRANCH  10  11
ENDBRANCH   9  10
ENDBRANCH   8   9
ENDBRANCH   7   8
ENDBRANCH   6   7
ENDBRANCH   5   6
ENDBRANCH   4   5
ENDBRANCH   3   4
ENDBRANCH   2   3
ENDBRANCH   1   2
BRANCH   1  17
ATOM     17  C   UNL     1      -0.853 -10.498 -17.587  1.00  0.00     0.000 C 
BRANCH  17  18
ATOM     18  C   UNL     1      -1.819 -11.412 -18.364  1.00  0.00     0.000 C 
BRANCH  18  19
ATOM     19  C   UNL     1      -2.166 -12.740 -17.665  1.00  0.00     0.000 C 
BRANCH  19  20
ATOM     20  C   UNL     1      -3.665 -12.876 -17.345  1.00  0.00     0.000 C 
BRANCH  20  21
ATOM     21  C   UNL     1      -4.081 -12.100 -16.087  1.00  0.00     0.000 C 
BRANCH  21  22
ATOM     22  C   UNL     1      -5.343 -11.245 -16.304  1.00  0.00    -0.000 C 
BRANCH  22  23
ATOM     23  C   UNL     1      -5.059  -9.983 -17.144  1.00  0.00    -0.000 C 
BRANCH  23  24
ATOM     24  C   UNL     1      -5.695 -10.008 -18.545  1.00  0.00    -0.000 C 
BRANCH  24  25
ATOM     25  C   UNL     1      -4.722  -9.569 -19.650  1.00  0.00    -0.000 C 
BRANCH  25  26
ATOM     26  C   UNL     1      -5.105  -8.222 -20.295  1.00  0.00    -0.000 C 
BRANCH  26  27
ATOM     27  C   UNL     1      -3.980  -7.170 -20.351  1.00  0.00    -0.000 C 
BRANCH  27  28
ATOM     28  C   UNL     1      -3.469  -6.755 -18.960  1.00  0.00    -0.000 C 
BRANCH  28  29
ATOM     29  C   UNL     1      -4.557  -6.077 -18.110  1.00  0.00    -0.003 C 
ATOM     30  C   UNL     1      -4.463  -6.438 -16.626  1.00  0.00     0.004 C 
ENDBRANCH  28  29
ENDBRANCH  27  28
ENDBRANCH  26  27
ENDBRANCH  25  26
ENDBRANCH  24  25
ENDBRANCH  23  24
ENDBRANCH  22  23
ENDBRANCH  21  22
ENDBRANCH  20  21
ENDBRANCH  19  20
ENDBRANCH  18  19
ENDBRANCH  17  18
ENDBRANCH   1  17
TORSDOF 26
ENDMDL
MODEL 9
REMARK VINA RESULT:    -3.138     14.460     17.609
REMARK INTER + INTRA:         -13.433
REMARK INTER:                  -8.683
REMARK INTRA:                  -4.750
REMARK UNBOUND:                -5.526
REMARK SMILES CCCCCCCCCCCCCCCCCCCCCCCCCCCC(=O)[O-]
REMARK SMILES IDX 15 1 16 2 17 3 18 4 19 5 20 6 21 7 22 8 23 9 24 10 25 11
REMARK SMILES IDX 26 12 27 13 28 14 29 15 30 16 14 17 13 18 12 19 11 20 10 21
REMARK SMILES IDX 9 22 8 23 7 24 6 25 5 26 4 27 3 28 2 29 1 30
REMARK H PARENT
REMARK Flexibility Score: inf
ROOT
ATOM      1  C   UNL     1      -4.169  -9.148 -16.681  1.00  0.00     0.000 C 
ENDROOT
BRANCH   1   2
ATOM      2  C   UNL     1      -4.259  -7.654 -17.033  1.00  0.00     0.000 C 
BRANCH   2   3
ATOM      3  C   UNL     1      -2.949  -6.895 -16.754  1.00  0.00     0.000 C 
BRANCH   3   4
ATOM      4  C   UNL     1      -1.698  -7.776 -16.932  1.00  0.00     0.000 C 
BRANCH   4   5
ATOM      5  C   UNL     1      -0.517  -7.451 -15.992  1.00  0.00     0.000 C 
BRANCH   5   6
ATOM      6  C   UNL     1      -0.691  -7.928 -14.538  1.00  0.00     0.000 C 
BRANCH   6   7
ATOM      7  C   UNL     1      -0.000  -7.003 -13.522  1.00  0.00     0.000 C 
BRANCH   7   8
ATOM      8  C   UNL     1      -0.884  -5.816 -13.095  1.00  0.00     0.000 C 
BRANCH   8   9
ATOM      9  C   UNL     1      -0.344  -4.431 -13.502  1.00  0.00     0.000 C 
BRANCH   9  10
ATOM     10  C   UNL     1      -1.176  -3.766 -14.612  1.00  0.00     0.000 C 
BRANCH  10  11
ATOM     11  C   UNL     1      -2.664  -4.138 -14.535  1.00  0.00     0.000 C 
BRANCH  11  12
ATOM     12  C   UNL     1      -3.497  -3.475 -15.643  1.00  0.00     0.006 C 
BRANCH  12  13
ATOM     13  C   UNL     1      -2.789  -2.232 -16.191  1.00  0.00     0.053 C 
BRANCH  13  14
ATOM     14  C   UNL     1      -3.668  -1.026 -16.081  1.00  0.00     0.041 C 
ATOM     15  O   UNL     1      -3.186   0.082 -15.725  1.00  0.00    -0.550 OA
ATOM     16  O   UNL     1      -5.027  -1.128 -16.364  1.00  0.00    -0.550 OA
ENDBRANCH  13  14
ENDBRANCH  12  13
ENDBRANCH  11  12
ENDBRANCH  10  11
ENDBRANCH   9  10
ENDBRANCH   8   9
ENDBRANCH   7   8
ENDBRANCH   6   7
ENDBRANCH   5   6
ENDBRANCH   4   5
ENDBRANCH   3   4
ENDBRANCH   2   3
ENDBRANCH   1   2
BRANCH   1  17
ATOM     17  C   UNL     1      -5.052 -10.026 -17.585  1.00  0.00     0.000 C 
BRANCH  17  18
ATOM     18  C   UNL     1      -5.749 -11.169 -16.824  1.00  0.00     0.000 C 
BRANCH  18  19
ATOM     19  C   UNL     1      -4.919 -12.460 -16.680  1.00  0.00     0.000 C 
BRANCH  19  20
ATOM     20  C   UNL     1      -4.677 -13.170 -18.023  1.00  0.00     0.000 C 
BRANCH  20  21
ATOM     21  C   UNL     1      -3.404 -14.030 -18.024  1.00  0.00     0.000 C 
BRANCH  21  22
ATOM     22  C   UNL     1      -2.326 -13.500 -18.987  1.00  0.00    -0.000 C 
BRANCH  22  23
ATOM     23  C   UNL     1      -2.588 -12.041 -19.415  1.00  0.00    -0.000 C 
BRANCH  23  24
ATOM     24  C   UNL     1      -1.655 -11.016 -18.745  1.00  0.00    -0.000 C 
BRANCH  24  25
ATOM     25  C   UNL     1      -0.439 -11.670 -18.070  1.00  0.00    -0.000 C 
BRANCH  25  26
ATOM     26  C   UNL     1      -0.264 -11.249 -16.598  1.00  0.00    -0.000 C 
BRANCH  26  27
ATOM     27  C   UNL     1      -1.533 -11.338 -15.728  1.00  0.00    -0.000 C 
BRANCH  27  28
ATOM     28  C   UNL     1      -1.349 -12.217 -14.477  1.00  0.00    -0.000 C 
BRANCH  28  29
ATOM     29  C   UNL     1      -2.052 -13.580 -14.605  1.00  0.00    -0.003 C 
ATOM     30  C   UNL     1      -1.126 -14.680 -15.127  1.00  0.00     0.004 C 
ENDBRANCH  28  29
ENDBRANCH  27  28
ENDBRANCH  26  27
ENDBRANCH  25  26
ENDBRANCH  24  25
ENDBRANCH  23  24
ENDBRANCH  22  23
ENDBRANCH  21  22
ENDBRANCH  20  21
ENDBRANCH  19  20
ENDBRANCH  18  19
ENDBRANCH  17  18
ENDBRANCH   1  17
TORSDOF 26
ENDMDL
