MODEL 1
REMARK VINA RESULT:    -6.691      0.000      0.000
REMARK INTER + INTRA:         -10.497
REMARK INTER:                  -9.625
REMARK INTRA:                  -0.872
REMARK UNBOUND:                -0.872
REMARK SMILES O=c1c(O[C@@H]2O[C@H](CO)[C@@H](O)[C@@H](O)[C@@H]2O)c(-c2ccc(O)cc2)oc2cc(O)cc(O)c12
REMARK SMILES IDX 4 1 3 2 16 3 24 4 2 5 25 6 1 7 32 8 26 9 30 10 27 11 29 12
REMARK SMILES IDX 17 13 18 14 19 15 20 16 23 17 22 18 21 19 31 21 28 23 5 25
REMARK SMILES IDX 14 26 6 27 12 28 7 29 10 30 15 31 13 33 8 35 9 36 11 38
REMARK H PARENT 21 20 31 22 28 24 15 32 13 34 9 37 11 39
REMARK Flexibility Score: inf
ROOT
ATOM      1  O   UNL     1      55.463   5.710  79.830  1.00  0.00    -0.454 OA
ENDROOT
BRANCH   1   2
ATOM      2  C   UNL     1      55.000   6.641  78.890  1.00  0.00     0.214 A 
ATOM      3  C   UNL     1      53.798   6.449  78.180  1.00  0.00     0.180 A 
ATOM      4  O   UNL     1      53.462   7.302  77.219  1.00  0.00    -0.452 OA
ATOM      5  C   UNL     1      55.758   7.790  78.642  1.00  0.00     0.239 A 
ATOM      6  C   UNL     1      54.171   8.386  76.922  1.00  0.00     0.146 A 
ATOM      7  O   UNL     1      56.834   7.945  79.278  1.00  0.00    -0.285 OA
ATOM      8  C   UNL     1      55.337   8.718  77.660  1.00  0.00     0.111 A 
ATOM      9  C   UNL     1      53.741   9.196  75.869  1.00  0.00     0.094 A 
ATOM     10  C   UNL     1      56.026   9.925  77.336  1.00  0.00     0.134 A 
ATOM     11  C   UNL     1      54.454  10.341  75.523  1.00  0.00     0.123 A 
ATOM     12  C   UNL     1      55.590  10.698  76.253  1.00  0.00     0.093 A 
BRANCH   3  13
ATOM     13  C   UNL     1      52.875   5.329  78.468  1.00  0.00     0.021 A 
ATOM     14  C   UNL     1      53.014   4.117  77.773  1.00  0.00     0.016 A 
ATOM     15  C   UNL     1      52.146   3.051  78.029  1.00  0.00     0.047 A 
ATOM     16  C   UNL     1      51.121   3.190  78.973  1.00  0.00     0.115 A 
ATOM     17  C   UNL     1      51.828   5.469  79.398  1.00  0.00     0.016 A 
ATOM     18  C   UNL     1      50.963   4.401  79.653  1.00  0.00     0.047 A 
BRANCH  16  19
ATOM     19  O   UNL     1      50.251   2.134  79.239  1.00  0.00    -0.508 OA
ATOM     20  H   UNL     1      50.565   1.171  79.210  1.00  0.00     0.293 HD
ENDBRANCH  16  19
ENDBRANCH   3  13
BRANCH  10  21
ATOM     21  O   UNL     1      57.118  10.418  78.057  1.00  0.00    -0.507 OA
ATOM     22  H   UNL     1      58.072  10.411  77.729  1.00  0.00     0.293 HD
ENDBRANCH  10  21
BRANCH  11  23
ATOM     23  O   UNL     1      54.019  11.125  74.456  1.00  0.00    -0.508 OA
ATOM     24  H   UNL     1      53.035  11.218  74.234  1.00  0.00     0.293 HD
ENDBRANCH  11  23
ENDBRANCH   1   2
BRANCH   1  25
ATOM     25  C   UNL     1      55.669   6.018  81.213  1.00  0.00     0.339 C 
ATOM     26  C   UNL     1      55.100   4.918  82.132  1.00  0.00     0.214 C 
ATOM     27  O   UNL     1      57.044   6.275  81.471  1.00  0.00    -0.332 OA
ATOM     28  C   UNL     1      55.917   3.632  81.988  1.00  0.00     0.180 C 
ATOM     29  C   UNL     1      57.886   5.133  81.333  1.00  0.00     0.179 C 
ATOM     30  C   UNL     1      57.416   3.924  82.189  1.00  0.00     0.177 C 
BRANCH  26  31
ATOM     31  O   UNL     1      53.758   4.655  81.817  1.00  0.00    -0.384 OA
ATOM     32  H   UNL     1      53.527   5.229  81.040  1.00  0.00     0.211 HD
ENDBRANCH  26  31
BRANCH  28  33
ATOM     33  O   UNL     1      55.474   2.688  82.928  1.00  0.00    -0.387 OA
ATOM     34  H   UNL     1      54.522   2.899  83.118  1.00  0.00     0.211 HD
ENDBRANCH  28  33
BRANCH  29  35
ATOM     35  C   UNL     1      58.154   4.775  79.854  1.00  0.00     0.191 C 
BRANCH  35  36
ATOM     36  O   UNL     1      58.978   5.741  79.255  1.00  0.00    -0.394 OA
ATOM     37  H   UNL     1      59.908   5.551  79.546  1.00  0.00     0.210 HD
ENDBRANCH  35  36
ENDBRANCH  29  35
BRANCH  30  38
ATOM     38  O   UNL     1      57.712   4.126  83.551  1.00  0.00    -0.387 OA
ATOM     39  H   UNL     1      58.697   4.083  83.666  1.00  0.00     0.211 HD
ENDBRANCH  30  38
ENDBRANCH   1  25
TORSDOF 11
ENDMDL
MODEL 2
REMARK VINA RESULT:    -6.566      1.166      2.484
REMARK INTER + INTRA:         -10.317
REMARK INTER:                  -8.727
REMARK INTRA:                  -1.590
REMARK UNBOUND:                -0.872
REMARK SMILES O=c1c(O[C@@H]2O[C@H](CO)[C@@H](O)[C@@H](O)[C@@H]2O)c(-c2ccc(O)cc2)oc2cc(O)cc(O)c12
REMARK SMILES IDX 4 1 3 2 16 3 24 4 2 5 25 6 1 7 32 8 26 9 30 10 27 11 29 12
REMARK SMILES IDX 17 13 18 14 19 15 20 16 23 17 22 18 21 19 31 21 28 23 5 25
REMARK SMILES IDX 14 26 6 27 12 28 7 29 10 30 15 31 13 33 8 35 9 36 11 38
REMARK H PARENT 21 20 31 22 28 24 15 32 13 34 9 37 11 39
REMARK Flexibility Score: inf
ROOT
ATOM      1  O   UNL     1      54.463   5.954  80.683  1.00  0.00    -0.454 OA
ENDROOT
BRANCH   1   2
ATOM      2  C   UNL     1      54.299   6.779  79.562  1.00  0.00     0.214 A 
ATOM      3  C   UNL     1      53.494   6.399  78.469  1.00  0.00     0.180 A 
ATOM      4  O   UNL     1      53.463   7.163  77.383  1.00  0.00    -0.452 OA
ATOM      5  C   UNL     1      54.961   8.010  79.521  1.00  0.00     0.239 A 
ATOM      6  C   UNL     1      54.105   8.321  77.284  1.00  0.00     0.146 A 
ATOM      7  O   UNL     1      55.683   8.333  80.501  1.00  0.00    -0.285 OA
ATOM      8  C   UNL     1      54.852   8.836  78.377  1.00  0.00     0.111 A 
ATOM      9  C   UNL     1      54.028   9.027  76.081  1.00  0.00     0.094 A 
ATOM     10  C   UNL     1      55.472  10.112  78.236  1.00  0.00     0.134 A 
ATOM     11  C   UNL     1      54.688  10.245  75.934  1.00  0.00     0.123 A 
ATOM     12  C   UNL     1      55.406  10.780  77.006  1.00  0.00     0.093 A 
BRANCH   3  13
ATOM     13  C   UNL     1      52.663   5.175  78.481  1.00  0.00     0.021 A 
ATOM     14  C   UNL     1      53.078   4.044  77.760  1.00  0.00     0.016 A 
ATOM     15  C   UNL     1      52.301   2.882  77.756  1.00  0.00     0.047 A 
ATOM     16  C   UNL     1      51.092   2.842  78.463  1.00  0.00     0.115 A 
ATOM     17  C   UNL     1      51.435   5.136  79.169  1.00  0.00     0.016 A 
ATOM     18  C   UNL     1      50.661   3.972  79.165  1.00  0.00     0.047 A 
BRANCH  16  19
ATOM     19  O   UNL     1      50.310   1.689  78.469  1.00  0.00    -0.508 OA
ATOM     20  H   UNL     1      49.367   1.688  78.096  1.00  0.00     0.293 HD
ENDBRANCH  16  19
ENDBRANCH   3  13
BRANCH  10  21
ATOM     21  O   UNL     1      56.139  10.775  79.271  1.00  0.00    -0.507 OA
ATOM     22  H   UNL     1      57.115  11.030  79.255  1.00  0.00     0.293 HD
ENDBRANCH  10  21
BRANCH  11  23
ATOM     23  O   UNL     1      54.614  10.923  74.719  1.00  0.00    -0.508 OA
ATOM     24  H   UNL     1      55.431  11.353  74.302  1.00  0.00     0.293 HD
ENDBRANCH  11  23
ENDBRANCH   1   2
BRANCH   1  25
ATOM     25  C   UNL     1      55.264   4.766  80.681  1.00  0.00     0.339 C 
ATOM     26  C   UNL     1      56.464   4.887  81.642  1.00  0.00     0.214 C 
ATOM     27  O   UNL     1      54.466   3.623  80.959  1.00  0.00    -0.332 OA
ATOM     28  C   UNL     1      55.979   4.917  83.093  1.00  0.00     0.180 C 
ATOM     29  C   UNL     1      53.949   3.582  82.287  1.00  0.00     0.179 C 
ATOM     30  C   UNL     1      55.050   3.721  83.373  1.00  0.00     0.177 C 
BRANCH  26  31
ATOM     31  O   UNL     1      57.199   6.052  81.373  1.00  0.00    -0.384 OA
ATOM     32  H   UNL     1      58.151   5.842  81.563  1.00  0.00     0.211 HD
ENDBRANCH  26  31
BRANCH  28  33
ATOM     33  O   UNL     1      57.085   4.888  83.957  1.00  0.00    -0.387 OA
ATOM     34  H   UNL     1      56.870   4.237  84.676  1.00  0.00     0.211 HD
ENDBRANCH  28  33
BRANCH  29  35
ATOM     35  C   UNL     1      52.760   4.550  82.485  1.00  0.00     0.191 C 
BRANCH  35  36
ATOM     36  O   UNL     1      51.563   3.834  82.643  1.00  0.00    -0.394 OA
ATOM     37  H   UNL     1      51.637   3.017  82.086  1.00  0.00     0.210 HD
ENDBRANCH  35  36
ENDBRANCH  29  35
BRANCH  30  38
ATOM     38  O   UNL     1      55.789   2.528  83.498  1.00  0.00    -0.387 OA
ATOM     39  H   UNL     1      56.705   2.759  83.803  1.00  0.00     0.211 HD
ENDBRANCH  30  38
ENDBRANCH   1  25
TORSDOF 11
ENDMDL
MODEL 3
REMARK VINA RESULT:    -6.505      2.297      6.415
REMARK INTER + INTRA:         -10.229
REMARK INTER:                  -8.786
REMARK INTRA:                  -1.443
REMARK UNBOUND:                -0.872
REMARK SMILES O=c1c(O[C@@H]2O[C@H](CO)[C@@H](O)[C@@H](O)[C@@H]2O)c(-c2ccc(O)cc2)oc2cc(O)cc(O)c12
REMARK SMILES IDX 4 1 3 2 16 3 24 4 2 5 25 6 1 7 32 8 26 9 30 10 27 11 29 12
REMARK SMILES IDX 17 13 18 14 19 15 20 16 23 17 22 18 21 19 31 21 28 23 5 25
REMARK SMILES IDX 14 26 6 27 12 28 7 29 10 30 15 31 13 33 8 35 9 36 11 38
REMARK H PARENT 21 20 31 22 28 24 15 32 13 34 9 37 11 39
REMARK Flexibility Score: inf
ROOT
ATOM      1  O   UNL     1      56.807   6.742  80.417  1.00  0.00    -0.454 OA
ENDROOT
BRANCH   1   2
ATOM      2  C   UNL     1      55.848   5.804  80.823  1.00  0.00     0.214 A 
ATOM      3  C   UNL     1      54.596   5.694  80.183  1.00  0.00     0.180 A 
ATOM      4  O   UNL     1      53.680   4.870  80.677  1.00  0.00    -0.452 OA
ATOM      5  C   UNL     1      56.136   4.959  81.899  1.00  0.00     0.239 A 
ATOM      6  C   UNL     1      53.895   4.077  81.721  1.00  0.00     0.146 A 
ATOM      7  O   UNL     1      57.254   5.074  82.466  1.00  0.00    -0.285 OA
ATOM      8  C   UNL     1      55.162   4.041  82.359  1.00  0.00     0.111 A 
ATOM      9  C   UNL     1      52.847   3.273  82.176  1.00  0.00     0.094 A 
ATOM     10  C   UNL     1      55.355   3.127  83.437  1.00  0.00     0.134 A 
ATOM     11  C   UNL     1      53.028   2.428  83.268  1.00  0.00     0.123 A 
ATOM     12  C   UNL     1      54.276   2.360  83.893  1.00  0.00     0.093 A 
BRANCH   3  13
ATOM     13  C   UNL     1      54.257   6.459  78.963  1.00  0.00     0.021 A 
ATOM     14  C   UNL     1      53.245   7.431  79.010  1.00  0.00     0.016 A 
ATOM     15  C   UNL     1      52.908   8.158  77.864  1.00  0.00     0.047 A 
ATOM     16  C   UNL     1      53.570   7.911  76.654  1.00  0.00     0.115 A 
ATOM     17  C   UNL     1      54.901   6.199  77.738  1.00  0.00     0.016 A 
ATOM     18  C   UNL     1      54.564   6.928  76.595  1.00  0.00     0.047 A 
BRANCH  16  19
ATOM     19  O   UNL     1      53.245   8.630  75.507  1.00  0.00    -0.508 OA
ATOM     20  H   UNL     1      53.192   8.183  74.599  1.00  0.00     0.293 HD
ENDBRANCH  16  19
ENDBRANCH   3  13
BRANCH  10  21
ATOM     21  O   UNL     1      56.582   2.918  84.074  1.00  0.00    -0.507 OA
ATOM     22  H   UNL     1      57.061   2.031  84.121  1.00  0.00     0.293 HD
ENDBRANCH  10  21
BRANCH  11  23
ATOM     23  O   UNL     1      51.964   1.649  83.718  1.00  0.00    -0.508 OA
ATOM     24  H   UNL     1      52.068   0.656  83.886  1.00  0.00     0.293 HD
ENDBRANCH  11  23
ENDBRANCH   1   2
BRANCH   1  25
ATOM     25  C   UNL     1      56.700   8.146  80.678  1.00  0.00     0.339 C 
ATOM     26  C   UNL     1      57.753   8.616  81.702  1.00  0.00     0.214 C 
ATOM     27  O   UNL     1      56.760   8.888  79.467  1.00  0.00    -0.332 OA
ATOM     28  C   UNL     1      59.156   8.532  81.096  1.00  0.00     0.180 C 
ATOM     29  C   UNL     1      58.028   8.843  78.818  1.00  0.00     0.179 C 
ATOM     30  C   UNL     1      59.200   9.269  79.744  1.00  0.00     0.177 C 
BRANCH  26  31
ATOM     31  O   UNL     1      57.700   7.831  82.864  1.00  0.00    -0.384 OA
ATOM     32  H   UNL     1      57.231   6.990  82.622  1.00  0.00     0.211 HD
ENDBRANCH  26  31
BRANCH  28  33
ATOM     33  O   UNL     1      60.086   9.091  81.987  1.00  0.00    -0.387 OA
ATOM     34  H   UNL     1      60.413   8.349  82.561  1.00  0.00     0.211 HD
ENDBRANCH  28  33
BRANCH  29  35
ATOM     35  C   UNL     1      58.270   7.500  78.093  1.00  0.00     0.191 C 
BRANCH  35  36
ATOM     36  O   UNL     1      59.637   7.178  78.096  1.00  0.00    -0.394 OA
ATOM     37  H   UNL     1      59.846   6.794  77.204  1.00  0.00     0.210 HD
ENDBRANCH  35  36
ENDBRANCH  29  35
BRANCH  30  38
ATOM     38  O   UNL     1      59.213  10.665  79.932  1.00  0.00    -0.387 OA
ATOM     39  H   UNL     1      59.583  11.086  79.112  1.00  0.00     0.211 HD
ENDBRANCH  30  38
ENDBRANCH   1  25
TORSDOF 11
ENDMDL
MODEL 4
REMARK VINA RESULT:    -6.433      2.723      6.056
REMARK INTER + INTRA:         -10.126
REMARK INTER:                  -9.223
REMARK INTRA:                  -0.903
REMARK UNBOUND:                -0.872
REMARK SMILES O=c1c(O[C@@H]2O[C@H](CO)[C@@H](O)[C@@H](O)[C@@H]2O)c(-c2ccc(O)cc2)oc2cc(O)cc(O)c12
REMARK SMILES IDX 4 1 3 2 16 3 24 4 2 5 25 6 1 7 32 8 26 9 30 10 27 11 29 12
REMARK SMILES IDX 17 13 18 14 19 15 20 16 23 17 22 18 21 19 31 21 28 23 5 25
REMARK SMILES IDX 14 26 6 27 12 28 7 29 10 30 15 31 13 33 8 35 9 36 11 38
REMARK H PARENT 21 20 31 22 28 24 15 32 13 34 9 37 11 39
REMARK Flexibility Score: inf
ROOT
ATOM      1  O   UNL     1      54.789   6.327  81.648  1.00  0.00    -0.454 OA
ENDROOT
BRANCH   1   2
ATOM      2  C   UNL     1      54.132   5.596  80.648  1.00  0.00     0.214 A 
ATOM      3  C   UNL     1      54.695   5.410  79.370  1.00  0.00     0.180 A 
ATOM      4  O   UNL     1      53.984   4.810  78.423  1.00  0.00    -0.452 OA
ATOM      5  C   UNL     1      52.876   5.044  80.923  1.00  0.00     0.239 A 
ATOM      6  C   UNL     1      52.773   4.304  78.627  1.00  0.00     0.146 A 
ATOM      7  O   UNL     1      52.381   5.226  82.067  1.00  0.00    -0.285 OA
ATOM      8  C   UNL     1      52.172   4.348  79.912  1.00  0.00     0.111 A 
ATOM      9  C   UNL     1      52.102   3.723  77.548  1.00  0.00     0.094 A 
ATOM     10  C   UNL     1      50.895   3.737  80.088  1.00  0.00     0.134 A 
ATOM     11  C   UNL     1      50.830   3.181  77.717  1.00  0.00     0.123 A 
ATOM     12  C   UNL     1      50.233   3.193  78.980  1.00  0.00     0.093 A 
BRANCH   3  13
ATOM     13  C   UNL     1      56.067   5.850  79.034  1.00  0.00     0.021 A 
ATOM     14  C   UNL     1      57.168   5.108  79.491  1.00  0.00     0.016 A 
ATOM     15  C   UNL     1      58.471   5.514  79.188  1.00  0.00     0.047 A 
ATOM     16  C   UNL     1      58.688   6.676  78.436  1.00  0.00     0.115 A 
ATOM     17  C   UNL     1      56.294   7.029  78.299  1.00  0.00     0.016 A 
ATOM     18  C   UNL     1      57.597   7.432  77.995  1.00  0.00     0.047 A 
BRANCH  16  19
ATOM     19  O   UNL     1      59.982   7.089  78.125  1.00  0.00    -0.508 OA
ATOM     20  H   UNL     1      60.643   6.466  77.675  1.00  0.00     0.293 HD
ENDBRANCH  16  19
ENDBRANCH   3  13
BRANCH  10  21
ATOM     21  O   UNL     1      50.250   3.617  81.322  1.00  0.00    -0.507 OA
ATOM     22  H   UNL     1      50.050   4.386  81.944  1.00  0.00     0.293 HD
ENDBRANCH  10  21
BRANCH  11  23
ATOM     23  O   UNL     1      50.170   2.624  76.624  1.00  0.00    -0.508 OA
ATOM     24  H   UNL     1      50.157   3.084  75.722  1.00  0.00     0.293 HD
ENDBRANCH  11  23
ENDBRANCH   1   2
BRANCH   1  25
ATOM     25  C   UNL     1      55.408   7.598  81.422  1.00  0.00     0.339 C 
ATOM     26  C   UNL     1      54.591   8.748  82.046  1.00  0.00     0.214 C 
ATOM     27  O   UNL     1      56.755   7.588  81.876  1.00  0.00    -0.332 OA
ATOM     28  C   UNL     1      54.637   8.661  83.573  1.00  0.00     0.180 C 
ATOM     29  C   UNL     1      56.892   7.483  83.291  1.00  0.00     0.179 C 
ATOM     30  C   UNL     1      56.094   8.571  84.061  1.00  0.00     0.177 C 
BRANCH  26  31
ATOM     31  O   UNL     1      53.255   8.697  81.616  1.00  0.00    -0.384 OA
ATOM     32  H   UNL     1      53.109   9.489  81.036  1.00  0.00     0.211 HD
ENDBRANCH  26  31
BRANCH  28  33
ATOM     33  O   UNL     1      54.007   9.788  84.125  1.00  0.00    -0.387 OA
ATOM     34  H   UNL     1      54.309   9.851  85.069  1.00  0.00     0.211 HD
ENDBRANCH  28  33
BRANCH  29  35
ATOM     35  C   UNL     1      56.633   6.049  83.802  1.00  0.00     0.191 C 
BRANCH  35  36
ATOM     36  O   UNL     1      57.255   5.107  82.967  1.00  0.00    -0.394 OA
ATOM     37  H   UNL     1      57.345   5.527  82.072  1.00  0.00     0.210 HD
ENDBRANCH  35  36
ENDBRANCH  29  35
BRANCH  30  38
ATOM     38  O   UNL     1      56.734   9.823  83.973  1.00  0.00    -0.387 OA
ATOM     39  H   UNL     1      57.618   9.692  83.541  1.00  0.00     0.211 HD
ENDBRANCH  30  38
ENDBRANCH   1  25
TORSDOF 11
ENDMDL
MODEL 5
REMARK VINA RESULT:    -6.388      2.474      5.348
REMARK INTER + INTRA:         -10.061
REMARK INTER:                  -8.608
REMARK INTRA:                  -1.453
REMARK UNBOUND:                -0.872
REMARK SMILES O=c1c(O[C@@H]2O[C@H](CO)[C@@H](O)[C@@H](O)[C@@H]2O)c(-c2ccc(O)cc2)oc2cc(O)cc(O)c12
REMARK SMILES IDX 4 1 3 2 16 3 24 4 2 5 25 6 1 7 32 8 26 9 30 10 27 11 29 12
REMARK SMILES IDX 17 13 18 14 19 15 20 16 23 17 22 18 21 19 31 21 28 23 5 25
REMARK SMILES IDX 14 26 6 27 12 28 7 29 10 30 15 31 13 33 8 35 9 36 11 38
REMARK H PARENT 21 20 31 22 28 24 15 32 13 34 9 37 11 39
REMARK Flexibility Score: inf
ROOT
ATOM      1  O   UNL     1      54.968   6.517  79.818  1.00  0.00    -0.454 OA
ENDROOT
BRANCH   1   2
ATOM      2  C   UNL     1      55.987   7.479  79.796  1.00  0.00     0.214 A 
ATOM      3  C   UNL     1      55.983   8.550  78.880  1.00  0.00     0.180 A 
ATOM      4  O   UNL     1      57.027   9.367  78.823  1.00  0.00    -0.452 OA
ATOM      5  C   UNL     1      57.046   7.368  80.704  1.00  0.00     0.239 A 
ATOM      6  C   UNL     1      58.072   9.278  79.638  1.00  0.00     0.146 A 
ATOM      7  O   UNL     1      57.042   6.402  81.512  1.00  0.00    -0.285 OA
ATOM      8  C   UNL     1      58.112   8.298  80.665  1.00  0.00     0.111 A 
ATOM      9  C   UNL     1      59.131  10.172  79.467  1.00  0.00     0.094 A 
ATOM     10  C   UNL     1      59.231   8.285  81.549  1.00  0.00     0.134 A 
ATOM     11  C   UNL     1      60.247  10.113  80.299  1.00  0.00     0.123 A 
ATOM     12  C   UNL     1      60.293   9.172  81.331  1.00  0.00     0.093 A 
BRANCH   3  13
ATOM     13  C   UNL     1      54.844   8.813  77.971  1.00  0.00     0.021 A 
ATOM     14  C   UNL     1      54.815   8.216  76.701  1.00  0.00     0.016 A 
ATOM     15  C   UNL     1      53.750   8.460  75.829  1.00  0.00     0.047 A 
ATOM     16  C   UNL     1      52.708   9.315  76.212  1.00  0.00     0.115 A 
ATOM     17  C   UNL     1      53.806   9.689  78.340  1.00  0.00     0.016 A 
ATOM     18  C   UNL     1      52.742   9.930  77.467  1.00  0.00     0.047 A 
BRANCH  16  19
ATOM     19  O   UNL     1      51.640   9.563  75.352  1.00  0.00    -0.508 OA
ATOM     20  H   UNL     1      51.287  10.501  75.206  1.00  0.00     0.293 HD
ENDBRANCH  16  19
ENDBRANCH   3  13
BRANCH  10  21
ATOM     21  O   UNL     1      59.338   7.447  82.663  1.00  0.00    -0.507 OA
ATOM     22  H   UNL     1      60.035   6.727  82.775  1.00  0.00     0.293 HD
ENDBRANCH  10  21
BRANCH  11  23
ATOM     23  O   UNL     1      61.301  11.001  80.098  1.00  0.00    -0.508 OA
ATOM     24  H   UNL     1      62.236  10.798  80.432  1.00  0.00     0.293 HD
ENDBRANCH  11  23
ENDBRANCH   1   2
BRANCH   1  25
ATOM     25  C   UNL     1      54.887   5.430  78.889  1.00  0.00     0.339 C 
ATOM     26  C   UNL     1      55.094   4.070  79.586  1.00  0.00     0.214 C 
ATOM     27  O   UNL     1      53.666   5.481  78.163  1.00  0.00    -0.332 OA
ATOM     28  C   UNL     1      53.913   3.762  80.509  1.00  0.00     0.180 C 
ATOM     29  C   UNL     1      52.506   5.231  78.954  1.00  0.00     0.179 C 
ATOM     30  C   UNL     1      52.584   3.894  79.742  1.00  0.00     0.177 C 
BRANCH  26  31
ATOM     31  O   UNL     1      56.282   4.072  80.333  1.00  0.00    -0.384 OA
ATOM     32  H   UNL     1      56.568   3.125  80.423  1.00  0.00     0.211 HD
ENDBRANCH  26  31
BRANCH  28  33
ATOM     33  O   UNL     1      54.050   2.464  81.027  1.00  0.00    -0.387 OA
ATOM     34  H   UNL     1      53.330   2.349  81.702  1.00  0.00     0.211 HD
ENDBRANCH  28  33
BRANCH  29  35
ATOM     35  C   UNL     1      52.120   6.443  79.831  1.00  0.00     0.191 C 
BRANCH  35  36
ATOM     36  O   UNL     1      51.335   7.350  79.101  1.00  0.00    -0.394 OA
ATOM     37  H   UNL     1      51.720   7.397  78.188  1.00  0.00     0.210 HD
ENDBRANCH  35  36
ENDBRANCH  29  35
BRANCH  30  38
ATOM     38  O   UNL     1      52.384   2.793  78.888  1.00  0.00    -0.387 OA
ATOM     39  H   UNL     1      51.493   2.889  78.459  1.00  0.00     0.211 HD
ENDBRANCH  30  38
ENDBRANCH   1  25
TORSDOF 11
ENDMDL
MODEL 6
REMARK VINA RESULT:    -6.173      2.265      7.672
REMARK INTER + INTRA:          -9.752
REMARK INTER:                  -9.104
REMARK INTRA:                  -0.648
REMARK UNBOUND:                -0.872
REMARK SMILES O=c1c(O[C@@H]2O[C@H](CO)[C@@H](O)[C@@H](O)[C@@H]2O)c(-c2ccc(O)cc2)oc2cc(O)cc(O)c12
REMARK SMILES IDX 4 1 3 2 16 3 24 4 2 5 25 6 1 7 32 8 26 9 30 10 27 11 29 12
REMARK SMILES IDX 17 13 18 14 19 15 20 16 23 17 22 18 21 19 31 21 28 23 5 25
REMARK SMILES IDX 14 26 6 27 12 28 7 29 10 30 15 31 13 33 8 35 9 36 11 38
REMARK H PARENT 21 20 31 22 28 24 15 32 13 34 9 37 11 39
REMARK Flexibility Score: inf
ROOT
ATOM      1  O   UNL     1      53.964   6.658  79.209  1.00  0.00    -0.454 OA
ENDROOT
BRANCH   1   2
ATOM      2  C   UNL     1      54.057   5.645  80.174  1.00  0.00     0.214 A 
ATOM      3  C   UNL     1      55.300   5.172  80.642  1.00  0.00     0.180 A 
ATOM      4  O   UNL     1      55.336   4.135  81.469  1.00  0.00    -0.452 OA
ATOM      5  C   UNL     1      52.882   5.079  80.680  1.00  0.00     0.239 A 
ATOM      6  C   UNL     1      54.247   3.541  81.946  1.00  0.00     0.146 A 
ATOM      7  O   UNL     1      51.779   5.504  80.247  1.00  0.00    -0.285 OA
ATOM      8  C   UNL     1      52.953   4.019  81.615  1.00  0.00     0.111 A 
ATOM      9  C   UNL     1      54.404   2.435  82.785  1.00  0.00     0.094 A 
ATOM     10  C   UNL     1      51.821   3.380  82.203  1.00  0.00     0.134 A 
ATOM     11  C   UNL     1      53.290   1.781  83.306  1.00  0.00     0.123 A 
ATOM     12  C   UNL     1      52.008   2.253  83.013  1.00  0.00     0.093 A 
BRANCH   3  13
ATOM     13  C   UNL     1      56.584   5.797  80.255  1.00  0.00     0.021 A 
ATOM     14  C   UNL     1      56.932   7.053  80.777  1.00  0.00     0.016 A 
ATOM     15  C   UNL     1      58.138   7.660  80.417  1.00  0.00     0.047 A 
ATOM     16  C   UNL     1      59.005   7.024  79.519  1.00  0.00     0.115 A 
ATOM     17  C   UNL     1      57.449   5.175  79.335  1.00  0.00     0.016 A 
ATOM     18  C   UNL     1      58.655   5.783  78.978  1.00  0.00     0.047 A 
BRANCH  16  19
ATOM     19  O   UNL     1      60.212   7.617  79.154  1.00  0.00    -0.508 OA
ATOM     20  H   UNL     1      60.469   7.738  78.181  1.00  0.00     0.293 HD
ENDBRANCH  16  19
ENDBRANCH   3  13
BRANCH  10  21
ATOM     21  O   UNL     1      50.504   3.824  82.046  1.00  0.00    -0.507 OA
ATOM     22  H   UNL     1      50.031   4.453  82.676  1.00  0.00     0.293 HD
ENDBRANCH  10  21
BRANCH  11  23
ATOM     23  O   UNL     1      53.468   0.668  84.125  1.00  0.00    -0.508 OA
ATOM     24  H   UNL     1      52.808  -0.101  84.124  1.00  0.00     0.293 HD
ENDBRANCH  11  23
ENDBRANCH   1   2
BRANCH   1  25
ATOM     25  C   UNL     1      52.850   6.804  78.321  1.00  0.00     0.339 C 
ATOM     26  C   UNL     1      52.235   8.216  78.409  1.00  0.00     0.214 C 
ATOM     27  O   UNL     1      53.219   6.461  76.992  1.00  0.00    -0.332 OA
ATOM     28  C   UNL     1      53.207   9.253  77.842  1.00  0.00     0.180 C 
ATOM     29  C   UNL     1      54.146   7.363  76.393  1.00  0.00     0.179 C 
ATOM     30  C   UNL     1      53.669   8.841  76.432  1.00  0.00     0.177 C 
BRANCH  26  31
ATOM     31  O   UNL     1      51.930   8.542  79.740  1.00  0.00    -0.384 OA
ATOM     32  H   UNL     1      52.269   9.462  79.896  1.00  0.00     0.211 HD
ENDBRANCH  26  31
BRANCH  28  33
ATOM     33  O   UNL     1      52.581  10.509  77.802  1.00  0.00    -0.387 OA
ATOM     34  H   UNL     1      52.351  10.684  76.852  1.00  0.00     0.211 HD
ENDBRANCH  28  33
BRANCH  29  35
ATOM     35  C   UNL     1      55.585   7.165  76.921  1.00  0.00     0.191 C 
BRANCH  35  36
ATOM     36  O   UNL     1      56.018   8.307  77.613  1.00  0.00    -0.394 OA
ATOM     37  H   UNL     1      57.008   8.257  77.664  1.00  0.00     0.210 HD
ENDBRANCH  35  36
ENDBRANCH  29  35
BRANCH  30  38
ATOM     38  O   UNL     1      52.653   9.068  75.483  1.00  0.00    -0.387 OA
ATOM     39  H   UNL     1      52.935   8.661  74.622  1.00  0.00     0.211 HD
ENDBRANCH  30  38
ENDBRANCH   1  25
TORSDOF 11
ENDMDL
MODEL 7
REMARK VINA RESULT:    -6.150      2.269      6.464
REMARK INTER + INTRA:          -9.718
REMARK INTER:                  -8.708
REMARK INTRA:                  -1.010
REMARK UNBOUND:                -0.872
REMARK SMILES O=c1c(O[C@@H]2O[C@H](CO)[C@@H](O)[C@@H](O)[C@@H]2O)c(-c2ccc(O)cc2)oc2cc(O)cc(O)c12
REMARK SMILES IDX 4 1 3 2 16 3 24 4 2 5 25 6 1 7 32 8 26 9 30 10 27 11 29 12
REMARK SMILES IDX 17 13 18 14 19 15 20 16 23 17 22 18 21 19 31 21 28 23 5 25
REMARK SMILES IDX 14 26 6 27 12 28 7 29 10 30 15 31 13 33 8 35 9 36 11 38
REMARK H PARENT 21 20 31 22 28 24 15 32 13 34 9 37 11 39
REMARK Flexibility Score: inf
ROOT
ATOM      1  O   UNL     1      56.503   6.456  80.410  1.00  0.00    -0.454 OA
ENDROOT
BRANCH   1   2
ATOM      2  C   UNL     1      55.493   5.582  80.834  1.00  0.00     0.214 A 
ATOM      3  C   UNL     1      54.223   5.557  80.225  1.00  0.00     0.180 A 
ATOM      4  O   UNL     1      53.265   4.794  80.737  1.00  0.00    -0.452 OA
ATOM      5  C   UNL     1      55.750   4.715  81.902  1.00  0.00     0.239 A 
ATOM      6  C   UNL     1      53.452   3.983  81.773  1.00  0.00     0.146 A 
ATOM      7  O   UNL     1      56.886   4.753  82.443  1.00  0.00    -0.285 OA
ATOM      8  C   UNL     1      54.728   3.861  82.382  1.00  0.00     0.111 A 
ATOM      9  C   UNL     1      52.363   3.249  82.250  1.00  0.00     0.094 A 
ATOM     10  C   UNL     1      54.885   2.931  83.452  1.00  0.00     0.134 A 
ATOM     11  C   UNL     1      52.514   2.388  83.335  1.00  0.00     0.123 A 
ATOM     12  C   UNL     1      53.768   2.235  83.930  1.00  0.00     0.093 A 
BRANCH   3  13
ATOM     13  C   UNL     1      53.907   6.349  79.015  1.00  0.00     0.021 A 
ATOM     14  C   UNL     1      53.412   7.656  79.148  1.00  0.00     0.016 A 
ATOM     15  C   UNL     1      53.102   8.414  78.015  1.00  0.00     0.047 A 
ATOM     16  C   UNL     1      53.271   7.869  76.736  1.00  0.00     0.115 A 
ATOM     17  C   UNL     1      54.051   5.799  77.727  1.00  0.00     0.016 A 
ATOM     18  C   UNL     1      53.743   6.560  76.596  1.00  0.00     0.047 A 
BRANCH  16  19
ATOM     19  O   UNL     1      52.969   8.616  75.599  1.00  0.00    -0.508 OA
ATOM     20  H   UNL     1      52.184   9.256  75.580  1.00  0.00     0.293 HD
ENDBRANCH  16  19
ENDBRANCH   3  13
BRANCH  10  21
ATOM     21  O   UNL     1      56.110   2.638  84.059  1.00  0.00    -0.507 OA
ATOM     22  H   UNL     1      56.957   3.171  83.930  1.00  0.00     0.293 HD
ENDBRANCH  10  21
BRANCH  11  23
ATOM     23  O   UNL     1      51.411   1.680  83.808  1.00  0.00    -0.508 OA
ATOM     24  H   UNL     1      51.447   0.678  83.950  1.00  0.00     0.293 HD
ENDBRANCH  11  23
ENDBRANCH   1   2
BRANCH   1  25
ATOM     25  C   UNL     1      57.823   6.028  80.056  1.00  0.00     0.339 C 
ATOM     26  C   UNL     1      58.217   6.505  78.644  1.00  0.00     0.214 C 
ATOM     27  O   UNL     1      58.763   6.434  81.042  1.00  0.00    -0.332 OA
ATOM     28  C   UNL     1      58.382   8.027  78.626  1.00  0.00     0.180 C 
ATOM     29  C   UNL     1      58.961   7.844  81.114  1.00  0.00     0.179 C 
ATOM     30  C   UNL     1      59.340   8.475  79.745  1.00  0.00     0.177 C 
BRANCH  26  31
ATOM     31  O   UNL     1      57.243   6.132  77.705  1.00  0.00    -0.384 OA
ATOM     32  H   UNL     1      57.496   5.232  77.370  1.00  0.00     0.211 HD
ENDBRANCH  26  31
BRANCH  28  33
ATOM     33  O   UNL     1      58.873   8.429  77.374  1.00  0.00    -0.387 OA
ATOM     34  H   UNL     1      58.143   8.278  76.718  1.00  0.00     0.211 HD
ENDBRANCH  28  33
BRANCH  29  35
ATOM     35  C   UNL     1      57.794   8.566  81.824  1.00  0.00     0.191 C 
BRANCH  35  36
ATOM     36  O   UNL     1      57.341   7.813  82.919  1.00  0.00    -0.394 OA
ATOM     37  H   UNL     1      57.410   6.857  82.662  1.00  0.00     0.210 HD
ENDBRANCH  35  36
ENDBRANCH  29  35
BRANCH  30  38
ATOM     38  O   UNL     1      60.678   8.185  79.411  1.00  0.00    -0.387 OA
ATOM     39  H   UNL     1      60.750   8.146  78.421  1.00  0.00     0.211 HD
ENDBRANCH  30  38
ENDBRANCH   1  25
TORSDOF 11
ENDMDL
MODEL 8
REMARK VINA RESULT:    -6.099      2.396      5.182
REMARK INTER + INTRA:          -9.645
REMARK INTER:                  -8.765
REMARK INTRA:                  -0.881
REMARK UNBOUND:                -0.872
REMARK SMILES O=c1c(O[C@@H]2O[C@H](CO)[C@@H](O)[C@@H](O)[C@@H]2O)c(-c2ccc(O)cc2)oc2cc(O)cc(O)c12
REMARK SMILES IDX 4 1 3 2 16 3 24 4 2 5 25 6 1 7 32 8 26 9 30 10 27 11 29 12
REMARK SMILES IDX 17 13 18 14 19 15 20 16 23 17 22 18 21 19 31 21 28 23 5 25
REMARK SMILES IDX 14 26 6 27 12 28 7 29 10 30 15 31 13 33 8 35 9 36 11 38
REMARK H PARENT 21 20 31 22 28 24 15 32 13 34 9 37 11 39
REMARK Flexibility Score: inf
ROOT
ATOM      1  O   UNL     1      54.490   6.421  79.406  1.00  0.00    -0.454 OA
ENDROOT
BRANCH   1   2
ATOM      2  C   UNL     1      55.515   7.375  79.467  1.00  0.00     0.214 A 
ATOM      3  C   UNL     1      55.489   8.550  78.688  1.00  0.00     0.180 A 
ATOM      4  O   UNL     1      56.536   9.364  78.697  1.00  0.00    -0.452 OA
ATOM      5  C   UNL     1      56.602   7.152  80.320  1.00  0.00     0.239 A 
ATOM      6  C   UNL     1      57.606   9.173  79.460  1.00  0.00     0.146 A 
ATOM      7  O   UNL     1      56.616   6.095  81.004  1.00  0.00    -0.285 OA
ATOM      8  C   UNL     1      57.673   8.076  80.359  1.00  0.00     0.111 A 
ATOM      9  C   UNL     1      58.666  10.078  79.364  1.00  0.00     0.094 A 
ATOM     10  C   UNL     1      58.820   7.952  81.198  1.00  0.00     0.134 A 
ATOM     11  C   UNL     1      59.807   9.914  80.145  1.00  0.00     0.123 A 
ATOM     12  C   UNL     1      59.880   8.855  81.054  1.00  0.00     0.093 A 
BRANCH   3  13
ATOM     13  C   UNL     1      54.324   8.925  77.856  1.00  0.00     0.021 A 
ATOM     14  C   UNL     1      54.088   8.255  76.645  1.00  0.00     0.016 A 
ATOM     15  C   UNL     1      52.996   8.602  75.844  1.00  0.00     0.047 A 
ATOM     16  C   UNL     1      52.134   9.633  76.240  1.00  0.00     0.115 A 
ATOM     17  C   UNL     1      53.467   9.976  78.235  1.00  0.00     0.016 A 
ATOM     18  C   UNL     1      52.374  10.319  77.434  1.00  0.00     0.047 A 
BRANCH  16  19
ATOM     19  O   UNL     1      51.040   9.986  75.452  1.00  0.00    -0.508 OA
ATOM     20  H   UNL     1      51.073   9.920  74.441  1.00  0.00     0.293 HD
ENDBRANCH  16  19
ENDBRANCH   3  13
BRANCH  10  21
ATOM     21  O   UNL     1      58.955   6.984  82.197  1.00  0.00    -0.507 OA
ATOM     22  H   UNL     1      59.408   6.091  82.074  1.00  0.00     0.293 HD
ENDBRANCH  10  21
BRANCH  11  23
ATOM     23  O   UNL     1      60.861  10.817  80.020  1.00  0.00    -0.508 OA
ATOM     24  H   UNL     1      61.823  10.504  79.969  1.00  0.00     0.293 HD
ENDBRANCH  11  23
ENDBRANCH   1   2
BRANCH   1  25
ATOM     25  C   UNL     1      53.579   6.168  80.481  1.00  0.00     0.339 C 
ATOM     26  C   UNL     1      52.120   6.101  79.987  1.00  0.00     0.214 C 
ATOM     27  O   UNL     1      53.958   5.000  81.196  1.00  0.00    -0.332 OA
ATOM     28  C   UNL     1      51.911   4.857  79.121  1.00  0.00     0.180 C 
ATOM     29  C   UNL     1      53.820   3.791  80.452  1.00  0.00     0.179 C 
ATOM     30  C   UNL     1      52.395   3.599  79.865  1.00  0.00     0.177 C 
BRANCH  26  31
ATOM     31  O   UNL     1      51.795   7.247  79.243  1.00  0.00    -0.384 OA
ATOM     32  H   UNL     1      52.651   7.701  79.026  1.00  0.00     0.211 HD
ENDBRANCH  26  31
BRANCH  28  33
ATOM     33  O   UNL     1      50.550   4.738  78.794  1.00  0.00    -0.387 OA
ATOM     34  H   UNL     1      50.416   3.811  78.464  1.00  0.00     0.211 HD
ENDBRANCH  28  33
BRANCH  29  35
ATOM     35  C   UNL     1      54.947   3.609  79.412  1.00  0.00     0.191 C 
BRANCH  35  36
ATOM     36  O   UNL     1      54.695   2.490  78.603  1.00  0.00    -0.394 OA
ATOM     37  H   UNL     1      55.564   2.215  78.209  1.00  0.00     0.210 HD
ENDBRANCH  35  36
ENDBRANCH  29  35
BRANCH  30  38
ATOM     38  O   UNL     1      51.481   3.224  80.869  1.00  0.00    -0.387 OA
ATOM     39  H   UNL     1      51.931   2.578  81.474  1.00  0.00     0.211 HD
ENDBRANCH  30  38
ENDBRANCH   1  25
TORSDOF 11
ENDMDL
MODEL 9
REMARK VINA RESULT:    -6.054      2.355      5.856
REMARK INTER + INTRA:          -9.580
REMARK INTER:                  -8.956
REMARK INTRA:                  -0.625
REMARK UNBOUND:                -0.872
REMARK SMILES O=c1c(O[C@@H]2O[C@H](CO)[C@@H](O)[C@@H](O)[C@@H]2O)c(-c2ccc(O)cc2)oc2cc(O)cc(O)c12
REMARK SMILES IDX 4 1 3 2 16 3 24 4 2 5 25 6 1 7 32 8 26 9 30 10 27 11 29 12
REMARK SMILES IDX 17 13 18 14 19 15 20 16 23 17 22 18 21 19 31 21 28 23 5 25
REMARK SMILES IDX 14 26 6 27 12 28 7 29 10 30 15 31 13 33 8 35 9 36 11 38
REMARK H PARENT 21 20 31 22 28 24 15 32 13 34 9 37 11 39
REMARK Flexibility Score: inf
ROOT
ATOM      1  O   UNL     1      54.469   6.389  81.401  1.00  0.00    -0.454 OA
ENDROOT
BRANCH   1   2
ATOM      2  C   UNL     1      53.816   5.639  80.414  1.00  0.00     0.214 A 
ATOM      3  C   UNL     1      54.287   5.582  79.087  1.00  0.00     0.180 A 
ATOM      4  O   UNL     1      53.570   4.952  78.164  1.00  0.00    -0.452 OA
ATOM      5  C   UNL     1      52.656   4.933  80.753  1.00  0.00     0.239 A 
ATOM      6  C   UNL     1      52.443   4.301  78.432  1.00  0.00     0.146 A 
ATOM      7  O   UNL     1      52.242   4.999  81.940  1.00  0.00    -0.285 OA
ATOM      8  C   UNL     1      51.951   4.212  79.760  1.00  0.00     0.111 A 
ATOM      9  C   UNL     1      51.753   3.700  77.376  1.00  0.00     0.094 A 
ATOM     10  C   UNL     1      50.769   3.450  79.998  1.00  0.00     0.134 A 
ATOM     11  C   UNL     1      50.567   3.009  77.611  1.00  0.00     0.123 A 
ATOM     12  C   UNL     1      50.080   2.888  78.915  1.00  0.00     0.093 A 
BRANCH   3  13
ATOM     13  C   UNL     1      55.569   6.194  78.672  1.00  0.00     0.021 A 
ATOM     14  C   UNL     1      55.626   7.569  78.395  1.00  0.00     0.016 A 
ATOM     15  C   UNL     1      56.827   8.162  77.996  1.00  0.00     0.047 A 
ATOM     16  C   UNL     1      57.983   7.382  77.855  1.00  0.00     0.115 A 
ATOM     17  C   UNL     1      56.728   5.413  78.505  1.00  0.00     0.016 A 
ATOM     18  C   UNL     1      57.928   6.008  78.108  1.00  0.00     0.047 A 
BRANCH  16  19
ATOM     19  O   UNL     1      59.187   7.961  77.460  1.00  0.00    -0.508 OA
ATOM     20  H   UNL     1      59.263   8.956  77.284  1.00  0.00     0.293 HD
ENDBRANCH  16  19
ENDBRANCH   3  13
BRANCH  10  21
ATOM     21  O   UNL     1      50.247   3.195  81.270  1.00  0.00    -0.507 OA
ATOM     22  H   UNL     1      50.802   3.031  82.096  1.00  0.00     0.293 HD
ENDBRANCH  10  21
BRANCH  11  23
ATOM     23  O   UNL     1      49.883   2.434  76.542  1.00  0.00    -0.508 OA
ATOM     24  H   UNL     1      50.295   1.693  75.987  1.00  0.00     0.293 HD
ENDBRANCH  11  23
ENDBRANCH   1   2
BRANCH   1  25
ATOM     25  C   UNL     1      54.970   5.827  82.620  1.00  0.00     0.339 C 
ATOM     26  C   UNL     1      56.216   4.953  82.372  1.00  0.00     0.214 C 
ATOM     27  O   UNL     1      55.211   6.847  83.580  1.00  0.00    -0.332 OA
ATOM     28  C   UNL     1      57.397   5.824  81.938  1.00  0.00     0.180 C 
ATOM     29  C   UNL     1      56.282   7.725  83.242  1.00  0.00     0.179 C 
ATOM     30  C   UNL     1      57.609   6.976  82.938  1.00  0.00     0.177 C 
BRANCH  26  31
ATOM     31  O   UNL     1      55.958   3.991  81.383  1.00  0.00    -0.384 OA
ATOM     32  H   UNL     1      55.848   4.481  80.527  1.00  0.00     0.211 HD
ENDBRANCH  26  31
BRANCH  28  33
ATOM     33  O   UNL     1      58.554   5.034  81.852  1.00  0.00    -0.387 OA
ATOM     34  H   UNL     1      58.789   4.975  80.888  1.00  0.00     0.211 HD
ENDBRANCH  28  33
BRANCH  29  35
ATOM     35  C   UNL     1      55.885   8.745  82.152  1.00  0.00     0.191 C 
BRANCH  35  36
ATOM     36  O   UNL     1      54.510   9.021  82.213  1.00  0.00    -0.394 OA
ATOM     37  H   UNL     1      54.328   9.391  83.116  1.00  0.00     0.210 HD
ENDBRANCH  35  36
ENDBRANCH  29  35
BRANCH  30  38
ATOM     38  O   UNL     1      58.209   6.510  84.125  1.00  0.00    -0.387 OA
ATOM     39  H   UNL     1      58.881   7.179  84.417  1.00  0.00     0.211 HD
ENDBRANCH  30  38
ENDBRANCH   1  25
TORSDOF 11
ENDMDL
