MODEL 1
REMARK VINA RESULT:    -4.401      0.000      0.000
REMARK INTER + INTRA:          -9.996
REMARK INTER:                  -8.003
REMARK INTRA:                  -1.993
REMARK UNBOUND:                -1.993
REMARK SMILES CCCCCCCCCCCCCCCC(=O)[O-]
REMARK SMILES IDX 9 1 10 2 11 3 12 4 13 5 14 6 15 7 16 8 17 9 18 10 8 11 7 12
REMARK SMILES IDX 6 13 5 14 4 15 3 16 2 17 1 18
REMARK H PARENT
REMARK Flexibility Score: inf
ROOT
ATOM      1  C   UNL     1      16.367  51.485 158.594  1.00  0.00     0.000 C 
ENDROOT
BRANCH   1   2
ATOM      2  C   UNL     1      17.520  52.387 159.054  1.00  0.00     0.000 C 
BRANCH   2   3
ATOM      3  C   UNL     1      17.121  53.316 160.212  1.00  0.00     0.000 C 
BRANCH   3   4
ATOM      4  C   UNL     1      18.307  54.135 160.748  1.00  0.00     0.000 C 
BRANCH   4   5
ATOM      5  C   UNL     1      19.650  53.688 160.149  1.00  0.00     0.000 C 
BRANCH   5   6
ATOM      6  C   UNL     1      20.853  54.128 161.001  1.00  0.00     0.006 C 
BRANCH   6   7
ATOM      7  C   UNL     1      22.179  54.009 160.238  1.00  0.00     0.053 C 
BRANCH   7   8
ATOM      8  C   UNL     1      23.196  54.988 160.739  1.00  0.00     0.041 C 
ATOM      9  O   UNL     1      24.075  54.624 161.564  1.00  0.00    -0.550 OA
ATOM     10  O   UNL     1      23.151  56.312 160.322  1.00  0.00    -0.550 OA
ENDBRANCH   7   8
ENDBRANCH   6   7
ENDBRANCH   5   6
ENDBRANCH   4   5
ENDBRANCH   3   4
ENDBRANCH   2   3
ENDBRANCH   1   2
BRANCH   1  11
ATOM     11  C   UNL     1      15.017  52.030 159.074  1.00  0.00     0.000 C 
BRANCH  11  12
ATOM     12  C   UNL     1      14.227  52.649 157.911  1.00  0.00    -0.000 C 
BRANCH  12  13
ATOM     13  C   UNL     1      14.961  52.523 156.567  1.00  0.00    -0.000 C 
BRANCH  13  14
ATOM     14  C   UNL     1      15.341  53.888 155.971  1.00  0.00    -0.000 C 
BRANCH  14  15
ATOM     15  C   UNL     1      15.119  55.051 156.955  1.00  0.00    -0.000 C 
BRANCH  15  16
ATOM     16  C   UNL     1      16.395  55.819 157.354  1.00  0.00    -0.000 C 
BRANCH  16  17
ATOM     17  C   UNL     1      17.704  55.242 156.788  1.00  0.00    -0.003 C 
ATOM     18  C   UNL     1      18.948  55.938 157.337  1.00  0.00     0.004 C 
ENDBRANCH  16  17
ENDBRANCH  15  16
ENDBRANCH  14  15
ENDBRANCH  13  14
ENDBRANCH  12  13
ENDBRANCH  11  12
ENDBRANCH   1  11
TORSDOF 14
ENDMDL
MODEL 2
REMARK VINA RESULT:    -4.377      2.845      4.448
REMARK INTER + INTRA:          -9.952
REMARK INTER:                  -7.691
REMARK INTRA:                  -2.262
REMARK UNBOUND:                -1.993
REMARK SMILES CCCCCCCCCCCCCCCC(=O)[O-]
REMARK SMILES IDX 9 1 10 2 11 3 12 4 13 5 14 6 15 7 16 8 17 9 18 10 8 11 7 12
REMARK SMILES IDX 6 13 5 14 4 15 3 16 2 17 1 18
REMARK H PARENT
REMARK Flexibility Score: inf
ROOT
ATOM      1  C   UNL     1      18.474  53.377 157.647  1.00  0.00     0.000 C 
ENDROOT
BRANCH   1   2
ATOM      2  C   UNL     1      19.558  54.005 158.534  1.00  0.00     0.000 C 
BRANCH   2   3
ATOM      3  C   UNL     1      19.474  53.534 159.995  1.00  0.00     0.000 C 
BRANCH   3   4
ATOM      4  C   UNL     1      18.254  54.112 160.732  1.00  0.00     0.000 C 
BRANCH   4   5
ATOM      5  C   UNL     1      18.541  55.487 161.356  1.00  0.00     0.000 C 
BRANCH   5   6
ATOM      6  C   UNL     1      17.717  56.614 160.709  1.00  0.00     0.006 C 
BRANCH   6   7
ATOM      7  C   UNL     1      18.588  57.567 159.881  1.00  0.00     0.053 C 
BRANCH   7   8
ATOM      8  C   UNL     1      17.826  58.784 159.454  1.00  0.00     0.041 C 
ATOM      9  O   UNL     1      18.138  59.918 159.904  1.00  0.00    -0.550 OA
ATOM     10  O   UNL     1      16.750  58.661 158.585  1.00  0.00    -0.550 OA
ENDBRANCH   7   8
ENDBRANCH   6   7
ENDBRANCH   5   6
ENDBRANCH   4   5
ENDBRANCH   3   4
ENDBRANCH   2   3
ENDBRANCH   1   2
BRANCH   1  11
ATOM     11  C   UNL     1      18.139  54.288 156.460  1.00  0.00     0.000 C 
BRANCH  11  12
ATOM     12  C   UNL     1      17.435  55.570 156.931  1.00  0.00    -0.000 C 
BRANCH  12  13
ATOM     13  C   UNL     1      16.115  55.282 157.664  1.00  0.00    -0.000 C 
BRANCH  13  14
ATOM     14  C   UNL     1      14.963  54.955 156.699  1.00  0.00    -0.000 C 
BRANCH  14  15
ATOM     15  C   UNL     1      14.519  53.482 156.778  1.00  0.00    -0.000 C 
BRANCH  15  16
ATOM     16  C   UNL     1      14.494  52.886 158.200  1.00  0.00    -0.000 C 
BRANCH  16  17
ATOM     17  C   UNL     1      15.490  51.738 158.441  1.00  0.00    -0.003 C 
ATOM     18  C   UNL     1      15.723  51.454 159.924  1.00  0.00     0.004 C 
ENDBRANCH  16  17
ENDBRANCH  15  16
ENDBRANCH  14  15
ENDBRANCH  13  14
ENDBRANCH  12  13
ENDBRANCH  11  12
ENDBRANCH   1  11
TORSDOF 14
ENDMDL
MODEL 3
REMARK VINA RESULT:    -4.328      1.878      2.918
REMARK INTER + INTRA:          -9.863
REMARK INTER:                  -7.850
REMARK INTRA:                  -2.013
REMARK UNBOUND:                -1.993
REMARK SMILES CCCCCCCCCCCCCCCC(=O)[O-]
REMARK SMILES IDX 9 1 10 2 11 3 12 4 13 5 14 6 15 7 16 8 17 9 18 10 8 11 7 12
REMARK SMILES IDX 6 13 5 14 4 15 3 16 2 17 1 18
REMARK H PARENT
REMARK Flexibility Score: inf
ROOT
ATOM      1  C   UNL     1      14.088  52.821 158.125  1.00  0.00     0.000 C 
ENDROOT
BRANCH   1   2
ATOM      2  C   UNL     1      14.761  51.890 159.144  1.00  0.00     0.000 C 
BRANCH   2   3
ATOM      3  C   UNL     1      16.206  51.536 158.759  1.00  0.00     0.000 C 
BRANCH   3   4
ATOM      4  C   UNL     1      17.214  52.614 159.195  1.00  0.00     0.000 C 
BRANCH   4   5
ATOM      5  C   UNL     1      18.129  53.063 158.045  1.00  0.00     0.000 C 
BRANCH   5   6
ATOM      6  C   UNL     1      19.171  54.103 158.491  1.00  0.00     0.006 C 
BRANCH   6   7
ATOM      7  C   UNL     1      19.049  54.443 159.982  1.00  0.00     0.053 C 
BRANCH   7   8
ATOM      8  C   UNL     1      20.267  54.023 160.747  1.00  0.00     0.041 C 
ATOM      9  O   UNL     1      20.361  54.274 161.978  1.00  0.00    -0.550 OA
ATOM     10  O   UNL     1      21.314  53.386 160.093  1.00  0.00    -0.550 OA
ENDBRANCH   7   8
ENDBRANCH   6   7
ENDBRANCH   5   6
ENDBRANCH   4   5
ENDBRANCH   3   4
ENDBRANCH   2   3
ENDBRANCH   1   2
BRANCH   1  11
ATOM     11  C   UNL     1      14.605  52.550 156.707  1.00  0.00     0.000 C 
BRANCH  11  12
ATOM     12  C   UNL     1      15.043  53.854 156.022  1.00  0.00    -0.000 C 
BRANCH  12  13
ATOM     13  C   UNL     1      15.169  55.025 157.009  1.00  0.00    -0.000 C 
BRANCH  13  14
ATOM     14  C   UNL     1      16.339  55.962 156.667  1.00  0.00    -0.000 C 
BRANCH  14  15
ATOM     15  C   UNL     1      16.325  57.261 157.494  1.00  0.00    -0.000 C 
BRANCH  15  16
ATOM     16  C   UNL     1      17.697  57.693 158.050  1.00  0.00    -0.000 C 
BRANCH  16  17
ATOM     17  C   UNL     1      17.720  57.999 159.558  1.00  0.00    -0.003 C 
ATOM     18  C   UNL     1      19.135  58.145 160.114  1.00  0.00     0.004 C 
ENDBRANCH  16  17
ENDBRANCH  15  16
ENDBRANCH  14  15
ENDBRANCH  13  14
ENDBRANCH  12  13
ENDBRANCH  11  12
ENDBRANCH   1  11
TORSDOF 14
ENDMDL
MODEL 4
REMARK VINA RESULT:    -4.295      2.660      4.767
REMARK INTER + INTRA:          -9.804
REMARK INTER:                  -8.069
REMARK INTRA:                  -1.735
REMARK UNBOUND:                -1.993
REMARK SMILES CCCCCCCCCCCCCCCC(=O)[O-]
REMARK SMILES IDX 9 1 10 2 11 3 12 4 13 5 14 6 15 7 16 8 17 9 18 10 8 11 7 12
REMARK SMILES IDX 6 13 5 14 4 15 3 16 2 17 1 18
REMARK H PARENT
REMARK Flexibility Score: inf
ROOT
ATOM      1  C   UNL     1      13.378  53.809 156.635  1.00  0.00     0.000 C 
ENDROOT
BRANCH   1   2
ATOM      2  C   UNL     1      14.250  54.818 155.875  1.00  0.00     0.000 C 
BRANCH   2   3
ATOM      3  C   UNL     1      15.700  54.852 156.386  1.00  0.00     0.000 C 
BRANCH   3   4
ATOM      4  C   UNL     1      15.900  55.862 157.529  1.00  0.00     0.000 C 
BRANCH   4   5
ATOM      5  C   UNL     1      16.457  57.207 157.035  1.00  0.00     0.000 C 
BRANCH   5   6
ATOM      6  C   UNL     1      17.811  57.557 157.678  1.00  0.00     0.006 C 
BRANCH   6   7
ATOM      7  C   UNL     1      17.748  57.531 159.210  1.00  0.00     0.053 C 
BRANCH   7   8
ATOM      8  C   UNL     1      17.730  58.913 159.787  1.00  0.00     0.041 C 
ATOM      9  O   UNL     1      18.717  59.338 160.445  1.00  0.00    -0.550 OA
ATOM     10  O   UNL     1      16.611  59.720 159.627  1.00  0.00    -0.550 OA
ENDBRANCH   7   8
ENDBRANCH   6   7
ENDBRANCH   5   6
ENDBRANCH   4   5
ENDBRANCH   3   4
ENDBRANCH   2   3
ENDBRANCH   1   2
BRANCH   1  11
ATOM     11  C   UNL     1      14.241  52.740 157.316  1.00  0.00     0.000 C 
BRANCH  11  12
ATOM     12  C   UNL     1      13.896  52.623 158.809  1.00  0.00    -0.000 C 
BRANCH  12  13
ATOM     13  C   UNL     1      14.950  51.830 159.597  1.00  0.00    -0.000 C 
BRANCH  13  14
ATOM     14  C   UNL     1      16.259  51.644 158.811  1.00  0.00    -0.000 C 
BRANCH  14  15
ATOM     15  C   UNL     1      17.363  52.623 159.251  1.00  0.00    -0.000 C 
BRANCH  15  16
ATOM     16  C   UNL     1      18.297  53.100 158.120  1.00  0.00    -0.000 C 
BRANCH  16  17
ATOM     17  C   UNL     1      19.323  54.170 158.533  1.00  0.00    -0.003 C 
ATOM     18  C   UNL     1      20.115  53.785 159.780  1.00  0.00     0.004 C 
ENDBRANCH  16  17
ENDBRANCH  15  16
ENDBRANCH  14  15
ENDBRANCH  13  14
ENDBRANCH  12  13
ENDBRANCH  11  12
ENDBRANCH   1  11
TORSDOF 14
ENDMDL
MODEL 5
REMARK VINA RESULT:    -4.291      2.208      2.754
REMARK INTER + INTRA:          -9.796
REMARK INTER:                  -7.657
REMARK INTRA:                  -2.139
REMARK UNBOUND:                -1.993
REMARK SMILES CCCCCCCCCCCCCCCC(=O)[O-]
REMARK SMILES IDX 9 1 10 2 11 3 12 4 13 5 14 6 15 7 16 8 17 9 18 10 8 11 7 12
REMARK SMILES IDX 6 13 5 14 4 15 3 16 2 17 1 18
REMARK H PARENT
REMARK Flexibility Score: inf
ROOT
ATOM      1  C   UNL     1      16.615  51.920 159.712  1.00  0.00     0.000 C 
ENDROOT
BRANCH   1   2
ATOM      2  C   UNL     1      17.209  53.287 159.345  1.00  0.00     0.000 C 
BRANCH   2   3
ATOM      3  C   UNL     1      18.075  53.235 158.076  1.00  0.00     0.000 C 
BRANCH   3   4
ATOM      4  C   UNL     1      19.333  54.113 158.184  1.00  0.00     0.000 C 
BRANCH   4   5
ATOM      5  C   UNL     1      20.217  53.732 159.382  1.00  0.00     0.000 C 
BRANCH   5   6
ATOM      6  C   UNL     1      20.447  54.910 160.345  1.00  0.00     0.006 C 
BRANCH   6   7
ATOM      7  C   UNL     1      19.665  54.749 161.655  1.00  0.00     0.053 C 
BRANCH   7   8
ATOM      8  C   UNL     1      18.789  55.934 161.925  1.00  0.00     0.041 C 
ATOM      9  O   UNL     1      17.918  56.283 161.085  1.00  0.00    -0.550 OA
ATOM     10  O   UNL     1      18.957  56.673 163.088  1.00  0.00    -0.550 OA
ENDBRANCH   7   8
ENDBRANCH   6   7
ENDBRANCH   5   6
ENDBRANCH   4   5
ENDBRANCH   3   4
ENDBRANCH   2   3
ENDBRANCH   1   2
BRANCH   1  11
ATOM     11  C   UNL     1      15.507  51.521 158.731  1.00  0.00     0.000 C 
BRANCH  11  12
ATOM     12  C   UNL     1      14.215  52.304 159.011  1.00  0.00    -0.000 C 
BRANCH  12  13
ATOM     13  C   UNL     1      13.714  53.076 157.779  1.00  0.00    -0.000 C 
BRANCH  13  14
ATOM     14  C   UNL     1      14.559  52.798 156.525  1.00  0.00    -0.000 C 
BRANCH  14  15
ATOM     15  C   UNL     1      15.273  54.056 155.997  1.00  0.00    -0.000 C 
BRANCH  15  16
ATOM     16  C   UNL     1      15.130  55.307 156.887  1.00  0.00    -0.000 C 
BRANCH  16  17
ATOM     17  C   UNL     1      16.147  56.426 156.603  1.00  0.00    -0.003 C 
ATOM     18  C   UNL     1      16.692  57.072 157.875  1.00  0.00     0.004 C 
ENDBRANCH  16  17
ENDBRANCH  15  16
ENDBRANCH  14  15
ENDBRANCH  13  14
ENDBRANCH  12  13
ENDBRANCH  11  12
ENDBRANCH   1  11
TORSDOF 14
ENDMDL
MODEL 6
REMARK VINA RESULT:    -4.274      2.393      3.855
REMARK INTER + INTRA:          -9.766
REMARK INTER:                  -7.571
REMARK INTRA:                  -2.194
REMARK UNBOUND:                -1.993
REMARK SMILES CCCCCCCCCCCCCCCC(=O)[O-]
REMARK SMILES IDX 9 1 10 2 11 3 12 4 13 5 14 6 15 7 16 8 17 9 18 10 8 11 7 12
REMARK SMILES IDX 6 13 5 14 4 15 3 16 2 17 1 18
REMARK H PARENT
REMARK Flexibility Score: inf
ROOT
ATOM      1  C   UNL     1      18.278  54.572 158.119  1.00  0.00     0.000 C 
ENDROOT
BRANCH   1   2
ATOM      2  C   UNL     1      18.710  53.646 159.265  1.00  0.00     0.000 C 
BRANCH   2   3
ATOM      3  C   UNL     1      17.873  53.848 160.538  1.00  0.00     0.000 C 
BRANCH   3   4
ATOM      4  C   UNL     1      18.740  54.131 161.777  1.00  0.00     0.000 C 
BRANCH   4   5
ATOM      5  C   UNL     1      20.175  54.542 161.409  1.00  0.00     0.000 C 
BRANCH   5   6
ATOM      6  C   UNL     1      20.489  55.999 161.791  1.00  0.00     0.006 C 
BRANCH   6   7
ATOM      7  C   UNL     1      19.964  56.997 160.750  1.00  0.00     0.053 C 
BRANCH   7   8
ATOM      8  C   UNL     1      18.986  57.960 161.351  1.00  0.00     0.041 C 
ATOM      9  O   UNL     1      17.824  57.578 161.653  1.00  0.00    -0.550 OA
ATOM     10  O   UNL     1      19.346  59.286 161.546  1.00  0.00    -0.550 OA
ENDBRANCH   7   8
ENDBRANCH   6   7
ENDBRANCH   5   6
ENDBRANCH   4   5
ENDBRANCH   3   4
ENDBRANCH   2   3
ENDBRANCH   1   2
BRANCH   1  11
ATOM     11  C   UNL     1      17.291  55.636 158.614  1.00  0.00     0.000 C 
BRANCH  11  12
ATOM     12  C   UNL     1      16.254  55.972 157.532  1.00  0.00    -0.000 C 
BRANCH  12  13
ATOM     13  C   UNL     1      15.901  54.758 156.658  1.00  0.00    -0.000 C 
BRANCH  13  14
ATOM     14  C   UNL     1      14.400  54.422 156.693  1.00  0.00    -0.000 C 
BRANCH  14  15
ATOM     15  C   UNL     1      14.124  52.974 157.138  1.00  0.00    -0.000 C 
BRANCH  15  16
ATOM     16  C   UNL     1      15.290  52.287 157.877  1.00  0.00    -0.000 C 
BRANCH  16  17
ATOM     17  C   UNL     1      14.992  51.889 159.333  1.00  0.00    -0.003 C 
ATOM     18  C   UNL     1      15.872  50.743 159.829  1.00  0.00     0.004 C 
ENDBRANCH  16  17
ENDBRANCH  15  16
ENDBRANCH  14  15
ENDBRANCH  13  14
ENDBRANCH  12  13
ENDBRANCH  11  12
ENDBRANCH   1  11
TORSDOF 14
ENDMDL
MODEL 7
REMARK VINA RESULT:    -4.273      2.224      4.459
REMARK INTER + INTRA:          -9.763
REMARK INTER:                  -7.741
REMARK INTRA:                  -2.022
REMARK UNBOUND:                -1.993
REMARK SMILES CCCCCCCCCCCCCCCC(=O)[O-]
REMARK SMILES IDX 9 1 10 2 11 3 12 4 13 5 14 6 15 7 16 8 17 9 18 10 8 11 7 12
REMARK SMILES IDX 6 13 5 14 4 15 3 16 2 17 1 18
REMARK H PARENT
REMARK Flexibility Score: inf
ROOT
ATOM      1  C   UNL     1      13.964  53.447 156.986  1.00  0.00     0.000 C 
ENDROOT
BRANCH   1   2
ATOM      2  C   UNL     1      14.067  54.788 156.245  1.00  0.00     0.000 C 
BRANCH   2   3
ATOM      3  C   UNL     1      15.517  55.281 156.111  1.00  0.00     0.000 C 
BRANCH   3   4
ATOM      4  C   UNL     1      16.010  56.012 157.372  1.00  0.00     0.000 C 
BRANCH   4   5
ATOM      5  C   UNL     1      16.423  57.465 157.086  1.00  0.00     0.000 C 
BRANCH   5   6
ATOM      6  C   UNL     1      16.977  58.177 158.332  1.00  0.00     0.006 C 
BRANCH   6   7
ATOM      7  C   UNL     1      17.613  57.197 159.325  1.00  0.00     0.053 C 
BRANCH   7   8
ATOM      8  C   UNL     1      18.699  57.847 160.127  1.00  0.00     0.041 C 
ATOM      9  O   UNL     1      18.486  58.944 160.710  1.00  0.00    -0.550 OA
ATOM     10  O   UNL     1      19.955  57.261 160.202  1.00  0.00    -0.550 OA
ENDBRANCH   7   8
ENDBRANCH   6   7
ENDBRANCH   5   6
ENDBRANCH   4   5
ENDBRANCH   3   4
ENDBRANCH   2   3
ENDBRANCH   1   2
BRANCH   1  11
ATOM     11  C   UNL     1      14.931  52.415 156.394  1.00  0.00     0.000 C 
BRANCH  11  12
ATOM     12  C   UNL     1      15.854  51.839 157.478  1.00  0.00    -0.000 C 
BRANCH  12  13
ATOM     13  C   UNL     1      15.251  51.951 158.887  1.00  0.00    -0.000 C 
BRANCH  13  14
ATOM     14  C   UNL     1      16.313  52.226 159.964  1.00  0.00    -0.000 C 
BRANCH  14  15
ATOM     15  C   UNL     1      17.089  53.533 159.717  1.00  0.00    -0.000 C 
BRANCH  15  16
ATOM     16  C   UNL     1      18.596  53.466 160.038  1.00  0.00    -0.000 C 
BRANCH  16  17
ATOM     17  C   UNL     1      19.524  53.928 158.902  1.00  0.00    -0.003 C 
ATOM     18  C   UNL     1      18.870  53.834 157.524  1.00  0.00     0.004 C 
ENDBRANCH  16  17
ENDBRANCH  15  16
ENDBRANCH  14  15
ENDBRANCH  13  14
ENDBRANCH  12  13
ENDBRANCH  11  12
ENDBRANCH   1  11
TORSDOF 14
ENDMDL
MODEL 8
REMARK VINA RESULT:    -4.250      2.762      5.310
REMARK INTER + INTRA:          -9.721
REMARK INTER:                  -7.850
REMARK INTRA:                  -1.871
REMARK UNBOUND:                -1.993
REMARK SMILES CCCCCCCCCCCCCCCC(=O)[O-]
REMARK SMILES IDX 9 1 10 2 11 3 12 4 13 5 14 6 15 7 16 8 17 9 18 10 8 11 7 12
REMARK SMILES IDX 6 13 5 14 4 15 3 16 2 17 1 18
REMARK H PARENT
REMARK Flexibility Score: inf
ROOT
ATOM      1  C   UNL     1      13.995  52.314 158.912  1.00  0.00     0.000 C 
ENDROOT
BRANCH   1   2
ATOM      2  C   UNL     1      14.393  52.638 157.466  1.00  0.00     0.000 C 
BRANCH   2   3
ATOM      3  C   UNL     1      13.383  53.563 156.766  1.00  0.00     0.000 C 
BRANCH   3   4
ATOM      4  C   UNL     1      14.063  54.730 156.031  1.00  0.00     0.000 C 
BRANCH   4   5
ATOM      5  C   UNL     1      15.578  54.527 155.876  1.00  0.00     0.000 C 
BRANCH   5   6
ATOM      6  C   UNL     1      16.367  55.842 155.998  1.00  0.00     0.006 C 
BRANCH   6   7
ATOM      7  C   UNL     1      15.880  56.703 157.172  1.00  0.00     0.053 C 
BRANCH   7   8
ATOM      8  C   UNL     1      16.886  57.747 157.547  1.00  0.00     0.041 C 
ATOM      9  O   UNL     1      17.976  57.832 156.921  1.00  0.00    -0.550 OA
ATOM     10  O   UNL     1      16.635  58.605 158.610  1.00  0.00    -0.550 OA
ENDBRANCH   7   8
ENDBRANCH   6   7
ENDBRANCH   5   6
ENDBRANCH   4   5
ENDBRANCH   3   4
ENDBRANCH   2   3
ENDBRANCH   1   2
BRANCH   1  11
ATOM     11  C   UNL     1      15.098  51.519 159.621  1.00  0.00     0.000 C 
BRANCH  11  12
ATOM     12  C   UNL     1      16.456  51.730 158.935  1.00  0.00    -0.000 C 
BRANCH  12  13
ATOM     13  C   UNL     1      17.374  52.679 159.722  1.00  0.00    -0.000 C 
BRANCH  13  14
ATOM     14  C   UNL     1      17.432  54.088 159.108  1.00  0.00    -0.000 C 
BRANCH  14  15
ATOM     15  C   UNL     1      18.808  54.418 158.502  1.00  0.00    -0.000 C 
BRANCH  15  16
ATOM     16  C   UNL     1      19.579  55.548 159.216  1.00  0.00    -0.000 C 
BRANCH  16  17
ATOM     17  C   UNL     1      20.734  55.077 160.117  1.00  0.00    -0.003 C 
ATOM     18  C   UNL     1      20.964  53.568 160.051  1.00  0.00     0.004 C 
ENDBRANCH  16  17
ENDBRANCH  15  16
ENDBRANCH  14  15
ENDBRANCH  13  14
ENDBRANCH  12  13
ENDBRANCH  11  12
ENDBRANCH   1  11
TORSDOF 14
ENDMDL
MODEL 9
REMARK VINA RESULT:    -4.188      1.364      3.086
REMARK INTER + INTRA:          -9.608
REMARK INTER:                  -7.728
REMARK INTRA:                  -1.880
REMARK UNBOUND:                -1.993
REMARK SMILES CCCCCCCCCCCCCCCC(=O)[O-]
REMARK SMILES IDX 9 1 10 2 11 3 12 4 13 5 14 6 15 7 16 8 17 9 18 10 8 11 7 12
REMARK SMILES IDX 6 13 5 14 4 15 3 16 2 17 1 18
REMARK H PARENT
REMARK Flexibility Score: inf
ROOT
ATOM      1  C   UNL     1      18.186  54.635 157.474  1.00  0.00     0.000 C 
ENDROOT
BRANCH   1   2
ATOM      2  C   UNL     1      19.014  53.690 158.355  1.00  0.00     0.000 C 
BRANCH   2   3
ATOM      3  C   UNL     1      18.635  53.783 159.842  1.00  0.00     0.000 C 
BRANCH   3   4
ATOM      4  C   UNL     1      19.864  53.761 160.767  1.00  0.00     0.000 C 
BRANCH   4   5
ATOM      5  C   UNL     1      21.176  53.534 159.999  1.00  0.00     0.000 C 
BRANCH   5   6
ATOM      6  C   UNL     1      22.283  54.517 160.417  1.00  0.00     0.006 C 
BRANCH   6   7
ATOM      7  C   UNL     1      21.735  55.922 160.698  1.00  0.00     0.053 C 
BRANCH   7   8
ATOM      8  C   UNL     1      22.140  56.411 162.056  1.00  0.00     0.041 C 
ATOM      9  O   UNL     1      21.520  57.365 162.596  1.00  0.00    -0.550 OA
ATOM     10  O   UNL     1      23.222  55.836 162.709  1.00  0.00    -0.550 OA
ENDBRANCH   7   8
ENDBRANCH   6   7
ENDBRANCH   5   6
ENDBRANCH   4   5
ENDBRANCH   3   4
ENDBRANCH   2   3
ENDBRANCH   1   2
BRANCH   1  11
ATOM     11  C   UNL     1      17.078  55.316 158.286  1.00  0.00     0.000 C 
BRANCH  11  12
ATOM     12  C   UNL     1      15.893  55.702 157.388  1.00  0.00    -0.000 C 
BRANCH  12  13
ATOM     13  C   UNL     1      15.650  54.683 156.263  1.00  0.00    -0.000 C 
BRANCH  13  14
ATOM     14  C   UNL     1      14.324  53.923 156.431  1.00  0.00    -0.000 C 
BRANCH  14  15
ATOM     15  C   UNL     1      14.503  52.551 157.106  1.00  0.00    -0.000 C 
BRANCH  15  16
ATOM     16  C   UNL     1      14.292  52.546 158.634  1.00  0.00    -0.000 C 
BRANCH  16  17
ATOM     17  C   UNL     1      15.432  51.905 159.445  1.00  0.00    -0.003 C 
ATOM     18  C   UNL     1      16.414  51.122 158.575  1.00  0.00     0.004 C 
ENDBRANCH  16  17
ENDBRANCH  15  16
ENDBRANCH  14  15
ENDBRANCH  13  14
ENDBRANCH  12  13
ENDBRANCH  11  12
ENDBRANCH   1  11
TORSDOF 14
ENDMDL
