MODEL 1
REMARK VINA RESULT:    -4.080      0.000      0.000
REMARK INTER + INTRA:          -8.200
REMARK INTER:                  -6.943
REMARK INTRA:                  -1.258
REMARK UNBOUND:                -1.258
REMARK SMILES CCCCCCCCCCCCCC(=O)[O-]
REMARK SMILES IDX 8 1 9 2 10 3 11 4 12 5 13 6 14 7 15 8 16 9 7 10 6 11 5 12
REMARK SMILES IDX 4 13 3 14 2 15 1 16
REMARK H PARENT
REMARK Flexibility Score: inf
ROOT
ATOM      1  C   UNL     1       6.163  -2.746  -9.120  1.00  0.00     0.000 C 
ENDROOT
BRANCH   1   2
ATOM      2  C   UNL     1       7.517  -2.629  -8.404  1.00  0.00     0.000 C 
BRANCH   2   3
ATOM      3  C   UNL     1       7.401  -2.796  -6.881  1.00  0.00     0.000 C 
BRANCH   3   4
ATOM      4  C   UNL     1       8.028  -4.109  -6.382  1.00  0.00     0.000 C 
BRANCH   4   5
ATOM      5  C   UNL     1       6.971  -5.163  -6.011  1.00  0.00     0.006 C 
BRANCH   5   6
ATOM      6  C   UNL     1       7.558  -6.578  -5.905  1.00  0.00     0.053 C 
BRANCH   6   7
ATOM      7  C   UNL     1       6.470  -7.601  -5.992  1.00  0.00     0.041 C 
ATOM      8  O   UNL     1       5.272  -7.241  -6.137  1.00  0.00    -0.550 OA
ATOM      9  O   UNL     1       6.773  -8.951  -5.864  1.00  0.00    -0.550 OA
ENDBRANCH   6   7
ENDBRANCH   5   6
ENDBRANCH   4   5
ENDBRANCH   3   4
ENDBRANCH   2   3
ENDBRANCH   1   2
BRANCH   1  10
ATOM     10  C   UNL     1       5.007  -2.752  -8.112  1.00  0.00     0.000 C 
BRANCH  10  11
ATOM     11  C   UNL     1       4.135  -4.006  -8.280  1.00  0.00    -0.000 C 
BRANCH  11  12
ATOM     12  C   UNL     1       3.327  -4.341  -7.018  1.00  0.00    -0.000 C 
BRANCH  12  13
ATOM     13  C   UNL     1       3.738  -3.489  -5.807  1.00  0.00    -0.000 C 
BRANCH  13  14
ATOM     14  C   UNL     1       2.507  -3.050  -5.001  1.00  0.00    -0.000 C 
BRANCH  14  15
ATOM     15  C   UNL     1       2.807  -2.893  -3.502  1.00  0.00    -0.003 C 
ATOM     16  C   UNL     1       1.542  -2.724  -2.660  1.00  0.00     0.004 C 
ENDBRANCH  14  15
ENDBRANCH  13  14
ENDBRANCH  12  13
ENDBRANCH  11  12
ENDBRANCH  10  11
ENDBRANCH   1  10
TORSDOF 12
ENDMDL
MODEL 2
REMARK VINA RESULT:    -3.860      3.022      4.281
REMARK INTER + INTRA:          -7.825
REMARK INTER:                  -6.744
REMARK INTRA:                  -1.081
REMARK UNBOUND:                -1.258
REMARK SMILES CCCCCCCCCCCCCC(=O)[O-]
REMARK SMILES IDX 8 1 9 2 10 3 11 4 12 5 13 6 14 7 15 8 16 9 7 10 6 11 5 12
REMARK SMILES IDX 4 13 3 14 2 15 1 16
REMARK H PARENT
REMARK Flexibility Score: inf
ROOT
ATOM      1  C   UNL     1       6.956  -5.177  -6.226  1.00  0.00     0.000 C 
ENDROOT
BRANCH   1   2
ATOM      2  C   UNL     1       8.445  -5.510  -6.404  1.00  0.00     0.000 C 
BRANCH   2   3
ATOM      3  C   UNL     1       9.290  -4.280  -6.772  1.00  0.00     0.000 C 
BRANCH   3   4
ATOM      4  C   UNL     1      10.036  -4.454  -8.106  1.00  0.00     0.000 C 
BRANCH   4   5
ATOM      5  C   UNL     1       9.683  -3.360  -9.127  1.00  0.00     0.006 C 
BRANCH   5   6
ATOM      6  C   UNL     1       9.150  -2.082  -8.464  1.00  0.00     0.053 C 
BRANCH   6   7
ATOM      7  C   UNL     1       8.204  -1.374  -9.381  1.00  0.00     0.041 C 
ATOM      8  O   UNL     1       8.210  -0.117  -9.450  1.00  0.00    -0.550 OA
ATOM      9  O   UNL     1       7.282  -2.101 -10.124  1.00  0.00    -0.550 OA
ENDBRANCH   6   7
ENDBRANCH   5   6
ENDBRANCH   4   5
ENDBRANCH   3   4
ENDBRANCH   2   3
ENDBRANCH   1   2
BRANCH   1  10
ATOM     10  C   UNL     1       6.707  -3.671  -6.383  1.00  0.00     0.000 C 
BRANCH  10  11
ATOM     11  C   UNL     1       5.531  -3.404  -7.334  1.00  0.00    -0.000 C 
BRANCH  11  12
ATOM     12  C   UNL     1       4.300  -4.264  -7.012  1.00  0.00    -0.000 C 
BRANCH  12  13
ATOM     13  C   UNL     1       3.173  -3.461  -6.344  1.00  0.00    -0.000 C 
BRANCH  13  14
ATOM     14  C   UNL     1       3.393  -3.361  -4.828  1.00  0.00    -0.000 C 
BRANCH  14  15
ATOM     15  C   UNL     1       2.272  -2.587  -4.117  1.00  0.00    -0.003 C 
ATOM     16  C   UNL     1       2.298  -2.767  -2.600  1.00  0.00     0.004 C 
ENDBRANCH  14  15
ENDBRANCH  13  14
ENDBRANCH  12  13
ENDBRANCH  11  12
ENDBRANCH  10  11
ENDBRANCH   1  10
TORSDOF 12
ENDMDL
MODEL 3
REMARK VINA RESULT:    -3.833      3.327      5.333
REMARK INTER + INTRA:          -7.780
REMARK INTER:                  -5.865
REMARK INTRA:                  -1.915
REMARK UNBOUND:                -1.258
REMARK SMILES CCCCCCCCCCCCCC(=O)[O-]
REMARK SMILES IDX 8 1 9 2 10 3 11 4 12 5 13 6 14 7 15 8 16 9 7 10 6 11 5 12
REMARK SMILES IDX 4 13 3 14 2 15 1 16
REMARK H PARENT
REMARK Flexibility Score: inf
ROOT
ATOM      1  C   UNL     1       3.379  -4.703  -8.085  1.00  0.00     0.000 C 
ENDROOT
BRANCH   1   2
ATOM      2  C   UNL     1       4.039  -3.979  -6.901  1.00  0.00     0.000 C 
BRANCH   2   3
ATOM      3  C   UNL     1       5.148  -3.009  -7.340  1.00  0.00     0.000 C 
BRANCH   3   4
ATOM      4  C   UNL     1       5.023  -2.601  -8.818  1.00  0.00     0.000 C 
BRANCH   4   5
ATOM      5  C   UNL     1       6.391  -2.452  -9.506  1.00  0.00     0.006 C 
BRANCH   5   6
ATOM      6  C   UNL     1       7.562  -2.813  -8.581  1.00  0.00     0.053 C 
BRANCH   6   7
ATOM      7  C   UNL     1       8.599  -1.736  -8.608  1.00  0.00     0.041 C 
ATOM      8  O   UNL     1       8.305  -0.584  -9.024  1.00  0.00    -0.550 OA
ATOM      9  O   UNL     1       9.903  -2.017  -8.221  1.00  0.00    -0.550 OA
ENDBRANCH   6   7
ENDBRANCH   5   6
ENDBRANCH   4   5
ENDBRANCH   3   4
ENDBRANCH   2   3
ENDBRANCH   1   2
BRANCH   1  10
ATOM     10  C   UNL     1       3.762  -6.188  -8.105  1.00  0.00     0.000 C 
BRANCH  10  11
ATOM     11  C   UNL     1       5.007  -6.424  -8.972  1.00  0.00    -0.000 C 
BRANCH  11  12
ATOM     12  C   UNL     1       5.704  -7.757  -8.659  1.00  0.00    -0.000 C 
BRANCH  12  13
ATOM     13  C   UNL     1       6.750  -7.632  -7.541  1.00  0.00    -0.000 C 
BRANCH  13  14
ATOM     14  C   UNL     1       7.463  -6.274  -7.605  1.00  0.00    -0.000 C 
BRANCH  14  15
ATOM     15  C   UNL     1       7.634  -5.630  -6.221  1.00  0.00    -0.003 C 
ATOM     16  C   UNL     1       6.485  -5.961  -5.267  1.00  0.00     0.004 C 
ENDBRANCH  14  15
ENDBRANCH  13  14
ENDBRANCH  12  13
ENDBRANCH  11  12
ENDBRANCH  10  11
ENDBRANCH   1  10
TORSDOF 12
ENDMDL
MODEL 4
REMARK VINA RESULT:    -3.823      1.614      2.821
REMARK INTER + INTRA:          -7.763
REMARK INTER:                  -5.958
REMARK INTRA:                  -1.804
REMARK UNBOUND:                -1.258
REMARK SMILES CCCCCCCCCCCCCC(=O)[O-]
REMARK SMILES IDX 8 1 9 2 10 3 11 4 12 5 13 6 14 7 15 8 16 9 7 10 6 11 5 12
REMARK SMILES IDX 4 13 3 14 2 15 1 16
REMARK H PARENT
REMARK Flexibility Score: inf
ROOT
ATOM      1  C   UNL     1       8.212  -1.895  -8.340  1.00  0.00     0.000 C 
ENDROOT
BRANCH   1   2
ATOM      2  C   UNL     1       9.413  -2.735  -7.877  1.00  0.00     0.000 C 
BRANCH   2   3
ATOM      3  C   UNL     1       9.028  -3.807  -6.846  1.00  0.00     0.000 C 
BRANCH   3   4
ATOM      4  C   UNL     1       7.533  -3.768  -6.484  1.00  0.00     0.000 C 
BRANCH   4   5
ATOM      5  C   UNL     1       7.016  -5.119  -5.962  1.00  0.00     0.006 C 
BRANCH   5   6
ATOM      6  C   UNL     1       6.984  -6.201  -7.050  1.00  0.00     0.053 C 
BRANCH   6   7
ATOM      7  C   UNL     1       5.882  -7.176  -6.783  1.00  0.00     0.041 C 
ATOM      8  O   UNL     1       5.497  -7.389  -5.603  1.00  0.00    -0.550 OA
ATOM      9  O   UNL     1       5.313  -7.887  -7.832  1.00  0.00    -0.550 OA
ENDBRANCH   6   7
ENDBRANCH   5   6
ENDBRANCH   4   5
ENDBRANCH   3   4
ENDBRANCH   2   3
ENDBRANCH   1   2
BRANCH   1  10
ATOM     10  C   UNL     1       7.945  -2.096  -9.837  1.00  0.00     0.000 C 
BRANCH  10  11
ATOM     11  C   UNL     1       6.688  -2.950 -10.062  1.00  0.00    -0.000 C 
BRANCH  11  12
ATOM     12  C   UNL     1       5.388  -2.149  -9.889  1.00  0.00    -0.000 C 
BRANCH  12  13
ATOM     13  C   UNL     1       4.604  -2.556  -8.632  1.00  0.00    -0.000 C 
BRANCH  13  14
ATOM     14  C   UNL     1       4.380  -4.074  -8.591  1.00  0.00    -0.000 C 
BRANCH  14  15
ATOM     15  C   UNL     1       3.497  -4.510  -7.411  1.00  0.00    -0.003 C 
ATOM     16  C   UNL     1       3.716  -3.657  -6.161  1.00  0.00     0.004 C 
ENDBRANCH  14  15
ENDBRANCH  13  14
ENDBRANCH  12  13
ENDBRANCH  11  12
ENDBRANCH  10  11
ENDBRANCH   1  10
TORSDOF 12
ENDMDL
MODEL 5
REMARK VINA RESULT:    -3.734      3.317      5.640
REMARK INTER + INTRA:          -7.612
REMARK INTER:                  -5.472
REMARK INTRA:                  -2.140
REMARK UNBOUND:                -1.258
REMARK SMILES CCCCCCCCCCCCCC(=O)[O-]
REMARK SMILES IDX 8 1 9 2 10 3 11 4 12 5 13 6 14 7 15 8 16 9 7 10 6 11 5 12
REMARK SMILES IDX 4 13 3 14 2 15 1 16
REMARK H PARENT
REMARK Flexibility Score: inf
ROOT
ATOM      1  C   UNL     1       5.623  -4.701  -5.764  1.00  0.00     0.000 C 
ENDROOT
BRANCH   1   2
ATOM      2  C   UNL     1       4.676  -4.048  -6.782  1.00  0.00     0.000 C 
BRANCH   2   3
ATOM      3  C   UNL     1       5.350  -2.925  -7.587  1.00  0.00     0.000 C 
BRANCH   3   4
ATOM      4  C   UNL     1       5.307  -3.179  -9.104  1.00  0.00     0.000 C 
BRANCH   4   5
ATOM      5  C   UNL     1       6.487  -2.527  -9.844  1.00  0.00     0.006 C 
BRANCH   5   6
ATOM      6  C   UNL     1       7.847  -3.068  -9.383  1.00  0.00     0.053 C 
BRANCH   6   7
ATOM      7  C   UNL     1       8.671  -1.970  -8.791  1.00  0.00     0.041 C 
ATOM      8  O   UNL     1       8.359  -0.766  -8.990  1.00  0.00    -0.550 OA
ATOM      9  O   UNL     1       9.813  -2.273  -8.059  1.00  0.00    -0.550 OA
ENDBRANCH   6   7
ENDBRANCH   5   6
ENDBRANCH   4   5
ENDBRANCH   3   4
ENDBRANCH   2   3
ENDBRANCH   1   2
BRANCH   1  10
ATOM     10  C   UNL     1       7.078  -4.288  -6.023  1.00  0.00     0.000 C 
BRANCH  10  11
ATOM     11  C   UNL     1       7.923  -5.494  -6.459  1.00  0.00    -0.000 C 
BRANCH  11  12
ATOM     12  C   UNL     1       7.261  -6.837  -6.117  1.00  0.00    -0.000 C 
BRANCH  12  13
ATOM     13  C   UNL     1       6.929  -7.670  -7.365  1.00  0.00    -0.000 C 
BRANCH  13  14
ATOM     14  C   UNL     1       6.945  -6.797  -8.628  1.00  0.00    -0.000 C 
BRANCH  14  15
ATOM     15  C   UNL     1       5.595  -6.792  -9.360  1.00  0.00    -0.003 C 
ATOM     16  C   UNL     1       4.451  -7.325  -8.497  1.00  0.00     0.004 C 
ENDBRANCH  14  15
ENDBRANCH  13  14
ENDBRANCH  12  13
ENDBRANCH  11  12
ENDBRANCH  10  11
ENDBRANCH   1  10
TORSDOF 12
ENDMDL
MODEL 6
REMARK VINA RESULT:    -3.704      2.373      5.167
REMARK INTER + INTRA:          -7.560
REMARK INTER:                  -5.356
REMARK INTRA:                  -2.204
REMARK UNBOUND:                -1.258
REMARK SMILES CCCCCCCCCCCCCC(=O)[O-]
REMARK SMILES IDX 8 1 9 2 10 3 11 4 12 5 13 6 14 7 15 8 16 9 7 10 6 11 5 12
REMARK SMILES IDX 4 13 3 14 2 15 1 16
REMARK H PARENT
REMARK Flexibility Score: inf
ROOT
ATOM      1  C   UNL     1       6.093  -4.265  -6.005  1.00  0.00     0.000 C 
ENDROOT
BRANCH   1   2
ATOM      2  C   UNL     1       4.667  -3.933  -6.470  1.00  0.00     0.000 C 
BRANCH   2   3
ATOM      3  C   UNL     1       4.642  -2.999  -7.690  1.00  0.00     0.000 C 
BRANCH   3   4
ATOM      4  C   UNL     1       4.436  -3.759  -9.012  1.00  0.00     0.000 C 
BRANCH   4   5
ATOM      5  C   UNL     1       3.537  -4.996  -8.847  1.00  0.00     0.006 C 
BRANCH   5   6
ATOM      6  C   UNL     1       4.212  -6.288  -9.328  1.00  0.00     0.053 C 
BRANCH   6   7
ATOM      7  C   UNL     1       3.769  -7.449  -8.496  1.00  0.00     0.041 C 
ATOM      8  O   UNL     1       3.795  -8.615  -8.970  1.00  0.00    -0.550 OA
ATOM      9  O   UNL     1       3.280  -7.239  -7.212  1.00  0.00    -0.550 OA
ENDBRANCH   6   7
ENDBRANCH   5   6
ENDBRANCH   4   5
ENDBRANCH   3   4
ENDBRANCH   2   3
ENDBRANCH   1   2
BRANCH   1  10
ATOM     10  C   UNL     1       6.344  -5.778  -6.041  1.00  0.00     0.000 C 
BRANCH  10  11
ATOM     11  C   UNL     1       7.301  -6.151  -7.183  1.00  0.00    -0.000 C 
BRANCH  11  12
ATOM     12  C   UNL     1       8.738  -5.669  -6.933  1.00  0.00    -0.000 C 
BRANCH  12  13
ATOM     13  C   UNL     1       9.252  -4.735  -8.039  1.00  0.00    -0.000 C 
BRANCH  13  14
ATOM     14  C   UNL     1       8.169  -4.493  -9.100  1.00  0.00    -0.000 C 
BRANCH  14  15
ATOM     15  C   UNL     1       7.978  -3.002  -9.421  1.00  0.00    -0.003 C 
ATOM     16  C   UNL     1       8.240  -2.099  -8.216  1.00  0.00     0.004 C 
ENDBRANCH  14  15
ENDBRANCH  13  14
ENDBRANCH  12  13
ENDBRANCH  11  12
ENDBRANCH  10  11
ENDBRANCH   1  10
TORSDOF 12
ENDMDL
MODEL 7
REMARK VINA RESULT:    -3.701      2.394      4.918
REMARK INTER + INTRA:          -7.555
REMARK INTER:                  -5.750
REMARK INTRA:                  -1.805
REMARK UNBOUND:                -1.258
REMARK SMILES CCCCCCCCCCCCCC(=O)[O-]
REMARK SMILES IDX 8 1 9 2 10 3 11 4 12 5 13 6 14 7 15 8 16 9 7 10 6 11 5 12
REMARK SMILES IDX 4 13 3 14 2 15 1 16
REMARK H PARENT
REMARK Flexibility Score: inf
ROOT
ATOM      1  C   UNL     1       8.292  -1.966  -8.372  1.00  0.00     0.000 C 
ENDROOT
BRANCH   1   2
ATOM      2  C   UNL     1       7.891  -1.539  -9.793  1.00  0.00     0.000 C 
BRANCH   2   3
ATOM      3  C   UNL     1       6.428  -1.875 -10.125  1.00  0.00     0.000 C 
BRANCH   3   4
ATOM      4  C   UNL     1       5.967  -3.196  -9.485  1.00  0.00     0.000 C 
BRANCH   4   5
ATOM      5  C   UNL     1       4.704  -3.026  -8.624  1.00  0.00     0.006 C 
BRANCH   5   6
ATOM      6  C   UNL     1       4.967  -3.275  -7.132  1.00  0.00     0.053 C 
BRANCH   6   7
ATOM      7  C   UNL     1       3.800  -3.971  -6.507  1.00  0.00     0.041 C 
ATOM      8  O   UNL     1       3.201  -4.887  -7.129  1.00  0.00    -0.550 OA
ATOM      9  O   UNL     1       3.342  -3.575  -5.256  1.00  0.00    -0.550 OA
ENDBRANCH   6   7
ENDBRANCH   5   6
ENDBRANCH   4   5
ENDBRANCH   3   4
ENDBRANCH   2   3
ENDBRANCH   1   2
BRANCH   1  10
ATOM     10  C   UNL     1       9.733  -2.489  -8.342  1.00  0.00     0.000 C 
BRANCH  10  11
ATOM     11  C   UNL     1       9.837  -3.768  -7.497  1.00  0.00    -0.000 C 
BRANCH  11  12
ATOM     12  C   UNL     1       8.561  -4.051  -6.691  1.00  0.00    -0.000 C 
BRANCH  12  13
ATOM     13  C   UNL     1       8.247  -5.552  -6.586  1.00  0.00    -0.000 C 
BRANCH  13  14
ATOM     14  C   UNL     1       7.494  -6.043  -7.831  1.00  0.00    -0.000 C 
BRANCH  14  15
ATOM     15  C   UNL     1       6.225  -6.835  -7.479  1.00  0.00    -0.003 C 
ATOM     16  C   UNL     1       6.037  -7.016  -5.973  1.00  0.00     0.004 C 
ENDBRANCH  14  15
ENDBRANCH  13  14
ENDBRANCH  12  13
ENDBRANCH  11  12
ENDBRANCH  10  11
ENDBRANCH   1  10
TORSDOF 12
ENDMDL
MODEL 8
REMARK VINA RESULT:    -3.667      3.328      5.290
REMARK INTER + INTRA:          -7.496
REMARK INTER:                  -5.408
REMARK INTRA:                  -2.089
REMARK UNBOUND:                -1.258
REMARK SMILES CCCCCCCCCCCCCC(=O)[O-]
REMARK SMILES IDX 8 1 9 2 10 3 11 4 12 5 13 6 14 7 15 8 16 9 7 10 6 11 5 12
REMARK SMILES IDX 4 13 3 14 2 15 1 16
REMARK H PARENT
REMARK Flexibility Score: inf
ROOT
ATOM      1  C   UNL     1       4.056  -3.774  -6.392  1.00  0.00     0.000 C 
ENDROOT
BRANCH   1   2
ATOM      2  C   UNL     1       5.370  -4.497  -6.058  1.00  0.00     0.000 C 
BRANCH   2   3
ATOM      3  C   UNL     1       6.613  -3.655  -6.389  1.00  0.00     0.000 C 
BRANCH   3   4
ATOM      4  C   UNL     1       7.818  -4.518  -6.802  1.00  0.00     0.000 C 
BRANCH   4   5
ATOM      5  C   UNL     1       8.384  -4.122  -8.176  1.00  0.00     0.006 C 
BRANCH   5   6
ATOM      6  C   UNL     1       7.752  -2.837  -8.728  1.00  0.00     0.053 C 
BRANCH   6   7
ATOM      7  C   UNL     1       8.746  -1.719  -8.713  1.00  0.00     0.041 C 
ATOM      8  O   UNL     1       8.407  -0.564  -9.083  1.00  0.00    -0.550 OA
ATOM      9  O   UNL     1      10.061  -1.962  -8.335  1.00  0.00    -0.550 OA
ENDBRANCH   6   7
ENDBRANCH   5   6
ENDBRANCH   4   5
ENDBRANCH   3   4
ENDBRANCH   2   3
ENDBRANCH   1   2
BRANCH   1  10
ATOM     10  C   UNL     1       3.223  -4.582  -7.394  1.00  0.00     0.000 C 
BRANCH  10  11
ATOM     11  C   UNL     1       3.627  -4.252  -8.839  1.00  0.00    -0.000 C 
BRANCH  11  12
ATOM     12  C   UNL     1       4.017  -5.500  -9.646  1.00  0.00    -0.000 C 
BRANCH  12  13
ATOM     13  C   UNL     1       5.516  -5.547  -9.980  1.00  0.00    -0.000 C 
BRANCH  13  14
ATOM     14  C   UNL     1       6.128  -6.893  -9.567  1.00  0.00    -0.000 C 
BRANCH  14  15
ATOM     15  C   UNL     1       5.474  -7.478  -8.305  1.00  0.00    -0.003 C 
ATOM     16  C   UNL     1       6.495  -7.888  -7.244  1.00  0.00     0.004 C 
ENDBRANCH  14  15
ENDBRANCH  13  14
ENDBRANCH  12  13
ENDBRANCH  11  12
ENDBRANCH  10  11
ENDBRANCH   1  10
TORSDOF 12
ENDMDL
MODEL 9
REMARK VINA RESULT:    -3.656      2.008      3.631
REMARK INTER + INTRA:          -7.479
REMARK INTER:                  -5.330
REMARK INTRA:                  -2.149
REMARK UNBOUND:                -1.258
REMARK SMILES CCCCCCCCCCCCCC(=O)[O-]
REMARK SMILES IDX 8 1 9 2 10 3 11 4 12 5 13 6 14 7 15 8 16 9 7 10 6 11 5 12
REMARK SMILES IDX 4 13 3 14 2 15 1 16
REMARK H PARENT
REMARK Flexibility Score: inf
ROOT
ATOM      1  C   UNL     1      10.002  -3.659  -8.584  1.00  0.00     0.000 C 
ENDROOT
BRANCH   1   2
ATOM      2  C   UNL     1       9.675  -4.947  -9.357  1.00  0.00     0.000 C 
BRANCH   2   3
ATOM      3  C   UNL     1       9.254  -6.102  -8.435  1.00  0.00     0.000 C 
BRANCH   3   4
ATOM      4  C   UNL     1       9.585  -5.830  -6.958  1.00  0.00     0.000 C 
BRANCH   4   5
ATOM      5  C   UNL     1       8.457  -6.267  -6.009  1.00  0.00     0.006 C 
BRANCH   5   6
ATOM      6  C   UNL     1       7.381  -7.105  -6.715  1.00  0.00     0.053 C 
BRANCH   6   7
ATOM      7  C   UNL     1       6.051  -6.902  -6.062  1.00  0.00     0.041 C 
ATOM      8  O   UNL     1       5.012  -7.397  -6.573  1.00  0.00    -0.550 OA
ATOM      9  O   UNL     1       5.950  -6.124  -4.915  1.00  0.00    -0.550 OA
ENDBRANCH   6   7
ENDBRANCH   5   6
ENDBRANCH   4   5
ENDBRANCH   3   4
ENDBRANCH   2   3
ENDBRANCH   1   2
BRANCH   1  10
ATOM     10  C   UNL     1       9.390  -2.434  -9.276  1.00  0.00     0.000 C 
BRANCH  10  11
ATOM     11  C   UNL     1       8.028  -2.078  -8.661  1.00  0.00    -0.000 C 
BRANCH  11  12
ATOM     12  C   UNL     1       7.898  -2.538  -7.201  1.00  0.00    -0.000 C 
BRANCH  12  13
ATOM     13  C   UNL     1       6.578  -3.275  -6.927  1.00  0.00    -0.000 C 
BRANCH  13  14
ATOM     14  C   UNL     1       6.034  -3.921  -8.209  1.00  0.00    -0.000 C 
BRANCH  14  15
ATOM     15  C   UNL     1       4.517  -4.165  -8.151  1.00  0.00    -0.003 C 
ATOM     16  C   UNL     1       3.924  -3.878  -6.771  1.00  0.00     0.004 C 
ENDBRANCH  14  15
ENDBRANCH  13  14
ENDBRANCH  12  13
ENDBRANCH  11  12
ENDBRANCH  10  11
ENDBRANCH   1  10
TORSDOF 12
ENDMDL
