MODEL 1
REMARK VINA RESULT:    -6.218      0.000      0.000
REMARK INTER + INTRA:          -9.881
REMARK INTER:                  -9.126
REMARK INTRA:                  -0.756
REMARK UNBOUND:                -0.756
REMARK SMILES O=c1c(O[C@@H]2O[C@H](CO)[C@@H](O)[C@@H](O)[C@@H]2O)c(-c2ccc(O)c(O)c2)oc2cc(O)cc(O)c12
REMARK SMILES IDX 4 1 3 2 16 3 25 4 2 5 26 6 1 7 33 8 27 9 31 10 28 11 30 12
REMARK SMILES IDX 17 13 18 14 19 15 20 16 24 17 22 18 21 19 23 21 32 23 29 25
REMARK SMILES IDX 5 27 14 28 6 29 12 30 7 31 10 32 15 33 13 35 8 37 9 38 11 40
REMARK H PARENT 21 20 23 22 32 24 29 26 15 34 13 36 9 39 11 41
REMARK Flexibility Score: inf
ROOT
ATOM      1  O   UNL     1       8.868   9.732 -17.809  1.00  0.00    -0.454 OA
ENDROOT
BRANCH   1   2
ATOM      2  C   UNL     1       8.199   8.634 -17.167  1.00  0.00     0.214 A 
ATOM      3  C   UNL     1       8.102   8.524 -15.751  1.00  0.00     0.180 A 
ATOM      4  O   UNL     1       8.019   7.307 -15.258  1.00  0.00    -0.452 OA
ATOM      5  C   UNL     1       7.635   7.580 -17.953  1.00  0.00     0.239 A 
ATOM      6  C   UNL     1       7.792   6.223 -15.972  1.00  0.00     0.146 A 
ATOM      7  O   UNL     1       7.235   7.779 -19.131  1.00  0.00    -0.285 OA
ATOM      8  C   UNL     1       7.402   6.324 -17.315  1.00  0.00     0.111 A 
ATOM      9  C   UNL     1       7.815   4.956 -15.321  1.00  0.00     0.094 A 
ATOM     10  C   UNL     1       6.633   5.229 -17.888  1.00  0.00     0.134 A 
ATOM     11  C   UNL     1       7.196   3.856 -15.920  1.00  0.00     0.123 A 
ATOM     12  C   UNL     1       6.611   3.980 -17.206  1.00  0.00     0.093 A 
BRANCH   3  13
ATOM     13  C   UNL     1       8.027   9.656 -14.759  1.00  0.00     0.025 A 
ATOM     14  C   UNL     1       7.257   9.473 -13.593  1.00  0.00     0.016 A 
ATOM     15  C   UNL     1       7.084  10.483 -12.646  1.00  0.00     0.051 A 
ATOM     16  C   UNL     1       7.706  11.724 -12.829  1.00  0.00     0.157 A 
ATOM     17  C   UNL     1       8.608  10.940 -14.953  1.00  0.00     0.062 A 
ATOM     18  C   UNL     1       8.514  11.924 -13.965  1.00  0.00     0.158 A 
BRANCH  16  19
ATOM     19  O   UNL     1       7.442  12.772 -11.889  1.00  0.00    -0.504 OA
ATOM     20  H   UNL     1       7.373  13.759 -12.122  1.00  0.00     0.293 HD
ENDBRANCH  16  19
BRANCH  18  21
ATOM     21  O   UNL     1       9.247  13.099 -14.137  1.00  0.00    -0.504 OA
ATOM     22  H   UNL     1      10.151  13.138 -14.592  1.00  0.00     0.293 HD
ENDBRANCH  18  21
ENDBRANCH   3  13
BRANCH  10  23
ATOM     23  O   UNL     1       5.875   5.363 -19.059  1.00  0.00    -0.507 OA
ATOM     24  H   UNL     1       5.036   5.904 -19.077  1.00  0.00     0.293 HD
ENDBRANCH  10  23
BRANCH  11  25
ATOM     25  O   UNL     1       7.130   2.653 -15.227  1.00  0.00    -0.508 OA
ATOM     26  H   UNL     1       7.609   2.531 -14.322  1.00  0.00     0.293 HD
ENDBRANCH  11  25
ENDBRANCH   1   2
BRANCH   1  27
ATOM     27  C   UNL     1       8.076  11.001 -18.209  1.00  0.00     0.339 C 
ATOM     28  C   UNL     1       8.884  12.374 -18.139  1.00  0.00     0.214 C 
ATOM     29  O   UNL     1       7.493  10.970 -19.528  1.00  0.00    -0.332 OA
ATOM     30  C   UNL     1       8.807  13.260 -19.521  1.00  0.00     0.180 C 
ATOM     31  C   UNL     1       6.632  12.135 -19.874  1.00  0.00     0.179 C 
ATOM     32  C   UNL     1       7.374  13.561 -20.089  1.00  0.00     0.177 C 
BRANCH  28  33
ATOM     33  O   UNL     1      10.255  12.154 -17.785  1.00  0.00    -0.384 OA
ATOM     34  H   UNL     1      10.821  12.525 -18.541  1.00  0.00     0.211 HD
ENDBRANCH  28  33
BRANCH  30  35
ATOM     35  O   UNL     1       9.601  14.408 -19.390  1.00  0.00    -0.387 OA
ATOM     36  H   UNL     1       9.828  14.481 -18.439  1.00  0.00     0.211 HD
ENDBRANCH  30  35
BRANCH  31  37
ATOM     37  C   UNL     1       5.875  11.760 -21.150  1.00  0.00     0.191 C 
BRANCH  37  38
ATOM     38  O   UNL     1       6.034  10.402 -21.467  1.00  0.00    -0.394 OA
ATOM     39  H   UNL     1       5.274   9.881 -21.012  1.00  0.00     0.210 HD
ENDBRANCH  37  38
ENDBRANCH  31  37
BRANCH  32  40
ATOM     40  O   UNL     1       6.712  14.576 -19.329  1.00  0.00    -0.387 OA
ATOM     41  H   UNL     1       7.418  15.110 -18.869  1.00  0.00     0.211 HD
ENDBRANCH  32  40
ENDBRANCH   1  27
TORSDOF 12
ENDMDL
MODEL 2
REMARK VINA RESULT:    -6.166      2.337      6.066
REMARK INTER + INTRA:          -9.806
REMARK INTER:                  -8.851
REMARK INTRA:                  -0.954
REMARK UNBOUND:                -0.756
REMARK SMILES O=c1c(O[C@@H]2O[C@H](CO)[C@@H](O)[C@@H](O)[C@@H]2O)c(-c2ccc(O)c(O)c2)oc2cc(O)cc(O)c12
REMARK SMILES IDX 4 1 3 2 16 3 25 4 2 5 26 6 1 7 33 8 27 9 31 10 28 11 30 12
REMARK SMILES IDX 17 13 18 14 19 15 20 16 24 17 22 18 21 19 23 21 32 23 29 25
REMARK SMILES IDX 5 27 14 28 6 29 12 30 7 31 10 32 15 33 13 35 8 37 9 38 11 40
REMARK H PARENT 21 20 23 22 32 24 29 26 15 34 13 36 9 39 11 41
REMARK Flexibility Score: inf
ROOT
ATOM      1  O   UNL     1       6.054   8.675 -16.549  1.00  0.00    -0.454 OA
ENDROOT
BRANCH   1   2
ATOM      2  C   UNL     1       6.452   8.224 -15.244  1.00  0.00     0.214 A 
ATOM      3  C   UNL     1       6.474   6.845 -14.888  1.00  0.00     0.180 A 
ATOM      4  O   UNL     1       6.280   6.560 -13.619  1.00  0.00    -0.452 OA
ATOM      5  C   UNL     1       6.805   9.174 -14.235  1.00  0.00     0.239 A 
ATOM      6  C   UNL     1       6.296   7.444 -12.641  1.00  0.00     0.146 A 
ATOM      7  O   UNL     1       7.278  10.303 -14.531  1.00  0.00    -0.285 OA
ATOM      8  C   UNL     1       6.744   8.753 -12.872  1.00  0.00     0.111 A 
ATOM      9  C   UNL     1       5.982   7.011 -11.321  1.00  0.00     0.094 A 
ATOM     10  C   UNL     1       7.282   9.500 -11.744  1.00  0.00     0.134 A 
ATOM     11  C   UNL     1       6.373   7.785 -10.225  1.00  0.00     0.123 A 
ATOM     12  C   UNL     1       7.015   9.034 -10.427  1.00  0.00     0.093 A 
BRANCH   3  13
ATOM     13  C   UNL     1       6.755   5.680 -15.802  1.00  0.00     0.025 A 
ATOM     14  C   UNL     1       7.020   4.424 -15.221  1.00  0.00     0.016 A 
ATOM     15  C   UNL     1       7.344   3.301 -15.985  1.00  0.00     0.051 A 
ATOM     16  C   UNL     1       7.392   3.398 -17.381  1.00  0.00     0.157 A 
ATOM     17  C   UNL     1       6.860   5.771 -17.218  1.00  0.00     0.062 A 
ATOM     18  C   UNL     1       7.092   4.631 -17.992  1.00  0.00     0.158 A 
BRANCH  16  19
ATOM     19  O   UNL     1       7.812   2.256 -18.136  1.00  0.00    -0.504 OA
ATOM     20  H   UNL     1       7.245   1.430 -18.305  1.00  0.00     0.293 HD
ENDBRANCH  16  19
BRANCH  18  21
ATOM     21  O   UNL     1       7.014   4.753 -19.380  1.00  0.00    -0.504 OA
ATOM     22  H   UNL     1       6.142   4.824 -19.891  1.00  0.00     0.293 HD
ENDBRANCH  18  21
ENDBRANCH   3  13
BRANCH  10  23
ATOM     23  O   UNL     1       8.091  10.634 -11.899  1.00  0.00    -0.507 OA
ATOM     24  H   UNL     1       8.398  10.934 -12.801  1.00  0.00     0.293 HD
ENDBRANCH  10  23
BRANCH  11  25
ATOM     25  O   UNL     1       6.159   7.300  -8.940  1.00  0.00    -0.508 OA
ATOM     26  H   UNL     1       6.921   6.865  -8.399  1.00  0.00     0.293 HD
ENDBRANCH  11  25
ENDBRANCH   1   2
BRANCH   1  27
ATOM     27  C   UNL     1       7.113   9.201 -17.548  1.00  0.00     0.339 C 
ATOM     28  C   UNL     1       6.955  10.727 -17.987  1.00  0.00     0.214 C 
ATOM     29  O   UNL     1       8.483   9.071 -17.115  1.00  0.00    -0.332 OA
ATOM     30  C   UNL     1       8.325  11.614 -17.804  1.00  0.00     0.180 C 
ATOM     31  C   UNL     1       9.510   9.466 -18.117  1.00  0.00     0.179 C 
ATOM     32  C   UNL     1       9.631  11.045 -18.466  1.00  0.00     0.177 C 
BRANCH  28  33
ATOM     33  O   UNL     1       5.875  11.360 -17.289  1.00  0.00    -0.384 OA
ATOM     34  H   UNL     1       6.229  11.632 -16.378  1.00  0.00     0.211 HD
ENDBRANCH  28  33
BRANCH  30  35
ATOM     35  O   UNL     1       8.071  12.950 -18.146  1.00  0.00    -0.387 OA
ATOM     36  H   UNL     1       7.811  13.403 -17.317  1.00  0.00     0.211 HD
ENDBRANCH  30  35
BRANCH  31  37
ATOM     37  C   UNL     1      10.856   8.959 -17.592  1.00  0.00     0.191 C 
BRANCH  37  38
ATOM     38  O   UNL     1      11.739   8.654 -18.639  1.00  0.00    -0.394 OA
ATOM     39  H   UNL     1      12.667   8.489 -18.229  1.00  0.00     0.210 HD
ENDBRANCH  37  38
ENDBRANCH  31  37
BRANCH  32  40
ATOM     40  O   UNL     1       9.624  11.234 -19.884  1.00  0.00    -0.387 OA
ATOM     41  H   UNL     1       8.684  11.113 -20.195  1.00  0.00     0.211 HD
ENDBRANCH  32  40
ENDBRANCH   1  27
TORSDOF 12
ENDMDL
MODEL 3
REMARK VINA RESULT:    -5.873      2.857      8.079
REMARK INTER + INTRA:          -9.375
REMARK INTER:                  -8.316
REMARK INTRA:                  -1.059
REMARK UNBOUND:                -0.756
REMARK SMILES O=c1c(O[C@@H]2O[C@H](CO)[C@@H](O)[C@@H](O)[C@@H]2O)c(-c2ccc(O)c(O)c2)oc2cc(O)cc(O)c12
REMARK SMILES IDX 4 1 3 2 16 3 25 4 2 5 26 6 1 7 33 8 27 9 31 10 28 11 30 12
REMARK SMILES IDX 17 13 18 14 19 15 20 16 24 17 22 18 21 19 23 21 32 23 29 25
REMARK SMILES IDX 5 27 14 28 6 29 12 30 7 31 10 32 15 33 13 35 8 37 9 38 11 40
REMARK H PARENT 21 20 23 22 32 24 29 26 15 34 13 36 9 39 11 41
REMARK Flexibility Score: inf
ROOT
ATOM      1  O   UNL     1       8.290  12.482 -14.439  1.00  0.00    -0.454 OA
ENDROOT
BRANCH   1   2
ATOM      2  C   UNL     1       8.451  13.156 -15.698  1.00  0.00     0.214 A 
ATOM      3  C   UNL     1       9.456  12.787 -16.637  1.00  0.00     0.180 A 
ATOM      4  O   UNL     1       9.904  13.739 -17.427  1.00  0.00    -0.452 OA
ATOM      5  C   UNL     1       7.612  14.266 -16.029  1.00  0.00     0.239 A 
ATOM      6  C   UNL     1       9.342  14.923 -17.567  1.00  0.00     0.146 A 
ATOM      7  O   UNL     1       6.448  14.375 -15.558  1.00  0.00    -0.285 OA
ATOM      8  C   UNL     1       8.073  15.178 -17.027  1.00  0.00     0.111 A 
ATOM      9  C   UNL     1       9.983  15.893 -18.390  1.00  0.00     0.094 A 
ATOM     10  C   UNL     1       7.262  16.215 -17.646  1.00  0.00     0.134 A 
ATOM     11  C   UNL     1       9.252  16.975 -18.887  1.00  0.00     0.123 A 
ATOM     12  C   UNL     1       7.894  17.149 -18.514  1.00  0.00     0.093 A 
BRANCH   3  13
ATOM     13  C   UNL     1      10.020  11.408 -16.862  1.00  0.00     0.025 A 
ATOM     14  C   UNL     1      11.308  11.124 -16.366  1.00  0.00     0.016 A 
ATOM     15  C   UNL     1      11.934   9.894 -16.574  1.00  0.00     0.051 A 
ATOM     16  C   UNL     1      11.269   8.883 -17.278  1.00  0.00     0.157 A 
ATOM     17  C   UNL     1       9.382  10.388 -17.620  1.00  0.00     0.062 A 
ATOM     18  C   UNL     1       9.965   9.124 -17.752  1.00  0.00     0.158 A 
BRANCH  16  19
ATOM     19  O   UNL     1      11.965   7.663 -17.554  1.00  0.00    -0.504 OA
ATOM     20  H   UNL     1      11.831   7.091 -18.383  1.00  0.00     0.293 HD
ENDBRANCH  16  19
BRANCH  18  21
ATOM     21  O   UNL     1       9.215   8.115 -18.358  1.00  0.00    -0.504 OA
ATOM     22  H   UNL     1       9.084   8.033 -19.359  1.00  0.00     0.293 HD
ENDBRANCH  18  21
ENDBRANCH   3  13
BRANCH  10  23
ATOM     23  O   UNL     1       5.876  16.309 -17.462  1.00  0.00    -0.507 OA
ATOM     24  H   UNL     1       5.413  15.807 -16.732  1.00  0.00     0.293 HD
ENDBRANCH  10  23
BRANCH  11  25
ATOM     25  O   UNL     1       9.858  17.854 -19.777  1.00  0.00    -0.508 OA
ATOM     26  H   UNL     1      10.502  18.589 -19.446  1.00  0.00     0.293 HD
ENDBRANCH  11  25
ENDBRANCH   1   2
BRANCH   1  27
ATOM     27  C   UNL     1       8.086  10.948 -14.397  1.00  0.00     0.339 C 
ATOM     28  C   UNL     1       7.792  10.326 -12.958  1.00  0.00     0.214 C 
ATOM     29  O   UNL     1       7.035  10.445 -15.249  1.00  0.00    -0.332 OA
ATOM     30  C   UNL     1       6.455   9.373 -12.908  1.00  0.00     0.180 C 
ATOM     31  C   UNL     1       6.911   8.963 -15.304  1.00  0.00     0.179 C 
ATOM     32  C   UNL     1       6.368   8.219 -13.970  1.00  0.00     0.177 C 
BRANCH  28  33
ATOM     33  O   UNL     1       7.693  11.349 -11.960  1.00  0.00    -0.384 OA
ATOM     34  H   UNL     1       7.112  10.980 -11.214  1.00  0.00     0.211 HD
ENDBRANCH  28  33
BRANCH  30  35
ATOM     35  O   UNL     1       6.239   8.933 -11.594  1.00  0.00    -0.387 OA
ATOM     36  H   UNL     1       6.048   7.973 -11.652  1.00  0.00     0.211 HD
ENDBRANCH  30  35
BRANCH  31  37
ATOM     37  C   UNL     1       5.982   8.642 -16.477  1.00  0.00     0.191 C 
BRANCH  37  38
ATOM     38  O   UNL     1       6.422   9.242 -17.667  1.00  0.00    -0.394 OA
ATOM     39  H   UNL     1       5.600   9.399 -18.263  1.00  0.00     0.210 HD
ENDBRANCH  37  38
ENDBRANCH  31  37
BRANCH  32  40
ATOM     40  O   UNL     1       7.231   7.130 -13.631  1.00  0.00    -0.387 OA
ATOM     41  H   UNL     1       6.772   6.597 -12.923  1.00  0.00     0.211 HD
ENDBRANCH  32  40
ENDBRANCH   1  27
TORSDOF 12
ENDMDL
MODEL 4
REMARK VINA RESULT:    -5.781      2.364      7.639
REMARK INTER + INTRA:          -9.240
REMARK INTER:                  -9.576
REMARK INTRA:                   0.336
REMARK UNBOUND:                -0.756
REMARK SMILES O=c1c(O[C@@H]2O[C@H](CO)[C@@H](O)[C@@H](O)[C@@H]2O)c(-c2ccc(O)c(O)c2)oc2cc(O)cc(O)c12
REMARK SMILES IDX 4 1 3 2 16 3 25 4 2 5 26 6 1 7 33 8 27 9 31 10 28 11 30 12
REMARK SMILES IDX 17 13 18 14 19 15 20 16 24 17 22 18 21 19 23 21 32 23 29 25
REMARK SMILES IDX 5 27 14 28 6 29 12 30 7 31 10 32 15 33 13 35 8 37 9 38 11 40
REMARK H PARENT 21 20 23 22 32 24 29 26 15 34 13 36 9 39 11 41
REMARK Flexibility Score: inf
ROOT
ATOM      1  O   UNL     1       7.601  11.521 -18.698  1.00  0.00    -0.454 OA
ENDROOT
BRANCH   1   2
ATOM      2  C   UNL     1       7.698  12.884 -18.254  1.00  0.00     0.214 A 
ATOM      3  C   UNL     1       7.142  13.325 -17.019  1.00  0.00     0.180 A 
ATOM      4  O   UNL     1       6.767  14.584 -16.957  1.00  0.00    -0.452 OA
ATOM      5  C   UNL     1       8.336  13.863 -19.079  1.00  0.00     0.239 A 
ATOM      6  C   UNL     1       7.073  15.502 -17.852  1.00  0.00     0.146 A 
ATOM      7  O   UNL     1       9.241  13.546 -19.896  1.00  0.00    -0.285 OA
ATOM      8  C   UNL     1       8.023  15.237 -18.849  1.00  0.00     0.111 A 
ATOM      9  C   UNL     1       6.526  16.810 -17.707  1.00  0.00     0.094 A 
ATOM     10  C   UNL     1       8.740  16.363 -19.427  1.00  0.00     0.134 A 
ATOM     11  C   UNL     1       7.123  17.889 -18.365  1.00  0.00     0.123 A 
ATOM     12  C   UNL     1       8.223  17.674 -19.233  1.00  0.00     0.093 A 
BRANCH   3  13
ATOM     13  C   UNL     1       6.990  12.517 -15.757  1.00  0.00     0.025 A 
ATOM     14  C   UNL     1       6.121  11.408 -15.774  1.00  0.00     0.016 A 
ATOM     15  C   UNL     1       5.875  10.634 -14.639  1.00  0.00     0.051 A 
ATOM     16  C   UNL     1       6.520  10.938 -13.434  1.00  0.00     0.157 A 
ATOM     17  C   UNL     1       7.596  12.843 -14.511  1.00  0.00     0.062 A 
ATOM     18  C   UNL     1       7.425  12.017 -13.396  1.00  0.00     0.158 A 
BRANCH  16  19
ATOM     19  O   UNL     1       6.185  10.185 -12.263  1.00  0.00    -0.504 OA
ATOM     20  H   UNL     1       6.569  10.349 -11.336  1.00  0.00     0.293 HD
ENDBRANCH  16  19
BRANCH  18  21
ATOM     21  O   UNL     1       8.179  12.292 -12.254  1.00  0.00    -0.504 OA
ATOM     22  H   UNL     1       8.210  11.691 -11.440  1.00  0.00     0.293 HD
ENDBRANCH  18  21
ENDBRANCH   3  13
BRANCH  10  23
ATOM     23  O   UNL     1       9.945  16.218 -20.130  1.00  0.00    -0.507 OA
ATOM     24  H   UNL     1      10.796  16.616 -19.790  1.00  0.00     0.293 HD
ENDBRANCH  10  23
BRANCH  11  25
ATOM     25  O   UNL     1       6.648  19.174 -18.129  1.00  0.00    -0.508 OA
ATOM     26  H   UNL     1       6.191  19.420 -17.239  1.00  0.00     0.293 HD
ENDBRANCH  11  25
ENDBRANCH   1   2
BRANCH   1  27
ATOM     27  C   UNL     1       7.789  10.359 -17.693  1.00  0.00     0.339 C 
ATOM     28  C   UNL     1       7.079   8.983 -18.081  1.00  0.00     0.214 C 
ATOM     29  O   UNL     1       9.160  10.010 -17.408  1.00  0.00    -0.332 OA
ATOM     30  C   UNL     1       8.084   7.685 -18.044  1.00  0.00     0.180 C 
ATOM     31  C   UNL     1       9.351   8.975 -16.356  1.00  0.00     0.179 C 
ATOM     32  C   UNL     1       8.902   7.460 -16.722  1.00  0.00     0.177 C 
BRANCH  28  33
ATOM     33  O   UNL     1       6.448   9.068 -19.364  1.00  0.00    -0.384 OA
ATOM     34  H   UNL     1       7.150   8.828 -20.057  1.00  0.00     0.211 HD
ENDBRANCH  28  33
BRANCH  30  35
ATOM     35  O   UNL     1       7.392   6.541 -18.466  1.00  0.00    -0.387 OA
ATOM     36  H   UNL     1       8.071   5.860 -18.654  1.00  0.00     0.211 HD
ENDBRANCH  30  35
BRANCH  31  37
ATOM     37  C   UNL     1      10.837   8.989 -15.989  1.00  0.00     0.191 C 
BRANCH  37  38
ATOM     38  O   UNL     1      11.526   7.917 -16.576  1.00  0.00    -0.394 OA
ATOM     39  H   UNL     1      10.860   7.399 -17.163  1.00  0.00     0.210 HD
ENDBRANCH  37  38
ENDBRANCH  31  37
BRANCH  32  40
ATOM     40  O   UNL     1       8.078   6.929 -15.681  1.00  0.00    -0.387 OA
ATOM     41  H   UNL     1       7.129   7.048 -15.964  1.00  0.00     0.211 HD
ENDBRANCH  32  40
ENDBRANCH   1  27
TORSDOF 12
ENDMDL
MODEL 5
REMARK VINA RESULT:    -5.649      2.626      7.890
REMARK INTER + INTRA:          -9.046
REMARK INTER:                  -9.393
REMARK INTRA:                   0.346
REMARK UNBOUND:                -0.756
REMARK SMILES O=c1c(O[C@@H]2O[C@H](CO)[C@@H](O)[C@@H](O)[C@@H]2O)c(-c2ccc(O)c(O)c2)oc2cc(O)cc(O)c12
REMARK SMILES IDX 4 1 3 2 16 3 25 4 2 5 26 6 1 7 33 8 27 9 31 10 28 11 30 12
REMARK SMILES IDX 17 13 18 14 19 15 20 16 24 17 22 18 21 19 23 21 32 23 29 25
REMARK SMILES IDX 5 27 14 28 6 29 12 30 7 31 10 32 15 33 13 35 8 37 9 38 11 40
REMARK H PARENT 21 20 23 22 32 24 29 26 15 34 13 36 9 39 11 41
REMARK Flexibility Score: inf
ROOT
ATOM      1  O   UNL     1      10.500  12.664 -16.918  1.00  0.00    -0.454 OA
ENDROOT
BRANCH   1   2
ATOM      2  C   UNL     1       9.666  13.231 -17.942  1.00  0.00     0.214 A 
ATOM      3  C   UNL     1       8.776  12.442 -18.725  1.00  0.00     0.180 A 
ATOM      4  O   UNL     1       8.513  12.876 -19.938  1.00  0.00    -0.452 OA
ATOM      5  C   UNL     1       9.742  14.630 -18.234  1.00  0.00     0.239 A 
ATOM      6  C   UNL     1       8.822  14.076 -20.388  1.00  0.00     0.146 A 
ATOM      7  O   UNL     1      10.083  15.467 -17.358  1.00  0.00    -0.285 OA
ATOM      8  C   UNL     1       9.276  15.071 -19.510  1.00  0.00     0.111 A 
ATOM      9  C   UNL     1       8.559  14.385 -21.753  1.00  0.00     0.094 A 
ATOM     10  C   UNL     1       9.065  16.461 -19.884  1.00  0.00     0.134 A 
ATOM     11  C   UNL     1       8.484  15.719 -22.162  1.00  0.00     0.123 A 
ATOM     12  C   UNL     1       8.745  16.763 -21.237  1.00  0.00     0.093 A 
BRANCH   3  13
ATOM     13  C   UNL     1       8.056  11.191 -18.289  1.00  0.00     0.025 A 
ATOM     14  C   UNL     1       6.762  11.320 -17.747  1.00  0.00     0.016 A 
ATOM     15  C   UNL     1       6.042  10.225 -17.267  1.00  0.00     0.051 A 
ATOM     16  C   UNL     1       6.596   8.941 -17.336  1.00  0.00     0.157 A 
ATOM     17  C   UNL     1       8.624   9.887 -18.303  1.00  0.00     0.062 A 
ATOM     18  C   UNL     1       7.872   8.776 -17.910  1.00  0.00     0.158 A 
BRANCH  16  19
ATOM     19  O   UNL     1       5.875   7.847 -16.757  1.00  0.00    -0.504 OA
ATOM     20  H   UNL     1       5.343   7.893 -15.893  1.00  0.00     0.293 HD
ENDBRANCH  16  19
BRANCH  18  21
ATOM     21  O   UNL     1       8.420   7.508 -18.108  1.00  0.00    -0.504 OA
ATOM     22  H   UNL     1       7.914   6.733 -18.517  1.00  0.00     0.293 HD
ENDBRANCH  18  21
ENDBRANCH   3  13
BRANCH  10  23
ATOM     23  O   UNL     1       9.117  17.514 -18.960  1.00  0.00    -0.507 OA
ATOM     24  H   UNL     1       9.011  18.465 -19.249  1.00  0.00     0.293 HD
ENDBRANCH  10  23
BRANCH  11  25
ATOM     25  O   UNL     1       8.118  16.010 -23.471  1.00  0.00    -0.508 OA
ATOM     26  H   UNL     1       8.724  16.580 -24.080  1.00  0.00     0.293 HD
ENDBRANCH  11  25
ENDBRANCH   1   2
BRANCH   1  27
ATOM     27  C   UNL     1       9.886  12.233 -15.564  1.00  0.00     0.339 C 
ATOM     28  C   UNL     1       8.765  13.201 -14.970  1.00  0.00     0.214 C 
ATOM     29  O   UNL     1       9.296  10.916 -15.549  1.00  0.00    -0.332 OA
ATOM     30  C   UNL     1       7.372  12.431 -14.565  1.00  0.00     0.180 C 
ATOM     31  C   UNL     1       8.810  10.448 -14.222  1.00  0.00     0.179 C 
ATOM     32  C   UNL     1       7.500  11.187 -13.615  1.00  0.00     0.177 C 
BRANCH  28  33
ATOM     33  O   UNL     1       8.477  14.277 -15.871  1.00  0.00    -0.384 OA
ATOM     34  H   UNL     1       9.256  14.339 -16.518  1.00  0.00     0.211 HD
ENDBRANCH  28  33
BRANCH  30  35
ATOM     35  O   UNL     1       6.428  13.369 -14.122  1.00  0.00    -0.387 OA
ATOM     36  H   UNL     1       6.226  13.943 -14.890  1.00  0.00     0.211 HD
ENDBRANCH  30  35
BRANCH  31  37
ATOM     37  C   UNL     1       8.528   8.950 -14.359  1.00  0.00     0.191 C 
BRANCH  37  38
ATOM     38  O   UNL     1       7.199   8.641 -14.034  1.00  0.00    -0.394 OA
ATOM     39  H   UNL     1       6.980   9.095 -13.138  1.00  0.00     0.210 HD
ENDBRANCH  37  38
ENDBRANCH  31  37
BRANCH  32  40
ATOM     40  O   UNL     1       7.746  11.584 -12.263  1.00  0.00    -0.387 OA
ATOM     41  H   UNL     1       8.466  12.274 -12.282  1.00  0.00     0.211 HD
ENDBRANCH  32  40
ENDBRANCH   1  27
TORSDOF 12
ENDMDL
MODEL 6
REMARK VINA RESULT:    -5.642      1.821      2.583
REMARK INTER + INTRA:          -9.037
REMARK INTER:                  -8.714
REMARK INTRA:                  -0.323
REMARK UNBOUND:                -0.756
REMARK SMILES O=c1c(O[C@@H]2O[C@H](CO)[C@@H](O)[C@@H](O)[C@@H]2O)c(-c2ccc(O)c(O)c2)oc2cc(O)cc(O)c12
REMARK SMILES IDX 4 1 3 2 16 3 25 4 2 5 26 6 1 7 33 8 27 9 31 10 28 11 30 12
REMARK SMILES IDX 17 13 18 14 19 15 20 16 24 17 22 18 21 19 23 21 32 23 29 25
REMARK SMILES IDX 5 27 14 28 6 29 12 30 7 31 10 32 15 33 13 35 8 37 9 38 11 40
REMARK H PARENT 21 20 23 22 32 24 29 26 15 34 13 36 9 39 11 41
REMARK Flexibility Score: inf
ROOT
ATOM      1  O   UNL     1       8.780   9.658 -16.507  1.00  0.00    -0.454 OA
ENDROOT
BRANCH   1   2
ATOM      2  C   UNL     1       7.951   8.509 -16.752  1.00  0.00     0.214 A 
ATOM      3  C   UNL     1       7.552   7.622 -15.712  1.00  0.00     0.180 A 
ATOM      4  O   UNL     1       7.324   6.374 -16.057  1.00  0.00    -0.452 OA
ATOM      5  C   UNL     1       7.531   8.200 -18.084  1.00  0.00     0.239 A 
ATOM      6  C   UNL     1       7.215   5.947 -17.299  1.00  0.00     0.146 A 
ATOM      7  O   UNL     1       7.397   9.098 -18.957  1.00  0.00    -0.285 OA
ATOM      8  C   UNL     1       7.123   6.859 -18.360  1.00  0.00     0.111 A 
ATOM      9  C   UNL     1       7.055   4.551 -17.533  1.00  0.00     0.094 A 
ATOM     10  C   UNL     1       6.456   6.426 -19.578  1.00  0.00     0.134 A 
ATOM     11  C   UNL     1       6.539   4.105 -18.753  1.00  0.00     0.123 A 
ATOM     12  C   UNL     1       6.246   5.034 -19.784  1.00  0.00     0.093 A 
BRANCH   3  13
ATOM     13  C   UNL     1       7.308   7.975 -14.267  1.00  0.00     0.025 A 
ATOM     14  C   UNL     1       6.884   6.954 -13.393  1.00  0.00     0.016 A 
ATOM     15  C   UNL     1       6.580   7.198 -12.053  1.00  0.00     0.051 A 
ATOM     16  C   UNL     1       6.715   8.490 -11.530  1.00  0.00     0.157 A 
ATOM     17  C   UNL     1       7.388   9.291 -13.732  1.00  0.00     0.062 A 
ATOM     18  C   UNL     1       7.175   9.523 -12.371  1.00  0.00     0.158 A 
BRANCH  16  19
ATOM     19  O   UNL     1       6.314   8.732 -10.177  1.00  0.00    -0.504 OA
ATOM     20  H   UNL     1       5.815   8.069  -9.591  1.00  0.00     0.293 HD
ENDBRANCH  16  19
BRANCH  18  21
ATOM     21  O   UNL     1       7.436  10.800 -11.873  1.00  0.00    -0.504 OA
ATOM     22  H   UNL     1       8.269  11.043 -11.351  1.00  0.00     0.293 HD
ENDBRANCH  18  21
ENDBRANCH   3  13
BRANCH  10  23
ATOM     23  O   UNL     1       5.969   7.323 -20.540  1.00  0.00    -0.507 OA
ATOM     24  H   UNL     1       5.004   7.577 -20.572  1.00  0.00     0.293 HD
ENDBRANCH  10  23
BRANCH  11  25
ATOM     25  O   UNL     1       6.285   2.750 -18.928  1.00  0.00    -0.508 OA
ATOM     26  H   UNL     1       5.382   2.336 -18.652  1.00  0.00     0.293 HD
ENDBRANCH  11  25
ENDBRANCH   1   2
BRANCH   1  27
ATOM     27  C   UNL     1       8.363  11.048 -17.046  1.00  0.00     0.339 C 
ATOM     28  C   UNL     1       8.670  12.285 -16.086  1.00  0.00     0.214 C 
ATOM     29  O   UNL     1       8.932  11.408 -18.322  1.00  0.00    -0.332 OA
ATOM     30  C   UNL     1       9.500  13.500 -16.817  1.00  0.00     0.180 C 
ATOM     31  C   UNL     1       8.444  12.689 -18.901  1.00  0.00     0.179 C 
ATOM     32  C   UNL     1       8.906  14.056 -18.160  1.00  0.00     0.177 C 
BRANCH  28  33
ATOM     33  O   UNL     1       9.366  11.867 -14.906  1.00  0.00    -0.384 OA
ATOM     34  H   UNL     1      10.295  11.577 -15.196  1.00  0.00     0.211 HD
ENDBRANCH  28  33
BRANCH  30  35
ATOM     35  O   UNL     1       9.784  14.505 -15.881  1.00  0.00    -0.387 OA
ATOM     36  H   UNL     1      10.390  15.134 -16.326  1.00  0.00     0.211 HD
ENDBRANCH  30  35
BRANCH  31  37
ATOM     37  C   UNL     1       8.912  12.720 -20.359  1.00  0.00     0.191 C 
BRANCH  37  38
ATOM     38  O   UNL     1       9.550  11.526 -20.724  1.00  0.00    -0.394 OA
ATOM     39  H   UNL     1       9.426  10.855 -19.955  1.00  0.00     0.210 HD
ENDBRANCH  37  38
ENDBRANCH  31  37
BRANCH  32  40
ATOM     40  O   UNL     1       7.770  14.892 -17.924  1.00  0.00    -0.387 OA
ATOM     41  H   UNL     1       6.999  14.491 -18.414  1.00  0.00     0.211 HD
ENDBRANCH  32  40
ENDBRANCH   1  27
TORSDOF 12
ENDMDL
MODEL 7
REMARK VINA RESULT:    -5.583      2.006      4.856
REMARK INTER + INTRA:          -8.950
REMARK INTER:                  -9.410
REMARK INTRA:                   0.460
REMARK UNBOUND:                -0.756
REMARK SMILES O=c1c(O[C@@H]2O[C@H](CO)[C@@H](O)[C@@H](O)[C@@H]2O)c(-c2ccc(O)c(O)c2)oc2cc(O)cc(O)c12
REMARK SMILES IDX 4 1 3 2 16 3 25 4 2 5 26 6 1 7 33 8 27 9 31 10 28 11 30 12
REMARK SMILES IDX 17 13 18 14 19 15 20 16 24 17 22 18 21 19 23 21 32 23 29 25
REMARK SMILES IDX 5 27 14 28 6 29 12 30 7 31 10 32 15 33 13 35 8 37 9 38 11 40
REMARK H PARENT 21 20 23 22 32 24 29 26 15 34 13 36 9 39 11 41
REMARK Flexibility Score: inf
ROOT
ATOM      1  O   UNL     1       6.728  11.791 -15.363  1.00  0.00    -0.454 OA
ENDROOT
BRANCH   1   2
ATOM      2  C   UNL     1       6.966  10.448 -15.815  1.00  0.00     0.214 A 
ATOM      3  C   UNL     1       6.978  10.100 -17.196  1.00  0.00     0.180 A 
ATOM      4  O   UNL     1       6.629   8.868 -17.497  1.00  0.00    -0.452 OA
ATOM      5  C   UNL     1       7.160   9.396 -14.866  1.00  0.00     0.239 A 
ATOM      6  C   UNL     1       6.496   7.892 -16.623  1.00  0.00     0.146 A 
ATOM      7  O   UNL     1       7.639   9.622 -13.723  1.00  0.00    -0.285 OA
ATOM      8  C   UNL     1       6.935   8.055 -15.301  1.00  0.00     0.111 A 
ATOM      9  C   UNL     1       6.025   6.626 -17.075  1.00  0.00     0.094 A 
ATOM     10  C   UNL     1       7.303   6.863 -14.551  1.00  0.00     0.134 A 
ATOM     11  C   UNL     1       6.251   5.484 -16.302  1.00  0.00     0.123 A 
ATOM     12  C   UNL     1       6.880   5.594 -15.035  1.00  0.00     0.093 A 
BRANCH   3  13
ATOM     13  C   UNL     1       7.405  10.977 -18.345  1.00  0.00     0.025 A 
ATOM     14  C   UNL     1       8.781  11.083 -18.629  1.00  0.00     0.016 A 
ATOM     15  C   UNL     1       9.274  11.913 -19.637  1.00  0.00     0.051 A 
ATOM     16  C   UNL     1       8.386  12.659 -20.422  1.00  0.00     0.157 A 
ATOM     17  C   UNL     1       6.523  11.781 -19.119  1.00  0.00     0.062 A 
ATOM     18  C   UNL     1       7.002  12.542 -20.189  1.00  0.00     0.158 A 
BRANCH  16  19
ATOM     19  O   UNL     1       8.920  13.568 -21.391  1.00  0.00    -0.504 OA
ATOM     20  H   UNL     1       8.387  13.998 -22.142  1.00  0.00     0.293 HD
ENDBRANCH  16  19
BRANCH  18  21
ATOM     21  O   UNL     1       6.071  13.173 -21.015  1.00  0.00    -0.504 OA
ATOM     22  H   UNL     1       6.317  13.687 -21.852  1.00  0.00     0.293 HD
ENDBRANCH  18  21
ENDBRANCH   3  13
BRANCH  10  23
ATOM     23  O   UNL     1       8.095   6.906 -13.395  1.00  0.00    -0.507 OA
ATOM     24  H   UNL     1       9.046   6.600 -13.405  1.00  0.00     0.293 HD
ENDBRANCH  10  23
BRANCH  11  25
ATOM     25  O   UNL     1       5.885   4.240 -16.803  1.00  0.00    -0.508 OA
ATOM     26  H   UNL     1       6.513   3.427 -16.725  1.00  0.00     0.293 HD
ENDBRANCH  11  25
ENDBRANCH   1   2
BRANCH   1  27
ATOM     27  C   UNL     1       7.852  12.852 -15.448  1.00  0.00     0.339 C 
ATOM     28  C   UNL     1       9.337  12.310 -15.228  1.00  0.00     0.214 C 
ATOM     29  O   UNL     1       7.900  13.598 -16.682  1.00  0.00    -0.332 OA
ATOM     30  C   UNL     1      10.383  12.743 -16.418  1.00  0.00     0.180 C 
ATOM     31  C   UNL     1       8.901  14.699 -16.725  1.00  0.00     0.179 C 
ATOM     32  C   UNL     1      10.465  14.272 -16.768  1.00  0.00     0.177 C 
BRANCH  28  33
ATOM     33  O   UNL     1       9.352  10.887 -15.066  1.00  0.00    -0.384 OA
ATOM     34  H   UNL     1       9.771  10.695 -14.162  1.00  0.00     0.211 HD
ENDBRANCH  28  33
BRANCH  30  35
ATOM     35  O   UNL     1      11.637  12.164 -16.175  1.00  0.00    -0.387 OA
ATOM     36  H   UNL     1      12.184  12.856 -15.748  1.00  0.00     0.211 HD
ENDBRANCH  30  35
BRANCH  31  37
ATOM     37  C   UNL     1       8.573  15.544 -17.959  1.00  0.00     0.191 C 
BRANCH  37  38
ATOM     38  O   UNL     1       9.587  15.465 -18.926  1.00  0.00    -0.394 OA
ATOM     39  H   UNL     1       9.328  14.727 -19.593  1.00  0.00     0.210 HD
ENDBRANCH  37  38
ENDBRANCH  31  37
BRANCH  32  40
ATOM     40  O   UNL     1      11.197  14.997 -15.776  1.00  0.00    -0.387 OA
ATOM     41  H   UNL     1      11.072  15.968 -15.966  1.00  0.00     0.211 HD
ENDBRANCH  32  40
ENDBRANCH   1  27
TORSDOF 12
ENDMDL
MODEL 8
REMARK VINA RESULT:    -5.428      2.435      7.499
REMARK INTER + INTRA:          -8.722
REMARK INTER:                  -9.414
REMARK INTRA:                   0.692
REMARK UNBOUND:                -0.756
REMARK SMILES O=c1c(O[C@@H]2O[C@H](CO)[C@@H](O)[C@@H](O)[C@@H]2O)c(-c2ccc(O)c(O)c2)oc2cc(O)cc(O)c12
REMARK SMILES IDX 4 1 3 2 16 3 25 4 2 5 26 6 1 7 33 8 27 9 31 10 28 11 30 12
REMARK SMILES IDX 17 13 18 14 19 15 20 16 24 17 22 18 21 19 23 21 32 23 29 25
REMARK SMILES IDX 5 27 14 28 6 29 12 30 7 31 10 32 15 33 13 35 8 37 9 38 11 40
REMARK H PARENT 21 20 23 22 32 24 29 26 15 34 13 36 9 39 11 41
REMARK Flexibility Score: inf
ROOT
ATOM      1  O   UNL     1       7.632  11.724 -19.031  1.00  0.00    -0.454 OA
ENDROOT
BRANCH   1   2
ATOM      2  C   UNL     1       7.711  13.075 -18.550  1.00  0.00     0.214 A 
ATOM      3  C   UNL     1       7.165  13.470 -17.295  1.00  0.00     0.180 A 
ATOM      4  O   UNL     1       6.768  14.720 -17.191  1.00  0.00    -0.452 OA
ATOM      5  C   UNL     1       8.318  14.089 -19.356  1.00  0.00     0.239 A 
ATOM      6  C   UNL     1       7.043  15.669 -18.063  1.00  0.00     0.146 A 
ATOM      7  O   UNL     1       9.217  13.812 -20.194  1.00  0.00    -0.285 OA
ATOM      8  C   UNL     1       7.983  15.450 -19.081  1.00  0.00     0.111 A 
ATOM      9  C   UNL     1       6.474  16.961 -17.873  1.00  0.00     0.094 A 
ATOM     10  C   UNL     1       8.670  16.605 -19.638  1.00  0.00     0.134 A 
ATOM     11  C   UNL     1       7.041  18.070 -18.508  1.00  0.00     0.123 A 
ATOM     12  C   UNL     1       8.132  17.900 -19.398  1.00  0.00     0.093 A 
BRANCH   3  13
ATOM     13  C   UNL     1       7.048  12.624 -16.054  1.00  0.00     0.025 A 
ATOM     14  C   UNL     1       6.093  11.587 -16.040  1.00  0.00     0.016 A 
ATOM     15  C   UNL     1       5.875  10.787 -14.917  1.00  0.00     0.051 A 
ATOM     16  C   UNL     1       6.635  10.990 -13.759  1.00  0.00     0.157 A 
ATOM     17  C   UNL     1       7.773  12.848 -14.851  1.00  0.00     0.062 A 
ATOM     18  C   UNL     1       7.624  11.992 -13.756  1.00  0.00     0.158 A 
BRANCH  16  19
ATOM     19  O   UNL     1       6.332  10.216 -12.592  1.00  0.00    -0.504 OA
ATOM     20  H   UNL     1       6.700   9.289 -12.397  1.00  0.00     0.293 HD
ENDBRANCH  16  19
BRANCH  18  21
ATOM     21  O   UNL     1       8.485  12.159 -12.670  1.00  0.00    -0.504 OA
ATOM     22  H   UNL     1       8.268  11.861 -11.727  1.00  0.00     0.293 HD
ENDBRANCH  18  21
ENDBRANCH   3  13
BRANCH  10  23
ATOM     23  O   UNL     1       9.866  16.504 -20.362  1.00  0.00    -0.507 OA
ATOM     24  H   UNL     1      10.464  15.709 -20.269  1.00  0.00     0.293 HD
ENDBRANCH  10  23
BRANCH  11  25
ATOM     25  O   UNL     1       6.546  19.338 -18.229  1.00  0.00    -0.508 OA
ATOM     26  H   UNL     1       5.876  19.493 -17.460  1.00  0.00     0.293 HD
ENDBRANCH  11  25
ENDBRANCH   1   2
BRANCH   1  27
ATOM     27  C   UNL     1       8.607  10.647 -18.495  1.00  0.00     0.339 C 
ATOM     28  C   UNL     1       9.998  11.190 -17.931  1.00  0.00     0.214 C 
ATOM     29  O   UNL     1       8.078   9.805 -17.451  1.00  0.00    -0.332 OA
ATOM     30  C   UNL     1      10.355  10.653 -16.421  1.00  0.00     0.180 C 
ATOM     31  C   UNL     1       8.966   8.694 -17.014  1.00  0.00     0.179 C 
ATOM     32  C   UNL     1      10.303   9.100 -16.191  1.00  0.00     0.177 C 
BRANCH  28  33
ATOM     33  O   UNL     1      10.047  12.621 -17.958  1.00  0.00    -0.384 OA
ATOM     34  H   UNL     1      10.629  12.913 -17.180  1.00  0.00     0.211 HD
ENDBRANCH  28  33
BRANCH  30  35
ATOM     35  O   UNL     1      11.553  11.236 -15.985  1.00  0.00    -0.387 OA
ATOM     36  H   UNL     1      11.333  11.755 -15.184  1.00  0.00     0.211 HD
ENDBRANCH  30  35
BRANCH  31  37
ATOM     37  C   UNL     1       8.111   7.755 -16.159  1.00  0.00     0.191 C 
BRANCH  37  38
ATOM     38  O   UNL     1       8.869   7.131 -15.157  1.00  0.00    -0.394 OA
ATOM     39  H   UNL     1       8.375   6.274 -14.876  1.00  0.00     0.210 HD
ENDBRANCH  37  38
ENDBRANCH  31  37
BRANCH  32  40
ATOM     40  O   UNL     1      11.443   8.449 -16.758  1.00  0.00    -0.387 OA
ATOM     41  H   UNL     1      11.249   8.300 -17.726  1.00  0.00     0.211 HD
ENDBRANCH  32  40
ENDBRANCH   1  27
TORSDOF 12
ENDMDL
