MODEL 1
REMARK VINA RESULT:    -5.211      0.000      0.000
REMARK INTER + INTRA:         -11.046
REMARK INTER:                 -10.085
REMARK INTRA:                  -0.962
REMARK UNBOUND:                -0.962
REMARK SMILES CCCCCCCCCCCCCCCCCC(=O)[O-]
REMARK SMILES IDX 10 1 11 2 12 3 13 4 14 5 15 6 16 7 17 8 18 9 19 10 20 11
REMARK SMILES IDX 9 12 8 13 7 14 6 15 5 16 4 17 3 18 2 19 1 20
REMARK H PARENT
REMARK Flexibility Score: inf
ROOT
ATOM      1  C   UNL     1      -0.249  -3.052   8.370  1.00  0.00     0.000 C 
ENDROOT
BRANCH   1   2
ATOM      2  C   UNL     1      -0.335  -4.584   8.427  1.00  0.00     0.000 C 
BRANCH   2   3
ATOM      3  C   UNL     1      -0.335  -5.187   7.016  1.00  0.00     0.000 C 
BRANCH   3   4
ATOM      4  C   UNL     1      -0.356  -6.722   7.074  1.00  0.00     0.000 C 
BRANCH   4   5
ATOM      5  C   UNL     1      -1.635  -7.272   7.727  1.00  0.00     0.000 C 
BRANCH   5   6
ATOM      6  C   UNL     1      -1.717  -8.805   7.669  1.00  0.00     0.000 C 
BRANCH   6   7
ATOM      7  C   UNL     1      -3.057  -9.305   8.220  1.00  0.00     0.006 C 
BRANCH   7   8
ATOM      8  C   UNL     1      -3.916  -8.138   8.718  1.00  0.00     0.053 C 
BRANCH   8   9
ATOM      9  C   UNL     1      -5.093  -7.930   7.819  1.00  0.00     0.041 C 
ATOM     10  O   UNL     1      -5.614  -8.909   7.222  1.00  0.00    -0.550 OA
ATOM     11  O   UNL     1      -5.585  -6.650   7.602  1.00  0.00    -0.550 OA
ENDBRANCH   8   9
ENDBRANCH   7   8
ENDBRANCH   6   7
ENDBRANCH   5   6
ENDBRANCH   4   5
ENDBRANCH   3   4
ENDBRANCH   2   3
ENDBRANCH   1   2
BRANCH   1  12
ATOM     12  C   UNL     1      -0.130  -2.405   9.760  1.00  0.00     0.000 C 
BRANCH  12  13
ATOM     13  C   UNL     1      -0.638  -0.951   9.851  1.00  0.00    -0.000 C 
BRANCH  13  14
ATOM     14  C   UNL     1      -0.337  -0.075   8.622  1.00  0.00    -0.000 C 
BRANCH  14  15
ATOM     15  C   UNL     1      -1.473   0.004   7.585  1.00  0.00    -0.000 C 
BRANCH  15  16
ATOM     16  C   UNL     1      -1.008   0.450   6.181  1.00  0.00    -0.000 C 
BRANCH  16  17
ATOM     17  C   UNL     1      -1.478  -0.506   5.070  1.00  0.00    -0.000 C 
BRANCH  17  18
ATOM     18  C   UNL     1      -1.472  -1.983   5.508  1.00  0.00    -0.000 C 
BRANCH  18  19
ATOM     19  C   UNL     1      -1.514  -3.000   4.353  1.00  0.00    -0.003 C 
ATOM     20  C   UNL     1      -1.380  -2.349   2.977  1.00  0.00     0.004 C 
ENDBRANCH  18  19
ENDBRANCH  17  18
ENDBRANCH  16  17
ENDBRANCH  15  16
ENDBRANCH  14  15
ENDBRANCH  13  14
ENDBRANCH  12  13
ENDBRANCH   1  12
TORSDOF 16
ENDMDL
MODEL 2
REMARK VINA RESULT:    -4.910      1.485      3.931
REMARK INTER + INTRA:         -10.463
REMARK INTER:                  -8.938
REMARK INTRA:                  -1.526
REMARK UNBOUND:                -0.962
REMARK SMILES CCCCCCCCCCCCCCCCCC(=O)[O-]
REMARK SMILES IDX 10 1 11 2 12 3 13 4 14 5 15 6 16 7 17 8 18 9 19 10 20 11
REMARK SMILES IDX 9 12 8 13 7 14 6 15 5 16 4 17 3 18 2 19 1 20
REMARK H PARENT
REMARK Flexibility Score: inf
ROOT
ATOM      1  C   UNL     1      -1.412  -1.744   4.087  1.00  0.00     0.000 C 
ENDROOT
BRANCH   1   2
ATOM      2  C   UNL     1      -2.032  -2.971   4.773  1.00  0.00     0.000 C 
BRANCH   2   3
ATOM      3  C   UNL     1      -0.976  -4.060   5.006  1.00  0.00     0.000 C 
BRANCH   3   4
ATOM      4  C   UNL     1      -0.926  -4.470   6.485  1.00  0.00     0.000 C 
BRANCH   4   5
ATOM      5  C   UNL     1      -0.090  -5.739   6.720  1.00  0.00     0.000 C 
BRANCH   5   6
ATOM      6  C   UNL     1      -0.618  -6.589   7.885  1.00  0.00     0.000 C 
BRANCH   6   7
ATOM      7  C   UNL     1      -1.551  -7.695   7.379  1.00  0.00     0.006 C 
BRANCH   7   8
ATOM      8  C   UNL     1      -2.249  -8.402   8.545  1.00  0.00     0.053 C 
BRANCH   8   9
ATOM      9  C   UNL     1      -3.714  -8.099   8.543  1.00  0.00     0.041 C 
ATOM     10  O   UNL     1      -4.200  -7.330   7.671  1.00  0.00    -0.550 OA
ATOM     11  O   UNL     1      -4.536  -8.626   9.531  1.00  0.00    -0.550 OA
ENDBRANCH   8   9
ENDBRANCH   7   8
ENDBRANCH   6   7
ENDBRANCH   5   6
ENDBRANCH   4   5
ENDBRANCH   3   4
ENDBRANCH   2   3
ENDBRANCH   1   2
BRANCH   1  12
ATOM     12  C   UNL     1      -1.309  -0.525   5.019  1.00  0.00     0.000 C 
BRANCH  12  13
ATOM     13  C   UNL     1      -1.399  -0.843   6.526  1.00  0.00    -0.000 C 
BRANCH  13  14
ATOM     14  C   UNL     1      -0.984   0.305   7.463  1.00  0.00    -0.000 C 
BRANCH  14  15
ATOM     15  C   UNL     1      -0.634  -0.123   8.901  1.00  0.00    -0.000 C 
BRANCH  15  16
ATOM     16  C   UNL     1      -0.452  -1.647   9.073  1.00  0.00    -0.000 C 
BRANCH  16  17
ATOM     17  C   UNL     1       0.780  -2.004   9.925  1.00  0.00    -0.000 C 
BRANCH  17  18
ATOM     18  C   UNL     1       1.132  -3.502   9.869  1.00  0.00    -0.000 C 
BRANCH  18  19
ATOM     19  C   UNL     1       2.608  -3.807   9.555  1.00  0.00    -0.003 C 
ATOM     20  C   UNL     1       2.812  -5.180   8.915  1.00  0.00     0.004 C 
ENDBRANCH  18  19
ENDBRANCH  17  18
ENDBRANCH  16  17
ENDBRANCH  15  16
ENDBRANCH  14  15
ENDBRANCH  13  14
ENDBRANCH  12  13
ENDBRANCH   1  12
TORSDOF 16
ENDMDL
MODEL 3
REMARK VINA RESULT:    -4.793      2.485      7.092
REMARK INTER + INTRA:         -10.238
REMARK INTER:                  -8.951
REMARK INTRA:                  -1.287
REMARK UNBOUND:                -0.962
REMARK SMILES CCCCCCCCCCCCCCCCCC(=O)[O-]
REMARK SMILES IDX 10 1 11 2 12 3 13 4 14 5 15 6 16 7 17 8 18 9 19 10 20 11
REMARK SMILES IDX 9 12 8 13 7 14 6 15 5 16 4 17 3 18 2 19 1 20
REMARK H PARENT
REMARK Flexibility Score: inf
ROOT
ATOM      1  C   UNL     1      -0.256  -4.371   8.636  1.00  0.00     0.000 C 
ENDROOT
BRANCH   1   2
ATOM      2  C   UNL     1       0.954  -4.004   9.507  1.00  0.00     0.000 C 
BRANCH   2   3
ATOM      3  C   UNL     1       0.924  -2.519   9.891  1.00  0.00     0.000 C 
BRANCH   3   4
ATOM      4  C   UNL     1      -0.401  -1.868   9.467  1.00  0.00     0.000 C 
BRANCH   4   5
ATOM      5  C   UNL     1      -0.217  -0.432   8.951  1.00  0.00     0.000 C 
BRANCH   5   6
ATOM      6  C   UNL     1      -1.108  -0.118   7.739  1.00  0.00     0.000 C 
BRANCH   6   7
ATOM      7  C   UNL     1      -1.130  -1.293   6.755  1.00  0.00     0.006 C 
BRANCH   7   8
ATOM      8  C   UNL     1      -1.438  -0.814   5.333  1.00  0.00     0.053 C 
BRANCH   8   9
ATOM      9  C   UNL     1      -1.504  -1.973   4.390  1.00  0.00     0.041 C 
ATOM     10  O   UNL     1      -1.457  -1.781   3.146  1.00  0.00    -0.550 OA
ATOM     11  O   UNL     1      -1.664  -3.262   4.882  1.00  0.00    -0.550 OA
ENDBRANCH   8   9
ENDBRANCH   7   8
ENDBRANCH   6   7
ENDBRANCH   5   6
ENDBRANCH   4   5
ENDBRANCH   3   4
ENDBRANCH   2   3
ENDBRANCH   1   2
BRANCH   1  12
ATOM     12  C   UNL     1       0.134  -5.134   7.358  1.00  0.00     0.000 C 
BRANCH  12  13
ATOM     13  C   UNL     1      -0.706  -6.395   7.068  1.00  0.00    -0.000 C 
BRANCH  13  14
ATOM     14  C   UNL     1      -1.546  -6.908   8.250  1.00  0.00    -0.000 C 
BRANCH  14  15
ATOM     15  C   UNL     1      -1.920  -8.401   8.184  1.00  0.00    -0.000 C 
BRANCH  15  16
ATOM     16  C   UNL     1      -3.436  -8.672   8.307  1.00  0.00    -0.000 C 
BRANCH  16  17
ATOM     17  C   UNL     1      -4.289  -7.450   7.920  1.00  0.00    -0.000 C 
BRANCH  17  18
ATOM     18  C   UNL     1      -5.283  -7.041   9.023  1.00  0.00    -0.000 C 
BRANCH  18  19
ATOM     19  C   UNL     1      -6.730  -6.826   8.542  1.00  0.00    -0.003 C 
ATOM     20  C   UNL     1      -7.032  -5.371   8.185  1.00  0.00     0.004 C 
ENDBRANCH  18  19
ENDBRANCH  17  18
ENDBRANCH  16  17
ENDBRANCH  15  16
ENDBRANCH  14  15
ENDBRANCH  13  14
ENDBRANCH  12  13
ENDBRANCH   1  12
TORSDOF 16
ENDMDL
MODEL 4
REMARK VINA RESULT:    -4.628      1.724      2.412
REMARK INTER + INTRA:          -9.919
REMARK INTER:                  -9.069
REMARK INTRA:                  -0.850
REMARK UNBOUND:                -0.962
REMARK SMILES CCCCCCCCCCCCCCCCCC(=O)[O-]
REMARK SMILES IDX 10 1 11 2 12 3 13 4 14 5 15 6 16 7 17 8 18 9 19 10 20 11
REMARK SMILES IDX 9 12 8 13 7 14 6 15 5 16 4 17 3 18 2 19 1 20
REMARK H PARENT
REMARK Flexibility Score: inf
ROOT
ATOM      1  C   UNL     1       1.872  -2.269  10.060  1.00  0.00     0.000 C 
ENDROOT
BRANCH   1   2
ATOM      2  C   UNL     1       2.611  -3.615  10.099  1.00  0.00     0.000 C 
BRANCH   2   3
ATOM      3  C   UNL     1       2.891  -4.128   8.680  1.00  0.00     0.000 C 
BRANCH   3   4
ATOM      4  C   UNL     1       2.286  -5.524   8.471  1.00  0.00     0.000 C 
BRANCH   4   5
ATOM      5  C   UNL     1       0.802  -5.592   8.868  1.00  0.00     0.000 C 
BRANCH   5   6
ATOM      6  C   UNL     1      -0.122  -5.845   7.667  1.00  0.00     0.000 C 
BRANCH   6   7
ATOM      7  C   UNL     1      -0.791  -7.221   7.769  1.00  0.00     0.006 C 
BRANCH   7   8
ATOM      8  C   UNL     1      -2.311  -7.085   7.895  1.00  0.00     0.053 C 
BRANCH   8   9
ATOM      9  C   UNL     1      -2.935  -8.412   8.191  1.00  0.00     0.041 C 
ATOM     10  O   UNL     1      -4.169  -8.587   8.009  1.00  0.00    -0.550 OA
ATOM     11  O   UNL     1      -2.163  -9.442   8.714  1.00  0.00    -0.550 OA
ENDBRANCH   8   9
ENDBRANCH   7   8
ENDBRANCH   6   7
ENDBRANCH   5   6
ENDBRANCH   4   5
ENDBRANCH   3   4
ENDBRANCH   2   3
ENDBRANCH   1   2
BRANCH   1  12
ATOM     12  C   UNL     1       0.465  -2.375   9.445  1.00  0.00     0.000 C 
BRANCH  12  13
ATOM     13  C   UNL     1      -0.515  -1.259   9.860  1.00  0.00    -0.000 C 
BRANCH  13  14
ATOM     14  C   UNL     1      -0.452   0.020   9.006  1.00  0.00    -0.000 C 
BRANCH  14  15
ATOM     15  C   UNL     1      -1.497   0.102   7.877  1.00  0.00    -0.000 C 
BRANCH  15  16
ATOM     16  C   UNL     1      -1.185  -0.810   6.671  1.00  0.00    -0.000 C 
BRANCH  16  17
ATOM     17  C   UNL     1      -1.211  -0.050   5.332  1.00  0.00    -0.000 C 
BRANCH  17  18
ATOM     18  C   UNL     1      -1.623  -0.942   4.145  1.00  0.00    -0.000 C 
BRANCH  18  19
ATOM     19  C   UNL     1      -1.623  -2.453   4.442  1.00  0.00    -0.003 C 
ATOM     20  C   UNL     1      -1.365  -3.307   3.201  1.00  0.00     0.004 C 
ENDBRANCH  18  19
ENDBRANCH  17  18
ENDBRANCH  16  17
ENDBRANCH  15  16
ENDBRANCH  14  15
ENDBRANCH  13  14
ENDBRANCH  12  13
ENDBRANCH   1  12
TORSDOF 16
ENDMDL
MODEL 5
REMARK VINA RESULT:    -4.540      2.969      7.702
REMARK INTER + INTRA:          -9.747
REMARK INTER:                  -8.823
REMARK INTRA:                  -0.924
REMARK UNBOUND:                -0.962
REMARK SMILES CCCCCCCCCCCCCCCCCC(=O)[O-]
REMARK SMILES IDX 10 1 11 2 12 3 13 4 14 5 15 6 16 7 17 8 18 9 19 10 20 11
REMARK SMILES IDX 9 12 8 13 7 14 6 15 5 16 4 17 3 18 2 19 1 20
REMARK H PARENT
REMARK Flexibility Score: inf
ROOT
ATOM      1  C   UNL     1      -0.338  -5.484   6.367  1.00  0.00     0.000 C 
ENDROOT
BRANCH   1   2
ATOM      2  C   UNL     1      -1.070  -4.140   6.228  1.00  0.00     0.000 C 
BRANCH   2   3
ATOM      3  C   UNL     1      -1.449  -3.872   4.765  1.00  0.00     0.000 C 
BRANCH   3   4
ATOM      4  C   UNL     1      -1.503  -2.364   4.479  1.00  0.00     0.000 C 
BRANCH   4   5
ATOM      5  C   UNL     1      -1.341  -1.514   5.750  1.00  0.00     0.000 C 
BRANCH   5   6
ATOM      6  C   UNL     1      -1.221  -0.012   5.448  1.00  0.00     0.000 C 
BRANCH   6   7
ATOM      7  C   UNL     1      -1.098   0.800   6.742  1.00  0.00     0.006 C 
BRANCH   7   8
ATOM      8  C   UNL     1      -1.532  -0.028   7.955  1.00  0.00     0.053 C 
BRANCH   8   9
ATOM      9  C   UNL     1      -0.357  -0.340   8.827  1.00  0.00     0.041 C 
ATOM     10  O   UNL     1      -0.262  -1.466   9.382  1.00  0.00    -0.550 OA
ATOM     11  O   UNL     1       0.609   0.629   9.065  1.00  0.00    -0.550 OA
ENDBRANCH   8   9
ENDBRANCH   7   8
ENDBRANCH   6   7
ENDBRANCH   5   6
ENDBRANCH   4   5
ENDBRANCH   3   4
ENDBRANCH   2   3
ENDBRANCH   1   2
BRANCH   1  12
ATOM     12  C   UNL     1       0.273  -5.692   7.764  1.00  0.00     0.000 C 
BRANCH  12  13
ATOM     13  C   UNL     1      -0.718  -5.553   8.938  1.00  0.00    -0.000 C 
BRANCH  13  14
ATOM     14  C   UNL     1      -1.469  -6.842   9.316  1.00  0.00    -0.000 C 
BRANCH  14  15
ATOM     15  C   UNL     1      -2.272  -7.488   8.171  1.00  0.00    -0.000 C 
BRANCH  15  16
ATOM     16  C   UNL     1      -1.678  -8.820   7.665  1.00  0.00    -0.000 C 
BRANCH  16  17
ATOM     17  C   UNL     1      -2.614 -10.018   7.910  1.00  0.00    -0.000 C 
BRANCH  17  18
ATOM     18  C   UNL     1      -3.544  -9.813   9.120  1.00  0.00    -0.000 C 
BRANCH  18  19
ATOM     19  C   UNL     1      -5.021  -9.565   8.765  1.00  0.00    -0.003 C 
ATOM     20  C   UNL     1      -5.325  -9.778   7.282  1.00  0.00     0.004 C 
ENDBRANCH  18  19
ENDBRANCH  17  18
ENDBRANCH  16  17
ENDBRANCH  15  16
ENDBRANCH  14  15
ENDBRANCH  13  14
ENDBRANCH  12  13
ENDBRANCH   1  12
TORSDOF 16
ENDMDL
MODEL 6
REMARK VINA RESULT:    -4.339      5.329      9.126
REMARK INTER + INTRA:          -9.359
REMARK INTER:                  -8.346
REMARK INTRA:                  -1.013
REMARK UNBOUND:                -0.962
REMARK SMILES CCCCCCCCCCCCCCCCCC(=O)[O-]
REMARK SMILES IDX 10 1 11 2 12 3 13 4 14 5 15 6 16 7 17 8 18 9 19 10 20 11
REMARK SMILES IDX 9 12 8 13 7 14 6 15 5 16 4 17 3 18 2 19 1 20
REMARK H PARENT
REMARK Flexibility Score: inf
ROOT
ATOM      1  C   UNL     1      -0.007  -4.646   8.156  1.00  0.00     0.000 C 
ENDROOT
BRANCH   1   2
ATOM      2  C   UNL     1       0.997  -5.483   8.963  1.00  0.00     0.000 C 
BRANCH   2   3
ATOM      3  C   UNL     1       2.434  -5.007   8.714  1.00  0.00     0.000 C 
BRANCH   3   4
ATOM      4  C   UNL     1       3.055  -4.435   9.997  1.00  0.00     0.000 C 
BRANCH   4   5
ATOM      5  C   UNL     1       2.859  -2.916  10.124  1.00  0.00     0.000 C 
BRANCH   5   6
ATOM      6  C   UNL     1       4.067  -2.118   9.610  1.00  0.00     0.000 C 
BRANCH   6   7
ATOM      7  C   UNL     1       3.922  -0.628   9.940  1.00  0.00     0.006 C 
BRANCH   7   8
ATOM      8  C   UNL     1       5.288   0.063   9.979  1.00  0.00     0.053 C 
BRANCH   8   9
ATOM      9  C   UNL     1       5.224   1.394   9.299  1.00  0.00     0.041 C 
ATOM     10  O   UNL     1       5.957   2.340   9.690  1.00  0.00    -0.550 OA
ATOM     11  O   UNL     1       4.322   1.603   8.263  1.00  0.00    -0.550 OA
ENDBRANCH   8   9
ENDBRANCH   7   8
ENDBRANCH   6   7
ENDBRANCH   5   6
ENDBRANCH   4   5
ENDBRANCH   3   4
ENDBRANCH   2   3
ENDBRANCH   1   2
BRANCH   1  12
ATOM     12  C   UNL     1      -0.645  -5.431   6.996  1.00  0.00     0.000 C 
BRANCH  12  13
ATOM     13  C   UNL     1      -0.224  -6.911   6.898  1.00  0.00    -0.000 C 
BRANCH  13  14
ATOM     14  C   UNL     1      -1.311  -7.928   7.291  1.00  0.00    -0.000 C 
BRANCH  14  15
ATOM     15  C   UNL     1      -2.148  -7.543   8.525  1.00  0.00    -0.000 C 
BRANCH  15  16
ATOM     16  C   UNL     1      -2.529  -8.742   9.421  1.00  0.00    -0.000 C 
BRANCH  16  17
ATOM     17  C   UNL     1      -3.510  -9.708   8.732  1.00  0.00    -0.000 C 
BRANCH  17  18
ATOM     18  C   UNL     1      -4.985  -9.333   8.969  1.00  0.00    -0.000 C 
BRANCH  18  19
ATOM     19  C   UNL     1      -5.634  -8.517   7.837  1.00  0.00    -0.003 C 
ATOM     20  C   UNL     1      -5.642  -7.013   8.111  1.00  0.00     0.004 C 
ENDBRANCH  18  19
ENDBRANCH  17  18
ENDBRANCH  16  17
ENDBRANCH  15  16
ENDBRANCH  14  15
ENDBRANCH  13  14
ENDBRANCH  12  13
ENDBRANCH   1  12
TORSDOF 16
ENDMDL
MODEL 7
REMARK VINA RESULT:    -4.193     16.762     19.130
REMARK INTER + INTRA:          -9.077
REMARK INTER:                  -6.051
REMARK INTRA:                  -3.026
REMARK UNBOUND:                -0.962
REMARK SMILES CCCCCCCCCCCCCCCCCC(=O)[O-]
REMARK SMILES IDX 10 1 11 2 12 3 13 4 14 5 15 6 16 7 17 8 18 9 19 10 20 11
REMARK SMILES IDX 9 12 8 13 7 14 6 15 5 16 4 17 3 18 2 19 1 20
REMARK H PARENT
REMARK Flexibility Score: inf
ROOT
ATOM      1  C   UNL     1       6.675   6.762  -3.953  1.00  0.00     0.000 C 
ENDROOT
BRANCH   1   2
ATOM      2  C   UNL     1       7.018   7.195  -5.386  1.00  0.00     0.000 C 
BRANCH   2   3
ATOM      3  C   UNL     1       8.044   6.243  -6.016  1.00  0.00     0.000 C 
BRANCH   3   4
ATOM      4  C   UNL     1       7.763   6.044  -7.513  1.00  0.00     0.000 C 
BRANCH   4   5
ATOM      5  C   UNL     1       7.919   4.580  -7.954  1.00  0.00     0.000 C 
BRANCH   5   6
ATOM      6  C   UNL     1       6.863   4.157  -8.987  1.00  0.00     0.000 C 
BRANCH   6   7
ATOM      7  C   UNL     1       6.615   2.645  -8.932  1.00  0.00     0.006 C 
BRANCH   7   8
ATOM      8  C   UNL     1       7.644   1.952  -8.033  1.00  0.00     0.053 C 
BRANCH   8   9
ATOM      9  C   UNL     1       7.019   0.800  -7.311  1.00  0.00     0.041 C 
ATOM     10  O   UNL     1       5.796   0.541  -7.471  1.00  0.00    -0.550 OA
ATOM     11  O   UNL     1       7.773   0.042  -6.425  1.00  0.00    -0.550 OA
ENDBRANCH   8   9
ENDBRANCH   7   8
ENDBRANCH   6   7
ENDBRANCH   5   6
ENDBRANCH   4   5
ENDBRANCH   3   4
ENDBRANCH   2   3
ENDBRANCH   1   2
BRANCH   1  12
ATOM     12  C   UNL     1       6.573   5.235  -3.795  1.00  0.00     0.000 C 
BRANCH  12  13
ATOM     13  C   UNL     1       5.210   4.627  -4.186  1.00  0.00    -0.000 C 
BRANCH  13  14
ATOM     14  C   UNL     1       5.211   3.800  -5.484  1.00  0.00    -0.000 C 
BRANCH  14  15
ATOM     15  C   UNL     1       4.128   4.192  -6.507  1.00  0.00    -0.000 C 
BRANCH  15  16
ATOM     16  C   UNL     1       4.110   5.697  -6.852  1.00  0.00    -0.000 C 
BRANCH  16  17
ATOM     17  C   UNL     1       3.457   5.985  -8.216  1.00  0.00    -0.000 C 
BRANCH  17  18
ATOM     18  C   UNL     1       4.302   6.923  -9.098  1.00  0.00    -0.000 C 
BRANCH  18  19
ATOM     19  C   UNL     1       4.281   8.403  -8.673  1.00  0.00    -0.003 C 
ATOM     20  C   UNL     1       5.677   8.980  -8.446  1.00  0.00     0.004 C 
ENDBRANCH  18  19
ENDBRANCH  17  18
ENDBRANCH  16  17
ENDBRANCH  15  16
ENDBRANCH  14  15
ENDBRANCH  13  14
ENDBRANCH  12  13
ENDBRANCH   1  12
TORSDOF 16
ENDMDL
MODEL 8
REMARK VINA RESULT:    -4.167     16.340     19.068
REMARK INTER + INTRA:          -9.027
REMARK INTER:                  -6.854
REMARK INTRA:                  -2.173
REMARK UNBOUND:                -0.962
REMARK SMILES CCCCCCCCCCCCCCCCCC(=O)[O-]
REMARK SMILES IDX 10 1 11 2 12 3 13 4 14 5 15 6 16 7 17 8 18 9 19 10 20 11
REMARK SMILES IDX 9 12 8 13 7 14 6 15 5 16 4 17 3 18 2 19 1 20
REMARK H PARENT
REMARK Flexibility Score: inf
ROOT
ATOM      1  C   UNL     1       6.695   5.755  -4.033  1.00  0.00     0.000 C 
ENDROOT
BRANCH   1   2
ATOM      2  C   UNL     1       5.239   5.437  -4.408  1.00  0.00     0.000 C 
BRANCH   2   3
ATOM      3  C   UNL     1       4.943   3.942  -4.237  1.00  0.00     0.000 C 
BRANCH   3   4
ATOM      4  C   UNL     1       4.564   3.299  -5.579  1.00  0.00     0.000 C 
BRANCH   4   5
ATOM      5  C   UNL     1       4.440   4.328  -6.714  1.00  0.00     0.000 C 
BRANCH   5   6
ATOM      6  C   UNL     1       5.439   4.076  -7.854  1.00  0.00     0.000 C 
BRANCH   6   7
ATOM      7  C   UNL     1       6.648   3.275  -7.358  1.00  0.00     0.006 C 
BRANCH   7   8
ATOM      8  C   UNL     1       6.884   2.038  -8.231  1.00  0.00     0.053 C 
BRANCH   8   9
ATOM      9  C   UNL     1       6.686   0.788  -7.434  1.00  0.00     0.041 C 
ATOM     10  O   UNL     1       5.525   0.344  -7.229  1.00  0.00    -0.550 OA
ATOM     11  O   UNL     1       7.780   0.138  -6.877  1.00  0.00    -0.550 OA
ENDBRANCH   8   9
ENDBRANCH   7   8
ENDBRANCH   6   7
ENDBRANCH   5   6
ENDBRANCH   4   5
ENDBRANCH   3   4
ENDBRANCH   2   3
ENDBRANCH   1   2
BRANCH   1  12
ATOM     12  C   UNL     1       7.539   6.208  -5.237  1.00  0.00     0.000 C 
BRANCH  12  13
ATOM     13  C   UNL     1       6.846   7.211  -6.182  1.00  0.00    -0.000 C 
BRANCH  13  14
ATOM     14  C   UNL     1       7.684   8.448  -6.551  1.00  0.00    -0.000 C 
BRANCH  14  15
ATOM     15  C   UNL     1       6.969   9.473  -7.453  1.00  0.00    -0.000 C 
BRANCH  15  16
ATOM     16  C   UNL     1       6.028   8.836  -8.498  1.00  0.00    -0.000 C 
BRANCH  16  17
ATOM     17  C   UNL     1       4.865   9.764  -8.893  1.00  0.00    -0.000 C 
BRANCH  17  18
ATOM     18  C   UNL     1       3.486   9.097  -8.735  1.00  0.00    -0.000 C 
BRANCH  18  19
ATOM     19  C   UNL     1       3.530   7.602  -8.370  1.00  0.00    -0.003 C 
ATOM     20  C   UNL     1       2.348   7.161  -7.508  1.00  0.00     0.004 C 
ENDBRANCH  18  19
ENDBRANCH  17  18
ENDBRANCH  16  17
ENDBRANCH  15  16
ENDBRANCH  14  15
ENDBRANCH  13  14
ENDBRANCH  12  13
ENDBRANCH   1  12
TORSDOF 16
ENDMDL
MODEL 9
REMARK VINA RESULT:    -4.153     14.602     17.167
REMARK INTER + INTRA:          -9.000
REMARK INTER:                  -5.840
REMARK INTRA:                  -3.160
REMARK UNBOUND:                -0.962
REMARK SMILES CCCCCCCCCCCCCCCCCC(=O)[O-]
REMARK SMILES IDX 10 1 11 2 12 3 13 4 14 5 15 6 16 7 17 8 18 9 19 10 20 11
REMARK SMILES IDX 9 12 8 13 7 14 6 15 5 16 4 17 3 18 2 19 1 20
REMARK H PARENT
REMARK Flexibility Score: inf
ROOT
ATOM      1  C   UNL     1      -5.822   5.082  -4.720  1.00  0.00     0.000 C 
ENDROOT
BRANCH   1   2
ATOM      2  C   UNL     1      -5.968   5.781  -6.079  1.00  0.00     0.000 C 
BRANCH   2   3
ATOM      3  C   UNL     1      -6.388   7.246  -5.900  1.00  0.00     0.000 C 
BRANCH   3   4
ATOM      4  C   UNL     1      -7.833   7.346  -5.391  1.00  0.00     0.000 C 
BRANCH   4   5
ATOM      5  C   UNL     1      -7.914   7.801  -3.925  1.00  0.00     0.000 C 
BRANCH   5   6
ATOM      6  C   UNL     1      -8.821   6.899  -3.074  1.00  0.00     0.000 C 
BRANCH   6   7
ATOM      7  C   UNL     1      -8.047   6.300  -1.894  1.00  0.00     0.006 C 
BRANCH   7   8
ATOM      8  C   UNL     1      -6.682   6.976  -1.731  1.00  0.00     0.053 C 
BRANCH   8   9
ATOM      9  C   UNL     1      -6.468   7.393  -0.310  1.00  0.00     0.041 C 
ATOM     10  O   UNL     1      -5.960   8.515  -0.049  1.00  0.00    -0.550 OA
ATOM     11  O   UNL     1      -6.786   6.523   0.725  1.00  0.00    -0.550 OA
ENDBRANCH   8   9
ENDBRANCH   7   8
ENDBRANCH   6   7
ENDBRANCH   5   6
ENDBRANCH   4   5
ENDBRANCH   3   4
ENDBRANCH   2   3
ENDBRANCH   1   2
BRANCH   1  12
ATOM     12  C   UNL     1      -6.006   3.557  -4.806  1.00  0.00     0.000 C 
BRANCH  12  13
ATOM     13  C   UNL     1      -7.023   2.964  -3.810  1.00  0.00    -0.000 C 
BRANCH  13  14
ATOM     14  C   UNL     1      -8.356   2.505  -4.429  1.00  0.00    -0.000 C 
BRANCH  14  15
ATOM     15  C   UNL     1      -9.419   3.610  -4.579  1.00  0.00    -0.000 C 
BRANCH  15  16
ATOM     16  C   UNL     1      -9.509   4.201  -6.003  1.00  0.00    -0.000 C 
BRANCH  16  17
ATOM     17  C   UNL     1      -9.143   3.178  -7.093  1.00  0.00    -0.000 C 
BRANCH  17  18
ATOM     18  C   UNL     1      -8.162   3.741  -8.138  1.00  0.00    -0.000 C 
BRANCH  18  19
ATOM     19  C   UNL     1      -6.902   2.887  -8.368  1.00  0.00    -0.003 C 
ATOM     20  C   UNL     1      -7.008   1.488  -7.760  1.00  0.00     0.004 C 
ENDBRANCH  18  19
ENDBRANCH  17  18
ENDBRANCH  16  17
ENDBRANCH  15  16
ENDBRANCH  14  15
ENDBRANCH  13  14
ENDBRANCH  12  13
ENDBRANCH   1  12
TORSDOF 16
ENDMDL
