MODEL 1
REMARK VINA RESULT:    -4.497      0.000      0.000
REMARK INTER + INTRA:         -12.527
REMARK INTER:                  -9.754
REMARK INTRA:                  -2.774
REMARK UNBOUND:                -2.774
REMARK SMILES CCCCCCCCCCCCCCCCCCCCCC(=O)[O-]
REMARK SMILES IDX 12 1 11 2 10 3 9 4 8 5 7 6 6 7 5 8 4 9 3 10 2 11 1 12 13 13
REMARK SMILES IDX 14 14 15 15 16 16 17 17 18 18 19 19 20 20 21 21 22 22 23 23
REMARK SMILES IDX 24 24
REMARK H PARENT
REMARK Flexibility Score: inf
ROOT
ATOM      1  C   UNL     1      -2.372   6.717 -37.305  1.00  0.00     0.000 C 
ENDROOT
BRANCH   1   2
ATOM      2  C   UNL     1      -3.695   7.305 -37.820  1.00  0.00     0.000 C 
BRANCH   2   3
ATOM      3  C   UNL     1      -4.889   6.796 -36.999  1.00  0.00     0.000 C 
BRANCH   3   4
ATOM      4  C   UNL     1      -5.152   7.644 -35.741  1.00  0.00    -0.000 C 
BRANCH   4   5
ATOM      5  C   UNL     1      -6.369   7.207 -34.901  1.00  0.00    -0.000 C 
BRANCH   5   6
ATOM      6  C   UNL     1      -6.079   6.982 -33.404  1.00  0.00    -0.000 C 
BRANCH   6   7
ATOM      7  C   UNL     1      -7.198   6.260 -32.624  1.00  0.00    -0.000 C 
BRANCH   7   8
ATOM      8  C   UNL     1      -8.225   5.501 -33.490  1.00  0.00    -0.000 C 
BRANCH   8   9
ATOM      9  C   UNL     1      -7.896   4.013 -33.720  1.00  0.00    -0.000 C 
BRANCH   9  10
ATOM     10  C   UNL     1      -7.848   3.623 -35.216  1.00  0.00    -0.000 C 
BRANCH  10  11
ATOM     11  C   UNL     1      -6.419   3.401 -35.737  1.00  0.00    -0.003 C 
ATOM     12  C   UNL     1      -6.341   3.448 -37.263  1.00  0.00     0.004 C 
ENDBRANCH  10  11
ENDBRANCH   9  10
ENDBRANCH   8   9
ENDBRANCH   7   8
ENDBRANCH   6   7
ENDBRANCH   5   6
ENDBRANCH   4   5
ENDBRANCH   3   4
ENDBRANCH   2   3
ENDBRANCH   1   2
BRANCH   1  13
ATOM     13  C   UNL     1      -1.474   7.764 -36.616  1.00  0.00     0.000 C 
BRANCH  13  14
ATOM     14  C   UNL     1      -0.948   7.359 -35.226  1.00  0.00     0.000 C 
BRANCH  14  15
ATOM     15  C   UNL     1      -1.646   8.107 -34.079  1.00  0.00     0.000 C 
BRANCH  15  16
ATOM     16  C   UNL     1      -2.394   9.364 -34.558  1.00  0.00     0.000 C 
BRANCH  16  17
ATOM     17  C   UNL     1      -2.490  10.480 -33.493  1.00  0.00     0.000 C 
BRANCH  17  18
ATOM     18  C   UNL     1      -3.907  10.654 -32.911  1.00  0.00     0.000 C 
BRANCH  18  19
ATOM     19  C   UNL     1      -5.004  10.936 -33.960  1.00  0.00     0.000 C 
BRANCH  19  20
ATOM     20  C   UNL     1      -6.425  11.132 -33.396  1.00  0.00     0.006 C 
BRANCH  20  21
ATOM     21  C   UNL     1      -6.657  10.450 -32.034  1.00  0.00     0.053 C 
BRANCH  21  22
ATOM     22  C   UNL     1      -6.734  11.444 -30.914  1.00  0.00     0.041 C 
ATOM     23  O   UNL     1      -5.813  11.518 -30.061  1.00  0.00    -0.550 OA
ATOM     24  O   UNL     1      -7.840  12.280 -30.810  1.00  0.00    -0.550 OA
ENDBRANCH  21  22
ENDBRANCH  20  21
ENDBRANCH  19  20
ENDBRANCH  18  19
ENDBRANCH  17  18
ENDBRANCH  16  17
ENDBRANCH  15  16
ENDBRANCH  14  15
ENDBRANCH  13  14
ENDBRANCH   1  13
TORSDOF 20
ENDMDL
MODEL 2
REMARK VINA RESULT:    -4.349     11.305     15.012
REMARK INTER + INTRA:         -12.207
REMARK INTER:                  -8.488
REMARK INTRA:                  -3.719
REMARK UNBOUND:                -2.774
REMARK SMILES CCCCCCCCCCCCCCCCCCCCCC(=O)[O-]
REMARK SMILES IDX 12 1 11 2 10 3 9 4 8 5 7 6 6 7 5 8 4 9 3 10 2 11 1 12 13 13
REMARK SMILES IDX 14 14 15 15 16 16 17 17 18 18 19 19 20 20 21 21 22 22 23 23
REMARK SMILES IDX 24 24
REMARK H PARENT
REMARK Flexibility Score: inf
ROOT
ATOM      1  C   UNL     1     -14.836  -4.244 -29.283  1.00  0.00     0.000 C 
ENDROOT
BRANCH   1   2
ATOM      2  C   UNL     1     -14.146  -5.448 -28.622  1.00  0.00     0.000 C 
BRANCH   2   3
ATOM      3  C   UNL     1     -12.934  -5.008 -27.788  1.00  0.00     0.000 C 
BRANCH   3   4
ATOM      4  C   UNL     1     -13.051  -3.557 -27.284  1.00  0.00    -0.000 C 
BRANCH   4   5
ATOM      5  C   UNL     1     -12.769  -3.363 -25.781  1.00  0.00    -0.000 C 
BRANCH   5   6
ATOM      6  C   UNL     1     -11.318  -3.651 -25.348  1.00  0.00    -0.000 C 
BRANCH   6   7
ATOM      7  C   UNL     1     -10.420  -2.404 -25.209  1.00  0.00    -0.000 C 
BRANCH   7   8
ATOM      8  C   UNL     1      -9.134  -2.416 -26.062  1.00  0.00    -0.000 C 
BRANCH   8   9
ATOM      9  C   UNL     1      -9.373  -2.423 -27.584  1.00  0.00    -0.000 C 
BRANCH   9  10
ATOM     10  C   UNL     1      -8.584  -3.529 -28.321  1.00  0.00    -0.000 C 
BRANCH  10  11
ATOM     11  C   UNL     1      -9.165  -4.935 -28.102  1.00  0.00    -0.003 C 
ATOM     12  C   UNL     1      -8.338  -5.761 -27.116  1.00  0.00     0.004 C 
ENDBRANCH  10  11
ENDBRANCH   9  10
ENDBRANCH   8   9
ENDBRANCH   7   8
ENDBRANCH   6   7
ENDBRANCH   5   6
ENDBRANCH   4   5
ENDBRANCH   3   4
ENDBRANCH   2   3
ENDBRANCH   1   2
BRANCH   1  13
ATOM     13  C   UNL     1     -14.945  -4.377 -30.815  1.00  0.00     0.000 C 
BRANCH  13  14
ATOM     14  C   UNL     1     -13.741  -3.829 -31.604  1.00  0.00     0.000 C 
BRANCH  14  15
ATOM     15  C   UNL     1     -13.068  -2.630 -30.916  1.00  0.00     0.000 C 
BRANCH  15  16
ATOM     16  C   UNL     1     -11.576  -2.874 -30.627  1.00  0.00     0.000 C 
BRANCH  16  17
ATOM     17  C   UNL     1     -11.089  -4.293 -30.999  1.00  0.00     0.000 C 
BRANCH  17  18
ATOM     18  C   UNL     1      -9.987  -4.302 -32.077  1.00  0.00     0.000 C 
BRANCH  18  19
ATOM     19  C   UNL     1      -9.434  -2.908 -32.443  1.00  0.00     0.000 C 
BRANCH  19  20
ATOM     20  C   UNL     1      -9.118  -2.692 -33.936  1.00  0.00     0.006 C 
BRANCH  20  21
ATOM     21  C   UNL     1      -9.920  -1.548 -34.586  1.00  0.00     0.053 C 
BRANCH  21  22
ATOM     22  C   UNL     1     -11.363  -1.575 -34.183  1.00  0.00     0.041 C 
ATOM     23  O   UNL     1     -11.860  -0.627 -33.523  1.00  0.00    -0.550 OA
ATOM     24  O   UNL     1     -12.155  -2.664 -34.528  1.00  0.00    -0.550 OA
ENDBRANCH  21  22
ENDBRANCH  20  21
ENDBRANCH  19  20
ENDBRANCH  18  19
ENDBRANCH  17  18
ENDBRANCH  16  17
ENDBRANCH  15  16
ENDBRANCH  14  15
ENDBRANCH  13  14
ENDBRANCH   1  13
TORSDOF 20
ENDMDL
MODEL 3
REMARK VINA RESULT:    -4.339     13.979     15.605
REMARK INTER + INTRA:         -12.185
REMARK INTER:                  -9.683
REMARK INTRA:                  -2.502
REMARK UNBOUND:                -2.774
REMARK SMILES CCCCCCCCCCCCCCCCCCCCCC(=O)[O-]
REMARK SMILES IDX 12 1 11 2 10 3 9 4 8 5 7 6 6 7 5 8 4 9 3 10 2 11 1 12 13 13
REMARK SMILES IDX 14 14 15 15 16 16 17 17 18 18 19 19 20 20 21 21 22 22 23 23
REMARK SMILES IDX 24 24
REMARK H PARENT
REMARK Flexibility Score: inf
ROOT
ATOM      1  C   UNL     1      -9.822   0.885 -23.258  1.00  0.00     0.000 C 
ENDROOT
BRANCH   1   2
ATOM      2  C   UNL     1     -10.260  -0.573 -23.463  1.00  0.00     0.000 C 
BRANCH   2   3
ATOM      3  C   UNL     1      -9.954  -1.428 -22.225  1.00  0.00     0.000 C 
BRANCH   3   4
ATOM      4  C   UNL     1     -11.226  -1.934 -21.519  1.00  0.00    -0.000 C 
BRANCH   4   5
ATOM      5  C   UNL     1     -12.545  -1.647 -22.266  1.00  0.00    -0.000 C 
BRANCH   5   6
ATOM      6  C   UNL     1     -13.144  -2.853 -23.015  1.00  0.00    -0.000 C 
BRANCH   6   7
ATOM      7  C   UNL     1     -12.900  -2.862 -24.538  1.00  0.00    -0.000 C 
BRANCH   7   8
ATOM      8  C   UNL     1     -11.948  -3.965 -25.049  1.00  0.00    -0.000 C 
BRANCH   8   9
ATOM      9  C   UNL     1     -11.856  -4.073 -26.583  1.00  0.00    -0.000 C 
BRANCH   9  10
ATOM     10  C   UNL     1     -12.968  -4.952 -27.201  1.00  0.00    -0.000 C 
BRANCH  10  11
ATOM     11  C   UNL     1     -13.835  -4.199 -28.223  1.00  0.00    -0.003 C 
ATOM     12  C   UNL     1     -13.192  -2.890 -28.681  1.00  0.00     0.004 C 
ENDBRANCH  10  11
ENDBRANCH   9  10
ENDBRANCH   8   9
ENDBRANCH   7   8
ENDBRANCH   6   7
ENDBRANCH   5   6
ENDBRANCH   4   5
ENDBRANCH   3   4
ENDBRANCH   2   3
ENDBRANCH   1   2
BRANCH   1  13
ATOM     13  C   UNL     1      -9.181   1.134 -21.878  1.00  0.00     0.000 C 
BRANCH  13  14
ATOM     14  C   UNL     1      -9.905   2.171 -21.000  1.00  0.00     0.000 C 
BRANCH  14  15
ATOM     15  C   UNL     1     -10.897   1.535 -20.014  1.00  0.00     0.000 C 
BRANCH  15  16
ATOM     16  C   UNL     1     -12.344   1.545 -20.539  1.00  0.00     0.000 C 
BRANCH  16  17
ATOM     17  C   UNL     1     -12.595   2.574 -21.665  1.00  0.00     0.000 C 
BRANCH  17  18
ATOM     18  C   UNL     1     -13.740   2.175 -22.618  1.00  0.00     0.000 C 
BRANCH  18  19
ATOM     19  C   UNL     1     -15.090   2.862 -22.324  1.00  0.00     0.000 C 
BRANCH  19  20
ATOM     20  C   UNL     1     -15.019   4.383 -22.078  1.00  0.00     0.006 C 
BRANCH  20  21
ATOM     21  C   UNL     1     -14.577   5.196 -23.309  1.00  0.00     0.053 C 
BRANCH  21  22
ATOM     22  C   UNL     1     -15.728   5.907 -23.955  1.00  0.00     0.041 C 
ATOM     23  O   UNL     1     -16.593   6.492 -23.254  1.00  0.00    -0.550 OA
ATOM     24  O   UNL     1     -15.850   5.905 -25.340  1.00  0.00    -0.550 OA
ENDBRANCH  21  22
ENDBRANCH  20  21
ENDBRANCH  19  20
ENDBRANCH  18  19
ENDBRANCH  17  18
ENDBRANCH  16  17
ENDBRANCH  15  16
ENDBRANCH  14  15
ENDBRANCH  13  14
ENDBRANCH   1  13
TORSDOF 20
ENDMDL
MODEL 4
REMARK VINA RESULT:    -4.313     13.561     16.764
REMARK INTER + INTRA:         -12.129
REMARK INTER:                  -9.460
REMARK INTRA:                  -2.669
REMARK UNBOUND:                -2.774
REMARK SMILES CCCCCCCCCCCCCCCCCCCCCC(=O)[O-]
REMARK SMILES IDX 12 1 11 2 10 3 9 4 8 5 7 6 6 7 5 8 4 9 3 10 2 11 1 12 13 13
REMARK SMILES IDX 14 14 15 15 16 16 17 17 18 18 19 19 20 20 21 21 22 22 23 23
REMARK SMILES IDX 24 24
REMARK H PARENT
REMARK Flexibility Score: inf
ROOT
ATOM      1  C   UNL     1     -10.209  -0.140 -23.078  1.00  0.00     0.000 C 
ENDROOT
BRANCH   1   2
ATOM      2  C   UNL     1      -9.436   1.123 -22.670  1.00  0.00     0.000 C 
BRANCH   2   3
ATOM      3  C   UNL     1      -8.979   1.049 -21.205  1.00  0.00     0.000 C 
BRANCH   3   4
ATOM      4  C   UNL     1      -9.410   2.279 -20.383  1.00  0.00    -0.000 C 
BRANCH   4   5
ATOM      5  C   UNL     1     -10.373   1.980 -19.216  1.00  0.00    -0.000 C 
BRANCH   5   6
ATOM      6  C   UNL     1     -11.629   1.174 -19.600  1.00  0.00    -0.000 C 
BRANCH   6   7
ATOM      7  C   UNL     1     -12.753   1.995 -20.265  1.00  0.00    -0.000 C 
BRANCH   7   8
ATOM      8  C   UNL     1     -12.796   1.931 -21.806  1.00  0.00    -0.000 C 
BRANCH   8   9
ATOM      9  C   UNL     1     -14.114   2.426 -22.433  1.00  0.00    -0.000 C 
BRANCH   9  10
ATOM     10  C   UNL     1     -15.023   3.174 -21.431  1.00  0.00    -0.000 C 
BRANCH  10  11
ATOM     11  C   UNL     1     -15.624   4.465 -22.007  1.00  0.00    -0.003 C 
ATOM     12  C   UNL     1     -14.951   4.890 -23.312  1.00  0.00     0.004 C 
ENDBRANCH  10  11
ENDBRANCH   9  10
ENDBRANCH   8   9
ENDBRANCH   7   8
ENDBRANCH   6   7
ENDBRANCH   5   6
ENDBRANCH   4   5
ENDBRANCH   3   4
ENDBRANCH   2   3
ENDBRANCH   1   2
BRANCH   1  13
ATOM     13  C   UNL     1      -9.976  -1.326 -22.122  1.00  0.00     0.000 C 
BRANCH  13  14
ATOM     14  C   UNL     1     -11.248  -1.893 -21.463  1.00  0.00     0.000 C 
BRANCH  14  15
ATOM     15  C   UNL     1     -12.506  -1.703 -22.326  1.00  0.00     0.000 C 
BRANCH  15  16
ATOM     16  C   UNL     1     -12.886  -2.973 -23.108  1.00  0.00     0.000 C 
BRANCH  16  17
ATOM     17  C   UNL     1     -12.895  -2.785 -24.642  1.00  0.00     0.000 C 
BRANCH  17  18
ATOM     18  C   UNL     1     -11.841  -3.642 -25.373  1.00  0.00     0.000 C 
BRANCH  18  19
ATOM     19  C   UNL     1     -10.404  -3.495 -24.830  1.00  0.00     0.000 C 
BRANCH  19  20
ATOM     20  C   UNL     1      -9.288  -3.541 -25.893  1.00  0.00     0.006 C 
BRANCH  20  21
ATOM     21  C   UNL     1      -9.769  -3.986 -27.287  1.00  0.00     0.053 C 
BRANCH  21  22
ATOM     22  C   UNL     1      -9.958  -2.823 -28.214  1.00  0.00     0.041 C 
ATOM     23  O   UNL     1     -11.042  -2.667 -28.832  1.00  0.00    -0.550 OA
ATOM     24  O   UNL     1      -8.920  -1.917 -28.403  1.00  0.00    -0.550 OA
ENDBRANCH  21  22
ENDBRANCH  20  21
ENDBRANCH  19  20
ENDBRANCH  18  19
ENDBRANCH  17  18
ENDBRANCH  16  17
ENDBRANCH  15  16
ENDBRANCH  14  15
ENDBRANCH  13  14
ENDBRANCH   1  13
TORSDOF 20
ENDMDL
MODEL 5
REMARK VINA RESULT:    -4.309      4.919      8.489
REMARK INTER + INTRA:         -12.120
REMARK INTER:                 -10.004
REMARK INTRA:                  -2.116
REMARK UNBOUND:                -2.774
REMARK SMILES CCCCCCCCCCCCCCCCCCCCCC(=O)[O-]
REMARK SMILES IDX 12 1 11 2 10 3 9 4 8 5 7 6 6 7 5 8 4 9 3 10 2 11 1 12 13 13
REMARK SMILES IDX 14 14 15 15 16 16 17 17 18 18 19 19 20 20 21 21 22 22 23 23
REMARK SMILES IDX 24 24
REMARK H PARENT
REMARK Flexibility Score: inf
ROOT
ATOM      1  C   UNL     1      -5.985   7.353 -35.403  1.00  0.00     0.000 C 
ENDROOT
BRANCH   1   2
ATOM      2  C   UNL     1      -4.776   7.677 -34.511  1.00  0.00     0.000 C 
BRANCH   2   3
ATOM      3  C   UNL     1      -4.404   9.165 -34.593  1.00  0.00     0.000 C 
BRANCH   3   4
ATOM      4  C   UNL     1      -2.883   9.396 -34.675  1.00  0.00    -0.000 C 
BRANCH   4   5
ATOM      5  C   UNL     1      -2.017   8.174 -34.309  1.00  0.00    -0.000 C 
BRANCH   5   6
ATOM      6  C   UNL     1      -1.146   7.626 -35.457  1.00  0.00    -0.000 C 
BRANCH   6   7
ATOM      7  C   UNL     1      -1.825   7.617 -36.843  1.00  0.00    -0.000 C 
BRANCH   7   8
ATOM      8  C   UNL     1      -2.354   6.245 -37.311  1.00  0.00    -0.000 C 
BRANCH   8   9
ATOM      9  C   UNL     1      -3.692   6.299 -38.073  1.00  0.00    -0.000 C 
BRANCH   9  10
ATOM     10  C   UNL     1      -4.037   4.976 -38.795  1.00  0.00    -0.000 C 
BRANCH  10  11
ATOM     11  C   UNL     1      -4.937   4.050 -37.961  1.00  0.00    -0.003 C 
ATOM     12  C   UNL     1      -4.192   2.815 -37.453  1.00  0.00     0.004 C 
ENDBRANCH  10  11
ENDBRANCH   9  10
ENDBRANCH   8   9
ENDBRANCH   7   8
ENDBRANCH   6   7
ENDBRANCH   5   6
ENDBRANCH   4   5
ENDBRANCH   3   4
ENDBRANCH   2   3
ENDBRANCH   1   2
BRANCH   1  13
ATOM     13  C   UNL     1      -6.499   5.911 -35.224  1.00  0.00     0.000 C 
BRANCH  13  14
ATOM     14  C   UNL     1      -7.193   5.628 -33.878  1.00  0.00     0.000 C 
BRANCH  14  15
ATOM     15  C   UNL     1      -7.885   4.256 -33.837  1.00  0.00     0.000 C 
BRANCH  15  16
ATOM     16  C   UNL     1      -7.385   3.306 -34.939  1.00  0.00     0.000 C 
BRANCH  16  17
ATOM     17  C   UNL     1      -8.470   2.916 -35.970  1.00  0.00     0.000 C 
BRANCH  17  18
ATOM     18  C   UNL     1      -9.822   2.546 -35.329  1.00  0.00     0.000 C 
BRANCH  18  19
ATOM     19  C   UNL     1     -10.705   1.613 -36.184  1.00  0.00     0.000 C 
BRANCH  19  20
ATOM     20  C   UNL     1     -10.852   0.172 -35.656  1.00  0.00     0.006 C 
BRANCH  20  21
ATOM     21  C   UNL     1     -11.678   0.062 -34.360  1.00  0.00     0.053 C 
BRANCH  21  22
ATOM     22  C   UNL     1     -11.564  -1.296 -33.735  1.00  0.00     0.041 C 
ATOM     23  O   UNL     1     -12.278  -1.608 -32.748  1.00  0.00    -0.550 OA
ATOM     24  O   UNL     1     -10.650  -2.213 -34.243  1.00  0.00    -0.550 OA
ENDBRANCH  21  22
ENDBRANCH  20  21
ENDBRANCH  19  20
ENDBRANCH  18  19
ENDBRANCH  17  18
ENDBRANCH  16  17
ENDBRANCH  15  16
ENDBRANCH  14  15
ENDBRANCH  13  14
ENDBRANCH   1  13
TORSDOF 20
ENDMDL
MODEL 6
REMARK VINA RESULT:    -4.264      2.010      3.823
REMARK INTER + INTRA:         -12.024
REMARK INTER:                  -9.238
REMARK INTRA:                  -2.786
REMARK UNBOUND:                -2.774
REMARK SMILES CCCCCCCCCCCCCCCCCCCCCC(=O)[O-]
REMARK SMILES IDX 12 1 11 2 10 3 9 4 8 5 7 6 6 7 5 8 4 9 3 10 2 11 1 12 13 13
REMARK SMILES IDX 14 14 15 15 16 16 17 17 18 18 19 19 20 20 21 21 22 22 23 23
REMARK SMILES IDX 24 24
REMARK H PARENT
REMARK Flexibility Score: inf
ROOT
ATOM      1  C   UNL     1      -3.771   3.874 -38.153  1.00  0.00     0.000 C 
ENDROOT
BRANCH   1   2
ATOM      2  C   UNL     1      -5.006   3.003 -37.874  1.00  0.00     0.000 C 
BRANCH   2   3
ATOM      3  C   UNL     1      -6.283   3.649 -38.431  1.00  0.00     0.000 C 
BRANCH   3   4
ATOM      4  C   UNL     1      -7.332   3.934 -37.340  1.00  0.00    -0.000 C 
BRANCH   4   5
ATOM      5  C   UNL     1      -6.852   3.697 -35.894  1.00  0.00    -0.000 C 
BRANCH   5   6
ATOM      6  C   UNL     1      -7.940   3.204 -34.920  1.00  0.00    -0.000 C 
BRANCH   6   7
ATOM      7  C   UNL     1      -7.995   3.951 -33.571  1.00  0.00    -0.000 C 
BRANCH   7   8
ATOM      8  C   UNL     1      -8.357   5.448 -33.658  1.00  0.00    -0.000 C 
BRANCH   8   9
ATOM      9  C   UNL     1      -7.553   6.359 -32.710  1.00  0.00    -0.000 C 
BRANCH   9  10
ATOM     10  C   UNL     1      -6.101   6.601 -33.182  1.00  0.00    -0.000 C 
BRANCH  10  11
ATOM     11  C   UNL     1      -5.984   7.723 -34.226  1.00  0.00    -0.003 C 
ATOM     12  C   UNL     1      -5.743   7.185 -35.637  1.00  0.00     0.004 C 
ENDBRANCH  10  11
ENDBRANCH   9  10
ENDBRANCH   8   9
ENDBRANCH   7   8
ENDBRANCH   6   7
ENDBRANCH   5   6
ENDBRANCH   4   5
ENDBRANCH   3   4
ENDBRANCH   2   3
ENDBRANCH   1   2
BRANCH   1  13
ATOM     13  C   UNL     1      -4.110   5.181 -38.897  1.00  0.00     0.000 C 
BRANCH  13  14
ATOM     14  C   UNL     1      -3.494   6.455 -38.290  1.00  0.00     0.000 C 
BRANCH  14  15
ATOM     15  C   UNL     1      -2.402   6.158 -37.249  1.00  0.00     0.000 C 
BRANCH  15  16
ATOM     16  C   UNL     1      -1.647   7.423 -36.804  1.00  0.00     0.000 C 
BRANCH  16  17
ATOM     17  C   UNL     1      -1.384   7.492 -35.281  1.00  0.00     0.000 C 
BRANCH  17  18
ATOM     18  C   UNL     1      -2.197   8.589 -34.566  1.00  0.00     0.000 C 
BRANCH  18  19
ATOM     19  C   UNL     1      -2.887   9.597 -35.510  1.00  0.00     0.000 C 
BRANCH  19  20
ATOM     20  C   UNL     1      -4.001  10.448 -34.869  1.00  0.00     0.006 C 
BRANCH  20  21
ATOM     21  C   UNL     1      -3.754  10.789 -33.386  1.00  0.00     0.053 C 
BRANCH  21  22
ATOM     22  C   UNL     1      -2.882  11.998 -33.227  1.00  0.00     0.041 C 
ATOM     23  O   UNL     1      -1.729  11.894 -32.734  1.00  0.00    -0.550 OA
ATOM     24  O   UNL     1      -3.357  13.246 -33.612  1.00  0.00    -0.550 OA
ENDBRANCH  21  22
ENDBRANCH  20  21
ENDBRANCH  19  20
ENDBRANCH  18  19
ENDBRANCH  17  18
ENDBRANCH  16  17
ENDBRANCH  15  16
ENDBRANCH  14  15
ENDBRANCH  13  14
ENDBRANCH   1  13
TORSDOF 20
ENDMDL
MODEL 7
REMARK VINA RESULT:    -4.261      2.139      3.993
REMARK INTER + INTRA:         -12.017
REMARK INTER:                  -8.706
REMARK INTRA:                  -3.311
REMARK UNBOUND:                -2.774
REMARK SMILES CCCCCCCCCCCCCCCCCCCCCC(=O)[O-]
REMARK SMILES IDX 12 1 11 2 10 3 9 4 8 5 7 6 6 7 5 8 4 9 3 10 2 11 1 12 13 13
REMARK SMILES IDX 14 14 15 15 16 16 17 17 18 18 19 19 20 20 21 21 22 22 23 23
REMARK SMILES IDX 24 24
REMARK H PARENT
REMARK Flexibility Score: inf
ROOT
ATOM      1  C   UNL     1      -3.933   7.838 -34.247  1.00  0.00     0.000 C 
ENDROOT
BRANCH   1   2
ATOM      2  C   UNL     1      -5.039   8.320 -35.200  1.00  0.00     0.000 C 
BRANCH   2   3
ATOM      3  C   UNL     1      -5.747   7.138 -35.877  1.00  0.00     0.000 C 
BRANCH   3   4
ATOM      4  C   UNL     1      -5.215   6.857 -37.295  1.00  0.00    -0.000 C 
BRANCH   4   5
ATOM      5  C   UNL     1      -5.084   5.364 -37.659  1.00  0.00    -0.000 C 
BRANCH   5   6
ATOM      6  C   UNL     1      -6.419   4.601 -37.767  1.00  0.00    -0.000 C 
BRANCH   6   7
ATOM      7  C   UNL     1      -6.472   3.267 -36.993  1.00  0.00    -0.000 C 
BRANCH   7   8
ATOM      8  C   UNL     1      -6.598   3.395 -35.461  1.00  0.00    -0.000 C 
BRANCH   8   9
ATOM      9  C   UNL     1      -7.808   4.222 -34.984  1.00  0.00    -0.000 C 
BRANCH   9  10
ATOM     10  C   UNL     1      -7.791   4.509 -33.465  1.00  0.00    -0.000 C 
BRANCH  10  11
ATOM     11  C   UNL     1      -8.046   5.986 -33.126  1.00  0.00    -0.003 C 
ATOM     12  C   UNL     1      -6.924   6.594 -32.285  1.00  0.00     0.004 C 
ENDBRANCH  10  11
ENDBRANCH   9  10
ENDBRANCH   8   9
ENDBRANCH   7   8
ENDBRANCH   6   7
ENDBRANCH   5   6
ENDBRANCH   4   5
ENDBRANCH   3   4
ENDBRANCH   2   3
ENDBRANCH   1   2
BRANCH   1  13
ATOM     13  C   UNL     1      -2.612   8.614 -34.414  1.00  0.00     0.000 C 
BRANCH  13  14
ATOM     14  C   UNL     1      -1.407   7.763 -34.859  1.00  0.00     0.000 C 
BRANCH  14  15
ATOM     15  C   UNL     1      -1.500   7.312 -36.326  1.00  0.00     0.000 C 
BRANCH  15  16
ATOM     16  C   UNL     1      -1.294   8.472 -37.317  1.00  0.00     0.000 C 
BRANCH  16  17
ATOM     17  C   UNL     1      -2.389   8.569 -38.404  1.00  0.00     0.000 C 
BRANCH  17  18
ATOM     18  C   UNL     1      -2.866  10.010 -38.669  1.00  0.00     0.000 C 
BRANCH  18  19
ATOM     19  C   UNL     1      -4.282  10.326 -38.143  1.00  0.00     0.000 C 
BRANCH  19  20
ATOM     20  C   UNL     1      -4.409  11.624 -37.320  1.00  0.00     0.006 C 
BRANCH  20  21
ATOM     21  C   UNL     1      -3.567  11.631 -36.029  1.00  0.00     0.053 C 
BRANCH  21  22
ATOM     22  C   UNL     1      -4.358  12.099 -34.846  1.00  0.00     0.041 C 
ATOM     23  O   UNL     1      -5.603  12.255 -34.930  1.00  0.00    -0.550 OA
ATOM     24  O   UNL     1      -3.707  12.379 -33.649  1.00  0.00    -0.550 OA
ENDBRANCH  21  22
ENDBRANCH  20  21
ENDBRANCH  19  20
ENDBRANCH  18  19
ENDBRANCH  17  18
ENDBRANCH  16  17
ENDBRANCH  15  16
ENDBRANCH  14  15
ENDBRANCH  13  14
ENDBRANCH   1  13
TORSDOF 20
ENDMDL
MODEL 8
REMARK VINA RESULT:    -4.234     13.519     15.876
REMARK INTER + INTRA:         -11.959
REMARK INTER:                  -9.102
REMARK INTRA:                  -2.856
REMARK UNBOUND:                -2.774
REMARK SMILES CCCCCCCCCCCCCCCCCCCCCC(=O)[O-]
REMARK SMILES IDX 12 1 11 2 10 3 9 4 8 5 7 6 6 7 5 8 4 9 3 10 2 11 1 12 13 13
REMARK SMILES IDX 14 14 15 15 16 16 17 17 18 18 19 19 20 20 21 21 22 22 23 23
REMARK SMILES IDX 24 24
REMARK H PARENT
REMARK Flexibility Score: inf
ROOT
ATOM      1  C   UNL     1      -9.402   1.001 -22.892  1.00  0.00     0.000 C 
ENDROOT
BRANCH   1   2
ATOM      2  C   UNL     1     -10.239  -0.264 -23.137  1.00  0.00     0.000 C 
BRANCH   2   3
ATOM      3  C   UNL     1      -9.914  -1.356 -22.106  1.00  0.00     0.000 C 
BRANCH   3   4
ATOM      4  C   UNL     1     -11.121  -2.261 -21.796  1.00  0.00    -0.000 C 
BRANCH   4   5
ATOM      5  C   UNL     1     -12.488  -1.703 -22.242  1.00  0.00    -0.000 C 
BRANCH   5   6
ATOM      6  C   UNL     1     -13.229  -2.556 -23.291  1.00  0.00    -0.000 C 
BRANCH   6   7
ATOM      7  C   UNL     1     -12.709  -4.001 -23.442  1.00  0.00    -0.000 C 
BRANCH   7   8
ATOM      8  C   UNL     1     -12.072  -4.334 -24.808  1.00  0.00    -0.000 C 
BRANCH   8   9
ATOM      9  C   UNL     1     -11.180  -3.221 -25.390  1.00  0.00    -0.000 C 
BRANCH   9  10
ATOM     10  C   UNL     1      -9.671  -3.458 -25.146  1.00  0.00    -0.000 C 
BRANCH  10  11
ATOM     11  C   UNL     1      -8.775  -2.752 -26.175  1.00  0.00    -0.003 C 
ATOM     12  C   UNL     1      -9.521  -2.417 -27.467  1.00  0.00     0.004 C 
ENDBRANCH  10  11
ENDBRANCH   9  10
ENDBRANCH   8   9
ENDBRANCH   7   8
ENDBRANCH   6   7
ENDBRANCH   5   6
ENDBRANCH   4   5
ENDBRANCH   3   4
ENDBRANCH   2   3
ENDBRANCH   1   2
BRANCH   1  13
ATOM     13  C   UNL     1      -9.087   1.238 -21.402  1.00  0.00     0.000 C 
BRANCH  13  14
ATOM     14  C   UNL     1     -10.083   2.151 -20.662  1.00  0.00     0.000 C 
BRANCH  14  15
ATOM     15  C   UNL     1     -11.189   1.368 -19.935  1.00  0.00     0.000 C 
BRANCH  15  16
ATOM     16  C   UNL     1     -12.602   1.789 -20.376  1.00  0.00     0.000 C 
BRANCH  16  17
ATOM     17  C   UNL     1     -12.727   2.074 -21.891  1.00  0.00     0.000 C 
BRANCH  17  18
ATOM     18  C   UNL     1     -14.132   2.546 -22.314  1.00  0.00     0.000 C 
BRANCH  18  19
ATOM     19  C   UNL     1     -14.879   3.377 -21.250  1.00  0.00     0.000 C 
BRANCH  19  20
ATOM     20  C   UNL     1     -14.732   4.906 -21.380  1.00  0.00     0.006 C 
BRANCH  20  21
ATOM     21  C   UNL     1     -15.360   5.488 -22.662  1.00  0.00     0.053 C 
BRANCH  21  22
ATOM     22  C   UNL     1     -16.586   6.299 -22.367  1.00  0.00     0.041 C 
ATOM     23  O   UNL     1     -17.111   7.011 -23.261  1.00  0.00    -0.550 OA
ATOM     24  O   UNL     1     -17.138   6.275 -21.091  1.00  0.00    -0.550 OA
ENDBRANCH  21  22
ENDBRANCH  20  21
ENDBRANCH  19  20
ENDBRANCH  18  19
ENDBRANCH  17  18
ENDBRANCH  16  17
ENDBRANCH  15  16
ENDBRANCH  14  15
ENDBRANCH  13  14
ENDBRANCH   1  13
TORSDOF 20
ENDMDL
MODEL 9
REMARK VINA RESULT:    -4.208     12.830     15.240
REMARK INTER + INTRA:         -11.901
REMARK INTER:                  -9.162
REMARK INTRA:                  -2.739
REMARK UNBOUND:                -2.774
REMARK SMILES CCCCCCCCCCCCCCCCCCCCCC(=O)[O-]
REMARK SMILES IDX 12 1 11 2 10 3 9 4 8 5 7 6 6 7 5 8 4 9 3 10 2 11 1 12 13 13
REMARK SMILES IDX 14 14 15 15 16 16 17 17 18 18 19 19 20 20 21 21 22 22 23 23
REMARK SMILES IDX 24 24
REMARK H PARENT
REMARK Flexibility Score: inf
ROOT
ATOM      1  C   UNL     1     -10.240  -2.806 -25.386  1.00  0.00     0.000 C 
ENDROOT
BRANCH   1   2
ATOM      2  C   UNL     1      -8.858  -2.731 -26.054  1.00  0.00     0.000 C 
BRANCH   2   3
ATOM      3  C   UNL     1      -8.849  -3.469 -27.401  1.00  0.00     0.000 C 
BRANCH   3   4
ATOM      4  C   UNL     1      -9.104  -2.532 -28.596  1.00  0.00    -0.000 C 
BRANCH   4   5
ATOM      5  C   UNL     1      -8.750  -3.123 -29.976  1.00  0.00    -0.000 C 
BRANCH   5   6
ATOM      6  C   UNL     1      -9.532  -4.395 -30.359  1.00  0.00    -0.000 C 
BRANCH   6   7
ATOM      7  C   UNL     1     -10.291  -4.316 -31.700  1.00  0.00    -0.000 C 
BRANCH   7   8
ATOM      8  C   UNL     1     -11.241  -3.109 -31.852  1.00  0.00    -0.000 C 
BRANCH   8   9
ATOM      9  C   UNL     1     -12.629  -3.301 -31.212  1.00  0.00    -0.000 C 
BRANCH   9  10
ATOM     10  C   UNL     1     -12.875  -2.374 -29.998  1.00  0.00    -0.000 C 
BRANCH  10  11
ATOM     11  C   UNL     1     -12.784  -3.107 -28.650  1.00  0.00    -0.003 C 
ATOM     12  C   UNL     1     -12.919  -4.623 -28.800  1.00  0.00     0.004 C 
ENDBRANCH  10  11
ENDBRANCH   9  10
ENDBRANCH   8   9
ENDBRANCH   7   8
ENDBRANCH   6   7
ENDBRANCH   5   6
ENDBRANCH   4   5
ENDBRANCH   3   4
ENDBRANCH   2   3
ENDBRANCH   1   2
BRANCH   1  13
ATOM     13  C   UNL     1     -10.952  -4.153 -25.621  1.00  0.00     0.000 C 
BRANCH  13  14
ATOM     14  C   UNL     1     -12.390  -4.234 -25.075  1.00  0.00     0.000 C 
BRANCH  14  15
ATOM     15  C   UNL     1     -12.856  -2.928 -24.412  1.00  0.00     0.000 C 
BRANCH  15  16
ATOM     16  C   UNL     1     -13.251  -3.120 -22.937  1.00  0.00     0.000 C 
BRANCH  16  17
ATOM     17  C   UNL     1     -12.186  -2.623 -21.932  1.00  0.00     0.000 C 
BRANCH  17  18
ATOM     18  C   UNL     1     -12.056  -1.088 -21.882  1.00  0.00     0.000 C 
BRANCH  18  19
ATOM     19  C   UNL     1     -10.714  -0.538 -22.408  1.00  0.00     0.000 C 
BRANCH  19  20
ATOM     20  C   UNL     1      -9.497  -0.775 -21.492  1.00  0.00     0.006 C 
BRANCH  20  21
ATOM     21  C   UNL     1      -9.486   0.105 -20.227  1.00  0.00     0.053 C 
BRANCH  21  22
ATOM     22  C   UNL     1      -9.004   1.495 -20.514  1.00  0.00     0.041 C 
ATOM     23  O   UNL     1      -8.397   1.752 -21.585  1.00  0.00    -0.550 OA
ATOM     24  O   UNL     1      -9.216   2.504 -19.582  1.00  0.00    -0.550 OA
ENDBRANCH  21  22
ENDBRANCH  20  21
ENDBRANCH  19  20
ENDBRANCH  18  19
ENDBRANCH  17  18
ENDBRANCH  16  17
ENDBRANCH  15  16
ENDBRANCH  14  15
ENDBRANCH  13  14
ENDBRANCH   1  13
TORSDOF 20
ENDMDL
