MODEL 1
REMARK VINA RESULT:    -3.395      0.000      0.000
REMARK INTER + INTRA:          -3.395
REMARK INTER:                  -3.395
REMARK INTRA:                   0.000
REMARK UNBOUND:                 0.000
REMARK SMILES CC1(C)O[C@]2(C)CC[C@H]1CC2
REMARK SMILES IDX 1 1 2 2 9 3 10 4 11 5 5 6 4 7 7 8 8 9 6 10 3 11
REMARK H PARENT
REMARK Flexibility Score: inf
ROOT
ATOM      1  C   UNL     1      -8.505  -6.696  11.999  1.00  0.00     0.042 C 
ATOM      2  C   UNL     1      -9.772  -6.098  12.650  1.00  0.00     0.066 C 
ATOM      3  C   UNL     1      -9.705  -6.227  14.220  1.00  0.00     0.021 C 
ATOM      4  C   UNL     1      -8.506  -5.392  14.730  1.00  0.00     0.009 C 
ATOM      5  C   UNL     1      -8.600  -3.960  14.148  1.00  0.00     0.035 C 
ATOM      6  C   UNL     1      -9.911  -3.811  13.324  1.00  0.00     0.066 C 
ATOM      7  O   UNL     1      -9.886  -4.731  12.232  1.00  0.00    -0.369 OA
ATOM      8  C   UNL     1     -11.125  -4.141  14.241  1.00  0.00     0.035 C 
ATOM      9  C   UNL     1     -10.971  -5.569  14.820  1.00  0.00     0.009 C 
ATOM     10  C   UNL     1     -10.034  -2.388  12.771  1.00  0.00     0.042 C 
ATOM     11  C   UNL     1     -10.985  -6.873  12.089  1.00  0.00     0.042 C 
ENDROOT
TORSDOF 0
ENDMDL
MODEL 2
REMARK VINA RESULT:    -3.260      1.382      3.033
REMARK INTER + INTRA:          -3.260
REMARK INTER:                  -3.260
REMARK INTRA:                   0.000
REMARK UNBOUND:                 0.000
REMARK SMILES CC1(C)O[C@]2(C)CC[C@H]1CC2
REMARK SMILES IDX 1 1 2 2 9 3 10 4 11 5 5 6 4 7 7 8 8 9 6 10 3 11
REMARK H PARENT
REMARK Flexibility Score: inf
ROOT
ATOM      1  C   UNL     1     -10.744  -2.645  13.315  1.00  0.00     0.042 C 
ATOM      2  C   UNL     1     -10.366  -4.134  13.160  1.00  0.00     0.066 C 
ATOM      3  C   UNL     1      -8.809  -4.332  13.309  1.00  0.00     0.021 C 
ATOM      4  C   UNL     1      -8.398  -3.915  14.742  1.00  0.00     0.009 C 
ATOM      5  C   UNL     1      -9.299  -4.650  15.764  1.00  0.00     0.035 C 
ATOM      6  C   UNL     1     -10.251  -5.629  15.018  1.00  0.00     0.066 C 
ATOM      7  O   UNL     1     -11.096  -4.884  14.141  1.00  0.00    -0.369 OA
ATOM      8  C   UNL     1      -9.397  -6.626  14.181  1.00  0.00     0.035 C 
ATOM      9  C   UNL     1      -8.494  -5.843  13.196  1.00  0.00     0.009 C 
ATOM     10  C   UNL     1     -11.125  -6.389  16.021  1.00  0.00     0.042 C 
ATOM     11  C   UNL     1     -10.842  -4.584  11.761  1.00  0.00     0.042 C 
ENDROOT
TORSDOF 0
ENDMDL
MODEL 3
REMARK VINA RESULT:    -3.165      1.428      3.507
REMARK INTER + INTRA:          -3.165
REMARK INTER:                  -3.165
REMARK INTRA:                   0.000
REMARK UNBOUND:                 0.000
REMARK SMILES CC1(C)O[C@]2(C)CC[C@H]1CC2
REMARK SMILES IDX 1 1 2 2 9 3 10 4 11 5 5 6 4 7 7 8 8 9 6 10 3 11
REMARK H PARENT
REMARK Flexibility Score: inf
ROOT
ATOM      1  C   UNL     1      -8.500  -4.154  13.888  1.00  0.00     0.042 C 
ATOM      2  C   UNL     1      -9.759  -5.036  13.742  1.00  0.00     0.066 C 
ATOM      3  C   UNL     1      -9.879  -5.598  12.273  1.00  0.00     0.021 C 
ATOM      4  C   UNL     1      -8.660  -6.512  11.999  1.00  0.00     0.009 C 
ATOM      5  C   UNL     1      -8.537  -7.552  13.138  1.00  0.00     0.035 C 
ATOM      6  C   UNL     1      -9.727  -7.393  14.128  1.00  0.00     0.066 C 
ATOM      7  O   UNL     1      -9.680  -6.090  14.712  1.00  0.00    -0.369 OA
ATOM      8  C   UNL     1     -11.062  -7.553  13.343  1.00  0.00     0.035 C 
ATOM      9  C   UNL     1     -11.125  -6.512  12.198  1.00  0.00     0.009 C 
ATOM     10  C   UNL     1      -9.636  -8.439  15.243  1.00  0.00     0.042 C 
ATOM     11  C   UNL     1     -10.979  -4.155  14.090  1.00  0.00     0.042 C 
ENDROOT
TORSDOF 0
ENDMDL
MODEL 4
REMARK VINA RESULT:    -3.156      1.118      3.369
REMARK INTER + INTRA:          -3.156
REMARK INTER:                  -3.156
REMARK INTRA:                   0.000
REMARK UNBOUND:                 0.000
REMARK SMILES CC1(C)O[C@]2(C)CC[C@H]1CC2
REMARK SMILES IDX 1 1 2 2 9 3 10 4 11 5 5 6 4 7 7 8 8 9 6 10 3 11
REMARK H PARENT
REMARK Flexibility Score: inf
ROOT
ATOM      1  C   UNL     1      -9.502  -2.951  13.499  1.00  0.00     0.042 C 
ATOM      2  C   UNL     1      -9.092  -4.332  14.053  1.00  0.00     0.066 C 
ATOM      3  C   UNL     1     -10.366  -5.206  14.371  1.00  0.00     0.021 C 
ATOM      4  C   UNL     1     -11.125  -5.463  13.046  1.00  0.00     0.009 C 
ATOM      5  C   UNL     1     -10.137  -6.023  11.994  1.00  0.00     0.035 C 
ATOM      6  C   UNL     1      -8.737  -6.227  12.642  1.00  0.00     0.066 C 
ATOM      7  O   UNL     1      -8.239  -4.965  13.088  1.00  0.00    -0.369 OA
ATOM      8  C   UNL     1      -8.879  -7.181  13.864  1.00  0.00     0.035 C 
ATOM      9  C   UNL     1      -9.898  -6.593  14.872  1.00  0.00     0.009 C 
ATOM     10  C   UNL     1      -7.758  -6.813  11.620  1.00  0.00     0.042 C 
ATOM     11  C   UNL     1      -8.266  -4.086  15.335  1.00  0.00     0.042 C 
ENDROOT
TORSDOF 0
ENDMDL
MODEL 5
REMARK VINA RESULT:    -3.156      9.161     10.600
REMARK INTER + INTRA:          -3.156
REMARK INTER:                  -3.156
REMARK INTRA:                   0.000
REMARK UNBOUND:                 0.000
REMARK SMILES CC1(C)O[C@]2(C)CC[C@H]1CC2
REMARK SMILES IDX 1 1 2 2 9 3 10 4 11 5 5 6 4 7 7 8 8 9 6 10 3 11
REMARK H PARENT
REMARK Flexibility Score: inf
ROOT
ATOM      1  C   UNL     1      -8.130  -4.217  21.951  1.00  0.00     0.042 C 
ATOM      2  C   UNL     1      -7.991  -5.503  22.794  1.00  0.00     0.066 C 
ATOM      3  C   UNL     1      -8.103  -5.175  24.333  1.00  0.00     0.021 C 
ATOM      4  C   UNL     1      -9.517  -4.610  24.611  1.00  0.00     0.009 C 
ATOM      5  C   UNL     1     -10.575  -5.574  24.022  1.00  0.00     0.035 C 
ATOM      6  C   UNL     1      -9.872  -6.830  23.430  1.00  0.00     0.066 C 
ATOM      7  O   UNL     1      -9.004  -6.426  22.370  1.00  0.00    -0.369 OA
ATOM      8  C   UNL     1      -9.030  -7.512  24.548  1.00  0.00     0.035 C 
ATOM      9  C   UNL     1      -8.008  -6.501  25.125  1.00  0.00     0.009 C 
ATOM     10  C   UNL     1     -10.910  -7.809  22.874  1.00  0.00     0.042 C 
ATOM     11  C   UNL     1      -6.613  -6.120  22.467  1.00  0.00     0.042 C 
ENDROOT
TORSDOF 0
ENDMDL
MODEL 6
REMARK VINA RESULT:    -2.941      9.012     10.488
REMARK INTER + INTRA:          -2.941
REMARK INTER:                  -2.941
REMARK INTRA:                   0.000
REMARK UNBOUND:                 0.000
REMARK SMILES CC1(C)O[C@]2(C)CC[C@H]1CC2
REMARK SMILES IDX 1 1 2 2 9 3 10 4 11 5 5 6 4 7 7 8 8 9 6 10 3 11
REMARK H PARENT
REMARK Flexibility Score: inf
ROOT
ATOM      1  C   UNL     1      -8.139  -3.608  24.480  1.00  0.00     0.042 C 
ATOM      2  C   UNL     1      -8.356  -4.532  23.263  1.00  0.00     0.066 C 
ATOM      3  C   UNL     1      -7.247  -5.652  23.208  1.00  0.00     0.021 C 
ATOM      4  C   UNL     1      -7.384  -6.537  24.470  1.00  0.00     0.009 C 
ATOM      5  C   UNL     1      -8.851  -7.012  24.603  1.00  0.00     0.035 C 
ATOM      6  C   UNL     1      -9.676  -6.519  23.379  1.00  0.00     0.066 C 
ATOM      7  O   UNL     1      -9.674  -5.091  23.356  1.00  0.00    -0.369 OA
ATOM      8  C   UNL     1      -9.014  -7.052  22.075  1.00  0.00     0.035 C 
ATOM      9  C   UNL     1      -7.542  -6.576  22.003  1.00  0.00     0.009 C 
ATOM     10  C   UNL     1     -11.123  -7.011  23.481  1.00  0.00     0.042 C 
ATOM     11  C   UNL     1      -8.300  -3.646  21.998  1.00  0.00     0.042 C 
ENDROOT
TORSDOF 0
ENDMDL
MODEL 7
REMARK VINA RESULT:    -2.770      9.017     10.208
REMARK INTER + INTRA:          -2.770
REMARK INTER:                  -2.770
REMARK INTRA:                   0.000
REMARK UNBOUND:                 0.000
REMARK SMILES CC1(C)O[C@]2(C)CC[C@H]1CC2
REMARK SMILES IDX 1 1 2 2 9 3 10 4 11 5 5 6 4 7 7 8 8 9 6 10 3 11
REMARK H PARENT
REMARK Flexibility Score: inf
ROOT
ATOM      1  C   UNL     1      -9.642  -7.638  22.775  1.00  0.00     0.042 C 
ATOM      2  C   UNL     1      -9.493  -6.279  23.493  1.00  0.00     0.066 C 
ATOM      3  C   UNL     1      -8.258  -6.300  24.474  1.00  0.00     0.021 C 
ATOM      4  C   UNL     1      -6.972  -6.506  23.637  1.00  0.00     0.009 C 
ATOM      5  C   UNL     1      -6.938  -5.466  22.491  1.00  0.00     0.035 C 
ATOM      6  C   UNL     1      -8.156  -4.505  22.616  1.00  0.00     0.066 C 
ATOM      7  O   UNL     1      -9.363  -5.258  22.493  1.00  0.00    -0.369 OA
ATOM      8  C   UNL     1      -8.120  -3.823  24.015  1.00  0.00     0.035 C 
ATOM      9  C   UNL     1      -8.126  -4.902  25.125  1.00  0.00     0.009 C 
ATOM     10  C   UNL     1      -8.116  -3.449  21.508  1.00  0.00     0.042 C 
ATOM     11  C   UNL     1     -10.803  -6.024  24.270  1.00  0.00     0.042 C 
ENDROOT
TORSDOF 0
ENDMDL
MODEL 8
REMARK VINA RESULT:    -2.727      1.585      3.421
REMARK INTER + INTRA:          -2.727
REMARK INTER:                  -2.727
REMARK INTRA:                   0.000
REMARK UNBOUND:                 0.000
REMARK SMILES CC1(C)O[C@]2(C)CC[C@H]1CC2
REMARK SMILES IDX 1 1 2 2 9 3 10 4 11 5 5 6 4 7 7 8 8 9 6 10 3 11
REMARK H PARENT
REMARK Flexibility Score: inf
ROOT
ATOM      1  C   UNL     1      -8.145  -6.246  12.048  1.00  0.00     0.042 C 
ATOM      2  C   UNL     1      -8.912  -5.767  13.299  1.00  0.00     0.066 C 
ATOM      3  C   UNL     1     -10.390  -5.363  12.926  1.00  0.00     0.021 C 
ATOM      4  C   UNL     1     -11.125  -6.623  12.407  1.00  0.00     0.009 C 
ATOM      5  C   UNL     1     -10.950  -7.772  13.430  1.00  0.00     0.035 C 
ATOM      6  C   UNL     1     -10.176  -7.254  14.676  1.00  0.00     0.066 C 
ATOM      7  O   UNL     1      -8.876  -6.819  14.274  1.00  0.00    -0.369 OA
ATOM      8  C   UNL     1     -10.950  -6.050  15.288  1.00  0.00     0.035 C 
ATOM      9  C   UNL     1     -11.125  -4.942  14.221  1.00  0.00     0.009 C 
ATOM     10  C   UNL     1     -10.025  -8.372  15.712  1.00  0.00     0.042 C 
ATOM     11  C   UNL     1      -8.144  -4.555  13.873  1.00  0.00     0.042 C 
ENDROOT
TORSDOF 0
ENDMDL
