MODEL 1
REMARK VINA RESULT:    -6.076      0.000      0.000
REMARK INTER + INTRA:          -7.375
REMARK INTER:                  -7.141
REMARK INTRA:                  -0.233
REMARK UNBOUND:                -0.233
REMARK SMILES O=c1c(O)c(-c2ccc(O)cc2)oc2cc(O)cc(O)c12
REMARK SMILES IDX 5 1 3 2 2 3 1 4 21 5 19 6 18 7 16 8 15 9 14 10 13 11 6 12
REMARK SMILES IDX 7 13 8 14 9 15 12 16 11 17 10 18 4 20 20 22 17 24
REMARK H PARENT 10 19 4 21 20 23 17 25
REMARK Flexibility Score: inf
ROOT
ATOM      1  C   UNL     1      47.307  28.937  15.242  1.00  0.00     0.180 A 
ATOM      2  C   UNL     1      45.924  29.142  15.094  1.00  0.00     0.208 A 
ATOM      3  C   UNL     1      45.036  28.373  15.863  1.00  0.00     0.238 A 
ATOM      4  O   UNL     1      43.799  28.523  15.687  1.00  0.00    -0.285 OA
ATOM      5  C   UNL     1      45.541  27.420  16.781  1.00  0.00     0.111 A 
ATOM      6  C   UNL     1      44.734  26.615  17.639  1.00  0.00     0.134 A 
ATOM      7  C   UNL     1      45.334  25.614  18.413  1.00  0.00     0.093 A 
ATOM      8  C   UNL     1      46.716  25.433  18.409  1.00  0.00     0.123 A 
ATOM      9  C   UNL     1      47.521  26.255  17.618  1.00  0.00     0.094 A 
ATOM     10  C   UNL     1      46.948  27.238  16.808  1.00  0.00     0.146 A 
ATOM     11  O   UNL     1      47.747  27.991  16.063  1.00  0.00    -0.452 OA
ENDROOT
BRANCH   1  12
ATOM     12  C   UNL     1      48.305  29.726  14.485  1.00  0.00     0.021 A 
ATOM     13  C   UNL     1      48.560  31.057  14.855  1.00  0.00     0.016 A 
ATOM     14  C   UNL     1      49.483  31.828  14.140  1.00  0.00     0.047 A 
ATOM     15  C   UNL     1      50.149  31.283  13.038  1.00  0.00     0.115 A 
ATOM     16  C   UNL     1      48.964  29.191  13.362  1.00  0.00     0.016 A 
ATOM     17  C   UNL     1      49.885  29.963  12.649  1.00  0.00     0.047 A 
BRANCH  15  18
ATOM     18  O   UNL     1      51.066  32.061  12.335  1.00  0.00    -0.508 OA
ATOM     19  H   UNL     1      50.763  32.771  11.676  1.00  0.00     0.293 HD
ENDBRANCH  15  18
ENDBRANCH   1  12
BRANCH   2  20
ATOM     20  O   UNL     1      45.446  30.071  14.167  1.00  0.00    -0.502 OA
ATOM     21  H   UNL     1      45.662  30.015  13.179  1.00  0.00     0.293 HD
ENDBRANCH   2  20
BRANCH   6  22
ATOM     22  O   UNL     1      43.352  26.776  17.789  1.00  0.00    -0.507 OA
ATOM     23  H   UNL     1      42.806  26.383  18.539  1.00  0.00     0.293 HD
ENDBRANCH   6  22
BRANCH   8  24
ATOM     24  O   UNL     1      47.281  24.437  19.203  1.00  0.00    -0.508 OA
ATOM     25  H   UNL     1      47.364  23.481  18.876  1.00  0.00     0.293 HD
ENDBRANCH   8  24
TORSDOF 5
ENDMDL
MODEL 2
REMARK VINA RESULT:    -5.868      2.936      6.136
REMARK INTER + INTRA:          -7.130
REMARK INTER:                  -6.830
REMARK INTRA:                  -0.300
REMARK UNBOUND:                -0.233
REMARK SMILES O=c1c(O)c(-c2ccc(O)cc2)oc2cc(O)cc(O)c12
REMARK SMILES IDX 5 1 3 2 2 3 1 4 21 5 19 6 18 7 16 8 15 9 14 10 13 11 6 12
REMARK SMILES IDX 7 13 8 14 9 15 12 16 11 17 10 18 4 20 20 22 17 24
REMARK H PARENT 10 19 4 21 20 23 17 25
REMARK Flexibility Score: inf
ROOT
ATOM      1  C   UNL     1      47.200  26.043  18.617  1.00  0.00     0.180 A 
ATOM      2  C   UNL     1      45.951  25.657  19.133  1.00  0.00     0.208 A 
ATOM      3  C   UNL     1      44.782  26.141  18.524  1.00  0.00     0.238 A 
ATOM      4  O   UNL     1      43.668  25.835  19.023  1.00  0.00    -0.285 OA
ATOM      5  C   UNL     1      44.877  26.994  17.397  1.00  0.00     0.111 A 
ATOM      6  C   UNL     1      43.759  27.511  16.677  1.00  0.00     0.134 A 
ATOM      7  C   UNL     1      43.968  28.450  15.659  1.00  0.00     0.093 A 
ATOM      8  C   UNL     1      45.255  28.839  15.292  1.00  0.00     0.123 A 
ATOM      9  C   UNL     1      46.359  28.294  15.949  1.00  0.00     0.094 A 
ATOM     10  C   UNL     1      46.181  27.383  16.994  1.00  0.00     0.146 A 
ATOM     11  O   UNL     1      47.255  26.896  17.601  1.00  0.00    -0.452 OA
ENDROOT
BRANCH   1  12
ATOM     12  C   UNL     1      48.474  25.554  19.189  1.00  0.00     0.021 A 
ATOM     13  C   UNL     1      49.136  26.323  20.162  1.00  0.00     0.016 A 
ATOM     14  C   UNL     1      50.352  25.891  20.701  1.00  0.00     0.047 A 
ATOM     15  C   UNL     1      50.930  24.696  20.262  1.00  0.00     0.115 A 
ATOM     16  C   UNL     1      49.072  24.363  18.738  1.00  0.00     0.016 A 
ATOM     17  C   UNL     1      50.289  23.934  19.277  1.00  0.00     0.047 A 
BRANCH  15  18
ATOM     18  O   UNL     1      52.142  24.277  20.807  1.00  0.00    -0.508 OA
ATOM     19  H   UNL     1      52.384  24.472  21.772  1.00  0.00     0.293 HD
ENDBRANCH  15  18
ENDBRANCH   1  12
BRANCH   2  20
ATOM     20  O   UNL     1      45.880  24.832  20.259  1.00  0.00    -0.502 OA
ATOM     21  H   UNL     1      46.689  24.618  20.829  1.00  0.00     0.293 HD
ENDBRANCH   2  20
BRANCH   6  22
ATOM     22  O   UNL     1      42.435  27.118  16.902  1.00  0.00    -0.507 OA
ATOM     23  H   UNL     1      42.090  26.732  17.766  1.00  0.00     0.293 HD
ENDBRANCH   6  22
BRANCH   8  24
ATOM     24  O   UNL     1      45.426  29.764  14.264  1.00  0.00    -0.508 OA
ATOM     25  H   UNL     1      44.723  30.466  14.060  1.00  0.00     0.293 HD
ENDBRANCH   8  24
TORSDOF 5
ENDMDL
MODEL 3
REMARK VINA RESULT:    -5.819      1.962      7.096
REMARK INTER + INTRA:          -7.073
REMARK INTER:                  -6.929
REMARK INTRA:                  -0.144
REMARK UNBOUND:                -0.233
REMARK SMILES O=c1c(O)c(-c2ccc(O)cc2)oc2cc(O)cc(O)c12
REMARK SMILES IDX 5 1 3 2 2 3 1 4 21 5 19 6 18 7 16 8 15 9 14 10 13 11 6 12
REMARK SMILES IDX 7 13 8 14 9 15 12 16 11 17 10 18 4 20 20 22 17 24
REMARK H PARENT 10 19 4 21 20 23 17 25
REMARK Flexibility Score: inf
ROOT
ATOM      1  C   UNL     1      47.956  28.561  14.418  1.00  0.00     0.180 A 
ATOM      2  C   UNL     1      48.631  27.536  13.732  1.00  0.00     0.208 A 
ATOM      3  C   UNL     1      49.820  27.840  13.051  1.00  0.00     0.238 A 
ATOM      4  O   UNL     1      50.391  26.930  12.396  1.00  0.00    -0.285 OA
ATOM      5  C   UNL     1      50.328  29.162  13.077  1.00  0.00     0.111 A 
ATOM      6  C   UNL     1      51.545  29.574  12.455  1.00  0.00     0.134 A 
ATOM      7  C   UNL     1      51.884  30.932  12.434  1.00  0.00     0.093 A 
ATOM      8  C   UNL     1      51.085  31.883  13.066  1.00  0.00     0.123 A 
ATOM      9  C   UNL     1      49.923  31.484  13.728  1.00  0.00     0.094 A 
ATOM     10  C   UNL     1      49.540  30.141  13.736  1.00  0.00     0.146 A 
ATOM     11  O   UNL     1      48.423  29.803  14.367  1.00  0.00    -0.452 OA
ENDROOT
BRANCH   1  12
ATOM     12  C   UNL     1      46.710  28.313  15.178  1.00  0.00     0.021 A 
ATOM     13  C   UNL     1      45.534  28.993  14.820  1.00  0.00     0.016 A 
ATOM     14  C   UNL     1      44.351  28.790  15.539  1.00  0.00     0.047 A 
ATOM     15  C   UNL     1      44.334  27.921  16.633  1.00  0.00     0.115 A 
ATOM     16  C   UNL     1      46.691  27.455  16.293  1.00  0.00     0.016 A 
ATOM     17  C   UNL     1      45.507  27.255  17.011  1.00  0.00     0.047 A 
BRANCH  15  18
ATOM     18  O   UNL     1      43.149  27.728  17.340  1.00  0.00    -0.508 OA
ATOM     19  H   UNL     1      43.151  27.374  18.291  1.00  0.00     0.293 HD
ENDBRANCH  15  18
ENDBRANCH   1  12
BRANCH   2  20
ATOM     20  O   UNL     1      48.100  26.244  13.702  1.00  0.00    -0.502 OA
ATOM     21  H   UNL     1      47.104  26.064  13.690  1.00  0.00     0.293 HD
ENDBRANCH   2  20
BRANCH   6  22
ATOM     22  O   UNL     1      52.463  28.692  11.875  1.00  0.00    -0.507 OA
ATOM     23  H   UNL     1      52.215  27.867  11.352  1.00  0.00     0.293 HD
ENDBRANCH   6  22
BRANCH   8  24
ATOM     24  O   UNL     1      51.461  33.225  13.038  1.00  0.00    -0.508 OA
ATOM     25  H   UNL     1      51.148  33.848  12.301  1.00  0.00     0.293 HD
ENDBRANCH   8  24
TORSDOF 5
ENDMDL
MODEL 4
REMARK VINA RESULT:    -5.722      2.293      6.612
REMARK INTER + INTRA:          -6.959
REMARK INTER:                  -6.822
REMARK INTRA:                  -0.137
REMARK UNBOUND:                -0.233
REMARK SMILES O=c1c(O)c(-c2ccc(O)cc2)oc2cc(O)cc(O)c12
REMARK SMILES IDX 5 1 3 2 2 3 1 4 21 5 19 6 18 7 16 8 15 9 14 10 13 11 6 12
REMARK SMILES IDX 7 13 8 14 9 15 12 16 11 17 10 18 4 20 20 22 17 24
REMARK H PARENT 10 19 4 21 20 23 17 25
REMARK Flexibility Score: inf
ROOT
ATOM      1  C   UNL     1      47.986  28.783  14.913  1.00  0.00     0.180 A 
ATOM      2  C   UNL     1      48.359  28.541  13.579  1.00  0.00     0.208 A 
ATOM      3  C   UNL     1      49.655  28.882  13.161  1.00  0.00     0.238 A 
ATOM      4  O   UNL     1      49.965  28.712  11.954  1.00  0.00    -0.285 OA
ATOM      5  C   UNL     1      50.567  29.447  14.085  1.00  0.00     0.111 A 
ATOM      6  C   UNL     1      51.918  29.793  13.781  1.00  0.00     0.134 A 
ATOM      7  C   UNL     1      52.689  30.466  14.736  1.00  0.00     0.093 A 
ATOM      8  C   UNL     1      52.182  30.746  16.005  1.00  0.00     0.123 A 
ATOM      9  C   UNL     1      50.883  30.357  16.333  1.00  0.00     0.094 A 
ATOM     10  C   UNL     1      50.076  29.718  15.389  1.00  0.00     0.146 A 
ATOM     11  O   UNL     1      48.842  29.375  15.737  1.00  0.00    -0.452 OA
ENDROOT
BRANCH   1  12
ATOM     12  C   UNL     1      46.647  28.428  15.433  1.00  0.00     0.021 A 
ATOM     13  C   UNL     1      45.516  29.120  14.965  1.00  0.00     0.016 A 
ATOM     14  C   UNL     1      44.244  28.816  15.460  1.00  0.00     0.047 A 
ATOM     15  C   UNL     1      44.087  27.831  16.439  1.00  0.00     0.115 A 
ATOM     16  C   UNL     1      46.483  27.451  16.433  1.00  0.00     0.016 A 
ATOM     17  C   UNL     1      45.210  27.150  16.927  1.00  0.00     0.047 A 
BRANCH  15  18
ATOM     18  O   UNL     1      42.814  27.538  16.922  1.00  0.00    -0.508 OA
ATOM     19  H   UNL     1      42.346  26.669  16.690  1.00  0.00     0.293 HD
ENDBRANCH  15  18
ENDBRANCH   1  12
BRANCH   2  20
ATOM     20  O   UNL     1      47.436  28.003  12.678  1.00  0.00    -0.502 OA
ATOM     21  H   UNL     1      46.788  28.577  12.154  1.00  0.00     0.293 HD
ENDBRANCH   2  20
BRANCH   6  22
ATOM     22  O   UNL     1      52.553  29.477  12.576  1.00  0.00    -0.507 OA
ATOM     23  H   UNL     1      52.076  29.286  11.708  1.00  0.00     0.293 HD
ENDBRANCH   6  22
BRANCH   8  24
ATOM     24  O   UNL     1      52.985  31.403  16.936  1.00  0.00    -0.508 OA
ATOM     25  H   UNL     1      52.713  31.477  17.910  1.00  0.00     0.293 HD
ENDBRANCH   8  24
TORSDOF 5
ENDMDL
MODEL 5
REMARK VINA RESULT:    -5.716      1.277      3.110
REMARK INTER + INTRA:          -6.952
REMARK INTER:                  -6.767
REMARK INTRA:                  -0.185
REMARK UNBOUND:                -0.233
REMARK SMILES O=c1c(O)c(-c2ccc(O)cc2)oc2cc(O)cc(O)c12
REMARK SMILES IDX 5 1 3 2 2 3 1 4 21 5 19 6 18 7 16 8 15 9 14 10 13 11 6 12
REMARK SMILES IDX 7 13 8 14 9 15 12 16 11 17 10 18 4 20 20 22 17 24
REMARK H PARENT 10 19 4 21 20 23 17 25
REMARK Flexibility Score: inf
ROOT
ATOM      1  C   UNL     1      48.134  28.952  15.274  1.00  0.00     0.180 A 
ATOM      2  C   UNL     1      48.832  27.946  15.964  1.00  0.00     0.208 A 
ATOM      3  C   UNL     1      48.106  26.974  16.670  1.00  0.00     0.238 A 
ATOM      4  O   UNL     1      48.737  26.108  17.329  1.00  0.00    -0.285 OA
ATOM      5  C   UNL     1      46.690  27.011  16.665  1.00  0.00     0.111 A 
ATOM      6  C   UNL     1      45.853  26.054  17.312  1.00  0.00     0.134 A 
ATOM      7  C   UNL     1      44.468  26.262  17.351  1.00  0.00     0.093 A 
ATOM      8  C   UNL     1      43.886  27.355  16.712  1.00  0.00     0.123 A 
ATOM      9  C   UNL     1      44.690  28.265  16.024  1.00  0.00     0.094 A 
ATOM     10  C   UNL     1      46.078  28.104  15.998  1.00  0.00     0.146 A 
ATOM     11  O   UNL     1      46.808  28.998  15.344  1.00  0.00    -0.452 OA
ENDROOT
BRANCH   1  12
ATOM     12  C   UNL     1      48.828  29.996  14.488  1.00  0.00     0.021 A 
ATOM     13  C   UNL     1      49.491  29.642  13.300  1.00  0.00     0.016 A 
ATOM     14  C   UNL     1      50.173  30.609  12.554  1.00  0.00     0.047 A 
ATOM     15  C   UNL     1      50.215  31.935  12.992  1.00  0.00     0.115 A 
ATOM     16  C   UNL     1      48.892  31.330  14.934  1.00  0.00     0.016 A 
ATOM     17  C   UNL     1      49.576  32.293  14.186  1.00  0.00     0.047 A 
BRANCH  15  18
ATOM     18  O   UNL     1      50.898  32.887  12.239  1.00  0.00    -0.508 OA
ATOM     19  H   UNL     1      51.294  33.717  12.667  1.00  0.00     0.293 HD
ENDBRANCH  15  18
ENDBRANCH   1  12
BRANCH   2  20
ATOM     20  O   UNL     1      50.229  27.941  15.974  1.00  0.00    -0.502 OA
ATOM     21  H   UNL     1      50.769  27.103  16.149  1.00  0.00     0.293 HD
ENDBRANCH   2  20
BRANCH   6  22
ATOM     22  O   UNL     1      46.324  24.877  17.903  1.00  0.00    -0.507 OA
ATOM     23  H   UNL     1      47.242  24.487  17.754  1.00  0.00     0.293 HD
ENDBRANCH   6  22
BRANCH   8  24
ATOM     24  O   UNL     1      42.504  27.522  16.758  1.00  0.00    -0.508 OA
ATOM     25  H   UNL     1      42.047  28.296  16.287  1.00  0.00     0.293 HD
ENDBRANCH   8  24
TORSDOF 5
ENDMDL
MODEL 6
REMARK VINA RESULT:    -5.647      2.055      6.609
REMARK INTER + INTRA:          -6.871
REMARK INTER:                  -6.777
REMARK INTRA:                  -0.094
REMARK UNBOUND:                -0.233
REMARK SMILES O=c1c(O)c(-c2ccc(O)cc2)oc2cc(O)cc(O)c12
REMARK SMILES IDX 5 1 3 2 2 3 1 4 21 5 19 6 18 7 16 8 15 9 14 10 13 11 6 12
REMARK SMILES IDX 7 13 8 14 9 15 12 16 11 17 10 18 4 20 20 22 17 24
REMARK H PARENT 10 19 4 21 20 23 17 25
REMARK Flexibility Score: inf
ROOT
ATOM      1  C   UNL     1      47.656  28.867  14.714  1.00  0.00     0.180 A 
ATOM      2  C   UNL     1      48.086  30.202  14.625  1.00  0.00     0.208 A 
ATOM      3  C   UNL     1      49.273  30.493  13.935  1.00  0.00     0.238 A 
ATOM      4  O   UNL     1      49.680  31.683  13.905  1.00  0.00    -0.285 OA
ATOM      5  C   UNL     1      50.009  29.446  13.328  1.00  0.00     0.111 A 
ATOM      6  C   UNL     1      51.204  29.629  12.570  1.00  0.00     0.134 A 
ATOM      7  C   UNL     1      51.919  28.510  12.127  1.00  0.00     0.093 A 
ATOM      8  C   UNL     1      51.449  27.218  12.357  1.00  0.00     0.123 A 
ATOM      9  C   UNL     1      50.250  27.028  13.045  1.00  0.00     0.094 A 
ATOM     10  C   UNL     1      49.533  28.124  13.532  1.00  0.00     0.146 A 
ATOM     11  O   UNL     1      48.403  27.901  14.191  1.00  0.00    -0.452 OA
ENDROOT
BRANCH   1  12
ATOM     12  C   UNL     1      46.404  28.486  15.403  1.00  0.00     0.021 A 
ATOM     13  C   UNL     1      46.444  27.536  16.438  1.00  0.00     0.016 A 
ATOM     14  C   UNL     1      45.269  27.145  17.088  1.00  0.00     0.047 A 
ATOM     15  C   UNL     1      44.039  27.685  16.701  1.00  0.00     0.115 A 
ATOM     16  C   UNL     1      45.159  29.010  15.006  1.00  0.00     0.016 A 
ATOM     17  C   UNL     1      43.986  28.616  15.656  1.00  0.00     0.047 A 
BRANCH  15  18
ATOM     18  O   UNL     1      42.876  27.287  17.358  1.00  0.00    -0.508 OA
ATOM     19  H   UNL     1      42.911  26.761  18.224  1.00  0.00     0.293 HD
ENDBRANCH  15  18
ENDBRANCH   1  12
BRANCH   2  20
ATOM     20  O   UNL     1      47.356  31.218  15.250  1.00  0.00    -0.502 OA
ATOM     21  H   UNL     1      47.581  31.559  16.176  1.00  0.00     0.293 HD
ENDBRANCH   2  20
BRANCH   6  22
ATOM     22  O   UNL     1      51.712  30.879  12.204  1.00  0.00    -0.507 OA
ATOM     23  H   UNL     1      51.617  31.293  11.290  1.00  0.00     0.293 HD
ENDBRANCH   6  22
BRANCH   8  24
ATOM     24  O   UNL     1      52.178  26.127  11.887  1.00  0.00    -0.508 OA
ATOM     25  H   UNL     1      52.481  26.068  10.921  1.00  0.00     0.293 HD
ENDBRANCH   8  24
TORSDOF 5
ENDMDL
MODEL 7
REMARK VINA RESULT:    -5.560      2.323      6.806
REMARK INTER + INTRA:          -6.768
REMARK INTER:                  -6.468
REMARK INTRA:                  -0.300
REMARK UNBOUND:                -0.233
REMARK SMILES O=c1c(O)c(-c2ccc(O)cc2)oc2cc(O)cc(O)c12
REMARK SMILES IDX 5 1 3 2 2 3 1 4 21 5 19 6 18 7 16 8 15 9 14 10 13 11 6 12
REMARK SMILES IDX 7 13 8 14 9 15 12 16 11 17 10 18 4 20 20 22 17 24
REMARK H PARENT 10 19 4 21 20 23 17 25
REMARK Flexibility Score: inf
ROOT
ATOM      1  C   UNL     1      46.426  25.754  18.536  1.00  0.00     0.180 A 
ATOM      2  C   UNL     1      45.054  26.023  18.674  1.00  0.00     0.208 A 
ATOM      3  C   UNL     1      44.437  26.902  17.771  1.00  0.00     0.238 A 
ATOM      4  O   UNL     1      43.220  27.180  17.932  1.00  0.00    -0.285 OA
ATOM      5  C   UNL     1      45.197  27.491  16.731  1.00  0.00     0.111 A 
ATOM      6  C   UNL     1      44.667  28.365  15.735  1.00  0.00     0.134 A 
ATOM      7  C   UNL     1      45.535  28.991  14.833  1.00  0.00     0.093 A 
ATOM      8  C   UNL     1      46.904  28.726  14.849  1.00  0.00     0.123 A 
ATOM      9  C   UNL     1      47.425  27.826  15.779  1.00  0.00     0.094 A 
ATOM     10  C   UNL     1      46.589  27.214  16.716  1.00  0.00     0.146 A 
ATOM     11  O   UNL     1      47.125  26.373  17.592  1.00  0.00    -0.452 OA
ENDROOT
BRANCH   1  12
ATOM     12  C   UNL     1      47.141  24.820  19.435  1.00  0.00     0.021 A 
ATOM     13  C   UNL     1      47.811  25.321  20.563  1.00  0.00     0.016 A 
ATOM     14  C   UNL     1      48.511  24.459  21.414  1.00  0.00     0.047 A 
ATOM     15  C   UNL     1      48.564  23.089  21.137  1.00  0.00     0.115 A 
ATOM     16  C   UNL     1      47.215  23.443  19.152  1.00  0.00     0.016 A 
ATOM     17  C   UNL     1      47.917  22.584  20.003  1.00  0.00     0.047 A 
BRANCH  15  18
ATOM     18  O   UNL     1      49.264  22.242  21.993  1.00  0.00    -0.508 OA
ATOM     19  H   UNL     1      49.921  21.555  21.638  1.00  0.00     0.293 HD
ENDBRANCH  15  18
ENDBRANCH   1  12
BRANCH   2  20
ATOM     20  O   UNL     1      44.327  25.448  19.721  1.00  0.00    -0.502 OA
ATOM     21  H   UNL     1      44.274  25.867  20.641  1.00  0.00     0.293 HD
ENDBRANCH   2  20
BRANCH   6  22
ATOM     22  O   UNL     1      43.303  28.627  15.572  1.00  0.00    -0.507 OA
ATOM     23  H   UNL     1      42.635  27.980  15.182  1.00  0.00     0.293 HD
ENDBRANCH   6  22
BRANCH   8  24
ATOM     24  O   UNL     1      47.736  29.356  13.925  1.00  0.00    -0.508 OA
ATOM     25  H   UNL     1      48.032  28.890  13.075  1.00  0.00     0.293 HD
ENDBRANCH   8  24
TORSDOF 5
ENDMDL
MODEL 8
REMARK VINA RESULT:    -5.529      1.675      1.811
REMARK INTER + INTRA:          -6.732
REMARK INTER:                  -6.445
REMARK INTRA:                  -0.287
REMARK UNBOUND:                -0.233
REMARK SMILES O=c1c(O)c(-c2ccc(O)cc2)oc2cc(O)cc(O)c12
REMARK SMILES IDX 5 1 3 2 2 3 1 4 21 5 19 6 18 7 16 8 15 9 14 10 13 11 6 12
REMARK SMILES IDX 7 13 8 14 9 15 12 16 11 17 10 18 4 20 20 22 17 24
REMARK H PARENT 10 19 4 21 20 23 17 25
REMARK Flexibility Score: inf
ROOT
ATOM      1  C   UNL     1      47.803  27.946  15.322  1.00  0.00     0.180 A 
ATOM      2  C   UNL     1      46.632  28.587  14.882  1.00  0.00     0.208 A 
ATOM      3  C   UNL     1      45.440  28.395  15.598  1.00  0.00     0.238 A 
ATOM      4  O   UNL     1      44.384  28.928  15.169  1.00  0.00    -0.285 OA
ATOM      5  C   UNL     1      45.436  27.577  16.754  1.00  0.00     0.111 A 
ATOM      6  C   UNL     1      44.295  27.345  17.579  1.00  0.00     0.134 A 
ATOM      7  C   UNL     1      44.375  26.415  18.622  1.00  0.00     0.093 A 
ATOM      8  C   UNL     1      45.570  25.758  18.911  1.00  0.00     0.123 A 
ATOM      9  C   UNL     1      46.709  26.023  18.149  1.00  0.00     0.094 A 
ATOM     10  C   UNL     1      46.651  26.918  17.079  1.00  0.00     0.146 A 
ATOM     11  O   UNL     1      47.752  27.133  16.371  1.00  0.00    -0.452 OA
ENDROOT
BRANCH   1  12
ATOM     12  C   UNL     1      49.102  28.120  14.635  1.00  0.00     0.021 A 
ATOM     13  C   UNL     1      49.958  29.164  15.025  1.00  0.00     0.016 A 
ATOM     14  C   UNL     1      51.180  29.360  14.374  1.00  0.00     0.047 A 
ATOM     15  C   UNL     1      51.554  28.527  13.315  1.00  0.00     0.115 A 
ATOM     16  C   UNL     1      49.476  27.298  13.555  1.00  0.00     0.016 A 
ATOM     17  C   UNL     1      50.698  27.497  12.905  1.00  0.00     0.047 A 
BRANCH  15  18
ATOM     18  O   UNL     1      52.775  28.734  12.676  1.00  0.00    -0.508 OA
ATOM     19  H   UNL     1      53.266  27.976  12.215  1.00  0.00     0.293 HD
ENDBRANCH  15  18
ENDBRANCH   1  12
BRANCH   2  20
ATOM     20  O   UNL     1      46.652  29.372  13.726  1.00  0.00    -0.502 OA
ATOM     21  H   UNL     1      46.035  30.164  13.595  1.00  0.00     0.293 HD
ENDBRANCH   2  20
BRANCH   6  22
ATOM     22  O   UNL     1      43.077  28.018  17.434  1.00  0.00    -0.507 OA
ATOM     23  H   UNL     1      42.188  27.569  17.280  1.00  0.00     0.293 HD
ENDBRANCH   6  22
BRANCH   8  24
ATOM     24  O   UNL     1      45.617  24.850  19.968  1.00  0.00    -0.508 OA
ATOM     25  H   UNL     1      44.809  24.680  20.557  1.00  0.00     0.293 HD
ENDBRANCH   8  24
TORSDOF 5
ENDMDL
MODEL 9
REMARK VINA RESULT:    -5.402      2.154      7.129
REMARK INTER + INTRA:          -6.583
REMARK INTER:                  -6.311
REMARK INTRA:                  -0.272
REMARK UNBOUND:                -0.233
REMARK SMILES O=c1c(O)c(-c2ccc(O)cc2)oc2cc(O)cc(O)c12
REMARK SMILES IDX 5 1 3 2 2 3 1 4 21 5 19 6 18 7 16 8 15 9 14 10 13 11 6 12
REMARK SMILES IDX 7 13 8 14 9 15 12 16 11 17 10 18 4 20 20 22 17 24
REMARK H PARENT 10 19 4 21 20 23 17 25
REMARK Flexibility Score: inf
ROOT
ATOM      1  C   UNL     1      44.884  26.106  17.506  1.00  0.00     0.180 A 
ATOM      2  C   UNL     1      44.053  27.076  16.920  1.00  0.00     0.208 A 
ATOM      3  C   UNL     1      44.625  28.053  16.090  1.00  0.00     0.238 A 
ATOM      4  O   UNL     1      43.884  28.950  15.611  1.00  0.00    -0.285 OA
ATOM      5  C   UNL     1      46.020  28.038  15.843  1.00  0.00     0.111 A 
ATOM      6  C   UNL     1      46.701  28.954  14.988  1.00  0.00     0.134 A 
ATOM      7  C   UNL     1      48.099  28.927  14.920  1.00  0.00     0.093 A 
ATOM      8  C   UNL     1      48.836  27.977  15.626  1.00  0.00     0.123 A 
ATOM      9  C   UNL     1      48.176  27.037  16.419  1.00  0.00     0.094 A 
ATOM     10  C   UNL     1      46.785  27.062  16.535  1.00  0.00     0.146 A 
ATOM     11  O   UNL     1      46.196  26.159  17.308  1.00  0.00    -0.452 OA
ENDROOT
BRANCH   1  12
ATOM     12  C   UNL     1      44.350  25.031  18.372  1.00  0.00     0.021 A 
ATOM     13  C   UNL     1      44.135  25.284  19.737  1.00  0.00     0.016 A 
ATOM     14  C   UNL     1      43.653  24.276  20.579  1.00  0.00     0.047 A 
ATOM     15  C   UNL     1      43.395  22.999  20.070  1.00  0.00     0.115 A 
ATOM     16  C   UNL     1      44.107  23.738  17.871  1.00  0.00     0.016 A 
ATOM     17  C   UNL     1      43.626  22.732  18.714  1.00  0.00     0.047 A 
BRANCH  15  18
ATOM     18  O   UNL     1      42.914  22.005  20.919  1.00  0.00    -0.508 OA
ATOM     19  H   UNL     1      41.939  21.971  21.195  1.00  0.00     0.293 HD
ENDBRANCH  15  18
ENDBRANCH   1  12
BRANCH   2  20
ATOM     20  O   UNL     1      42.682  27.086  17.194  1.00  0.00    -0.502 OA
ATOM     21  H   UNL     1      42.111  26.251  17.146  1.00  0.00     0.293 HD
ENDBRANCH   2  20
BRANCH   6  22
ATOM     22  O   UNL     1      46.055  29.884  14.167  1.00  0.00    -0.507 OA
ATOM     23  H   UNL     1      45.302  30.486  14.463  1.00  0.00     0.293 HD
ENDBRANCH   6  22
BRANCH   8  24
ATOM     24  O   UNL     1      50.226  27.969  15.523  1.00  0.00    -0.508 OA
ATOM     25  H   UNL     1      50.745  27.104  15.421  1.00  0.00     0.293 HD
ENDBRANCH   8  24
TORSDOF 5
ENDMDL
