MODEL 1
REMARK VINA RESULT:    -7.108      0.000      0.000
REMARK INTER + INTRA:          -8.615
REMARK INTER:                  -8.355
REMARK INTRA:                  -0.260
REMARK UNBOUND:                -0.260
REMARK SMILES O=c1cc(-c2ccc(O)c(O)c2)oc2cc(O)cc(O)c12
REMARK SMILES IDX 4 1 3 2 2 3 1 4 21 5 19 6 18 7 16 8 15 9 14 10 13 11 5 12
REMARK SMILES IDX 6 13 7 14 8 15 12 16 10 17 9 18 11 20 20 22 17 24
REMARK H PARENT 9 19 11 21 20 23 17 25
REMARK Flexibility Score: inf
ROOT
ATOM      1  C   UNL     1     -13.717 -10.070 -16.366  1.00  0.00     0.138 A 
ATOM      2  C   UNL     1     -13.294  -8.904 -17.025  1.00  0.00     0.100 A 
ATOM      3  C   UNL     1     -11.962  -8.786 -17.426  1.00  0.00     0.197 A 
ATOM      4  O   UNL     1     -11.592  -7.736 -18.018  1.00  0.00    -0.289 OA
ATOM      5  C   UNL     1     -11.062  -9.840 -17.169  1.00  0.00     0.107 A 
ATOM      6  C   UNL     1      -9.698  -9.802 -17.541  1.00  0.00     0.134 A 
ATOM      7  C   UNL     1      -8.869 -10.896 -17.253  1.00  0.00     0.093 A 
ATOM      8  C   UNL     1      -9.376 -12.023 -16.603  1.00  0.00     0.123 A 
ATOM      9  C   UNL     1     -10.724 -12.067 -16.233  1.00  0.00     0.094 A 
ATOM     10  C   UNL     1     -11.567 -10.987 -16.510  1.00  0.00     0.146 A 
ATOM     11  O   UNL     1     -12.844 -11.051 -16.148  1.00  0.00    -0.456 OA
ENDROOT
BRANCH   1  12
ATOM     12  C   UNL     1     -15.121 -10.250 -15.918  1.00  0.00     0.021 A 
ATOM     13  C   UNL     1     -16.028 -11.051 -16.633  1.00  0.00     0.016 A 
ATOM     14  C   UNL     1     -17.346 -11.193 -16.192  1.00  0.00     0.051 A 
ATOM     15  C   UNL     1     -17.789 -10.537 -15.040  1.00  0.00     0.157 A 
ATOM     16  C   UNL     1     -15.571  -9.581 -14.767  1.00  0.00     0.062 A 
ATOM     17  C   UNL     1     -16.890  -9.719 -14.317  1.00  0.00     0.158 A 
BRANCH  15  18
ATOM     18  O   UNL     1     -19.118 -10.724 -14.652  1.00  0.00    -0.504 OA
ATOM     19  H   UNL     1     -19.888 -10.814 -15.298  1.00  0.00     0.293 HD
ENDBRANCH  15  18
BRANCH  17  20
ATOM     20  O   UNL     1     -17.260  -9.030 -13.161  1.00  0.00    -0.504 OA
ATOM     21  H   UNL     1     -17.437  -9.474 -12.271  1.00  0.00     0.293 HD
ENDBRANCH  17  20
ENDBRANCH   1  12
BRANCH   6  22
ATOM     22  O   UNL     1      -9.163  -8.689 -18.191  1.00  0.00    -0.507 OA
ATOM     23  H   UNL     1      -9.419  -7.744 -17.928  1.00  0.00     0.293 HD
ENDBRANCH   6  22
BRANCH   8  24
ATOM     24  O   UNL     1      -8.530 -13.097 -16.330  1.00  0.00    -0.508 OA
ATOM     25  H   UNL     1      -7.524 -12.979 -16.282  1.00  0.00     0.293 HD
ENDBRANCH   8  24
TORSDOF 5
ENDMDL
MODEL 2
REMARK VINA RESULT:    -7.107     13.192     16.163
REMARK INTER + INTRA:          -8.614
REMARK INTER:                  -8.343
REMARK INTRA:                  -0.271
REMARK UNBOUND:                -0.260
REMARK SMILES O=c1cc(-c2ccc(O)c(O)c2)oc2cc(O)cc(O)c12
REMARK SMILES IDX 4 1 3 2 2 3 1 4 21 5 19 6 18 7 16 8 15 9 14 10 13 11 5 12
REMARK SMILES IDX 6 13 7 14 8 15 12 16 10 17 9 18 11 20 20 22 17 24
REMARK H PARENT 9 19 11 21 20 23 17 25
REMARK Flexibility Score: inf
ROOT
ATOM      1  C   UNL     1      -7.918 -19.880  -6.462  1.00  0.00     0.138 A 
ATOM      2  C   UNL     1      -8.215 -18.795  -7.303  1.00  0.00     0.100 A 
ATOM      3  C   UNL     1      -9.541 -18.386  -7.455  1.00  0.00     0.197 A 
ATOM      4  O   UNL     1      -9.798 -17.411  -8.213  1.00  0.00    -0.289 OA
ATOM      5  C   UNL     1     -10.562 -19.064  -6.759  1.00  0.00     0.107 A 
ATOM      6  C   UNL     1     -11.930 -18.715  -6.857  1.00  0.00     0.134 A 
ATOM      7  C   UNL     1     -12.885 -19.436  -6.126  1.00  0.00     0.093 A 
ATOM      8  C   UNL     1     -12.500 -20.496  -5.302  1.00  0.00     0.123 A 
ATOM      9  C   UNL     1     -11.149 -20.846  -5.201  1.00  0.00     0.094 A 
ATOM     10  C   UNL     1     -10.182 -20.140  -5.921  1.00  0.00     0.146 A 
ATOM     11  O   UNL     1      -8.905 -20.492  -5.810  1.00  0.00    -0.456 OA
ENDROOT
BRANCH   1  12
ATOM     12  C   UNL     1      -6.527 -20.358  -6.262  1.00  0.00     0.021 A 
ATOM     13  C   UNL     1      -6.180 -21.711  -6.420  1.00  0.00     0.016 A 
ATOM     14  C   UNL     1      -4.864 -22.132  -6.215  1.00  0.00     0.051 A 
ATOM     15  C   UNL     1      -3.871 -21.221  -5.842  1.00  0.00     0.157 A 
ATOM     16  C   UNL     1      -5.531 -19.445  -5.873  1.00  0.00     0.062 A 
ATOM     17  C   UNL     1      -4.209 -19.858  -5.667  1.00  0.00     0.158 A 
BRANCH  15  18
ATOM     18  O   UNL     1      -2.575 -21.707  -5.655  1.00  0.00    -0.504 OA
ATOM     19  H   UNL     1      -1.821 -21.167  -5.256  1.00  0.00     0.293 HD
ENDBRANCH  15  18
BRANCH  17  20
ATOM     20  O   UNL     1      -3.275 -18.892  -5.291  1.00  0.00    -0.504 OA
ATOM     21  H   UNL     1      -3.428 -18.212  -4.560  1.00  0.00     0.293 HD
ENDBRANCH  17  20
ENDBRANCH   1  12
BRANCH   6  22
ATOM     22  O   UNL     1     -12.344 -17.661  -7.672  1.00  0.00    -0.507 OA
ATOM     23  H   UNL     1     -11.759 -16.848  -7.830  1.00  0.00     0.293 HD
ENDBRANCH   6  22
BRANCH   8  24
ATOM     24  O   UNL     1     -13.470 -21.196  -4.586  1.00  0.00    -0.508 OA
ATOM     25  H   UNL     1     -13.711 -20.943  -3.634  1.00  0.00     0.293 HD
ENDBRANCH   8  24
TORSDOF 5
ENDMDL
MODEL 3
REMARK VINA RESULT:    -6.845      1.988      3.131
REMARK INTER + INTRA:          -8.306
REMARK INTER:                  -8.041
REMARK INTRA:                  -0.265
REMARK UNBOUND:                -0.260
REMARK SMILES O=c1cc(-c2ccc(O)c(O)c2)oc2cc(O)cc(O)c12
REMARK SMILES IDX 4 1 3 2 2 3 1 4 21 5 19 6 18 7 16 8 15 9 14 10 13 11 5 12
REMARK SMILES IDX 6 13 7 14 8 15 12 16 10 17 9 18 11 20 20 22 17 24
REMARK H PARENT 9 19 11 21 20 23 17 25
REMARK Flexibility Score: inf
ROOT
ATOM      1  C   UNL     1     -11.465 -10.888 -15.893  1.00  0.00     0.138 A 
ATOM      2  C   UNL     1     -10.655 -10.250 -16.847  1.00  0.00     0.100 A 
ATOM      3  C   UNL     1      -9.508 -10.894 -17.317  1.00  0.00     0.197 A 
ATOM      4  O   UNL     1      -8.788 -10.312 -18.174  1.00  0.00    -0.289 OA
ATOM      5  C   UNL     1      -9.182 -12.175 -16.831  1.00  0.00     0.107 A 
ATOM      6  C   UNL     1      -8.040 -12.896 -17.252  1.00  0.00     0.134 A 
ATOM      7  C   UNL     1      -7.789 -14.171 -16.723  1.00  0.00     0.093 A 
ATOM      8  C   UNL     1      -8.655 -14.736 -15.785  1.00  0.00     0.123 A 
ATOM      9  C   UNL     1      -9.786 -14.029 -15.365  1.00  0.00     0.094 A 
ATOM     10  C   UNL     1     -10.054 -12.757 -15.878  1.00  0.00     0.146 A 
ATOM     11  O   UNL     1     -11.134 -12.104 -15.463  1.00  0.00    -0.456 OA
ENDROOT
BRANCH   1  12
ATOM     12  C   UNL     1     -12.695 -10.252 -15.360  1.00  0.00     0.021 A 
ATOM     13  C   UNL     1     -13.977 -10.708 -15.715  1.00  0.00     0.016 A 
ATOM     14  C   UNL     1     -15.117 -10.082 -15.205  1.00  0.00     0.051 A 
ATOM     15  C   UNL     1     -15.006  -8.989 -14.341  1.00  0.00     0.157 A 
ATOM     16  C   UNL     1     -12.586  -9.145 -14.501  1.00  0.00     0.062 A 
ATOM     17  C   UNL     1     -13.723  -8.513 -13.984  1.00  0.00     0.158 A 
BRANCH  15  18
ATOM     18  O   UNL     1     -16.186  -8.411 -13.864  1.00  0.00    -0.504 OA
ATOM     19  H   UNL     1     -17.061  -8.906 -13.773  1.00  0.00     0.293 HD
ENDBRANCH  15  18
BRANCH  17  20
ATOM     20  O   UNL     1     -13.533  -7.425 -13.131  1.00  0.00    -0.504 OA
ATOM     21  H   UNL     1     -12.627  -7.080 -12.847  1.00  0.00     0.293 HD
ENDBRANCH  17  20
ENDBRANCH   1  12
BRANCH   6  22
ATOM     22  O   UNL     1      -7.157 -12.356 -18.188  1.00  0.00    -0.507 OA
ATOM     23  H   UNL     1      -7.319 -11.450 -18.612  1.00  0.00     0.293 HD
ENDBRANCH   6  22
BRANCH   8  24
ATOM     24  O   UNL     1      -8.382 -16.005 -15.276  1.00  0.00    -0.508 OA
ATOM     25  H   UNL     1      -7.567 -16.530 -15.573  1.00  0.00     0.293 HD
ENDBRANCH   8  24
TORSDOF 5
ENDMDL
MODEL 4
REMARK VINA RESULT:    -6.777      1.902      6.879
REMARK INTER + INTRA:          -8.226
REMARK INTER:                  -7.944
REMARK INTRA:                  -0.282
REMARK UNBOUND:                -0.260
REMARK SMILES O=c1cc(-c2ccc(O)c(O)c2)oc2cc(O)cc(O)c12
REMARK SMILES IDX 4 1 3 2 2 3 1 4 21 5 19 6 18 7 16 8 15 9 14 10 13 11 5 12
REMARK SMILES IDX 6 13 7 14 8 15 12 16 10 17 9 18 11 20 20 22 17 24
REMARK H PARENT 9 19 11 21 20 23 17 25
REMARK Flexibility Score: inf
ROOT
ATOM      1  C   UNL     1     -12.304 -10.454 -15.563  1.00  0.00     0.138 A 
ATOM      2  C   UNL     1     -12.285  -9.097 -15.197  1.00  0.00     0.100 A 
ATOM      3  C   UNL     1     -13.460  -8.491 -14.749  1.00  0.00     0.197 A 
ATOM      4  O   UNL     1     -13.433  -7.273 -14.422  1.00  0.00    -0.289 OA
ATOM      5  C   UNL     1     -14.645  -9.248 -14.664  1.00  0.00     0.107 A 
ATOM      6  C   UNL     1     -15.877  -8.711 -14.221  1.00  0.00     0.134 A 
ATOM      7  C   UNL     1     -17.011  -9.534 -14.161  1.00  0.00     0.093 A 
ATOM      8  C   UNL     1     -16.938 -10.878 -14.533  1.00  0.00     0.123 A 
ATOM      9  C   UNL     1     -15.722 -11.414 -14.971  1.00  0.00     0.094 A 
ATOM     10  C   UNL     1     -14.581 -10.611 -15.040  1.00  0.00     0.146 A 
ATOM     11  O   UNL     1     -13.438 -11.143 -15.461  1.00  0.00    -0.456 OA
ENDROOT
BRANCH   1  12
ATOM     12  C   UNL     1     -11.085 -11.151 -16.045  1.00  0.00     0.021 A 
ATOM     13  C   UNL     1     -10.375 -10.703 -17.173  1.00  0.00     0.016 A 
ATOM     14  C   UNL     1      -9.237 -11.386 -17.610  1.00  0.00     0.051 A 
ATOM     15  C   UNL     1      -8.788 -12.528 -16.941  1.00  0.00     0.157 A 
ATOM     16  C   UNL     1     -10.640 -12.307 -15.382  1.00  0.00     0.062 A 
ATOM     17  C   UNL     1      -9.500 -12.997 -15.812  1.00  0.00     0.158 A 
BRANCH  15  18
ATOM     18  O   UNL     1      -7.643 -13.163 -17.428  1.00  0.00    -0.504 OA
ATOM     19  H   UNL     1      -7.605 -14.136 -17.693  1.00  0.00     0.293 HD
ENDBRANCH  15  18
BRANCH  17  20
ATOM     20  O   UNL     1      -9.116 -14.132 -15.096  1.00  0.00    -0.504 OA
ATOM     21  H   UNL     1      -9.325 -14.281 -14.119  1.00  0.00     0.293 HD
ENDBRANCH  17  20
ENDBRANCH   1  12
BRANCH   6  22
ATOM     22  O   UNL     1     -15.981  -7.372 -13.843  1.00  0.00    -0.507 OA
ATOM     23  H   UNL     1     -16.736  -6.782 -14.176  1.00  0.00     0.293 HD
ENDBRANCH   6  22
BRANCH   8  24
ATOM     24  O   UNL     1     -18.080 -11.673 -14.463  1.00  0.00    -0.508 OA
ATOM     25  H   UNL     1     -18.808 -11.495 -13.780  1.00  0.00     0.293 HD
ENDBRANCH   8  24
TORSDOF 5
ENDMDL
MODEL 5
REMARK VINA RESULT:    -6.777      1.482      2.118
REMARK INTER + INTRA:          -8.226
REMARK INTER:                  -7.924
REMARK INTRA:                  -0.301
REMARK UNBOUND:                -0.260
REMARK SMILES O=c1cc(-c2ccc(O)c(O)c2)oc2cc(O)cc(O)c12
REMARK SMILES IDX 4 1 3 2 2 3 1 4 21 5 19 6 18 7 16 8 15 9 14 10 13 11 5 12
REMARK SMILES IDX 6 13 7 14 8 15 12 16 10 17 9 18 11 20 20 22 17 24
REMARK H PARENT 9 19 11 21 20 23 17 25
REMARK Flexibility Score: inf
ROOT
ATOM      1  C   UNL     1     -12.382 -10.092 -16.036  1.00  0.00     0.138 A 
ATOM      2  C   UNL     1     -11.834  -9.322 -17.075  1.00  0.00     0.100 A 
ATOM      3  C   UNL     1     -10.637  -9.725 -17.671  1.00  0.00     0.197 A 
ATOM      4  O   UNL     1     -10.153  -9.027 -18.603  1.00  0.00    -0.289 OA
ATOM      5  C   UNL     1      -9.999 -10.900 -17.226  1.00  0.00     0.107 A 
ATOM      6  C   UNL     1      -8.785 -11.378 -17.773  1.00  0.00     0.134 A 
ATOM      7  C   UNL     1      -8.218 -12.561 -17.277  1.00  0.00     0.093 A 
ATOM      8  C   UNL     1      -8.838 -13.272 -16.248  1.00  0.00     0.123 A 
ATOM      9  C   UNL     1     -10.038 -12.804 -15.702  1.00  0.00     0.094 A 
ATOM     10  C   UNL     1     -10.620 -11.628 -16.181  1.00  0.00     0.146 A 
ATOM     11  O   UNL     1     -11.760 -11.202 -15.646  1.00  0.00    -0.456 OA
ENDROOT
BRANCH   1  12
ATOM     12  C   UNL     1     -13.652  -9.712 -15.367  1.00  0.00     0.021 A 
ATOM     13  C   UNL     1     -13.977  -8.370 -15.106  1.00  0.00     0.016 A 
ATOM     14  C   UNL     1     -15.175  -8.043 -14.466  1.00  0.00     0.051 A 
ATOM     15  C   UNL     1     -16.067  -9.043 -14.065  1.00  0.00     0.157 A 
ATOM     16  C   UNL     1     -14.543 -10.717 -14.952  1.00  0.00     0.062 A 
ATOM     17  C   UNL     1     -15.746 -10.399 -14.310  1.00  0.00     0.158 A 
BRANCH  15  18
ATOM     18  O   UNL     1     -17.248  -8.649 -13.432  1.00  0.00    -0.504 OA
ATOM     19  H   UNL     1     -17.396  -8.693 -12.435  1.00  0.00     0.293 HD
ENDBRANCH  15  18
BRANCH  17  20
ATOM     20  O   UNL     1     -16.583 -11.451 -13.936  1.00  0.00    -0.504 OA
ATOM     21  H   UNL     1     -17.241 -11.405 -13.170  1.00  0.00     0.293 HD
ENDBRANCH  17  20
ENDBRANCH   1  12
BRANCH   6  22
ATOM     22  O   UNL     1      -8.143 -10.689 -18.803  1.00  0.00    -0.507 OA
ATOM     23  H   UNL     1      -7.569  -9.874 -18.620  1.00  0.00     0.293 HD
ENDBRANCH   6  22
BRANCH   8  24
ATOM     24  O   UNL     1      -8.252 -14.445 -15.774  1.00  0.00    -0.508 OA
ATOM     25  H   UNL     1      -7.888 -15.147 -16.406  1.00  0.00     0.293 HD
ENDBRANCH   8  24
TORSDOF 5
ENDMDL
MODEL 6
REMARK VINA RESULT:    -6.723     12.976     14.683
REMARK INTER + INTRA:          -8.163
REMARK INTER:                  -7.845
REMARK INTRA:                  -0.318
REMARK UNBOUND:                -0.260
REMARK SMILES O=c1cc(-c2ccc(O)c(O)c2)oc2cc(O)cc(O)c12
REMARK SMILES IDX 4 1 3 2 2 3 1 4 21 5 19 6 18 7 16 8 15 9 14 10 13 11 5 12
REMARK SMILES IDX 6 13 7 14 8 15 12 16 10 17 9 18 11 20 20 22 17 24
REMARK H PARENT 9 19 11 21 20 23 17 25
REMARK Flexibility Score: inf
ROOT
ATOM      1  C   UNL     1      -8.558 -19.608  -6.820  1.00  0.00     0.138 A 
ATOM      2  C   UNL     1      -8.101 -18.893  -7.940  1.00  0.00     0.100 A 
ATOM      3  C   UNL     1      -6.733 -18.843  -8.212  1.00  0.00     0.197 A 
ATOM      4  O   UNL     1      -6.332 -18.199  -9.219  1.00  0.00    -0.289 OA
ATOM      5  C   UNL     1      -5.830 -19.514  -7.363  1.00  0.00     0.107 A 
ATOM      6  C   UNL     1      -4.429 -19.513  -7.565  1.00  0.00     0.134 A 
ATOM      7  C   UNL     1      -3.599 -20.211  -6.677  1.00  0.00     0.093 A 
ATOM      8  C   UNL     1      -4.139 -20.908  -5.594  1.00  0.00     0.123 A 
ATOM      9  C   UNL     1      -5.523 -20.912  -5.388  1.00  0.00     0.094 A 
ATOM     10  C   UNL     1      -6.368 -20.222  -6.261  1.00  0.00     0.146 A 
ATOM     11  O   UNL     1      -7.679 -20.240  -6.045  1.00  0.00    -0.456 OA
ENDROOT
BRANCH   1  12
ATOM     12  C   UNL     1     -10.001 -19.697  -6.483  1.00  0.00     0.021 A 
ATOM     13  C   UNL     1     -10.965 -18.922  -7.151  1.00  0.00     0.016 A 
ATOM     14  C   UNL     1     -12.314 -19.018  -6.806  1.00  0.00     0.051 A 
ATOM     15  C   UNL     1     -12.731 -19.879  -5.786  1.00  0.00     0.157 A 
ATOM     16  C   UNL     1     -10.419 -20.552  -5.449  1.00  0.00     0.062 A 
ATOM     17  C   UNL     1     -11.770 -20.656  -5.097  1.00  0.00     0.158 A 
BRANCH  15  18
ATOM     18  O   UNL     1     -14.096 -19.931  -5.491  1.00  0.00    -0.504 OA
ATOM     19  H   UNL     1     -14.800 -19.402  -5.983  1.00  0.00     0.293 HD
ENDBRANCH  15  18
BRANCH  17  20
ATOM     20  O   UNL     1     -12.109 -21.534  -4.066  1.00  0.00    -0.504 OA
ATOM     21  H   UNL     1     -12.699 -21.286  -3.284  1.00  0.00     0.293 HD
ENDBRANCH  17  20
ENDBRANCH   1  12
BRANCH   6  22
ATOM     22  O   UNL     1      -3.861 -18.826  -8.639  1.00  0.00    -0.507 OA
ATOM     23  H   UNL     1      -3.781 -17.815  -8.642  1.00  0.00     0.293 HD
ENDBRANCH   6  22
BRANCH   8  24
ATOM     24  O   UNL     1      -3.291 -21.593  -4.726  1.00  0.00    -0.508 OA
ATOM     25  H   UNL     1      -3.111 -22.585  -4.835  1.00  0.00     0.293 HD
ENDBRANCH   8  24
TORSDOF 5
ENDMDL
MODEL 7
REMARK VINA RESULT:    -6.697      1.423      7.081
REMARK INTER + INTRA:          -8.132
REMARK INTER:                  -7.869
REMARK INTRA:                  -0.263
REMARK UNBOUND:                -0.260
REMARK SMILES O=c1cc(-c2ccc(O)c(O)c2)oc2cc(O)cc(O)c12
REMARK SMILES IDX 4 1 3 2 2 3 1 4 21 5 19 6 18 7 16 8 15 9 14 10 13 11 5 12
REMARK SMILES IDX 6 13 7 14 8 15 12 16 10 17 9 18 11 20 20 22 17 24
REMARK H PARENT 9 19 11 21 20 23 17 25
REMARK Flexibility Score: inf
ROOT
ATOM      1  C   UNL     1     -12.765  -9.604 -16.214  1.00  0.00     0.138 A 
ATOM      2  C   UNL     1     -12.889  -9.124 -14.900  1.00  0.00     0.100 A 
ATOM      3  C   UNL     1     -14.112  -9.246 -14.236  1.00  0.00     0.197 A 
ATOM      4  O   UNL     1     -14.213  -8.812 -13.056  1.00  0.00    -0.289 OA
ATOM      5  C   UNL     1     -15.201  -9.854 -14.892  1.00  0.00     0.107 A 
ATOM      6  C   UNL     1     -16.472 -10.017 -14.293  1.00  0.00     0.134 A 
ATOM      7  C   UNL     1     -17.504 -10.639 -15.012  1.00  0.00     0.093 A 
ATOM      8  C   UNL     1     -17.290 -11.098 -16.313  1.00  0.00     0.123 A 
ATOM      9  C   UNL     1     -16.034 -10.940 -16.910  1.00  0.00     0.094 A 
ATOM     10  C   UNL     1     -14.994 -10.323 -16.212  1.00  0.00     0.146 A 
ATOM     11  O   UNL     1     -13.810 -10.182 -16.801  1.00  0.00    -0.456 OA
ENDROOT
BRANCH   1  12
ATOM     12  C   UNL     1     -11.489  -9.501 -16.967  1.00  0.00     0.021 A 
ATOM     13  C   UNL     1     -11.297  -8.531 -17.966  1.00  0.00     0.016 A 
ATOM     14  C   UNL     1     -10.089  -8.465 -18.665  1.00  0.00     0.051 A 
ATOM     15  C   UNL     1      -9.055  -9.365 -18.392  1.00  0.00     0.157 A 
ATOM     16  C   UNL     1     -10.454 -10.414 -16.703  1.00  0.00     0.062 A 
ATOM     17  C   UNL     1      -9.240 -10.355 -17.398  1.00  0.00     0.158 A 
BRANCH  15  18
ATOM     18  O   UNL     1      -7.872  -9.244 -19.125  1.00  0.00    -0.504 OA
ATOM     19  H   UNL     1      -7.006  -8.892 -18.745  1.00  0.00     0.293 HD
ENDBRANCH  15  18
BRANCH  17  20
ATOM     20  O   UNL     1      -8.256 -11.290 -17.073  1.00  0.00    -0.504 OA
ATOM     21  H   UNL     1      -7.343 -11.048 -16.715  1.00  0.00     0.293 HD
ENDBRANCH  17  20
ENDBRANCH   1  12
BRANCH   6  22
ATOM     22  O   UNL     1     -16.716  -9.568 -12.995  1.00  0.00    -0.507 OA
ATOM     23  H   UNL     1     -16.567 -10.164 -12.188  1.00  0.00     0.293 HD
ENDBRANCH   6  22
BRANCH   8  24
ATOM     24  O   UNL     1     -18.332 -11.713 -17.004  1.00  0.00    -0.508 OA
ATOM     25  H   UNL     1     -18.628 -12.657 -16.787  1.00  0.00     0.293 HD
ENDBRANCH   8  24
TORSDOF 5
ENDMDL
MODEL 8
REMARK VINA RESULT:    -6.668     12.794     14.599
REMARK INTER + INTRA:          -8.097
REMARK INTER:                  -7.796
REMARK INTRA:                  -0.301
REMARK UNBOUND:                -0.260
REMARK SMILES O=c1cc(-c2ccc(O)c(O)c2)oc2cc(O)cc(O)c12
REMARK SMILES IDX 4 1 3 2 2 3 1 4 21 5 19 6 18 7 16 8 15 9 14 10 13 11 5 12
REMARK SMILES IDX 6 13 7 14 8 15 12 16 10 17 9 18 11 20 20 22 17 24
REMARK H PARENT 9 19 11 21 20 23 17 25
REMARK Flexibility Score: inf
ROOT
ATOM      1  C   UNL     1      -8.097 -19.900  -6.595  1.00  0.00     0.138 A 
ATOM      2  C   UNL     1      -7.445 -21.145  -6.620  1.00  0.00     0.100 A 
ATOM      3  C   UNL     1      -6.065 -21.193  -6.824  1.00  0.00     0.197 A 
ATOM      4  O   UNL     1      -5.489 -22.315  -6.845  1.00  0.00    -0.289 OA
ATOM      5  C   UNL     1      -5.344 -19.995  -6.997  1.00  0.00     0.107 A 
ATOM      6  C   UNL     1      -3.946 -19.955  -7.210  1.00  0.00     0.134 A 
ATOM      7  C   UNL     1      -3.303 -18.719  -7.368  1.00  0.00     0.093 A 
ATOM      8  C   UNL     1      -4.028 -17.526  -7.317  1.00  0.00     0.123 A 
ATOM      9  C   UNL     1      -5.410 -17.559  -7.107  1.00  0.00     0.094 A 
ATOM     10  C   UNL     1      -6.071 -18.780  -6.949  1.00  0.00     0.146 A 
ATOM     11  O   UNL     1      -7.385 -18.786  -6.752  1.00  0.00    -0.456 OA
ENDROOT
BRANCH   1  12
ATOM     12  C   UNL     1      -9.562 -19.788  -6.381  1.00  0.00     0.021 A 
ATOM     13  C   UNL     1     -10.253 -20.666  -5.528  1.00  0.00     0.016 A 
ATOM     14  C   UNL     1     -11.634 -20.542  -5.354  1.00  0.00     0.051 A 
ATOM     15  C   UNL     1     -12.353 -19.552  -6.029  1.00  0.00     0.157 A 
ATOM     16  C   UNL     1     -10.288 -18.801  -7.070  1.00  0.00     0.062 A 
ATOM     17  C   UNL     1     -11.672 -18.670  -6.900  1.00  0.00     0.158 A 
BRANCH  15  18
ATOM     18  O   UNL     1     -13.731 -19.481  -5.809  1.00  0.00    -0.504 OA
ATOM     19  H   UNL     1     -14.408 -19.268  -6.527  1.00  0.00     0.293 HD
ENDBRANCH  15  18
BRANCH  17  20
ATOM     20  O   UNL     1     -12.323 -17.660  -7.611  1.00  0.00    -0.504 OA
ATOM     21  H   UNL     1     -11.889 -17.115  -8.343  1.00  0.00     0.293 HD
ENDBRANCH  17  20
ENDBRANCH   1  12
BRANCH   6  22
ATOM     22  O   UNL     1      -3.196 -21.130  -7.265  1.00  0.00    -0.507 OA
ATOM     23  H   UNL     1      -2.269 -21.151  -7.676  1.00  0.00     0.293 HD
ENDBRANCH   6  22
BRANCH   8  24
ATOM     24  O   UNL     1      -3.363 -16.311  -7.477  1.00  0.00    -0.508 OA
ATOM     25  H   UNL     1      -3.835 -15.426  -7.333  1.00  0.00     0.293 HD
ENDBRANCH   8  24
TORSDOF 5
ENDMDL
MODEL 9
REMARK VINA RESULT:    -6.498      1.344      2.823
REMARK INTER + INTRA:          -7.898
REMARK INTER:                  -7.634
REMARK INTRA:                  -0.265
REMARK UNBOUND:                -0.260
REMARK SMILES O=c1cc(-c2ccc(O)c(O)c2)oc2cc(O)cc(O)c12
REMARK SMILES IDX 4 1 3 2 2 3 1 4 21 5 19 6 18 7 16 8 15 9 14 10 13 11 5 12
REMARK SMILES IDX 6 13 7 14 8 15 12 16 10 17 9 18 11 20 20 22 17 24
REMARK H PARENT 9 19 11 21 20 23 17 25
REMARK Flexibility Score: inf
ROOT
ATOM      1  C   UNL     1     -12.866 -10.486 -16.042  1.00  0.00     0.138 A 
ATOM      2  C   UNL     1     -11.978 -11.538 -15.763  1.00  0.00     0.100 A 
ATOM      3  C   UNL     1     -10.663 -11.469 -16.226  1.00  0.00     0.197 A 
ATOM      4  O   UNL     1      -9.873 -12.418 -15.971  1.00  0.00    -0.289 OA
ATOM      5  C   UNL     1     -10.243 -10.342 -16.962  1.00  0.00     0.107 A 
ATOM      6  C   UNL     1      -8.930 -10.193 -17.468  1.00  0.00     0.134 A 
ATOM      7  C   UNL     1      -8.590  -9.037 -18.187  1.00  0.00     0.093 A 
ATOM      8  C   UNL     1      -9.534  -8.032 -18.408  1.00  0.00     0.123 A 
ATOM      9  C   UNL     1     -10.834  -8.174 -17.910  1.00  0.00     0.094 A 
ATOM     10  C   UNL     1     -11.193  -9.318 -17.192  1.00  0.00     0.146 A 
ATOM     11  O   UNL     1     -12.434  -9.431 -16.731  1.00  0.00    -0.456 OA
ENDROOT
BRANCH   1  12
ATOM     12  C   UNL     1     -14.275 -10.505 -15.574  1.00  0.00     0.021 A 
ATOM     13  C   UNL     1     -15.350 -10.623 -16.472  1.00  0.00     0.016 A 
ATOM     14  C   UNL     1     -16.666 -10.628 -16.003  1.00  0.00     0.051 A 
ATOM     15  C   UNL     1     -16.938 -10.509 -14.637  1.00  0.00     0.157 A 
ATOM     16  C   UNL     1     -14.550 -10.372 -14.202  1.00  0.00     0.062 A 
ATOM     17  C   UNL     1     -15.866 -10.378 -13.723  1.00  0.00     0.158 A 
BRANCH  15  18
ATOM     18  O   UNL     1     -18.276 -10.525 -14.233  1.00  0.00    -0.504 OA
ATOM     19  H   UNL     1     -18.746  -9.740 -13.806  1.00  0.00     0.293 HD
ENDBRANCH  15  18
BRANCH  17  20
ATOM     20  O   UNL     1     -16.059 -10.251 -12.347  1.00  0.00    -0.504 OA
ATOM     21  H   UNL     1     -16.269 -11.024 -11.732  1.00  0.00     0.293 HD
ENDBRANCH  17  20
ENDBRANCH   1  12
BRANCH   6  22
ATOM     22  O   UNL     1      -7.966 -11.180 -17.263  1.00  0.00    -0.507 OA
ATOM     23  H   UNL     1      -8.028 -12.087 -17.713  1.00  0.00     0.293 HD
ENDBRANCH   6  22
BRANCH   8  24
ATOM     24  O   UNL     1      -9.170  -6.894 -19.125  1.00  0.00    -0.508 OA
ATOM     25  H   UNL     1      -9.258  -5.966 -18.726  1.00  0.00     0.293 HD
ENDBRANCH   8  24
TORSDOF 5
ENDMDL
