MODEL 1
REMARK VINA RESULT:    -4.631      0.000      0.000
REMARK INTER + INTRA:          -9.034
REMARK INTER:                  -7.881
REMARK INTRA:                  -1.154
REMARK UNBOUND:                -1.154
REMARK SMILES CCCCCCCCCCCCCC(=O)[O-]
REMARK SMILES IDX 8 1 9 2 10 3 11 4 12 5 13 6 14 7 15 8 16 9 7 10 6 11 5 12
REMARK SMILES IDX 4 13 3 14 2 15 1 16
REMARK H PARENT
REMARK Flexibility Score: inf
ROOT
ATOM      1  C   UNL     1      -4.702   1.352  29.826  1.00  0.00     0.000 C 
ENDROOT
BRANCH   1   2
ATOM      2  C   UNL     1      -3.235   0.901  29.928  1.00  0.00     0.000 C 
BRANCH   2   3
ATOM      3  C   UNL     1      -2.266   1.902  29.279  1.00  0.00     0.000 C 
BRANCH   3   4
ATOM      4  C   UNL     1      -1.004   1.223  28.720  1.00  0.00     0.000 C 
BRANCH   4   5
ATOM      5  C   UNL     1      -1.105   0.929  27.212  1.00  0.00     0.006 C 
BRANCH   5   6
ATOM      6  C   UNL     1      -1.343  -0.551  26.873  1.00  0.00     0.053 C 
BRANCH   6   7
ATOM      7  C   UNL     1      -0.270  -1.435  27.431  1.00  0.00     0.041 C 
ATOM      8  O   UNL     1      -0.556  -2.317  28.284  1.00  0.00    -0.550 OA
ATOM      9  O   UNL     1       1.050  -1.261  27.037  1.00  0.00    -0.550 OA
ENDBRANCH   6   7
ENDBRANCH   5   6
ENDBRANCH   4   5
ENDBRANCH   3   4
ENDBRANCH   2   3
ENDBRANCH   1   2
BRANCH   1  10
ATOM     10  C   UNL     1      -5.597   0.304  29.144  1.00  0.00     0.000 C 
BRANCH  10  11
ATOM     11  C   UNL     1      -4.793  -0.716  28.326  1.00  0.00    -0.000 C 
BRANCH  11  12
ATOM     12  C   UNL     1      -5.175  -2.151  28.709  1.00  0.00    -0.000 C 
BRANCH  12  13
ATOM     13  C   UNL     1      -3.926  -3.016  28.924  1.00  0.00    -0.000 C 
BRANCH  13  14
ATOM     14  C   UNL     1      -4.300  -4.500  29.046  1.00  0.00    -0.000 C 
BRANCH  14  15
ATOM     15  C   UNL     1      -5.551  -4.862  28.231  1.00  0.00    -0.003 C 
ATOM     16  C   UNL     1      -5.856  -6.360  28.249  1.00  0.00     0.004 C 
ENDBRANCH  14  15
ENDBRANCH  13  14
ENDBRANCH  12  13
ENDBRANCH  11  12
ENDBRANCH  10  11
ENDBRANCH   1  10
TORSDOF 12
ENDMDL
MODEL 2
REMARK VINA RESULT:    -4.497      2.021      5.211
REMARK INTER + INTRA:          -8.806
REMARK INTER:                  -7.465
REMARK INTRA:                  -1.341
REMARK UNBOUND:                -1.154
REMARK SMILES CCCCCCCCCCCCCC(=O)[O-]
REMARK SMILES IDX 8 1 9 2 10 3 11 4 12 5 13 6 14 7 15 8 16 9 7 10 6 11 5 12
REMARK SMILES IDX 4 13 3 14 2 15 1 16
REMARK H PARENT
REMARK Flexibility Score: inf
ROOT
ATOM      1  C   UNL     1      -3.463   1.418  29.754  1.00  0.00     0.000 C 
ENDROOT
BRANCH   1   2
ATOM      2  C   UNL     1      -4.967   1.596  30.028  1.00  0.00     0.000 C 
BRANCH   2   3
ATOM      3  C   UNL     1      -5.821   0.522  29.335  1.00  0.00     0.000 C 
BRANCH   3   4
ATOM      4  C   UNL     1      -4.969  -0.513  28.582  1.00  0.00     0.000 C 
BRANCH   4   5
ATOM      5  C   UNL     1      -5.049  -1.917  29.209  1.00  0.00     0.006 C 
BRANCH   5   6
ATOM      6  C   UNL     1      -5.557  -3.007  28.251  1.00  0.00     0.053 C 
BRANCH   6   7
ATOM      7  C   UNL     1      -4.910  -4.332  28.513  1.00  0.00     0.041 C 
ATOM      8  O   UNL     1      -3.727  -4.385  28.940  1.00  0.00    -0.550 OA
ATOM      9  O   UNL     1      -5.602  -5.507  28.253  1.00  0.00    -0.550 OA
ENDBRANCH   6   7
ENDBRANCH   5   6
ENDBRANCH   4   5
ENDBRANCH   3   4
ENDBRANCH   2   3
ENDBRANCH   1   2
BRANCH   1  10
ATOM     10  C   UNL     1      -2.693   2.748  29.800  1.00  0.00     0.000 C 
BRANCH  10  11
ATOM     11  C   UNL     1      -1.426   2.727  28.933  1.00  0.00    -0.000 C 
BRANCH  11  12
ATOM     12  C   UNL     1      -0.407   1.715  29.473  1.00  0.00    -0.000 C 
BRANCH  12  13
ATOM     13  C   UNL     1       0.148   0.836  28.345  1.00  0.00    -0.000 C 
BRANCH  13  14
ATOM     14  C   UNL     1      -0.806   0.819  27.141  1.00  0.00    -0.000 C 
BRANCH  14  15
ATOM     15  C   UNL     1      -1.670  -0.449  27.090  1.00  0.00    -0.003 C 
ATOM     16  C   UNL     1      -1.287  -1.470  28.162  1.00  0.00     0.004 C 
ENDBRANCH  14  15
ENDBRANCH  13  14
ENDBRANCH  12  13
ENDBRANCH  11  12
ENDBRANCH  10  11
ENDBRANCH   1  10
TORSDOF 12
ENDMDL
MODEL 3
REMARK VINA RESULT:    -4.461      2.388      5.419
REMARK INTER + INTRA:          -8.744
REMARK INTER:                  -7.269
REMARK INTRA:                  -1.475
REMARK UNBOUND:                -1.154
REMARK SMILES CCCCCCCCCCCCCC(=O)[O-]
REMARK SMILES IDX 8 1 9 2 10 3 11 4 12 5 13 6 14 7 15 8 16 9 7 10 6 11 5 12
REMARK SMILES IDX 4 13 3 14 2 15 1 16
REMARK H PARENT
REMARK Flexibility Score: inf
ROOT
ATOM      1  C   UNL     1      -2.592   0.085  29.004  1.00  0.00     0.000 C 
ENDROOT
BRANCH   1   2
ATOM      2  C   UNL     1      -2.987  -0.752  27.774  1.00  0.00     0.000 C 
BRANCH   2   3
ATOM      3  C   UNL     1      -4.464  -1.176  27.802  1.00  0.00     0.000 C 
BRANCH   3   4
ATOM      4  C   UNL     1      -5.015  -1.300  29.233  1.00  0.00     0.000 C 
BRANCH   4   5
ATOM      5  C   UNL     1      -5.096  -2.760  29.714  1.00  0.00     0.006 C 
BRANCH   5   6
ATOM      6  C   UNL     1      -5.955  -3.671  28.822  1.00  0.00     0.053 C 
BRANCH   6   7
ATOM      7  C   UNL     1      -5.190  -4.861  28.331  1.00  0.00     0.041 C 
ATOM      8  O   UNL     1      -5.801  -5.904  27.978  1.00  0.00    -0.550 OA
ATOM      9  O   UNL     1      -3.802  -4.830  28.298  1.00  0.00    -0.550 OA
ENDBRANCH   6   7
ENDBRANCH   5   6
ENDBRANCH   4   5
ENDBRANCH   3   4
ENDBRANCH   2   3
ENDBRANCH   1   2
BRANCH   1  10
ATOM     10  C   UNL     1      -1.118   0.519  28.975  1.00  0.00     0.000 C 
BRANCH  10  11
ATOM     11  C   UNL     1      -0.536   0.536  27.554  1.00  0.00    -0.000 C 
BRANCH  11  12
ATOM     12  C   UNL     1       0.872  -0.071  27.530  1.00  0.00    -0.000 C 
BRANCH  12  13
ATOM     13  C   UNL     1       0.826  -1.553  27.137  1.00  0.00    -0.000 C 
BRANCH  13  14
ATOM     14  C   UNL     1       1.564  -2.419  28.169  1.00  0.00    -0.000 C 
BRANCH  14  15
ATOM     15  C   UNL     1       0.679  -2.787  29.370  1.00  0.00    -0.003 C 
ATOM     16  C   UNL     1      -0.657  -3.403  28.954  1.00  0.00     0.004 C 
ENDBRANCH  14  15
ENDBRANCH  13  14
ENDBRANCH  12  13
ENDBRANCH  11  12
ENDBRANCH  10  11
ENDBRANCH   1  10
TORSDOF 12
ENDMDL
MODEL 4
REMARK VINA RESULT:    -4.453      2.460      5.462
REMARK INTER + INTRA:          -8.731
REMARK INTER:                  -7.675
REMARK INTRA:                  -1.055
REMARK UNBOUND:                -1.154
REMARK SMILES CCCCCCCCCCCCCC(=O)[O-]
REMARK SMILES IDX 8 1 9 2 10 3 11 4 12 5 13 6 14 7 15 8 16 9 7 10 6 11 5 12
REMARK SMILES IDX 4 13 3 14 2 15 1 16
REMARK H PARENT
REMARK Flexibility Score: inf
ROOT
ATOM      1  C   UNL     1      -0.545  -0.490  27.253  1.00  0.00     0.000 C 
ENDROOT
BRANCH   1   2
ATOM      2  C   UNL     1      -0.253  -1.997  27.354  1.00  0.00     0.000 C 
BRANCH   2   3
ATOM      3  C   UNL     1      -0.601  -2.573  28.736  1.00  0.00     0.000 C 
BRANCH   3   4
ATOM      4  C   UNL     1      -1.539  -3.789  28.649  1.00  0.00     0.000 C 
BRANCH   4   5
ATOM      5  C   UNL     1      -3.010  -3.425  28.921  1.00  0.00     0.006 C 
BRANCH   5   6
ATOM      6  C   UNL     1      -3.939  -4.639  29.087  1.00  0.00     0.053 C 
BRANCH   6   7
ATOM      7  C   UNL     1      -5.200  -4.495  28.293  1.00  0.00     0.041 C 
ATOM      8  O   UNL     1      -5.665  -3.351  28.045  1.00  0.00    -0.550 OA
ATOM      9  O   UNL     1      -5.881  -5.624  27.857  1.00  0.00    -0.550 OA
ENDBRANCH   6   7
ENDBRANCH   5   6
ENDBRANCH   4   5
ENDBRANCH   3   4
ENDBRANCH   2   3
ENDBRANCH   1   2
BRANCH   1  10
ATOM     10  C   UNL     1      -1.967  -0.131  27.714  1.00  0.00     0.000 C 
BRANCH  10  11
ATOM     11  C   UNL     1      -1.979   0.668  29.025  1.00  0.00    -0.000 C 
BRANCH  11  12
ATOM     12  C   UNL     1      -3.415   0.921  29.501  1.00  0.00    -0.000 C 
BRANCH  12  13
ATOM     13  C   UNL     1      -4.354  -0.203  29.042  1.00  0.00    -0.000 C 
BRANCH  13  14
ATOM     14  C   UNL     1      -5.824   0.222  29.173  1.00  0.00    -0.000 C 
BRANCH  14  15
ATOM     15  C   UNL     1      -5.984   1.598  29.838  1.00  0.00    -0.003 C 
ATOM     16  C   UNL     1      -7.293   2.290  29.458  1.00  0.00     0.004 C 
ENDBRANCH  14  15
ENDBRANCH  13  14
ENDBRANCH  12  13
ENDBRANCH  11  12
ENDBRANCH  10  11
ENDBRANCH   1  10
TORSDOF 12
ENDMDL
MODEL 5
REMARK VINA RESULT:    -4.423      2.795      5.357
REMARK INTER + INTRA:          -8.680
REMARK INTER:                  -8.243
REMARK INTRA:                  -0.437
REMARK UNBOUND:                -1.154
REMARK SMILES CCCCCCCCCCCCCC(=O)[O-]
REMARK SMILES IDX 8 1 9 2 10 3 11 4 12 5 13 6 14 7 15 8 16 9 7 10 6 11 5 12
REMARK SMILES IDX 4 13 3 14 2 15 1 16
REMARK H PARENT
REMARK Flexibility Score: inf
ROOT
ATOM      1  C   UNL     1      -5.719  -4.996  28.259  1.00  0.00     0.000 C 
ENDROOT
BRANCH   1   2
ATOM      2  C   UNL     1      -5.835  -3.660  29.015  1.00  0.00     0.000 C 
BRANCH   2   3
ATOM      3  C   UNL     1      -5.317  -2.471  28.190  1.00  0.00     0.000 C 
BRANCH   3   4
ATOM      4  C   UNL     1      -5.351  -1.149  28.977  1.00  0.00     0.000 C 
BRANCH   4   5
ATOM      5  C   UNL     1      -3.997  -0.417  28.967  1.00  0.00     0.006 C 
BRANCH   5   6
ATOM      6  C   UNL     1      -2.874  -1.178  28.243  1.00  0.00     0.053 C 
BRANCH   6   7
ATOM      7  C   UNL     1      -1.857  -0.251  27.653  1.00  0.00     0.041 C 
ATOM      8  O   UNL     1      -1.392  -0.471  26.504  1.00  0.00    -0.550 OA
ATOM      9  O   UNL     1      -1.396   0.835  28.386  1.00  0.00    -0.550 OA
ENDBRANCH   6   7
ENDBRANCH   5   6
ENDBRANCH   4   5
ENDBRANCH   3   4
ENDBRANCH   2   3
ENDBRANCH   1   2
BRANCH   1  10
ATOM     10  C   UNL     1      -5.510  -6.192  29.201  1.00  0.00     0.000 C 
BRANCH  10  11
ATOM     11  C   UNL     1      -6.099  -7.495  28.641  1.00  0.00    -0.000 C 
BRANCH  11  12
ATOM     12  C   UNL     1      -6.222  -8.558  29.739  1.00  0.00    -0.000 C 
BRANCH  12  13
ATOM     13  C   UNL     1      -5.328  -9.768  29.439  1.00  0.00    -0.000 C 
BRANCH  13  14
ATOM     14  C   UNL     1      -5.353 -10.111  27.942  1.00  0.00    -0.000 C 
BRANCH  14  15
ATOM     15  C   UNL     1      -4.395 -11.257  27.584  1.00  0.00    -0.003 C 
ATOM     16  C   UNL     1      -4.376 -11.565  26.086  1.00  0.00     0.004 C 
ENDBRANCH  14  15
ENDBRANCH  13  14
ENDBRANCH  12  13
ENDBRANCH  11  12
ENDBRANCH  10  11
ENDBRANCH   1  10
TORSDOF 12
ENDMDL
MODEL 6
REMARK VINA RESULT:    -4.400      3.603      6.770
REMARK INTER + INTRA:          -8.640
REMARK INTER:                  -8.034
REMARK INTRA:                  -0.606
REMARK UNBOUND:                -1.154
REMARK SMILES CCCCCCCCCCCCCC(=O)[O-]
REMARK SMILES IDX 8 1 9 2 10 3 11 4 12 5 13 6 14 7 15 8 16 9 7 10 6 11 5 12
REMARK SMILES IDX 4 13 3 14 2 15 1 16
REMARK H PARENT
REMARK Flexibility Score: inf
ROOT
ATOM      1  C   UNL     1      -6.104  -6.671  28.228  1.00  0.00     0.000 C 
ENDROOT
BRANCH   1   2
ATOM      2  C   UNL     1      -5.373  -5.319  28.304  1.00  0.00     0.000 C 
BRANCH   2   3
ATOM      3  C   UNL     1      -5.576  -4.617  29.657  1.00  0.00     0.000 C 
BRANCH   3   4
ATOM      4  C   UNL     1      -5.036  -3.177  29.660  1.00  0.00     0.000 C 
BRANCH   4   5
ATOM      5  C   UNL     1      -5.359  -2.418  28.361  1.00  0.00     0.006 C 
BRANCH   5   6
ATOM      6  C   UNL     1      -4.416  -1.240  28.068  1.00  0.00     0.053 C 
BRANCH   6   7
ATOM      7  C   UNL     1      -4.672  -0.075  28.973  1.00  0.00     0.041 C 
ATOM      8  O   UNL     1      -5.853   0.262  29.252  1.00  0.00    -0.550 OA
ATOM      9  O   UNL     1      -3.609   0.659  29.481  1.00  0.00    -0.550 OA
ENDBRANCH   6   7
ENDBRANCH   5   6
ENDBRANCH   4   5
ENDBRANCH   3   4
ENDBRANCH   2   3
ENDBRANCH   1   2
BRANCH   1  10
ATOM     10  C   UNL     1      -5.802  -7.574  29.435  1.00  0.00     0.000 C 
BRANCH  10  11
ATOM     11  C   UNL     1      -6.143  -9.047  29.171  1.00  0.00    -0.000 C 
BRANCH  11  12
ATOM     12  C   UNL     1      -5.153  -9.977  29.883  1.00  0.00    -0.000 C 
BRANCH  12  13
ATOM     13  C   UNL     1      -4.520 -10.968  28.897  1.00  0.00    -0.000 C 
BRANCH  13  14
ATOM     14  C   UNL     1      -4.987 -10.687  27.461  1.00  0.00    -0.000 C 
BRANCH  14  15
ATOM     15  C   UNL     1      -4.948 -11.940  26.572  1.00  0.00    -0.003 C 
ATOM     16  C   UNL     1      -4.018 -11.783  25.369  1.00  0.00     0.004 C 
ENDBRANCH  14  15
ENDBRANCH  13  14
ENDBRANCH  12  13
ENDBRANCH  11  12
ENDBRANCH  10  11
ENDBRANCH   1  10
TORSDOF 12
ENDMDL
MODEL 7
REMARK VINA RESULT:    -4.351      2.162      6.023
REMARK INTER + INTRA:          -8.556
REMARK INTER:                  -7.049
REMARK INTRA:                  -1.508
REMARK UNBOUND:                -1.154
REMARK SMILES CCCCCCCCCCCCCC(=O)[O-]
REMARK SMILES IDX 8 1 9 2 10 3 11 4 12 5 13 6 14 7 15 8 16 9 7 10 6 11 5 12
REMARK SMILES IDX 4 13 3 14 2 15 1 16
REMARK H PARENT
REMARK Flexibility Score: inf
ROOT
ATOM      1  C   UNL     1      -1.754  -0.484  27.093  1.00  0.00     0.000 C 
ENDROOT
BRANCH   1   2
ATOM      2  C   UNL     1      -2.677  -0.939  28.238  1.00  0.00     0.000 C 
BRANCH   2   3
ATOM      3  C   UNL     1      -4.162  -0.909  27.843  1.00  0.00     0.000 C 
BRANCH   3   4
ATOM      4  C   UNL     1      -5.098  -0.994  29.061  1.00  0.00     0.000 C 
BRANCH   4   5
ATOM      5  C   UNL     1      -5.539  -2.435  29.372  1.00  0.00     0.006 C 
BRANCH   5   6
ATOM      6  C   UNL     1      -5.705  -3.326  28.130  1.00  0.00     0.053 C 
BRANCH   6   7
ATOM      7  C   UNL     1      -4.970  -4.623  28.266  1.00  0.00     0.041 C 
ATOM      8  O   UNL     1      -5.562  -5.712  28.043  1.00  0.00    -0.550 OA
ATOM      9  O   UNL     1      -3.643  -4.632  28.674  1.00  0.00    -0.550 OA
ENDBRANCH   6   7
ENDBRANCH   5   6
ENDBRANCH   4   5
ENDBRANCH   3   4
ENDBRANCH   2   3
ENDBRANCH   1   2
BRANCH   1  10
ATOM     10  C   UNL     1      -0.277  -0.816  27.358  1.00  0.00     0.000 C 
BRANCH  10  11
ATOM     11  C   UNL     1       0.020  -1.041  28.847  1.00  0.00    -0.000 C 
BRANCH  11  12
ATOM     12  C   UNL     1       0.771   0.155  29.445  1.00  0.00    -0.000 C 
BRANCH  12  13
ATOM     13  C   UNL     1      -0.203   1.155  30.080  1.00  0.00    -0.000 C 
BRANCH  13  14
ATOM     14  C   UNL     1      -0.420   2.369  29.164  1.00  0.00    -0.000 C 
BRANCH  14  15
ATOM     15  C   UNL     1      -1.902   2.753  29.033  1.00  0.00    -0.003 C 
ATOM     16  C   UNL     1      -2.773   2.129  30.123  1.00  0.00     0.004 C 
ENDBRANCH  14  15
ENDBRANCH  13  14
ENDBRANCH  12  13
ENDBRANCH  11  12
ENDBRANCH  10  11
ENDBRANCH   1  10
TORSDOF 12
ENDMDL
MODEL 8
REMARK VINA RESULT:    -4.324      4.545      8.585
REMARK INTER + INTRA:          -8.511
REMARK INTER:                  -7.998
REMARK INTRA:                  -0.514
REMARK UNBOUND:                -1.154
REMARK SMILES CCCCCCCCCCCCCC(=O)[O-]
REMARK SMILES IDX 8 1 9 2 10 3 11 4 12 5 13 6 14 7 15 8 16 9 7 10 6 11 5 12
REMARK SMILES IDX 4 13 3 14 2 15 1 16
REMARK H PARENT
REMARK Flexibility Score: inf
ROOT
ATOM      1  C   UNL     1      -5.714  -6.240  29.258  1.00  0.00     0.000 C 
ENDROOT
BRANCH   1   2
ATOM      2  C   UNL     1      -6.046  -7.638  28.708  1.00  0.00     0.000 C 
BRANCH   2   3
ATOM      3  C   UNL     1      -6.267  -8.672  29.823  1.00  0.00     0.000 C 
BRANCH   3   4
ATOM      4  C   UNL     1      -5.302  -9.865  29.721  1.00  0.00     0.000 C 
BRANCH   4   5
ATOM      5  C   UNL     1      -5.004 -10.266  28.265  1.00  0.00     0.006 C 
BRANCH   5   6
ATOM      6  C   UNL     1      -3.993 -11.414  28.121  1.00  0.00     0.053 C 
BRANCH   6   7
ATOM      7  C   UNL     1      -3.746 -11.769  26.688  1.00  0.00     0.041 C 
ATOM      8  O   UNL     1      -2.606 -12.160  26.320  1.00  0.00    -0.550 OA
ATOM      9  O   UNL     1      -4.762 -11.635  25.752  1.00  0.00    -0.550 OA
ENDBRANCH   6   7
ENDBRANCH   5   6
ENDBRANCH   4   5
ENDBRANCH   3   4
ENDBRANCH   2   3
ENDBRANCH   1   2
BRANCH   1  10
ATOM     10  C   UNL     1      -5.153  -5.299  28.181  1.00  0.00     0.000 C 
BRANCH  10  11
ATOM     11  C   UNL     1      -5.806  -3.909  28.212  1.00  0.00    -0.000 C 
BRANCH  11  12
ATOM     12  C   UNL     1      -5.211  -3.048  29.333  1.00  0.00    -0.000 C 
BRANCH  12  13
ATOM     13  C   UNL     1      -5.398  -1.554  29.039  1.00  0.00    -0.000 C 
BRANCH  13  14
ATOM     14  C   UNL     1      -4.451  -1.092  27.921  1.00  0.00    -0.000 C 
BRANCH  14  15
ATOM     15  C   UNL     1      -2.971  -1.287  28.283  1.00  0.00    -0.003 C 
ATOM     16  C   UNL     1      -2.033  -0.464  27.400  1.00  0.00     0.004 C 
ENDBRANCH  14  15
ENDBRANCH  13  14
ENDBRANCH  12  13
ENDBRANCH  11  12
ENDBRANCH  10  11
ENDBRANCH   1  10
TORSDOF 12
ENDMDL
MODEL 9
REMARK VINA RESULT:    -4.300      2.206      3.481
REMARK INTER + INTRA:          -8.470
REMARK INTER:                  -7.135
REMARK INTRA:                  -1.335
REMARK UNBOUND:                -1.154
REMARK SMILES CCCCCCCCCCCCCC(=O)[O-]
REMARK SMILES IDX 8 1 9 2 10 3 11 4 12 5 13 6 14 7 15 8 16 9 7 10 6 11 5 12
REMARK SMILES IDX 4 13 3 14 2 15 1 16
REMARK H PARENT
REMARK Flexibility Score: inf
ROOT
ATOM      1  C   UNL     1      -2.014  -0.488  27.139  1.00  0.00     0.000 C 
ENDROOT
BRANCH   1   2
ATOM      2  C   UNL     1      -0.657  -1.096  26.743  1.00  0.00     0.000 C 
BRANCH   2   3
ATOM      3  C   UNL     1       0.241  -1.371  27.959  1.00  0.00     0.000 C 
BRANCH   3   4
ATOM      4  C   UNL     1       1.441  -0.411  28.035  1.00  0.00     0.000 C 
BRANCH   4   5
ATOM      5  C   UNL     1       1.095   0.921  28.724  1.00  0.00     0.006 C 
BRANCH   5   6
ATOM      6  C   UNL     1       1.221   2.153  27.813  1.00  0.00     0.053 C 
BRANCH   6   7
ATOM      7  C   UNL     1      -0.111   2.623  27.315  1.00  0.00     0.041 C 
ATOM      8  O   UNL     1      -0.267   2.904  26.097  1.00  0.00    -0.550 OA
ATOM      9  O   UNL     1      -1.168   2.785  28.200  1.00  0.00    -0.550 OA
ENDBRANCH   6   7
ENDBRANCH   5   6
ENDBRANCH   4   5
ENDBRANCH   3   4
ENDBRANCH   2   3
ENDBRANCH   1   2
BRANCH   1  10
ATOM     10  C   UNL     1      -2.292  -0.596  28.647  1.00  0.00     0.000 C 
BRANCH  10  11
ATOM     11  C   UNL     1      -3.710  -0.139  29.020  1.00  0.00    -0.000 C 
BRANCH  11  12
ATOM     12  C   UNL     1      -4.766  -0.963  28.274  1.00  0.00    -0.000 C 
BRANCH  12  13
ATOM     13  C   UNL     1      -5.260  -2.134  29.133  1.00  0.00    -0.000 C 
BRANCH  13  14
ATOM     14  C   UNL     1      -5.644  -3.335  28.255  1.00  0.00    -0.000 C 
BRANCH  14  15
ATOM     15  C   UNL     1      -4.775  -4.571  28.533  1.00  0.00    -0.003 C 
ATOM     16  C   UNL     1      -3.353  -4.210  28.963  1.00  0.00     0.004 C 
ENDBRANCH  14  15
ENDBRANCH  13  14
ENDBRANCH  12  13
ENDBRANCH  11  12
ENDBRANCH  10  11
ENDBRANCH   1  10
TORSDOF 12
ENDMDL
