MODEL 1
REMARK VINA RESULT:    -4.260      0.000      0.000
REMARK INTER + INTRA:          -7.234
REMARK INTER:                  -6.750
REMARK INTRA:                  -0.484
REMARK UNBOUND:                -0.484
REMARK SMILES CCCCCCCCCCCC(=O)[O-]
REMARK SMILES IDX 7 1 8 2 9 3 10 4 11 5 12 6 13 7 14 8 6 9 5 10 4 11 3 12 2 13
REMARK SMILES IDX 1 14
REMARK H PARENT
REMARK Flexibility Score: inf
ROOT
ATOM      1  C   UNL     1     -18.105  33.913 -11.522  1.00  0.00     0.000 C 
ENDROOT
BRANCH   1   2
ATOM      2  C   UNL     1     -16.756  33.636 -12.206  1.00  0.00     0.000 C 
BRANCH   2   3
ATOM      3  C   UNL     1     -15.661  33.226 -11.206  1.00  0.00     0.000 C 
BRANCH   3   4
ATOM      4  C   UNL     1     -14.738  34.396 -10.827  1.00  0.00     0.006 C 
BRANCH   4   5
ATOM      5  C   UNL     1     -14.447  34.458  -9.322  1.00  0.00     0.053 C 
BRANCH   5   6
ATOM      6  C   UNL     1     -13.407  35.494  -9.035  1.00  0.00     0.041 C 
ATOM      7  O   UNL     1     -13.349  36.039  -7.901  1.00  0.00    -0.550 OA
ATOM      8  O   UNL     1     -12.467  35.823 -10.005  1.00  0.00    -0.550 OA
ENDBRANCH   5   6
ENDBRANCH   4   5
ENDBRANCH   3   4
ENDBRANCH   2   3
ENDBRANCH   1   2
BRANCH   1   9
ATOM      9  C   UNL     1     -18.210  33.251 -10.137  1.00  0.00     0.000 C 
BRANCH   9  10
ATOM     10  C   UNL     1     -18.980  34.112  -9.119  1.00  0.00    -0.000 C 
BRANCH  10  11
ATOM     11  C   UNL     1     -20.069  33.368  -8.323  1.00  0.00    -0.000 C 
BRANCH  11  12
ATOM     12  C   UNL     1     -21.158  34.267  -7.708  1.00  0.00    -0.000 C 
BRANCH  12  13
ATOM     13  C   UNL     1     -22.427  33.500  -7.277  1.00  0.00    -0.003 C 
ATOM     14  C   UNL     1     -23.713  34.159  -7.778  1.00  0.00     0.004 C 
ENDBRANCH  12  13
ENDBRANCH  11  12
ENDBRANCH  10  11
ENDBRANCH   9  10
ENDBRANCH   1   9
TORSDOF 10
ENDMDL
MODEL 2
REMARK VINA RESULT:    -4.191     11.334     14.732
REMARK INTER + INTRA:          -7.125
REMARK INTER:                  -6.430
REMARK INTRA:                  -0.695
REMARK UNBOUND:                -0.484
REMARK SMILES CCCCCCCCCCCC(=O)[O-]
REMARK SMILES IDX 7 1 8 2 9 3 10 4 11 5 12 6 13 7 14 8 6 9 5 10 4 11 3 12 2 13
REMARK SMILES IDX 1 14
REMARK H PARENT
REMARK Flexibility Score: inf
ROOT
ATOM      1  C   UNL     1      -6.217  37.223   1.026  1.00  0.00     0.000 C 
ENDROOT
BRANCH   1   2
ATOM      2  C   UNL     1      -5.100  36.469   1.765  1.00  0.00     0.000 C 
BRANCH   2   3
ATOM      3  C   UNL     1      -4.290  35.552   0.832  1.00  0.00     0.000 C 
BRANCH   3   4
ATOM      4  C   UNL     1      -5.127  34.388   0.276  1.00  0.00     0.006 C 
BRANCH   4   5
ATOM      5  C   UNL     1      -5.754  33.529   1.383  1.00  0.00     0.053 C 
BRANCH   5   6
ATOM      6  C   UNL     1      -7.142  33.120   1.000  1.00  0.00     0.041 C 
ATOM      7  O   UNL     1      -7.939  33.963   0.511  1.00  0.00    -0.550 OA
ATOM      8  O   UNL     1      -7.540  31.796   1.139  1.00  0.00    -0.550 OA
ENDBRANCH   5   6
ENDBRANCH   4   5
ENDBRANCH   3   4
ENDBRANCH   2   3
ENDBRANCH   1   2
BRANCH   1   9
ATOM      9  C   UNL     1      -5.743  37.818  -0.311  1.00  0.00     0.000 C 
BRANCH   9  10
ATOM     10  C   UNL     1      -6.903  38.125  -1.275  1.00  0.00    -0.000 C 
BRANCH  10  11
ATOM     11  C   UNL     1      -8.312  37.989  -0.667  1.00  0.00    -0.000 C 
BRANCH  11  12
ATOM     12  C   UNL     1      -9.383  37.422  -1.620  1.00  0.00    -0.000 C 
BRANCH  12  13
ATOM     13  C   UNL     1     -10.139  36.202  -1.050  1.00  0.00    -0.003 C 
ATOM     14  C   UNL     1     -11.637  36.245  -1.348  1.00  0.00     0.004 C 
ENDBRANCH  12  13
ENDBRANCH  11  12
ENDBRANCH  10  11
ENDBRANCH   9  10
ENDBRANCH   1   9
TORSDOF 10
ENDMDL
MODEL 3
REMARK VINA RESULT:    -3.935     12.442     15.546
REMARK INTER + INTRA:          -6.719
REMARK INTER:                  -5.696
REMARK INTRA:                  -1.022
REMARK UNBOUND:                -0.484
REMARK SMILES CCCCCCCCCCCC(=O)[O-]
REMARK SMILES IDX 7 1 8 2 9 3 10 4 11 5 12 6 13 7 14 8 6 9 5 10 4 11 3 12 2 13
REMARK SMILES IDX 1 14
REMARK H PARENT
REMARK Flexibility Score: inf
ROOT
ATOM      1  C   UNL     1      -3.897  35.811  -0.500  1.00  0.00     0.000 C 
ENDROOT
BRANCH   1   2
ATOM      2  C   UNL     1      -3.884  36.541   0.854  1.00  0.00     0.000 C 
BRANCH   2   3
ATOM      3  C   UNL     1      -4.357  35.645   2.011  1.00  0.00     0.000 C 
BRANCH   3   4
ATOM      4  C   UNL     1      -5.195  34.449   1.528  1.00  0.00     0.006 C 
BRANCH   4   5
ATOM      5  C   UNL     1      -6.688  34.603   1.849  1.00  0.00     0.053 C 
BRANCH   5   6
ATOM      6  C   UNL     1      -7.501  33.682   0.996  1.00  0.00     0.041 C 
ATOM      7  O   UNL     1      -8.346  34.147   0.186  1.00  0.00    -0.550 OA
ATOM      8  O   UNL     1      -7.292  32.309   1.060  1.00  0.00    -0.550 OA
ENDBRANCH   5   6
ENDBRANCH   4   5
ENDBRANCH   3   4
ENDBRANCH   2   3
ENDBRANCH   1   2
BRANCH   1   9
ATOM      9  C   UNL     1      -4.088  36.771  -1.686  1.00  0.00     0.000 C 
BRANCH   9  10
ATOM     10  C   UNL     1      -4.796  38.080  -1.290  1.00  0.00    -0.000 C 
BRANCH  10  11
ATOM     11  C   UNL     1      -6.305  38.125  -1.596  1.00  0.00    -0.000 C 
BRANCH  11  12
ATOM     12  C   UNL     1      -7.209  37.488  -0.522  1.00  0.00    -0.000 C 
BRANCH  12  13
ATOM     13  C   UNL     1      -8.715  37.558  -0.855  1.00  0.00    -0.003 C 
ATOM     14  C   UNL     1      -8.980  37.745  -2.349  1.00  0.00     0.004 C 
ENDBRANCH  12  13
ENDBRANCH  11  12
ENDBRANCH  10  11
ENDBRANCH   9  10
ENDBRANCH   1   9
TORSDOF 10
ENDMDL
MODEL 4
REMARK VINA RESULT:    -3.923     12.610     15.673
REMARK INTER + INTRA:          -6.700
REMARK INTER:                  -6.050
REMARK INTRA:                  -0.651
REMARK UNBOUND:                -0.484
REMARK SMILES CCCCCCCCCCCC(=O)[O-]
REMARK SMILES IDX 7 1 8 2 9 3 10 4 11 5 12 6 13 7 14 8 6 9 5 10 4 11 3 12 2 13
REMARK SMILES IDX 1 14
REMARK H PARENT
REMARK Flexibility Score: inf
ROOT
ATOM      1  C   UNL     1      -4.331  34.907   0.990  1.00  0.00     0.000 C 
ENDROOT
BRANCH   1   2
ATOM      2  C   UNL     1      -5.430  34.024   1.605  1.00  0.00     0.000 C 
BRANCH   2   3
ATOM      3  C   UNL     1      -6.696  33.966   0.732  1.00  0.00     0.000 C 
BRANCH   3   4
ATOM      4  C   UNL     1      -7.492  32.666   0.933  1.00  0.00     0.006 C 
BRANCH   4   5
ATOM      5  C   UNL     1      -6.718  31.615   1.739  1.00  0.00     0.053 C 
BRANCH   5   6
ATOM      6  C   UNL     1      -7.424  30.297   1.691  1.00  0.00     0.041 C 
ATOM      7  O   UNL     1      -7.750  29.792   0.584  1.00  0.00    -0.550 OA
ATOM      8  O   UNL     1      -7.679  29.601   2.866  1.00  0.00    -0.550 OA
ENDBRANCH   5   6
ENDBRANCH   4   5
ENDBRANCH   3   4
ENDBRANCH   2   3
ENDBRANCH   1   2
BRANCH   1   9
ATOM      9  C   UNL     1      -4.894  35.957   0.017  1.00  0.00     0.000 C 
BRANCH   9  10
ATOM     10  C   UNL     1      -5.078  37.340   0.671  1.00  0.00    -0.000 C 
BRANCH  10  11
ATOM     11  C   UNL     1      -6.337  38.109   0.228  1.00  0.00    -0.000 C 
BRANCH  11  12
ATOM     12  C   UNL     1      -7.571  37.232  -0.063  1.00  0.00    -0.000 C 
BRANCH  12  13
ATOM     13  C   UNL     1      -8.442  37.751  -1.228  1.00  0.00    -0.003 C 
ATOM     14  C   UNL     1      -9.795  37.046  -1.311  1.00  0.00     0.004 C 
ENDBRANCH  12  13
ENDBRANCH  11  12
ENDBRANCH  10  11
ENDBRANCH   9  10
ENDBRANCH   1   9
TORSDOF 10
ENDMDL
MODEL 5
REMARK VINA RESULT:    -3.811      4.042      7.137
REMARK INTER + INTRA:          -6.523
REMARK INTER:                  -5.999
REMARK INTRA:                  -0.523
REMARK UNBOUND:                -0.484
REMARK SMILES CCCCCCCCCCCC(=O)[O-]
REMARK SMILES IDX 7 1 8 2 9 3 10 4 11 5 12 6 13 7 14 8 6 9 5 10 4 11 3 12 2 13
REMARK SMILES IDX 1 14
REMARK H PARENT
REMARK Flexibility Score: inf
ROOT
ATOM      1  C   UNL     1     -18.371  34.112 -11.238  1.00  0.00     0.000 C 
ENDROOT
BRANCH   1   2
ATOM      2  C   UNL     1     -18.504  33.126 -10.066  1.00  0.00     0.000 C 
BRANCH   2   3
ATOM      3  C   UNL     1     -18.955  33.814  -8.766  1.00  0.00     0.000 C 
BRANCH   3   4
ATOM      4  C   UNL     1     -20.294  33.268  -8.242  1.00  0.00     0.006 C 
BRANCH   4   5
ATOM      5  C   UNL     1     -21.230  34.375  -7.739  1.00  0.00     0.053 C 
BRANCH   5   6
ATOM      6  C   UNL     1     -22.587  33.817  -7.448  1.00  0.00     0.041 C 
ATOM      7  O   UNL     1     -22.717  32.846  -6.656  1.00  0.00    -0.550 OA
ATOM      8  O   UNL     1     -23.715  34.400  -8.013  1.00  0.00    -0.550 OA
ENDBRANCH   5   6
ENDBRANCH   4   5
ENDBRANCH   3   4
ENDBRANCH   2   3
ENDBRANCH   1   2
BRANCH   1   9
ATOM      9  C   UNL     1     -17.265  33.706 -12.228  1.00  0.00     0.000 C 
BRANCH   9  10
ATOM     10  C   UNL     1     -16.039  33.084 -11.533  1.00  0.00    -0.000 C 
BRANCH  10  11
ATOM     11  C   UNL     1     -15.120  34.086 -10.809  1.00  0.00    -0.000 C 
BRANCH  11  12
ATOM     12  C   UNL     1     -15.225  34.076  -9.272  1.00  0.00    -0.000 C 
BRANCH  12  13
ATOM     13  C   UNL     1     -14.150  34.933  -8.569  1.00  0.00    -0.003 C 
ATOM     14  C   UNL     1     -13.137  35.527  -9.548  1.00  0.00     0.004 C 
ENDBRANCH  12  13
ENDBRANCH  11  12
ENDBRANCH  10  11
ENDBRANCH   9  10
ENDBRANCH   1   9
TORSDOF 10
ENDMDL
MODEL 6
REMARK VINA RESULT:    -3.445     14.219     15.841
REMARK INTER + INTRA:          -5.943
REMARK INTER:                  -5.009
REMARK INTRA:                  -0.934
REMARK UNBOUND:                -0.484
REMARK SMILES CCCCCCCCCCCC(=O)[O-]
REMARK SMILES IDX 7 1 8 2 9 3 10 4 11 5 12 6 13 7 14 8 6 9 5 10 4 11 3 12 2 13
REMARK SMILES IDX 1 14
REMARK H PARENT
REMARK Flexibility Score: inf
ROOT
ATOM      1  C   UNL     1      -4.089  34.813  -0.126  1.00  0.00     0.000 C 
ENDROOT
BRANCH   1   2
ATOM      2  C   UNL     1      -3.882  36.336  -0.083  1.00  0.00     0.000 C 
BRANCH   2   3
ATOM      3  C   UNL     1      -4.403  36.964   1.222  1.00  0.00     0.000 C 
BRANCH   3   4
ATOM      4  C   UNL     1      -5.517  37.995   0.977  1.00  0.00     0.006 C 
BRANCH   4   5
ATOM      5  C   UNL     1      -6.857  37.345   0.609  1.00  0.00     0.053 C 
BRANCH   5   6
ATOM      6  C   UNL     1      -7.273  37.752  -0.769  1.00  0.00     0.041 C 
ATOM      7  O   UNL     1      -6.410  38.125  -1.608  1.00  0.00    -0.550 OA
ATOM      8  O   UNL     1      -8.608  37.673  -1.145  1.00  0.00    -0.550 OA
ENDBRANCH   5   6
ENDBRANCH   4   5
ENDBRANCH   3   4
ENDBRANCH   2   3
ENDBRANCH   1   2
BRANCH   1   9
ATOM      9  C   UNL     1      -3.888  34.151   1.248  1.00  0.00     0.000 C 
BRANCH   9  10
ATOM     10  C   UNL     1      -5.162  33.464   1.774  1.00  0.00    -0.000 C 
BRANCH  10  11
ATOM     11  C   UNL     1      -6.409  33.632   0.886  1.00  0.00    -0.000 C 
BRANCH  11  12
ATOM     12  C   UNL     1      -7.437  32.488   0.979  1.00  0.00    -0.000 C 
BRANCH  12  13
ATOM     13  C   UNL     1      -6.912  31.239   1.720  1.00  0.00    -0.003 C 
ATOM     14  C   UNL     1      -7.668  29.966   1.339  1.00  0.00     0.004 C 
ENDBRANCH  12  13
ENDBRANCH  11  12
ENDBRANCH  10  11
ENDBRANCH   9  10
ENDBRANCH   1   9
TORSDOF 10
ENDMDL
MODEL 7
REMARK VINA RESULT:    -3.319     15.099     16.895
REMARK INTER + INTRA:          -5.743
REMARK INTER:                  -4.970
REMARK INTRA:                  -0.772
REMARK UNBOUND:                -0.484
REMARK SMILES CCCCCCCCCCCC(=O)[O-]
REMARK SMILES IDX 7 1 8 2 9 3 10 4 11 5 12 6 13 7 14 8 6 9 5 10 4 11 3 12 2 13
REMARK SMILES IDX 1 14
REMARK H PARENT
REMARK Flexibility Score: inf
ROOT
ATOM      1  C   UNL     1      -4.308  34.148   1.908  1.00  0.00     0.000 C 
ENDROOT
BRANCH   1   2
ATOM      2  C   UNL     1      -5.166  33.643   0.736  1.00  0.00     0.000 C 
BRANCH   2   3
ATOM      3  C   UNL     1      -6.666  33.910   0.947  1.00  0.00     0.000 C 
BRANCH   3   4
ATOM      4  C   UNL     1      -7.485  32.614   1.069  1.00  0.00     0.006 C 
BRANCH   4   5
ATOM      5  C   UNL     1      -6.639  31.419   1.526  1.00  0.00     0.053 C 
BRANCH   5   6
ATOM      6  C   UNL     1      -7.480  30.184   1.603  1.00  0.00     0.041 C 
ATOM      7  O   UNL     1      -7.848  29.735   2.721  1.00  0.00    -0.550 OA
ATOM      8  O   UNL     1      -7.901  29.556   0.437  1.00  0.00    -0.550 OA
ENDBRANCH   5   6
ENDBRANCH   4   5
ENDBRANCH   3   4
ENDBRANCH   2   3
ENDBRANCH   1   2
BRANCH   1   9
ATOM      9  C   UNL     1      -3.892  35.620   1.743  1.00  0.00     0.000 C 
BRANCH   9  10
ATOM     10  C   UNL     1      -4.879  36.599   2.405  1.00  0.00    -0.000 C 
BRANCH  10  11
ATOM     11  C   UNL     1      -5.236  37.838   1.562  1.00  0.00    -0.000 C 
BRANCH  11  12
ATOM     12  C   UNL     1      -4.283  38.125   0.386  1.00  0.00    -0.000 C 
BRANCH  12  13
ATOM     13  C   UNL     1      -4.895  37.826  -0.999  1.00  0.00    -0.003 C 
ATOM     14  C   UNL     1      -4.224  36.644  -1.698  1.00  0.00     0.004 C 
ENDBRANCH  12  13
ENDBRANCH  11  12
ENDBRANCH  10  11
ENDBRANCH   9  10
ENDBRANCH   1   9
TORSDOF 10
ENDMDL
MODEL 8
REMARK VINA RESULT:    -3.155     11.848     15.419
REMARK INTER + INTRA:          -5.483
REMARK INTER:                  -4.523
REMARK INTRA:                  -0.961
REMARK UNBOUND:                -0.484
REMARK SMILES CCCCCCCCCCCC(=O)[O-]
REMARK SMILES IDX 7 1 8 2 9 3 10 4 11 5 12 6 13 7 14 8 6 9 5 10 4 11 3 12 2 13
REMARK SMILES IDX 1 14
REMARK H PARENT
REMARK Flexibility Score: inf
ROOT
ATOM      1  C   UNL     1      -6.165  37.712   1.420  1.00  0.00     0.000 C 
ENDROOT
BRANCH   1   2
ATOM      2  C   UNL     1      -5.671  38.125   0.023  1.00  0.00     0.000 C 
BRANCH   2   3
ATOM      3  C   UNL     1      -6.783  38.059  -1.038  1.00  0.00     0.000 C 
BRANCH   3   4
ATOM      4  C   UNL     1      -8.162  37.754  -0.430  1.00  0.00     0.006 C 
BRANCH   4   5
ATOM      5  C   UNL     1      -9.241  37.521  -1.496  1.00  0.00     0.053 C 
BRANCH   5   6
ATOM      6  C   UNL     1     -10.098  36.353  -1.124  1.00  0.00     0.041 C 
ATOM      7  O   UNL     1      -9.614  35.397  -0.461  1.00  0.00    -0.550 OA
ATOM      8  O   UNL     1     -11.445  36.340  -1.465  1.00  0.00    -0.550 OA
ENDBRANCH   5   6
ENDBRANCH   4   5
ENDBRANCH   3   4
ENDBRANCH   2   3
ENDBRANCH   1   2
BRANCH   1   9
ATOM      9  C   UNL     1      -5.024  37.221   2.328  1.00  0.00     0.000 C 
BRANCH   9  10
ATOM     10  C   UNL     1      -4.036  36.292   1.598  1.00  0.00    -0.000 C 
BRANCH  10  11
ATOM     11  C   UNL     1      -4.343  34.787   1.720  1.00  0.00    -0.000 C 
BRANCH  11  12
ATOM     12  C   UNL     1      -5.256  34.215   0.618  1.00  0.00    -0.000 C 
BRANCH  12  13
ATOM     13  C   UNL     1      -6.736  34.091   1.040  1.00  0.00    -0.003 C 
ATOM     14  C   UNL     1      -7.234  32.645   1.023  1.00  0.00     0.004 C 
ENDBRANCH  12  13
ENDBRANCH  11  12
ENDBRANCH  10  11
ENDBRANCH   9  10
ENDBRANCH   1   9
TORSDOF 10
ENDMDL
