MODEL 1
REMARK VINA RESULT:    -6.443      0.000      0.000
REMARK INTER + INTRA:          -7.867
REMARK INTER:                  -7.573
REMARK INTRA:                  -0.295
REMARK UNBOUND:                -0.295
REMARK SMILES O=c1cc(-c2ccc(O)c(O)c2)oc2cc(O)cc(O)c12
REMARK SMILES IDX 4 1 3 2 2 3 1 4 21 5 19 6 18 7 16 8 15 9 14 10 13 11 5 12
REMARK SMILES IDX 6 13 7 14 8 15 12 16 10 17 9 18 11 20 20 22 17 24
REMARK H PARENT 9 19 11 21 20 23 17 25
REMARK Flexibility Score: inf
ROOT
ATOM      1  C   UNL     1      -1.732  51.462  10.365  1.00  0.00     0.138 A 
ATOM      2  C   UNL     1      -1.608  50.348   9.522  1.00  0.00     0.100 A 
ATOM      3  C   UNL     1      -2.337  50.299   8.332  1.00  0.00     0.197 A 
ATOM      4  O   UNL     1      -2.254  49.260   7.627  1.00  0.00    -0.289 OA
ATOM      5  C   UNL     1      -3.169  51.386   7.972  1.00  0.00     0.107 A 
ATOM      6  C   UNL     1      -3.926  51.464   6.764  1.00  0.00     0.134 A 
ATOM      7  C   UNL     1      -4.805  52.537   6.569  1.00  0.00     0.093 A 
ATOM      8  C   UNL     1      -4.908  53.565   7.510  1.00  0.00     0.123 A 
ATOM      9  C   UNL     1      -4.133  53.525   8.667  1.00  0.00     0.094 A 
ATOM     10  C   UNL     1      -3.273  52.450   8.907  1.00  0.00     0.146 A 
ATOM     11  O   UNL     1      -2.562  52.444  10.029  1.00  0.00    -0.456 OA
ENDROOT
BRANCH   1  12
ATOM     12  C   UNL     1      -0.980  51.567  11.641  1.00  0.00     0.021 A 
ATOM     13  C   UNL     1       0.387  51.239  11.722  1.00  0.00     0.016 A 
ATOM     14  C   UNL     1       1.073  51.357  12.933  1.00  0.00     0.051 A 
ATOM     15  C   UNL     1       0.414  51.809  14.080  1.00  0.00     0.157 A 
ATOM     16  C   UNL     1      -1.634  52.033  12.794  1.00  0.00     0.062 A 
ATOM     17  C   UNL     1      -0.946  52.150  14.011  1.00  0.00     0.158 A 
BRANCH  15  18
ATOM     18  O   UNL     1       1.125  51.913  15.275  1.00  0.00    -0.504 OA
ATOM     19  H   UNL     1       0.796  51.495  16.136  1.00  0.00     0.293 HD
ENDBRANCH  15  18
BRANCH  17  20
ATOM     20  O   UNL     1      -1.610  52.605  15.149  1.00  0.00    -0.504 OA
ATOM     21  H   UNL     1      -2.431  53.197  15.086  1.00  0.00     0.293 HD
ENDBRANCH  17  20
ENDBRANCH   1  12
BRANCH   6  22
ATOM     22  O   UNL     1      -3.834  50.536   5.724  1.00  0.00    -0.507 OA
ATOM     23  H   UNL     1      -4.193  49.593   5.758  1.00  0.00     0.293 HD
ENDBRANCH   6  22
BRANCH   8  24
ATOM     24  O   UNL     1      -5.774  54.636   7.300  1.00  0.00    -0.508 OA
ATOM     25  H   UNL     1      -6.563  54.564   6.669  1.00  0.00     0.293 HD
ENDBRANCH   8  24
TORSDOF 5
ENDMDL
MODEL 2
REMARK VINA RESULT:    -6.423      2.098      3.542
REMARK INTER + INTRA:          -7.844
REMARK INTER:                  -7.581
REMARK INTRA:                  -0.262
REMARK UNBOUND:                -0.295
REMARK SMILES O=c1cc(-c2ccc(O)c(O)c2)oc2cc(O)cc(O)c12
REMARK SMILES IDX 4 1 3 2 2 3 1 4 21 5 19 6 18 7 16 8 15 9 14 10 13 11 5 12
REMARK SMILES IDX 6 13 7 14 8 15 12 16 10 17 9 18 11 20 20 22 17 24
REMARK H PARENT 9 19 11 21 20 23 17 25
REMARK Flexibility Score: inf
ROOT
ATOM      1  C   UNL     1      -2.928  52.097  11.883  1.00  0.00     0.138 A 
ATOM      2  C   UNL     1      -3.235  53.424  11.552  1.00  0.00     0.100 A 
ATOM      3  C   UNL     1      -3.350  53.792  10.209  1.00  0.00     0.197 A 
ATOM      4  O   UNL     1      -3.565  55.002   9.942  1.00  0.00    -0.289 OA
ATOM      5  C   UNL     1      -3.186  52.816   9.197  1.00  0.00     0.107 A 
ATOM      6  C   UNL     1      -3.320  53.067   7.798  1.00  0.00     0.134 A 
ATOM      7  C   UNL     1      -3.021  52.050   6.883  1.00  0.00     0.093 A 
ATOM      8  C   UNL     1      -2.651  50.775   7.318  1.00  0.00     0.123 A 
ATOM      9  C   UNL     1      -2.569  50.505   8.682  1.00  0.00     0.094 A 
ATOM     10  C   UNL     1      -2.828  51.508   9.620  1.00  0.00     0.146 A 
ATOM     11  O   UNL     1      -2.725  51.214  10.911  1.00  0.00    -0.456 OA
ENDROOT
BRANCH   1  12
ATOM     12  C   UNL     1      -2.795  51.651  13.293  1.00  0.00     0.021 A 
ATOM     13  C   UNL     1      -1.537  51.514  13.909  1.00  0.00     0.016 A 
ATOM     14  C   UNL     1      -1.441  51.103  15.241  1.00  0.00     0.051 A 
ATOM     15  C   UNL     1      -2.594  50.830  15.983  1.00  0.00     0.157 A 
ATOM     16  C   UNL     1      -3.951  51.389  14.048  1.00  0.00     0.062 A 
ATOM     17  C   UNL     1      -3.856  50.975  15.385  1.00  0.00     0.158 A 
BRANCH  15  18
ATOM     18  O   UNL     1      -2.466  50.420  17.309  1.00  0.00    -0.504 OA
ATOM     19  H   UNL     1      -1.650  49.922  17.643  1.00  0.00     0.293 HD
ENDBRANCH  15  18
BRANCH  17  20
ATOM     20  O   UNL     1      -5.010  50.708  16.119  1.00  0.00    -0.504 OA
ATOM     21  H   UNL     1      -5.157  49.813  16.573  1.00  0.00     0.293 HD
ENDBRANCH  17  20
ENDBRANCH   1  12
BRANCH   6  22
ATOM     22  O   UNL     1      -3.765  54.278   7.261  1.00  0.00    -0.507 OA
ATOM     23  H   UNL     1      -4.355  54.366   6.447  1.00  0.00     0.293 HD
ENDBRANCH   6  22
BRANCH   8  24
ATOM     24  O   UNL     1      -2.369  49.765   6.401  1.00  0.00    -0.508 OA
ATOM     25  H   UNL     1      -1.649  49.874   5.696  1.00  0.00     0.293 HD
ENDBRANCH   8  24
TORSDOF 5
ENDMDL
MODEL 3
REMARK VINA RESULT:    -6.126      1.763      7.145
REMARK INTER + INTRA:          -7.495
REMARK INTER:                  -7.223
REMARK INTRA:                  -0.272
REMARK UNBOUND:                -0.295
REMARK SMILES O=c1cc(-c2ccc(O)c(O)c2)oc2cc(O)cc(O)c12
REMARK SMILES IDX 4 1 3 2 2 3 1 4 21 5 19 6 18 7 16 8 15 9 14 10 13 11 5 12
REMARK SMILES IDX 6 13 7 14 8 15 12 16 10 17 9 18 11 20 20 22 17 24
REMARK H PARENT 9 19 11 21 20 23 17 25
REMARK Flexibility Score: inf
ROOT
ATOM      1  C   UNL     1      -2.380  51.438  11.083  1.00  0.00     0.138 A 
ATOM      2  C   UNL     1      -1.016  51.636  11.344  1.00  0.00     0.100 A 
ATOM      3  C   UNL     1      -0.565  51.681  12.665  1.00  0.00     0.197 A 
ATOM      4  O   UNL     1       0.652  51.922  12.868  1.00  0.00    -0.289 OA
ATOM      5  C   UNL     1      -1.482  51.495  13.727  1.00  0.00     0.107 A 
ATOM      6  C   UNL     1      -1.129  51.480  15.110  1.00  0.00     0.134 A 
ATOM      7  C   UNL     1      -2.139  51.404  16.078  1.00  0.00     0.093 A 
ATOM      8  C   UNL     1      -3.482  51.282  15.712  1.00  0.00     0.123 A 
ATOM      9  C   UNL     1      -3.831  51.241  14.364  1.00  0.00     0.094 A 
ATOM     10  C   UNL     1      -2.850  51.350  13.374  1.00  0.00     0.146 A 
ATOM     11  O   UNL     1      -3.227  51.321  12.101  1.00  0.00    -0.456 OA
ENDROOT
BRANCH   1  12
ATOM     12  C   UNL     1      -2.913  51.381   9.699  1.00  0.00     0.021 A 
ATOM     13  C   UNL     1      -3.995  52.183   9.290  1.00  0.00     0.016 A 
ATOM     14  C   UNL     1      -4.470  52.118   7.978  1.00  0.00     0.051 A 
ATOM     15  C   UNL     1      -3.873  51.259   7.051  1.00  0.00     0.157 A 
ATOM     16  C   UNL     1      -2.308  50.530   8.758  1.00  0.00     0.062 A 
ATOM     17  C   UNL     1      -2.786  50.462   7.441  1.00  0.00     0.158 A 
BRANCH  15  18
ATOM     18  O   UNL     1      -4.371  51.214   5.749  1.00  0.00    -0.504 OA
ATOM     19  H   UNL     1      -3.763  51.159   4.941  1.00  0.00     0.293 HD
ENDBRANCH  15  18
BRANCH  17  20
ATOM     20  O   UNL     1      -2.182  49.606   6.521  1.00  0.00    -0.504 OA
ATOM     21  H   UNL     1      -1.174  49.558   6.421  1.00  0.00     0.293 HD
ENDBRANCH  17  20
ENDBRANCH   1  12
BRANCH   6  22
ATOM     22  O   UNL     1       0.186  51.511  15.582  1.00  0.00    -0.507 OA
ATOM     23  H   UNL     1       0.936  50.933  15.235  1.00  0.00     0.293 HD
ENDBRANCH   6  22
BRANCH   8  24
ATOM     24  O   UNL     1      -4.478  51.192  16.682  1.00  0.00    -0.508 OA
ATOM     25  H   UNL     1      -4.441  50.493  17.415  1.00  0.00     0.293 HD
ENDBRANCH   8  24
TORSDOF 5
ENDMDL
MODEL 4
REMARK VINA RESULT:    -6.105      2.668      7.181
REMARK INTER + INTRA:          -7.470
REMARK INTER:                  -7.175
REMARK INTRA:                  -0.295
REMARK UNBOUND:                -0.295
REMARK SMILES O=c1cc(-c2ccc(O)c(O)c2)oc2cc(O)cc(O)c12
REMARK SMILES IDX 4 1 3 2 2 3 1 4 21 5 19 6 18 7 16 8 15 9 14 10 13 11 5 12
REMARK SMILES IDX 6 13 7 14 8 15 12 16 10 17 9 18 11 20 20 22 17 24
REMARK H PARENT 9 19 11 21 20 23 17 25
REMARK Flexibility Score: inf
ROOT
ATOM      1  C   UNL     1      -3.399  52.474  10.793  1.00  0.00     0.138 A 
ATOM      2  C   UNL     1      -3.256  53.848  11.029  1.00  0.00     0.100 A 
ATOM      3  C   UNL     1      -3.206  54.321  12.342  1.00  0.00     0.197 A 
ATOM      4  O   UNL     1      -3.139  55.564  12.523  1.00  0.00    -0.289 OA
ATOM      5  C   UNL     1      -3.269  53.408  13.421  1.00  0.00     0.107 A 
ATOM      6  C   UNL     1      -3.186  53.772  14.799  1.00  0.00     0.134 A 
ATOM      7  C   UNL     1      -3.377  52.794  15.784  1.00  0.00     0.093 A 
ATOM      8  C   UNL     1      -3.588  51.456  15.440  1.00  0.00     0.123 A 
ATOM      9  C   UNL     1      -3.616  51.082  14.098  1.00  0.00     0.094 A 
ATOM     10  C   UNL     1      -3.463  52.040  13.092  1.00  0.00     0.146 A 
ATOM     11  O   UNL     1      -3.511  51.644  11.825  1.00  0.00    -0.456 OA
ENDROOT
BRANCH   1  12
ATOM     12  C   UNL     1      -3.457  51.916   9.418  1.00  0.00     0.021 A 
ATOM     13  C   UNL     1      -4.185  52.551   8.393  1.00  0.00     0.016 A 
ATOM     14  C   UNL     1      -4.213  52.011   7.105  1.00  0.00     0.051 A 
ATOM     15  C   UNL     1      -3.514  50.836   6.814  1.00  0.00     0.157 A 
ATOM     16  C   UNL     1      -2.745  50.742   9.116  1.00  0.00     0.062 A 
ATOM     17  C   UNL     1      -2.775  50.199   7.823  1.00  0.00     0.158 A 
BRANCH  15  18
ATOM     18  O   UNL     1      -3.564  50.320   5.520  1.00  0.00    -0.504 OA
ATOM     19  H   UNL     1      -3.830  49.361   5.332  1.00  0.00     0.293 HD
ENDBRANCH  15  18
BRANCH  17  20
ATOM     20  O   UNL     1      -2.072  49.029   7.540  1.00  0.00    -0.504 OA
ATOM     21  H   UNL     1      -2.538  48.200   7.187  1.00  0.00     0.293 HD
ENDBRANCH  17  20
ENDBRANCH   1  12
BRANCH   6  22
ATOM     22  O   UNL     1      -2.896  55.062  15.250  1.00  0.00    -0.507 OA
ATOM     23  H   UNL     1      -2.054  55.573  15.033  1.00  0.00     0.293 HD
ENDBRANCH   6  22
BRANCH   8  24
ATOM     24  O   UNL     1      -3.762  50.487  16.426  1.00  0.00    -0.508 OA
ATOM     25  H   UNL     1      -3.494  49.522  16.273  1.00  0.00     0.293 HD
ENDBRANCH   8  24
TORSDOF 5
ENDMDL
MODEL 5
REMARK VINA RESULT:    -5.972      1.186      2.697
REMARK INTER + INTRA:          -7.314
REMARK INTER:                  -7.045
REMARK INTRA:                  -0.268
REMARK UNBOUND:                -0.295
REMARK SMILES O=c1cc(-c2ccc(O)c(O)c2)oc2cc(O)cc(O)c12
REMARK SMILES IDX 4 1 3 2 2 3 1 4 21 5 19 6 18 7 16 8 15 9 14 10 13 11 5 12
REMARK SMILES IDX 6 13 7 14 8 15 12 16 10 17 9 18 11 20 20 22 17 24
REMARK H PARENT 9 19 11 21 20 23 17 25
REMARK Flexibility Score: inf
ROOT
ATOM      1  C   UNL     1      -2.099  52.111  11.079  1.00  0.00     0.138 A 
ATOM      2  C   UNL     1      -2.739  53.359  11.069  1.00  0.00     0.100 A 
ATOM      3  C   UNL     1      -3.524  53.723   9.973  1.00  0.00     0.197 A 
ATOM      4  O   UNL     1      -4.034  54.872   9.965  1.00  0.00    -0.289 OA
ATOM      5  C   UNL     1      -3.693  52.818   8.898  1.00  0.00     0.107 A 
ATOM      6  C   UNL     1      -4.502  53.065   7.748  1.00  0.00     0.134 A 
ATOM      7  C   UNL     1      -4.501  52.144   6.693  1.00  0.00     0.093 A 
ATOM      8  C   UNL     1      -3.767  50.957   6.772  1.00  0.00     0.123 A 
ATOM      9  C   UNL     1      -3.016  50.682   7.913  1.00  0.00     0.094 A 
ATOM     10  C   UNL     1      -2.970  51.597   8.968  1.00  0.00     0.146 A 
ATOM     11  O   UNL     1      -2.230  51.303  10.032  1.00  0.00    -0.456 OA
ENDROOT
BRANCH   1  12
ATOM     12  C   UNL     1      -1.253  51.673  12.219  1.00  0.00     0.021 A 
ATOM     13  C   UNL     1       0.093  51.304  12.040  1.00  0.00     0.016 A 
ATOM     14  C   UNL     1       0.869  50.906  13.131  1.00  0.00     0.051 A 
ATOM     15  C   UNL     1       0.321  50.875  14.417  1.00  0.00     0.157 A 
ATOM     16  C   UNL     1      -1.796  51.653  13.516  1.00  0.00     0.062 A 
ATOM     17  C   UNL     1      -1.017  51.252  14.612  1.00  0.00     0.158 A 
BRANCH  15  18
ATOM     18  O   UNL     1       1.120  50.471  15.486  1.00  0.00    -0.504 OA
ATOM     19  H   UNL     1       0.739  49.990  16.292  1.00  0.00     0.293 HD
ENDBRANCH  15  18
BRANCH  17  20
ATOM     20  O   UNL     1      -1.570  51.227  15.891  1.00  0.00    -0.504 OA
ATOM     21  H   UNL     1      -2.550  51.433  16.051  1.00  0.00     0.293 HD
ENDBRANCH  17  20
ENDBRANCH   1  12
BRANCH   6  22
ATOM     22  O   UNL     1      -5.338  54.176   7.605  1.00  0.00    -0.507 OA
ATOM     23  H   UNL     1      -6.332  54.175   7.778  1.00  0.00     0.293 HD
ENDBRANCH   6  22
BRANCH   8  24
ATOM     24  O   UNL     1      -3.783  50.040   5.724  1.00  0.00    -0.508 OA
ATOM     25  H   UNL     1      -2.935  49.776   5.237  1.00  0.00     0.293 HD
ENDBRANCH   8  24
TORSDOF 5
ENDMDL
MODEL 6
REMARK VINA RESULT:    -5.919      2.129      2.606
REMARK INTER + INTRA:          -7.252
REMARK INTER:                  -6.972
REMARK INTRA:                  -0.280
REMARK UNBOUND:                -0.295
REMARK SMILES O=c1cc(-c2ccc(O)c(O)c2)oc2cc(O)cc(O)c12
REMARK SMILES IDX 4 1 3 2 2 3 1 4 21 5 19 6 18 7 16 8 15 9 14 10 13 11 5 12
REMARK SMILES IDX 6 13 7 14 8 15 12 16 10 17 9 18 11 20 20 22 17 24
REMARK H PARENT 9 19 11 21 20 23 17 25
REMARK Flexibility Score: inf
ROOT
ATOM      1  C   UNL     1      -2.662  52.024  11.581  1.00  0.00     0.138 A 
ATOM      2  C   UNL     1      -1.939  51.256  10.658  1.00  0.00     0.100 A 
ATOM      3  C   UNL     1      -1.930  51.624   9.310  1.00  0.00     0.197 A 
ATOM      4  O   UNL     1      -1.324  50.881   8.496  1.00  0.00    -0.289 OA
ATOM      5  C   UNL     1      -2.624  52.786   8.895  1.00  0.00     0.107 A 
ATOM      6  C   UNL     1      -2.651  53.280   7.556  1.00  0.00     0.134 A 
ATOM      7  C   UNL     1      -3.467  54.374   7.241  1.00  0.00     0.093 A 
ATOM      8  C   UNL     1      -4.210  55.028   8.228  1.00  0.00     0.123 A 
ATOM      9  C   UNL     1      -4.148  54.586   9.548  1.00  0.00     0.094 A 
ATOM     10  C   UNL     1      -3.370  53.476   9.888  1.00  0.00     0.146 A 
ATOM     11  O   UNL     1      -3.349  53.078  11.155  1.00  0.00    -0.456 OA
ENDROOT
BRANCH   1  12
ATOM     12  C   UNL     1      -2.705  51.678  13.025  1.00  0.00     0.021 A 
ATOM     13  C   UNL     1      -1.534  51.613  13.804  1.00  0.00     0.016 A 
ATOM     14  C   UNL     1      -1.604  51.297  15.163  1.00  0.00     0.051 A 
ATOM     15  C   UNL     1      -2.839  51.046  15.769  1.00  0.00     0.157 A 
ATOM     16  C   UNL     1      -3.944  51.439  13.643  1.00  0.00     0.062 A 
ATOM     17  C   UNL     1      -4.015  51.119  15.007  1.00  0.00     0.158 A 
BRANCH  15  18
ATOM     18  O   UNL     1      -2.876  50.730  17.127  1.00  0.00    -0.504 OA
ATOM     19  H   UNL     1      -3.728  50.437  17.588  1.00  0.00     0.293 HD
ENDBRANCH  15  18
BRANCH  17  20
ATOM     20  O   UNL     1      -5.250  50.874  15.605  1.00  0.00    -0.504 OA
ATOM     21  H   UNL     1      -6.087  51.373  15.322  1.00  0.00     0.293 HD
ENDBRANCH  17  20
ENDBRANCH   1  12
BRANCH   6  22
ATOM     22  O   UNL     1      -1.884  52.754   6.514  1.00  0.00    -0.507 OA
ATOM     23  H   UNL     1      -2.107  52.839   5.534  1.00  0.00     0.293 HD
ENDBRANCH   6  22
BRANCH   8  24
ATOM     24  O   UNL     1      -5.007  56.124   7.908  1.00  0.00    -0.508 OA
ATOM     25  H   UNL     1      -5.228  56.356   6.947  1.00  0.00     0.293 HD
ENDBRANCH   8  24
TORSDOF 5
ENDMDL
MODEL 7
REMARK VINA RESULT:    -5.756      1.821      7.115
REMARK INTER + INTRA:          -7.061
REMARK INTER:                  -6.797
REMARK INTRA:                  -0.263
REMARK UNBOUND:                -0.295
REMARK SMILES O=c1cc(-c2ccc(O)c(O)c2)oc2cc(O)cc(O)c12
REMARK SMILES IDX 4 1 3 2 2 3 1 4 21 5 19 6 18 7 16 8 15 9 14 10 13 11 5 12
REMARK SMILES IDX 6 13 7 14 8 15 12 16 10 17 9 18 11 20 20 22 17 24
REMARK H PARENT 9 19 11 21 20 23 17 25
REMARK Flexibility Score: inf
ROOT
ATOM      1  C   UNL     1      -2.700  52.773  10.823  1.00  0.00     0.138 A 
ATOM      2  C   UNL     1      -1.299  52.817  10.852  1.00  0.00     0.100 A 
ATOM      3  C   UNL     1      -0.616  52.327  11.967  1.00  0.00     0.197 A 
ATOM      4  O   UNL     1       0.637  52.437  11.991  1.00  0.00    -0.289 OA
ATOM      5  C   UNL     1      -1.341  51.762  13.043  1.00  0.00     0.107 A 
ATOM      6  C   UNL     1      -0.749  51.195  14.212  1.00  0.00     0.134 A 
ATOM      7  C   UNL     1      -1.571  50.771  15.265  1.00  0.00     0.093 A 
ATOM      8  C   UNL     1      -2.963  50.838  15.165  1.00  0.00     0.123 A 
ATOM      9  C   UNL     1      -3.551  51.340  14.005  1.00  0.00     0.094 A 
ATOM     10  C   UNL     1      -2.758  51.803  12.952  1.00  0.00     0.146 A 
ATOM     11  O   UNL     1      -3.358  52.287  11.871  1.00  0.00    -0.456 OA
ENDROOT
BRANCH   1  12
ATOM     12  C   UNL     1      -3.476  53.279   9.663  1.00  0.00     0.021 A 
ATOM     13  C   UNL     1      -3.871  54.627   9.569  1.00  0.00     0.016 A 
ATOM     14  C   UNL     1      -4.592  55.079   8.461  1.00  0.00     0.051 A 
ATOM     15  C   UNL     1      -4.925  54.200   7.426  1.00  0.00     0.157 A 
ATOM     16  C   UNL     1      -3.803  52.403   8.613  1.00  0.00     0.062 A 
ATOM     17  C   UNL     1      -4.528  52.856   7.501  1.00  0.00     0.158 A 
BRANCH  15  18
ATOM     18  O   UNL     1      -5.647  54.680   6.335  1.00  0.00    -0.504 OA
ATOM     19  H   UNL     1      -6.471  54.207   5.983  1.00  0.00     0.293 HD
ENDBRANCH  15  18
BRANCH  17  20
ATOM     20  O   UNL     1      -4.853  51.974   6.471  1.00  0.00    -0.504 OA
ATOM     21  H   UNL     1      -4.423  52.044   5.555  1.00  0.00     0.293 HD
ENDBRANCH  17  20
ENDBRANCH   1  12
BRANCH   6  22
ATOM     22  O   UNL     1       0.625  51.004  14.378  1.00  0.00    -0.507 OA
ATOM     23  H   UNL     1       1.309  51.065  13.639  1.00  0.00     0.293 HD
ENDBRANCH   6  22
BRANCH   8  24
ATOM     24  O   UNL     1      -3.772  50.399  16.210  1.00  0.00    -0.508 OA
ATOM     25  H   UNL     1      -3.521  49.595  16.774  1.00  0.00     0.293 HD
ENDBRANCH   8  24
TORSDOF 5
ENDMDL
MODEL 8
REMARK VINA RESULT:    -5.679      4.542      7.384
REMARK INTER + INTRA:          -6.970
REMARK INTER:                  -6.708
REMARK INTRA:                  -0.262
REMARK UNBOUND:                -0.295
REMARK SMILES O=c1cc(-c2ccc(O)c(O)c2)oc2cc(O)cc(O)c12
REMARK SMILES IDX 4 1 3 2 2 3 1 4 21 5 19 6 18 7 16 8 15 9 14 10 13 11 5 12
REMARK SMILES IDX 6 13 7 14 8 15 12 16 10 17 9 18 11 20 20 22 17 24
REMARK H PARENT 9 19 11 21 20 23 17 25
REMARK Flexibility Score: inf
ROOT
ATOM      1  C   UNL     1      -4.376  51.609  15.074  1.00  0.00     0.138 A 
ATOM      2  C   UNL     1      -3.368  51.387  16.024  1.00  0.00     0.100 A 
ATOM      3  C   UNL     1      -2.034  51.333  15.615  1.00  0.00     0.197 A 
ATOM      4  O   UNL     1      -1.159  51.071  16.479  1.00  0.00    -0.289 OA
ATOM      5  C   UNL     1      -1.708  51.532  14.252  1.00  0.00     0.107 A 
ATOM      6  C   UNL     1      -0.381  51.539  13.727  1.00  0.00     0.134 A 
ATOM      7  C   UNL     1      -0.186  51.630  12.343  1.00  0.00     0.093 A 
ATOM      8  C   UNL     1      -1.268  51.775  11.471  1.00  0.00     0.123 A 
ATOM      9  C   UNL     1      -2.565  51.824  11.979  1.00  0.00     0.094 A 
ATOM     10  C   UNL     1      -2.794  51.701  13.352  1.00  0.00     0.146 A 
ATOM     11  O   UNL     1      -4.046  51.738  13.793  1.00  0.00    -0.456 OA
ENDROOT
BRANCH   1  12
ATOM     12  C   UNL     1      -5.810  51.677  15.454  1.00  0.00     0.021 A 
ATOM     13  C   UNL     1      -6.448  52.905  15.712  1.00  0.00     0.016 A 
ATOM     14  C   UNL     1      -7.801  52.941  16.057  1.00  0.00     0.051 A 
ATOM     15  C   UNL     1      -8.542  51.759  16.144  1.00  0.00     0.157 A 
ATOM     16  C   UNL     1      -6.563  50.493  15.529  1.00  0.00     0.062 A 
ATOM     17  C   UNL     1      -7.922  50.529  15.877  1.00  0.00     0.158 A 
BRANCH  15  18
ATOM     18  O   UNL     1      -9.890  51.827  16.492  1.00  0.00    -0.504 OA
ATOM     19  H   UNL     1     -10.622  51.484  15.883  1.00  0.00     0.293 HD
ENDBRANCH  15  18
BRANCH  17  20
ATOM     20  O   UNL     1      -8.655  49.346  15.957  1.00  0.00    -0.504 OA
ATOM     21  H   UNL     1      -9.051  48.908  15.133  1.00  0.00     0.293 HD
ENDBRANCH  17  20
ENDBRANCH   1  12
BRANCH   6  22
ATOM     22  O   UNL     1       0.771  51.485  14.516  1.00  0.00    -0.507 OA
ATOM     23  H   UNL     1       0.786  51.563  15.522  1.00  0.00     0.293 HD
ENDBRANCH   6  22
BRANCH   8  24
ATOM     24  O   UNL     1      -1.065  51.880  10.097  1.00  0.00    -0.508 OA
ATOM     25  H   UNL     1      -0.919  52.778   9.650  1.00  0.00     0.293 HD
ENDBRANCH   8  24
TORSDOF 5
ENDMDL
MODEL 9
REMARK VINA RESULT:    -5.678      2.689      7.816
REMARK INTER + INTRA:          -6.968
REMARK INTER:                  -6.652
REMARK INTRA:                  -0.317
REMARK UNBOUND:                -0.295
REMARK SMILES O=c1cc(-c2ccc(O)c(O)c2)oc2cc(O)cc(O)c12
REMARK SMILES IDX 4 1 3 2 2 3 1 4 21 5 19 6 18 7 16 8 15 9 14 10 13 11 5 12
REMARK SMILES IDX 6 13 7 14 8 15 12 16 10 17 9 18 11 20 20 22 17 24
REMARK H PARENT 9 19 11 21 20 23 17 25
REMARK Flexibility Score: inf
ROOT
ATOM      1  C   UNL     1      -2.844  51.411  13.154  1.00  0.00     0.138 A 
ATOM      2  C   UNL     1      -4.111  51.609  13.721  1.00  0.00     0.100 A 
ATOM      3  C   UNL     1      -4.241  51.693  15.109  1.00  0.00     0.197 A 
ATOM      4  O   UNL     1      -5.398  51.808  15.591  1.00  0.00    -0.289 OA
ATOM      5  C   UNL     1      -3.091  51.608  15.929  1.00  0.00     0.107 A 
ATOM      6  C   UNL     1      -3.098  51.720  17.352  1.00  0.00     0.134 A 
ATOM      7  C   UNL     1      -1.913  51.504  18.067  1.00  0.00     0.093 A 
ATOM      8  C   UNL     1      -0.711  51.239  17.407  1.00  0.00     0.123 A 
ATOM      9  C   UNL     1      -0.683  51.181  16.015  1.00  0.00     0.094 A 
ATOM     10  C   UNL     1      -1.855  51.358  15.275  1.00  0.00     0.146 A 
ATOM     11  O   UNL     1      -1.788  51.280  13.950  1.00  0.00    -0.456 OA
ENDROOT
BRANCH   1  12
ATOM     12  C   UNL     1      -2.649  51.316  11.685  1.00  0.00     0.021 A 
ATOM     13  C   UNL     1      -3.739  51.253  10.798  1.00  0.00     0.016 A 
ATOM     14  C   UNL     1      -3.527  51.176   9.419  1.00  0.00     0.051 A 
ATOM     15  C   UNL     1      -2.228  51.166   8.901  1.00  0.00     0.157 A 
ATOM     16  C   UNL     1      -1.345  51.320  11.159  1.00  0.00     0.062 A 
ATOM     17  C   UNL     1      -1.132  51.240   9.775  1.00  0.00     0.158 A 
BRANCH  15  18
ATOM     18  O   UNL     1      -2.048  51.085   7.521  1.00  0.00    -0.504 OA
ATOM     19  H   UNL     1      -2.246  50.239   7.001  1.00  0.00     0.293 HD
ENDBRANCH  15  18
BRANCH  17  20
ATOM     20  O   UNL     1       0.167  51.235   9.266  1.00  0.00    -0.504 OA
ATOM     21  H   UNL     1       0.380  50.841   8.356  1.00  0.00     0.293 HD
ENDBRANCH  17  20
ENDBRANCH   1  12
BRANCH   6  22
ATOM     22  O   UNL     1      -4.225  52.064  18.103  1.00  0.00    -0.507 OA
ATOM     23  H   UNL     1      -4.480  51.646  18.985  1.00  0.00     0.293 HD
ENDBRANCH   6  22
BRANCH   8  24
ATOM     24  O   UNL     1       0.466  51.040  18.125  1.00  0.00    -0.508 OA
ATOM     25  H   UNL     1       0.741  51.663  18.876  1.00  0.00     0.293 HD
ENDBRANCH   8  24
TORSDOF 5
ENDMDL
