MODEL 1
REMARK VINA RESULT:    -4.116      0.000      0.000
REMARK INTER + INTRA:          -8.963
REMARK INTER:                  -7.484
REMARK INTRA:                  -1.479
REMARK UNBOUND:                -1.479
REMARK SMILES CCCCCCCCCCCCCCCC(=O)[O-]
REMARK SMILES IDX 9 1 10 2 11 3 12 4 13 5 14 6 15 7 16 8 17 9 18 10 8 11 7 12
REMARK SMILES IDX 6 13 5 14 4 15 3 16 2 17 1 18
REMARK H PARENT
REMARK Flexibility Score: inf
ROOT
ATOM      1  C   UNL     1      21.971 -13.641   1.922  1.00  0.00     0.000 C 
ENDROOT
BRANCH   1   2
ATOM      2  C   UNL     1      21.735 -15.117   1.542  1.00  0.00     0.000 C 
BRANCH   2   3
ATOM      3  C   UNL     1      21.927 -16.068   2.734  1.00  0.00     0.000 C 
BRANCH   3   4
ATOM      4  C   UNL     1      21.839 -15.311   4.064  1.00  0.00     0.000 C 
BRANCH   4   5
ATOM      5  C   UNL     1      21.342 -16.231   5.188  1.00  0.00     0.000 C 
BRANCH   5   6
ATOM      6  C   UNL     1      20.964 -15.458   6.462  1.00  0.00     0.006 C 
BRANCH   6   7
ATOM      7  C   UNL     1      21.779 -14.170   6.634  1.00  0.00     0.053 C 
BRANCH   7   8
ATOM      8  C   UNL     1      21.778 -13.739   8.067  1.00  0.00     0.041 C 
ATOM      9  O   UNL     1      21.894 -12.521   8.361  1.00  0.00    -0.550 OA
ATOM     10  O   UNL     1      21.599 -14.678   9.075  1.00  0.00    -0.550 OA
ENDBRANCH   7   8
ENDBRANCH   6   7
ENDBRANCH   5   6
ENDBRANCH   4   5
ENDBRANCH   3   4
ENDBRANCH   2   3
ENDBRANCH   1   2
BRANCH   1  11
ATOM     11  C   UNL     1      22.829 -12.865   0.903  1.00  0.00     0.000 C 
BRANCH  11  12
ATOM     12  C   UNL     1      24.282 -12.595   1.340  1.00  0.00    -0.000 C 
BRANCH  12  13
ATOM     13  C   UNL     1      24.454 -12.181   2.813  1.00  0.00    -0.000 C 
BRANCH  13  14
ATOM     14  C   UNL     1      25.251 -13.208   3.634  1.00  0.00    -0.000 C 
BRANCH  14  15
ATOM     15  C   UNL     1      24.870 -13.202   5.125  1.00  0.00    -0.000 C 
BRANCH  15  16
ATOM     16  C   UNL     1      25.867 -12.433   6.017  1.00  0.00    -0.000 C 
BRANCH  16  17
ATOM     17  C   UNL     1      25.187 -11.816   7.248  1.00  0.00    -0.003 C 
ATOM     18  C   UNL     1      25.142 -10.294   7.148  1.00  0.00     0.004 C 
ENDBRANCH  16  17
ENDBRANCH  15  16
ENDBRANCH  14  15
ENDBRANCH  13  14
ENDBRANCH  12  13
ENDBRANCH  11  12
ENDBRANCH   1  11
TORSDOF 14
ENDMDL
MODEL 2
REMARK VINA RESULT:    -4.045      1.546      4.230
REMARK INTER + INTRA:          -8.834
REMARK INTER:                  -6.774
REMARK INTRA:                  -2.060
REMARK UNBOUND:                -1.479
REMARK SMILES CCCCCCCCCCCCCCCC(=O)[O-]
REMARK SMILES IDX 9 1 10 2 11 3 12 4 13 5 14 6 15 7 16 8 17 9 18 10 8 11 7 12
REMARK SMILES IDX 6 13 5 14 4 15 3 16 2 17 1 18
REMARK H PARENT
REMARK Flexibility Score: inf
ROOT
ATOM      1  C   UNL     1      23.092 -13.053   1.519  1.00  0.00     0.000 C 
ENDROOT
BRANCH   1   2
ATOM      2  C   UNL     1      24.341 -13.958   1.476  1.00  0.00     0.000 C 
BRANCH   2   3
ATOM      3  C   UNL     1      25.352 -13.615   2.581  1.00  0.00     0.000 C 
BRANCH   3   4
ATOM      4  C   UNL     1      24.650 -13.012   3.803  1.00  0.00     0.000 C 
BRANCH   4   5
ATOM      5  C   UNL     1      25.464 -13.261   5.082  1.00  0.00     0.000 C 
BRANCH   5   6
ATOM      6  C   UNL     1      24.841 -12.595   6.319  1.00  0.00     0.006 C 
BRANCH   6   7
ATOM      7  C   UNL     1      25.694 -11.441   6.861  1.00  0.00     0.053 C 
BRANCH   7   8
ATOM      8  C   UNL     1      24.841 -10.472   7.617  1.00  0.00     0.041 C 
ATOM      9  O   UNL     1      23.913 -10.889   8.358  1.00  0.00    -0.550 OA
ATOM     10  O   UNL     1      25.102  -9.109   7.542  1.00  0.00    -0.550 OA
ENDBRANCH   7   8
ENDBRANCH   6   7
ENDBRANCH   5   6
ENDBRANCH   4   5
ENDBRANCH   3   4
ENDBRANCH   2   3
ENDBRANCH   1   2
BRANCH   1  11
ATOM     11  C   UNL     1      21.760 -13.829   1.478  1.00  0.00     0.000 C 
BRANCH  11  12
ATOM     12  C   UNL     1      21.883 -15.354   1.654  1.00  0.00    -0.000 C 
BRANCH  12  13
ATOM     13  C   UNL     1      21.542 -15.878   3.061  1.00  0.00    -0.000 C 
BRANCH  13  14
ATOM     14  C   UNL     1      22.774 -16.383   3.828  1.00  0.00    -0.000 C 
BRANCH  14  15
ATOM     15  C   UNL     1      22.808 -15.899   5.288  1.00  0.00    -0.000 C 
BRANCH  15  16
ATOM     16  C   UNL     1      21.863 -14.711   5.569  1.00  0.00    -0.000 C 
BRANCH  16  17
ATOM     17  C   UNL     1      21.195 -14.816   6.948  1.00  0.00    -0.003 C 
ATOM     18  C   UNL     1      21.610 -13.658   7.852  1.00  0.00     0.004 C 
ENDBRANCH  16  17
ENDBRANCH  15  16
ENDBRANCH  14  15
ENDBRANCH  13  14
ENDBRANCH  12  13
ENDBRANCH  11  12
ENDBRANCH   1  11
TORSDOF 14
ENDMDL
MODEL 3
REMARK VINA RESULT:    -4.040      1.618      2.660
REMARK INTER + INTRA:          -8.826
REMARK INTER:                  -6.446
REMARK INTRA:                  -2.380
REMARK UNBOUND:                -1.479
REMARK SMILES CCCCCCCCCCCCCCCC(=O)[O-]
REMARK SMILES IDX 9 1 10 2 11 3 12 4 13 5 14 6 15 7 16 8 17 9 18 10 8 11 7 12
REMARK SMILES IDX 6 13 5 14 4 15 3 16 2 17 1 18
REMARK H PARENT
REMARK Flexibility Score: inf
ROOT
ATOM      1  C   UNL     1      21.705 -13.997   1.899  1.00  0.00     0.000 C 
ENDROOT
BRANCH   1   2
ATOM      2  C   UNL     1      21.837 -15.506   1.606  1.00  0.00     0.000 C 
BRANCH   2   3
ATOM      3  C   UNL     1      21.564 -16.371   2.846  1.00  0.00     0.000 C 
BRANCH   3   4
ATOM      4  C   UNL     1      21.561 -15.521   4.122  1.00  0.00     0.000 C 
BRANCH   4   5
ATOM      5  C   UNL     1      21.113 -16.351   5.334  1.00  0.00     0.000 C 
BRANCH   5   6
ATOM      6  C   UNL     1      21.203 -15.568   6.653  1.00  0.00     0.006 C 
BRANCH   6   7
ATOM      7  C   UNL     1      21.569 -14.094   6.440  1.00  0.00     0.053 C 
BRANCH   7   8
ATOM      8  C   UNL     1      22.202 -13.530   7.674  1.00  0.00     0.041 C 
ATOM      9  O   UNL     1      21.628 -13.645   8.788  1.00  0.00    -0.550 OA
ATOM     10  O   UNL     1      23.448 -12.921   7.600  1.00  0.00    -0.550 OA
ENDBRANCH   7   8
ENDBRANCH   6   7
ENDBRANCH   5   6
ENDBRANCH   4   5
ENDBRANCH   3   4
ENDBRANCH   2   3
ENDBRANCH   1   2
BRANCH   1  11
ATOM     11  C   UNL     1      22.869 -13.151   1.345  1.00  0.00     0.000 C 
BRANCH  11  12
ATOM     12  C   UNL     1      24.277 -13.704   1.636  1.00  0.00    -0.000 C 
BRANCH  12  13
ATOM     13  C   UNL     1      25.032 -13.000   2.778  1.00  0.00    -0.000 C 
BRANCH  13  14
ATOM     14  C   UNL     1      24.704 -13.584   4.162  1.00  0.00    -0.000 C 
BRANCH  14  15
ATOM     15  C   UNL     1      25.212 -15.027   4.335  1.00  0.00    -0.000 C 
BRANCH  15  16
ATOM     16  C   UNL     1      24.783 -15.680   5.665  1.00  0.00    -0.000 C 
BRANCH  16  17
ATOM     17  C   UNL     1      25.099 -17.182   5.701  1.00  0.00    -0.003 C 
ATOM     18  C   UNL     1      24.431 -17.915   4.541  1.00  0.00     0.004 C 
ENDBRANCH  16  17
ENDBRANCH  15  16
ENDBRANCH  14  15
ENDBRANCH  13  14
ENDBRANCH  12  13
ENDBRANCH  11  12
ENDBRANCH   1  11
TORSDOF 14
ENDMDL
MODEL 4
REMARK VINA RESULT:    -3.996      8.620     12.630
REMARK INTER + INTRA:          -8.747
REMARK INTER:                  -7.126
REMARK INTRA:                  -1.621
REMARK UNBOUND:                -1.479
REMARK SMILES CCCCCCCCCCCCCCCC(=O)[O-]
REMARK SMILES IDX 9 1 10 2 11 3 12 4 13 5 14 6 15 7 16 8 17 9 18 10 8 11 7 12
REMARK SMILES IDX 6 13 5 14 4 15 3 16 2 17 1 18
REMARK H PARENT
REMARK Flexibility Score: inf
ROOT
ATOM      1  C   UNL     1      23.429  -1.645  10.645  1.00  0.00     0.000 C 
ENDROOT
BRANCH   1   2
ATOM      2  C   UNL     1      24.445  -2.746  10.280  1.00  0.00     0.000 C 
BRANCH   2   3
ATOM      3  C   UNL     1      24.395  -3.122   8.791  1.00  0.00     0.000 C 
BRANCH   3   4
ATOM      4  C   UNL     1      25.789  -3.051   8.157  1.00  0.00     0.000 C 
BRANCH   4   5
ATOM      5  C   UNL     1      26.174  -4.397   7.525  1.00  0.00     0.000 C 
BRANCH   5   6
ATOM      6  C   UNL     1      25.142  -4.884   6.495  1.00  0.00     0.006 C 
BRANCH   6   7
ATOM      7  C   UNL     1      24.965  -6.407   6.512  1.00  0.00     0.053 C 
BRANCH   7   8
ATOM      8  C   UNL     1      23.808  -6.788   7.383  1.00  0.00     0.041 C 
ATOM      9  O   UNL     1      22.832  -6.006   7.516  1.00  0.00    -0.550 OA
ATOM     10  O   UNL     1      23.789  -8.028   8.010  1.00  0.00    -0.550 OA
ENDBRANCH   7   8
ENDBRANCH   6   7
ENDBRANCH   5   6
ENDBRANCH   4   5
ENDBRANCH   3   4
ENDBRANCH   2   3
ENDBRANCH   1   2
BRANCH   1  11
ATOM     11  C   UNL     1      23.424  -0.453   9.667  1.00  0.00     0.000 C 
BRANCH  11  12
ATOM     12  C   UNL     1      24.491   0.624   9.940  1.00  0.00    -0.000 C 
BRANCH  12  13
ATOM     13  C   UNL     1      25.746   0.539   9.052  1.00  0.00    -0.000 C 
BRANCH  13  14
ATOM     14  C   UNL     1      27.051   0.501   9.863  1.00  0.00    -0.000 C 
BRANCH  14  15
ATOM     15  C   UNL     1      26.925  -0.326  11.155  1.00  0.00    -0.000 C 
BRANCH  15  16
ATOM     16  C   UNL     1      28.268  -0.897  11.659  1.00  0.00    -0.000 C 
BRANCH  16  17
ATOM     17  C   UNL     1      28.370  -2.414  11.439  1.00  0.00    -0.003 C 
ATOM     18  C   UNL     1      29.562  -3.001  12.190  1.00  0.00     0.004 C 
ENDBRANCH  16  17
ENDBRANCH  15  16
ENDBRANCH  14  15
ENDBRANCH  13  14
ENDBRANCH  12  13
ENDBRANCH  11  12
ENDBRANCH   1  11
TORSDOF 14
ENDMDL
MODEL 5
REMARK VINA RESULT:    -3.990      8.832     13.428
REMARK INTER + INTRA:          -8.735
REMARK INTER:                  -7.303
REMARK INTRA:                  -1.431
REMARK UNBOUND:                -1.479
REMARK SMILES CCCCCCCCCCCCCCCC(=O)[O-]
REMARK SMILES IDX 9 1 10 2 11 3 12 4 13 5 14 6 15 7 16 8 17 9 18 10 8 11 7 12
REMARK SMILES IDX 6 13 5 14 4 15 3 16 2 17 1 18
REMARK H PARENT
REMARK Flexibility Score: inf
ROOT
ATOM      1  C   UNL     1      28.960  -2.936  11.678  1.00  0.00     0.000 C 
ENDROOT
BRANCH   1   2
ATOM      2  C   UNL     1      29.568  -1.623  12.212  1.00  0.00     0.000 C 
BRANCH   2   3
ATOM      3  C   UNL     1      28.558  -0.465  12.213  1.00  0.00     0.000 C 
BRANCH   3   4
ATOM      4  C   UNL     1      27.712  -0.471  10.934  1.00  0.00     0.000 C 
BRANCH   4   5
ATOM      5  C   UNL     1      26.212  -0.451  11.268  1.00  0.00     0.000 C 
BRANCH   5   6
ATOM      6  C   UNL     1      25.347  -1.030  10.138  1.00  0.00     0.006 C 
BRANCH   6   7
ATOM      7  C   UNL     1      24.635  -2.326  10.545  1.00  0.00     0.053 C 
BRANCH   7   8
ATOM      8  C   UNL     1      23.244  -2.353   9.992  1.00  0.00     0.041 C 
ATOM      9  O   UNL     1      22.529  -3.379  10.128  1.00  0.00    -0.550 OA
ATOM     10  O   UNL     1      22.722  -1.226   9.370  1.00  0.00    -0.550 OA
ENDBRANCH   7   8
ENDBRANCH   6   7
ENDBRANCH   5   6
ENDBRANCH   4   5
ENDBRANCH   3   4
ENDBRANCH   2   3
ENDBRANCH   1   2
BRANCH   1  11
ATOM     11  C   UNL     1      29.918  -3.748  10.785  1.00  0.00     0.000 C 
BRANCH  11  12
ATOM     12  C   UNL     1      29.323  -4.220   9.444  1.00  0.00    -0.000 C 
BRANCH  12  13
ATOM     13  C   UNL     1      28.012  -3.525   9.032  1.00  0.00    -0.000 C 
BRANCH  13  14
ATOM     14  C   UNL     1      27.450  -4.050   7.700  1.00  0.00    -0.000 C 
BRANCH  14  15
ATOM     15  C   UNL     1      25.930  -3.848   7.575  1.00  0.00    -0.000 C 
BRANCH  15  16
ATOM     16  C   UNL     1      25.269  -4.753   6.514  1.00  0.00    -0.000 C 
BRANCH  16  17
ATOM     17  C   UNL     1      24.846  -6.110   7.094  1.00  0.00    -0.003 C 
ATOM     18  C   UNL     1      23.353  -6.133   7.411  1.00  0.00     0.004 C 
ENDBRANCH  16  17
ENDBRANCH  15  16
ENDBRANCH  14  15
ENDBRANCH  13  14
ENDBRANCH  12  13
ENDBRANCH  11  12
ENDBRANCH   1  11
TORSDOF 14
ENDMDL
MODEL 6
REMARK VINA RESULT:    -3.981      1.632      4.404
REMARK INTER + INTRA:          -8.719
REMARK INTER:                  -6.939
REMARK INTRA:                  -1.781
REMARK UNBOUND:                -1.479
REMARK SMILES CCCCCCCCCCCCCCCC(=O)[O-]
REMARK SMILES IDX 9 1 10 2 11 3 12 4 13 5 14 6 15 7 16 8 17 9 18 10 8 11 7 12
REMARK SMILES IDX 6 13 5 14 4 15 3 16 2 17 1 18
REMARK H PARENT
REMARK Flexibility Score: inf
ROOT
ATOM      1  C   UNL     1      21.910 -14.085   2.068  1.00  0.00     0.000 C 
ENDROOT
BRANCH   1   2
ATOM      2  C   UNL     1      22.357 -13.215   0.875  1.00  0.00     0.000 C 
BRANCH   2   3
ATOM      3  C   UNL     1      23.490 -12.246   1.247  1.00  0.00     0.000 C 
BRANCH   3   4
ATOM      4  C   UNL     1      24.616 -12.972   1.991  1.00  0.00     0.000 C 
BRANCH   4   5
ATOM      5  C   UNL     1      24.872 -12.331   3.363  1.00  0.00     0.000 C 
BRANCH   5   6
ATOM      6  C   UNL     1      25.310 -13.354   4.422  1.00  0.00     0.006 C 
BRANCH   6   7
ATOM      7  C   UNL     1      24.546 -13.200   5.743  1.00  0.00     0.053 C 
BRANCH   7   8
ATOM      8  C   UNL     1      25.275 -12.268   6.660  1.00  0.00     0.041 C 
ATOM      9  O   UNL     1      24.768 -11.943   7.765  1.00  0.00    -0.550 OA
ATOM     10  O   UNL     1      26.536 -11.797   6.315  1.00  0.00    -0.550 OA
ENDBRANCH   7   8
ENDBRANCH   6   7
ENDBRANCH   5   6
ENDBRANCH   4   5
ENDBRANCH   3   4
ENDBRANCH   2   3
ENDBRANCH   1   2
BRANCH   1  11
ATOM     11  C   UNL     1      21.410 -15.486   1.665  1.00  0.00     0.000 C 
BRANCH  11  12
ATOM     12  C   UNL     1      22.069 -16.659   2.416  1.00  0.00    -0.000 C 
BRANCH  12  13
ATOM     13  C   UNL     1      23.236 -16.269   3.341  1.00  0.00    -0.000 C 
BRANCH  13  14
ATOM     14  C   UNL     1      22.933 -16.523   4.826  1.00  0.00    -0.000 C 
BRANCH  14  15
ATOM     15  C   UNL     1      21.474 -16.207   5.199  1.00  0.00    -0.000 C 
BRANCH  15  16
ATOM     16  C   UNL     1      21.321 -14.976   6.118  1.00  0.00    -0.000 C 
BRANCH  16  17
ATOM     17  C   UNL     1      21.589 -15.317   7.591  1.00  0.00    -0.003 C 
ATOM     18  C   UNL     1      21.155 -14.177   8.509  1.00  0.00     0.004 C 
ENDBRANCH  16  17
ENDBRANCH  15  16
ENDBRANCH  14  15
ENDBRANCH  13  14
ENDBRANCH  12  13
ENDBRANCH  11  12
ENDBRANCH   1  11
TORSDOF 14
ENDMDL
MODEL 7
REMARK VINA RESULT:    -3.957      1.750      4.820
REMARK INTER + INTRA:          -8.675
REMARK INTER:                  -6.698
REMARK INTRA:                  -1.976
REMARK UNBOUND:                -1.479
REMARK SMILES CCCCCCCCCCCCCCCC(=O)[O-]
REMARK SMILES IDX 9 1 10 2 11 3 12 4 13 5 14 6 15 7 16 8 17 9 18 10 8 11 7 12
REMARK SMILES IDX 6 13 5 14 4 15 3 16 2 17 1 18
REMARK H PARENT
REMARK Flexibility Score: inf
ROOT
ATOM      1  C   UNL     1      24.121 -12.763   2.862  1.00  0.00     0.000 C 
ENDROOT
BRANCH   1   2
ATOM      2  C   UNL     1      25.299 -13.738   3.069  1.00  0.00     0.000 C 
BRANCH   2   3
ATOM      3  C   UNL     1      25.855 -13.693   4.501  1.00  0.00     0.000 C 
BRANCH   3   4
ATOM      4  C   UNL     1      25.002 -12.786   5.395  1.00  0.00     0.000 C 
BRANCH   4   5
ATOM      5  C   UNL     1      25.886 -11.956   6.339  1.00  0.00     0.000 C 
BRANCH   5   6
ATOM      6  C   UNL     1      25.776 -10.446   6.076  1.00  0.00     0.006 C 
BRANCH   6   7
ATOM      7  C   UNL     1      25.918  -9.613   7.356  1.00  0.00     0.053 C 
BRANCH   7   8
ATOM      8  C   UNL     1      24.607  -8.991   7.722  1.00  0.00     0.041 C 
ATOM      9  O   UNL     1      24.322  -7.832   7.322  1.00  0.00    -0.550 OA
ATOM     10  O   UNL     1      23.679  -9.711   8.464  1.00  0.00    -0.550 OA
ENDBRANCH   7   8
ENDBRANCH   6   7
ENDBRANCH   5   6
ENDBRANCH   4   5
ENDBRANCH   3   4
ENDBRANCH   2   3
ENDBRANCH   1   2
BRANCH   1  11
ATOM     11  C   UNL     1      23.356 -12.982   1.542  1.00  0.00     0.000 C 
BRANCH  11  12
ATOM     12  C   UNL     1      21.967 -13.633   1.689  1.00  0.00    -0.000 C 
BRANCH  12  13
ATOM     13  C   UNL     1      21.943 -15.164   1.529  1.00  0.00    -0.000 C 
BRANCH  13  14
ATOM     14  C   UNL     1      21.510 -15.893   2.812  1.00  0.00    -0.000 C 
BRANCH  14  15
ATOM     15  C   UNL     1      22.698 -16.491   3.587  1.00  0.00    -0.000 C 
BRANCH  15  16
ATOM     16  C   UNL     1      22.888 -15.886   4.994  1.00  0.00    -0.000 C 
BRANCH  16  17
ATOM     17  C   UNL     1      21.837 -14.811   5.308  1.00  0.00    -0.003 C 
ATOM     18  C   UNL     1      21.936 -14.350   6.760  1.00  0.00     0.004 C 
ENDBRANCH  16  17
ENDBRANCH  15  16
ENDBRANCH  14  15
ENDBRANCH  13  14
ENDBRANCH  12  13
ENDBRANCH  11  12
ENDBRANCH   1  11
TORSDOF 14
ENDMDL
MODEL 8
REMARK VINA RESULT:    -3.917      8.932     13.151
REMARK INTER + INTRA:          -8.602
REMARK INTER:                  -6.537
REMARK INTRA:                  -2.065
REMARK UNBOUND:                -1.479
REMARK SMILES CCCCCCCCCCCCCCCC(=O)[O-]
REMARK SMILES IDX 9 1 10 2 11 3 12 4 13 5 14 6 15 7 16 8 17 9 18 10 8 11 7 12
REMARK SMILES IDX 6 13 5 14 4 15 3 16 2 17 1 18
REMARK H PARENT
REMARK Flexibility Score: inf
ROOT
ATOM      1  C   UNL     1      29.094  -2.729  11.719  1.00  0.00     0.000 C 
ENDROOT
BRANCH   1   2
ATOM      2  C   UNL     1      29.958  -3.129  10.504  1.00  0.00     0.000 C 
BRANCH   2   3
ATOM      3  C   UNL     1      29.251  -2.859   9.167  1.00  0.00     0.000 C 
BRANCH   3   4
ATOM      4  C   UNL     1      28.277  -3.991   8.819  1.00  0.00     0.000 C 
BRANCH   4   5
ATOM      5  C   UNL     1      27.495  -3.668   7.537  1.00  0.00     0.000 C 
BRANCH   5   6
ATOM      6  C   UNL     1      26.601  -4.831   7.081  1.00  0.00     0.006 C 
BRANCH   6   7
ATOM      7  C   UNL     1      25.109  -4.473   7.102  1.00  0.00     0.053 C 
BRANCH   7   8
ATOM      8  C   UNL     1      24.275  -5.716   7.125  1.00  0.00     0.041 C 
ATOM      9  O   UNL     1      24.546  -6.674   6.356  1.00  0.00    -0.550 OA
ATOM     10  O   UNL     1      23.227  -5.833   8.029  1.00  0.00    -0.550 OA
ENDBRANCH   7   8
ENDBRANCH   6   7
ENDBRANCH   5   6
ENDBRANCH   4   5
ENDBRANCH   3   4
ENDBRANCH   2   3
ENDBRANCH   1   2
BRANCH   1  11
ATOM     11  C   UNL     1      29.337  -1.287  12.208  1.00  0.00     0.000 C 
BRANCH  11  12
ATOM     12  C   UNL     1      28.270  -0.261  11.779  1.00  0.00    -0.000 C 
BRANCH  12  13
ATOM     13  C   UNL     1      26.923  -0.865  11.341  1.00  0.00    -0.000 C 
BRANCH  13  14
ATOM     14  C   UNL     1      26.516  -0.449   9.918  1.00  0.00    -0.000 C 
BRANCH  14  15
ATOM     15  C   UNL     1      25.376  -1.313   9.349  1.00  0.00    -0.000 C 
BRANCH  15  16
ATOM     16  C   UNL     1      25.000  -2.512  10.245  1.00  0.00    -0.000 C 
BRANCH  16  17
ATOM     17  C   UNL     1      23.527  -2.916  10.083  1.00  0.00    -0.003 C 
ATOM     18  C   UNL     1      22.683  -1.740   9.599  1.00  0.00     0.004 C 
ENDBRANCH  16  17
ENDBRANCH  15  16
ENDBRANCH  14  15
ENDBRANCH  13  14
ENDBRANCH  12  13
ENDBRANCH  11  12
ENDBRANCH   1  11
TORSDOF 14
ENDMDL
MODEL 9
REMARK VINA RESULT:    -3.890      1.746      4.523
REMARK INTER + INTRA:          -8.553
REMARK INTER:                  -6.385
REMARK INTRA:                  -2.168
REMARK UNBOUND:                -1.479
REMARK SMILES CCCCCCCCCCCCCCCC(=O)[O-]
REMARK SMILES IDX 9 1 10 2 11 3 12 4 13 5 14 6 15 7 16 8 17 9 18 10 8 11 7 12
REMARK SMILES IDX 6 13 5 14 4 15 3 16 2 17 1 18
REMARK H PARENT
REMARK Flexibility Score: inf
ROOT
ATOM      1  C   UNL     1      23.449 -13.322   1.079  1.00  0.00     0.000 C 
ENDROOT
BRANCH   1   2
ATOM      2  C   UNL     1      23.827 -11.861   1.400  1.00  0.00     0.000 C 
BRANCH   2   3
ATOM      3  C   UNL     1      24.499 -11.717   2.774  1.00  0.00     0.000 C 
BRANCH   3   4
ATOM      4  C   UNL     1      26.015 -11.537   2.631  1.00  0.00     0.000 C 
BRANCH   4   5
ATOM      5  C   UNL     1      26.697 -11.514   4.007  1.00  0.00     0.000 C 
BRANCH   5   6
ATOM      6  C   UNL     1      25.780 -10.969   5.113  1.00  0.00     0.006 C 
BRANCH   6   7
ATOM      7  C   UNL     1      26.019 -11.650   6.466  1.00  0.00     0.053 C 
BRANCH   7   8
ATOM      8  C   UNL     1      24.874 -11.384   7.393  1.00  0.00     0.041 C 
ATOM      9  O   UNL     1      24.096 -12.317   7.721  1.00  0.00    -0.550 OA
ATOM     10  O   UNL     1      24.697 -10.117   7.934  1.00  0.00    -0.550 OA
ENDBRANCH   7   8
ENDBRANCH   6   7
ENDBRANCH   5   6
ENDBRANCH   4   5
ENDBRANCH   3   4
ENDBRANCH   2   3
ENDBRANCH   1   2
BRANCH   1  11
ATOM     11  C   UNL     1      21.931 -13.590   1.090  1.00  0.00     0.000 C 
BRANCH  11  12
ATOM     12  C   UNL     1      21.515 -14.984   1.599  1.00  0.00    -0.000 C 
BRANCH  12  13
ATOM     13  C   UNL     1      22.604 -15.747   2.375  1.00  0.00    -0.000 C 
BRANCH  13  14
ATOM     14  C   UNL     1      22.125 -16.239   3.750  1.00  0.00    -0.000 C 
BRANCH  14  15
ATOM     15  C   UNL     1      22.005 -15.103   4.781  1.00  0.00    -0.000 C 
BRANCH  15  16
ATOM     16  C   UNL     1      23.262 -14.212   4.870  1.00  0.00    -0.000 C 
BRANCH  16  17
ATOM     17  C   UNL     1      24.469 -14.969   5.443  1.00  0.00    -0.003 C 
ATOM     18  C   UNL     1      25.633 -14.978   4.456  1.00  0.00     0.004 C 
ENDBRANCH  16  17
ENDBRANCH  15  16
ENDBRANCH  14  15
ENDBRANCH  13  14
ENDBRANCH  12  13
ENDBRANCH  11  12
ENDBRANCH   1  11
TORSDOF 14
ENDMDL
