MODEL 1
REMARK VINA RESULT:    -5.284      0.000      0.000
REMARK INTER + INTRA:          -9.116
REMARK INTER:                  -8.374
REMARK INTRA:                  -0.742
REMARK UNBOUND:                -0.742
REMARK SMILES CCCCCCCCCCCC(=O)[O-]
REMARK SMILES IDX 7 1 8 2 9 3 10 4 11 5 12 6 13 7 14 8 6 9 5 10 4 11 3 12 2 13
REMARK SMILES IDX 1 14
REMARK H PARENT
REMARK Flexibility Score: inf
ROOT
ATOM      1  C   UNL     1      27.342   3.759   3.882  1.00  0.00     0.000 C 
ENDROOT
BRANCH   1   2
ATOM      2  C   UNL     1      28.197   2.490   4.026  1.00  0.00     0.000 C 
BRANCH   2   3
ATOM      3  C   UNL     1      27.780   1.629   5.232  1.00  0.00     0.000 C 
BRANCH   3   4
ATOM      4  C   UNL     1      28.852   0.597   5.617  1.00  0.00     0.006 C 
BRANCH   4   5
ATOM      5  C   UNL     1      28.516  -0.815   5.121  1.00  0.00     0.053 C 
BRANCH   5   6
ATOM      6  C   UNL     1      28.561  -0.868   3.626  1.00  0.00     0.041 C 
ATOM      7  O   UNL     1      29.635  -0.622   3.016  1.00  0.00    -0.550 OA
ATOM      8  O   UNL     1      27.406  -1.141   2.906  1.00  0.00    -0.550 OA
ENDBRANCH   5   6
ENDBRANCH   4   5
ENDBRANCH   3   4
ENDBRANCH   2   3
ENDBRANCH   1   2
BRANCH   1   9
ATOM      9  C   UNL     1      27.567   4.756   5.028  1.00  0.00     0.000 C 
BRANCH   9  10
ATOM     10  C   UNL     1      28.572   5.844   4.620  1.00  0.00    -0.000 C 
BRANCH  10  11
ATOM     11  C   UNL     1      30.003   5.535   5.089  1.00  0.00    -0.000 C 
BRANCH  11  12
ATOM     12  C   UNL     1      30.037   4.737   6.402  1.00  0.00    -0.000 C 
BRANCH  12  13
ATOM     13  C   UNL     1      29.638   5.621   7.589  1.00  0.00    -0.003 C 
ATOM     14  C   UNL     1      28.824   4.834   8.612  1.00  0.00     0.004 C 
ENDBRANCH  12  13
ENDBRANCH  11  12
ENDBRANCH  10  11
ENDBRANCH   9  10
ENDBRANCH   1   9
TORSDOF 10
ENDMDL
MODEL 2
REMARK VINA RESULT:    -4.807      2.506      5.778
REMARK INTER + INTRA:          -8.360
REMARK INTER:                  -7.601
REMARK INTRA:                  -0.759
REMARK UNBOUND:                -0.742
REMARK SMILES CCCCCCCCCCCC(=O)[O-]
REMARK SMILES IDX 7 1 8 2 9 3 10 4 11 5 12 6 13 7 14 8 6 9 5 10 4 11 3 12 2 13
REMARK SMILES IDX 1 14
REMARK H PARENT
REMARK Flexibility Score: inf
ROOT
ATOM      1  C   UNL     1      28.057   2.558   4.053  1.00  0.00     0.000 C 
ENDROOT
BRANCH   1   2
ATOM      2  C   UNL     1      27.493   3.960   3.771  1.00  0.00     0.000 C 
BRANCH   2   3
ATOM      3  C   UNL     1      27.544   4.879   5.005  1.00  0.00     0.000 C 
BRANCH   3   4
ATOM      4  C   UNL     1      28.504   6.064   4.817  1.00  0.00     0.006 C 
BRANCH   4   5
ATOM      5  C   UNL     1      29.554   6.155   5.932  1.00  0.00     0.053 C 
BRANCH   5   6
ATOM      6  C   UNL     1      29.628   4.867   6.688  1.00  0.00     0.041 C 
ATOM      7  O   UNL     1      29.012   4.737   7.779  1.00  0.00    -0.550 OA
ATOM      8  O   UNL     1      30.416   3.827   6.214  1.00  0.00    -0.550 OA
ENDBRANCH   5   6
ENDBRANCH   4   5
ENDBRANCH   3   4
ENDBRANCH   2   3
ENDBRANCH   1   2
BRANCH   1   9
ATOM      9  C   UNL     1      27.276   1.816   5.148  1.00  0.00     0.000 C 
BRANCH   9  10
ATOM     10  C   UNL     1      28.232   1.131   6.136  1.00  0.00    -0.000 C 
BRANCH  10  11
ATOM     11  C   UNL     1      29.139   0.092   5.459  1.00  0.00    -0.000 C 
BRANCH  11  12
ATOM     12  C   UNL     1      28.367  -1.149   4.984  1.00  0.00    -0.000 C 
BRANCH  12  13
ATOM     13  C   UNL     1      28.411  -1.268   3.456  1.00  0.00    -0.003 C 
ATOM     14  C   UNL     1      29.585  -0.486   2.875  1.00  0.00     0.004 C 
ENDBRANCH  12  13
ENDBRANCH  11  12
ENDBRANCH  10  11
ENDBRANCH   9  10
ENDBRANCH   1   9
TORSDOF 10
ENDMDL
MODEL 3
REMARK VINA RESULT:    -4.737      1.060      1.962
REMARK INTER + INTRA:          -8.248
REMARK INTER:                  -8.247
REMARK INTRA:                  -0.001
REMARK UNBOUND:                -0.742
REMARK SMILES CCCCCCCCCCCC(=O)[O-]
REMARK SMILES IDX 7 1 8 2 9 3 10 4 11 5 12 6 13 7 14 8 6 9 5 10 4 11 3 12 2 13
REMARK SMILES IDX 1 14
REMARK H PARENT
REMARK Flexibility Score: inf
ROOT
ATOM      1  C   UNL     1      27.587   4.022   3.917  1.00  0.00     0.000 C 
ENDROOT
BRANCH   1   2
ATOM      2  C   UNL     1      28.214   2.631   4.100  1.00  0.00     0.000 C 
BRANCH   2   3
ATOM      3  C   UNL     1      27.218   1.601   4.662  1.00  0.00     0.000 C 
BRANCH   3   4
ATOM      4  C   UNL     1      27.779   0.839   5.873  1.00  0.00     0.006 C 
BRANCH   4   5
ATOM      5  C   UNL     1      29.129   0.172   5.577  1.00  0.00     0.053 C 
BRANCH   5   6
ATOM      6  C   UNL     1      28.984  -0.837   4.482  1.00  0.00     0.041 C 
ATOM      7  O   UNL     1      28.397  -1.930   4.702  1.00  0.00    -0.550 OA
ATOM      8  O   UNL     1      29.541  -0.594   3.234  1.00  0.00    -0.550 OA
ENDBRANCH   5   6
ENDBRANCH   4   5
ENDBRANCH   3   4
ENDBRANCH   2   3
ENDBRANCH   1   2
BRANCH   1   9
ATOM      9  C   UNL     1      27.458   4.791   5.240  1.00  0.00     0.000 C 
BRANCH   9  10
ATOM     10  C   UNL     1      28.380   4.194   6.314  1.00  0.00    -0.000 C 
BRANCH  10  11
ATOM     11  C   UNL     1      29.295   5.245   6.961  1.00  0.00    -0.000 C 
BRANCH  11  12
ATOM     12  C   UNL     1      29.609   6.418   6.018  1.00  0.00    -0.000 C 
BRANCH  12  13
ATOM     13  C   UNL     1      30.582   5.987   4.914  1.00  0.00    -0.003 C 
ATOM     14  C   UNL     1      31.075   4.561   5.140  1.00  0.00     0.004 C 
ENDBRANCH  12  13
ENDBRANCH  11  12
ENDBRANCH  10  11
ENDBRANCH   9  10
ENDBRANCH   1   9
TORSDOF 10
ENDMDL
MODEL 4
REMARK VINA RESULT:    -4.447      2.636      5.731
REMARK INTER + INTRA:          -7.789
REMARK INTER:                  -7.716
REMARK INTRA:                  -0.074
REMARK UNBOUND:                -0.742
REMARK SMILES CCCCCCCCCCCC(=O)[O-]
REMARK SMILES IDX 7 1 8 2 9 3 10 4 11 5 12 6 13 7 14 8 6 9 5 10 4 11 3 12 2 13
REMARK SMILES IDX 1 14
REMARK H PARENT
REMARK Flexibility Score: inf
ROOT
ATOM      1  C   UNL     1      28.241   3.296   3.642  1.00  0.00     0.000 C 
ENDROOT
BRANCH   1   2
ATOM      2  C   UNL     1      27.275   3.738   4.751  1.00  0.00     0.000 C 
BRANCH   2   3
ATOM      3  C   UNL     1      27.734   5.027   5.458  1.00  0.00     0.000 C 
BRANCH   3   4
ATOM      4  C   UNL     1      28.552   4.743   6.727  1.00  0.00     0.006 C 
BRANCH   4   5
ATOM      5  C   UNL     1      29.880   5.512   6.758  1.00  0.00     0.053 C 
BRANCH   5   6
ATOM      6  C   UNL     1      30.476   5.580   5.388  1.00  0.00     0.041 C 
ATOM      7  O   UNL     1      30.263   6.581   4.653  1.00  0.00    -0.550 OA
ATOM      8  O   UNL     1      31.226   4.517   4.902  1.00  0.00    -0.550 OA
ENDBRANCH   5   6
ENDBRANCH   4   5
ENDBRANCH   3   4
ENDBRANCH   2   3
ENDBRANCH   1   2
BRANCH   1   9
ATOM      9  C   UNL     1      29.046   2.045   4.022  1.00  0.00     0.000 C 
BRANCH   9  10
ATOM     10  C   UNL     1      28.745   1.616   5.467  1.00  0.00    -0.000 C 
BRANCH  10  11
ATOM     11  C   UNL     1      28.035   0.256   5.546  1.00  0.00    -0.000 C 
BRANCH  11  12
ATOM     12  C   UNL     1      28.907  -0.899   5.028  1.00  0.00    -0.000 C 
BRANCH  12  13
ATOM     13  C   UNL     1      28.976  -0.889   3.497  1.00  0.00    -0.003 C 
ATOM     14  C   UNL     1      27.637  -1.285   2.883  1.00  0.00     0.004 C 
ENDBRANCH  12  13
ENDBRANCH  11  12
ENDBRANCH  10  11
ENDBRANCH   9  10
ENDBRANCH   1   9
TORSDOF 10
ENDMDL
MODEL 5
REMARK VINA RESULT:    -3.832      3.106      6.010
REMARK INTER + INTRA:          -6.815
REMARK INTER:                  -6.562
REMARK INTRA:                  -0.254
REMARK UNBOUND:                -0.742
REMARK SMILES CCCCCCCCCCCC(=O)[O-]
REMARK SMILES IDX 7 1 8 2 9 3 10 4 11 5 12 6 13 7 14 8 6 9 5 10 4 11 3 12 2 13
REMARK SMILES IDX 1 14
REMARK H PARENT
REMARK Flexibility Score: inf
ROOT
ATOM      1  C   UNL     1      27.632   2.828   4.585  1.00  0.00     0.000 C 
ENDROOT
BRANCH   1   2
ATOM      2  C   UNL     1      29.131   3.125   4.418  1.00  0.00     0.000 C 
BRANCH   2   3
ATOM      3  C   UNL     1      29.848   3.327   5.765  1.00  0.00     0.000 C 
BRANCH   3   4
ATOM      4  C   UNL     1      28.977   4.069   6.790  1.00  0.00     0.006 C 
BRANCH   4   5
ATOM      5  C   UNL     1      29.412   5.527   6.989  1.00  0.00     0.053 C 
BRANCH   5   6
ATOM      6  C   UNL     1      29.491   6.233   5.672  1.00  0.00     0.041 C 
ATOM      7  O   UNL     1      30.601   6.637   5.235  1.00  0.00    -0.550 OA
ATOM      8  O   UNL     1      28.333   6.491   4.951  1.00  0.00    -0.550 OA
ENDBRANCH   5   6
ENDBRANCH   4   5
ENDBRANCH   3   4
ENDBRANCH   2   3
ENDBRANCH   1   2
BRANCH   1   9
ATOM      9  C   UNL     1      27.338   1.327   4.719  1.00  0.00     0.000 C 
BRANCH   9  10
ATOM     10  C   UNL     1      28.386   0.639   5.608  1.00  0.00    -0.000 C 
BRANCH  10  11
ATOM     11  C   UNL     1      28.523  -0.862   5.309  1.00  0.00    -0.000 C 
BRANCH  11  12
ATOM     12  C   UNL     1      28.126  -1.218   3.868  1.00  0.00    -0.000 C 
BRANCH  12  13
ATOM     13  C   UNL     1      29.201  -0.760   2.875  1.00  0.00    -0.003 C 
ATOM     14  C   UNL     1      30.585  -1.240   3.301  1.00  0.00     0.004 C 
ENDBRANCH  12  13
ENDBRANCH  11  12
ENDBRANCH  10  11
ENDBRANCH   9  10
ENDBRANCH   1   9
TORSDOF 10
ENDMDL
MODEL 6
REMARK VINA RESULT:    -3.579     16.809     18.793
REMARK INTER + INTRA:          -6.414
REMARK INTER:                  -5.440
REMARK INTRA:                  -0.974
REMARK UNBOUND:                -0.742
REMARK SMILES CCCCCCCCCCCC(=O)[O-]
REMARK SMILES IDX 7 1 8 2 9 3 10 4 11 5 12 6 13 7 14 8 6 9 5 10 4 11 3 12 2 13
REMARK SMILES IDX 1 14
REMARK H PARENT
REMARK Flexibility Score: inf
ROOT
ATOM      1  C   UNL     1      31.069  12.564  21.080  1.00  0.00     0.000 C 
ENDROOT
BRANCH   1   2
ATOM      2  C   UNL     1      32.060  13.594  20.515  1.00  0.00     0.000 C 
BRANCH   2   3
ATOM      3  C   UNL     1      31.403  14.558  19.510  1.00  0.00     0.000 C 
BRANCH   3   4
ATOM      4  C   UNL     1      30.124  13.976  18.887  1.00  0.00     0.006 C 
BRANCH   4   5
ATOM      5  C   UNL     1      30.342  13.475  17.453  1.00  0.00     0.053 C 
BRANCH   5   6
ATOM      6  C   UNL     1      30.362  14.624  16.495  1.00  0.00     0.041 C 
ATOM      7  O   UNL     1      31.190  14.642  15.546  1.00  0.00    -0.550 OA
ATOM      8  O   UNL     1      29.502  15.698  16.679  1.00  0.00    -0.550 OA
ENDBRANCH   5   6
ENDBRANCH   4   5
ENDBRANCH   3   4
ENDBRANCH   2   3
ENDBRANCH   1   2
BRANCH   1   9
ATOM      9  C   UNL     1      31.149  12.443  22.609  1.00  0.00     0.000 C 
BRANCH   9  10
ATOM     10  C   UNL     1      30.196  11.355  23.125  1.00  0.00    -0.000 C 
BRANCH  10  11
ATOM     11  C   UNL     1      29.913  10.269  22.075  1.00  0.00    -0.000 C 
BRANCH  11  12
ATOM     12  C   UNL     1      28.416   9.949  21.941  1.00  0.00    -0.000 C 
BRANCH  12  13
ATOM     13  C   UNL     1      27.586  11.237  21.874  1.00  0.00    -0.003 C 
ATOM     14  C   UNL     1      27.481  11.751  20.442  1.00  0.00     0.004 C 
ENDBRANCH  12  13
ENDBRANCH  11  12
ENDBRANCH  10  11
ENDBRANCH   9  10
ENDBRANCH   1   9
TORSDOF 10
ENDMDL
MODEL 7
REMARK VINA RESULT:    -3.480     16.888     18.805
REMARK INTER + INTRA:          -6.256
REMARK INTER:                  -4.844
REMARK INTRA:                  -1.412
REMARK UNBOUND:                -0.742
REMARK SMILES CCCCCCCCCCCC(=O)[O-]
REMARK SMILES IDX 7 1 8 2 9 3 10 4 11 5 12 6 13 7 14 8 6 9 5 10 4 11 3 12 2 13
REMARK SMILES IDX 1 14
REMARK H PARENT
REMARK Flexibility Score: inf
ROOT
ATOM      1  C   UNL     1      27.603  11.453  20.680  1.00  0.00     0.000 C 
ENDROOT
BRANCH   1   2
ATOM      2  C   UNL     1      27.344  12.954  20.890  1.00  0.00     0.000 C 
BRANCH   2   3
ATOM      3  C   UNL     1      28.350  13.840  20.133  1.00  0.00     0.000 C 
BRANCH   3   4
ATOM      4  C   UNL     1      29.175  13.049  19.106  1.00  0.00     0.006 C 
BRANCH   4   5
ATOM      5  C   UNL     1      30.290  13.891  18.472  1.00  0.00     0.053 C 
BRANCH   5   6
ATOM      6  C   UNL     1      29.959  14.209  17.048  1.00  0.00     0.041 C 
ATOM      7  O   UNL     1      30.637  13.709  16.113  1.00  0.00    -0.550 OA
ATOM      8  O   UNL     1      28.933  15.099  16.756  1.00  0.00    -0.550 OA
ENDBRANCH   5   6
ENDBRANCH   4   5
ENDBRANCH   3   4
ENDBRANCH   2   3
ENDBRANCH   1   2
BRANCH   1   9
ATOM      9  C   UNL     1      27.950  10.725  21.986  1.00  0.00     0.000 C 
BRANCH   9  10
ATOM     10  C   UNL     1      29.370  10.142  21.930  1.00  0.00    -0.000 C 
BRANCH  10  11
ATOM     11  C   UNL     1      30.287  10.708  23.025  1.00  0.00    -0.000 C 
BRANCH  11  12
ATOM     12  C   UNL     1      30.366  12.242  22.997  1.00  0.00    -0.000 C 
BRANCH  12  13
ATOM     13  C   UNL     1      31.458  12.717  22.032  1.00  0.00    -0.003 C 
ATOM     14  C   UNL     1      31.658  14.227  22.125  1.00  0.00     0.004 C 
ENDBRANCH  12  13
ENDBRANCH  11  12
ENDBRANCH  10  11
ENDBRANCH   9  10
ENDBRANCH   1   9
TORSDOF 10
ENDMDL
MODEL 8
REMARK VINA RESULT:    -3.450     16.735     18.596
REMARK INTER + INTRA:          -6.210
REMARK INTER:                  -5.160
REMARK INTRA:                  -1.050
REMARK UNBOUND:                -0.742
REMARK SMILES CCCCCCCCCCCC(=O)[O-]
REMARK SMILES IDX 7 1 8 2 9 3 10 4 11 5 12 6 13 7 14 8 6 9 5 10 4 11 3 12 2 13
REMARK SMILES IDX 1 14
REMARK H PARENT
REMARK Flexibility Score: inf
ROOT
ATOM      1  C   UNL     1      30.937  13.058  20.192  1.00  0.00     0.000 C 
ENDROOT
BRANCH   1   2
ATOM      2  C   UNL     1      31.820  14.315  20.152  1.00  0.00     0.000 C 
BRANCH   2   3
ATOM      3  C   UNL     1      31.050  15.564  19.687  1.00  0.00     0.000 C 
BRANCH   3   4
ATOM      4  C   UNL     1      31.385  15.957  18.240  1.00  0.00     0.006 C 
BRANCH   4   5
ATOM      5  C   UNL     1      30.250  15.627  17.261  1.00  0.00     0.053 C 
BRANCH   5   6
ATOM      6  C   UNL     1      30.619  14.454  16.410  1.00  0.00     0.041 C 
ATOM      7  O   UNL     1      30.356  13.284  16.795  1.00  0.00    -0.550 OA
ATOM      8  O   UNL     1      31.297  14.649  15.214  1.00  0.00    -0.550 OA
ENDBRANCH   5   6
ENDBRANCH   4   5
ENDBRANCH   3   4
ENDBRANCH   2   3
ENDBRANCH   1   2
BRANCH   1   9
ATOM      9  C   UNL     1      29.533  13.338  20.747  1.00  0.00     0.000 C 
BRANCH   9  10
ATOM     10  C   UNL     1      28.450  12.789  19.805  1.00  0.00    -0.000 C 
BRANCH  10  11
ATOM     11  C   UNL     1      27.701  11.587  20.400  1.00  0.00    -0.000 C 
BRANCH  11  12
ATOM     12  C   UNL     1      27.588  11.659  21.931  1.00  0.00    -0.000 C 
BRANCH  12  13
ATOM     13  C   UNL     1      28.010  10.332  22.573  1.00  0.00    -0.003 C 
ATOM     14  C   UNL     1      29.243   9.754  21.884  1.00  0.00     0.004 C 
ENDBRANCH  12  13
ENDBRANCH  11  12
ENDBRANCH  10  11
ENDBRANCH   9  10
ENDBRANCH   1   9
TORSDOF 10
ENDMDL
