MODEL 1
REMARK VINA RESULT:    -4.493      0.000      0.000
REMARK INTER + INTRA:         -10.171
REMARK INTER:                  -8.170
REMARK INTRA:                  -2.001
REMARK UNBOUND:                -2.001
REMARK SMILES CCCCCCCCCCCCCCCC(=O)[O-]
REMARK SMILES IDX 9 1 10 2 11 3 12 4 13 5 14 6 15 7 16 8 17 9 18 10 8 11 7 12
REMARK SMILES IDX 6 13 5 14 4 15 3 16 2 17 1 18
REMARK H PARENT
REMARK Flexibility Score: inf
ROOT
ATOM      1  C   UNL     1      57.033   0.262  28.632  1.00  0.00     0.000 C 
ENDROOT
BRANCH   1   2
ATOM      2  C   UNL     1      57.092   0.909  30.024  1.00  0.00     0.000 C 
BRANCH   2   3
ATOM      3  C   UNL     1      58.017   0.147  30.990  1.00  0.00     0.000 C 
BRANCH   3   4
ATOM      4  C   UNL     1      58.657  -1.090  30.339  1.00  0.00     0.000 C 
BRANCH   4   5
ATOM      5  C   UNL     1      59.818  -1.664  31.171  1.00  0.00     0.000 C 
BRANCH   5   6
ATOM      6  C   UNL     1      60.140  -3.127  30.812  1.00  0.00     0.006 C 
BRANCH   6   7
ATOM      7  C   UNL     1      59.888  -3.483  29.338  1.00  0.00     0.053 C 
BRANCH   7   8
ATOM      8  C   UNL     1      61.093  -3.227  28.486  1.00  0.00     0.041 C 
ATOM      9  O   UNL     1      61.224  -2.127  27.887  1.00  0.00    -0.550 OA
ATOM     10  O   UNL     1      62.055  -4.216  28.327  1.00  0.00    -0.550 OA
ENDBRANCH   7   8
ENDBRANCH   6   7
ENDBRANCH   5   6
ENDBRANCH   4   5
ENDBRANCH   3   4
ENDBRANCH   2   3
ENDBRANCH   1   2
BRANCH   1  11
ATOM     11  C   UNL     1      55.593   0.010  28.155  1.00  0.00     0.000 C 
BRANCH  11  12
ATOM     12  C   UNL     1      55.079  -1.392  28.531  1.00  0.00    -0.000 C 
BRANCH  12  13
ATOM     13  C   UNL     1      53.772  -1.409  29.349  1.00  0.00    -0.000 C 
BRANCH  13  14
ATOM     14  C   UNL     1      53.956  -1.364  30.876  1.00  0.00    -0.000 C 
BRANCH  14  15
ATOM     15  C   UNL     1      55.122  -2.236  31.363  1.00  0.00    -0.000 C 
BRANCH  15  16
ATOM     16  C   UNL     1      54.612  -3.556  31.952  1.00  0.00    -0.000 C 
BRANCH  16  17
ATOM     17  C   UNL     1      55.592  -4.700  31.669  1.00  0.00    -0.003 C 
ATOM     18  C   UNL     1      56.486  -4.378  30.475  1.00  0.00     0.004 C 
ENDBRANCH  16  17
ENDBRANCH  15  16
ENDBRANCH  14  15
ENDBRANCH  13  14
ENDBRANCH  12  13
ENDBRANCH  11  12
ENDBRANCH   1  11
TORSDOF 14
ENDMDL
MODEL 2
REMARK VINA RESULT:    -4.457      1.288      2.672
REMARK INTER + INTRA:         -10.106
REMARK INTER:                  -8.013
REMARK INTRA:                  -2.093
REMARK UNBOUND:                -2.001
REMARK SMILES CCCCCCCCCCCCCCCC(=O)[O-]
REMARK SMILES IDX 9 1 10 2 11 3 12 4 13 5 14 6 15 7 16 8 17 9 18 10 8 11 7 12
REMARK SMILES IDX 6 13 5 14 4 15 3 16 2 17 1 18
REMARK H PARENT
REMARK Flexibility Score: inf
ROOT
ATOM      1  C   UNL     1      58.450  -0.036  30.888  1.00  0.00     0.000 C 
ENDROOT
BRANCH   1   2
ATOM      2  C   UNL     1      58.116  -0.975  32.058  1.00  0.00     0.000 C 
BRANCH   2   3
ATOM      3  C   UNL     1      58.692  -2.389  31.862  1.00  0.00     0.000 C 
BRANCH   3   4
ATOM      4  C   UNL     1      57.710  -3.330  31.146  1.00  0.00     0.000 C 
BRANCH   4   5
ATOM      5  C   UNL     1      58.199  -3.746  29.747  1.00  0.00     0.000 C 
BRANCH   5   6
ATOM      6  C   UNL     1      59.711  -4.040  29.709  1.00  0.00     0.006 C 
BRANCH   6   7
ATOM      7  C   UNL     1      60.452  -3.378  28.536  1.00  0.00     0.053 C 
BRANCH   7   8
ATOM      8  C   UNL     1      61.001  -2.036  28.906  1.00  0.00     0.041 C 
ATOM      9  O   UNL     1      60.662  -1.011  28.258  1.00  0.00    -0.550 OA
ATOM     10  O   UNL     1      61.915  -1.921  29.946  1.00  0.00    -0.550 OA
ENDBRANCH   7   8
ENDBRANCH   6   7
ENDBRANCH   5   6
ENDBRANCH   4   5
ENDBRANCH   3   4
ENDBRANCH   2   3
ENDBRANCH   1   2
BRANCH   1  11
ATOM     11  C   UNL     1      57.261   0.848  30.478  1.00  0.00     0.000 C 
BRANCH  11  12
ATOM     12  C   UNL     1      57.180   1.068  28.957  1.00  0.00    -0.000 C 
BRANCH  12  13
ATOM     13  C   UNL     1      56.119   0.216  28.230  1.00  0.00    -0.000 C 
BRANCH  13  14
ATOM     14  C   UNL     1      55.762  -1.111  28.922  1.00  0.00    -0.000 C 
BRANCH  14  15
ATOM     15  C   UNL     1      54.269  -1.454  28.820  1.00  0.00    -0.000 C 
BRANCH  15  16
ATOM     16  C   UNL     1      53.553  -1.194  30.152  1.00  0.00    -0.000 C 
BRANCH  16  17
ATOM     17  C   UNL     1      54.449  -1.562  31.339  1.00  0.00    -0.003 C 
ATOM     18  C   UNL     1      54.083  -2.933  31.901  1.00  0.00     0.004 C 
ENDBRANCH  16  17
ENDBRANCH  15  16
ENDBRANCH  14  15
ENDBRANCH  13  14
ENDBRANCH  12  13
ENDBRANCH  11  12
ENDBRANCH   1  11
TORSDOF 14
ENDMDL
MODEL 3
REMARK VINA RESULT:    -4.300      1.615      3.575
REMARK INTER + INTRA:          -9.820
REMARK INTER:                  -7.731
REMARK INTRA:                  -2.089
REMARK UNBOUND:                -2.001
REMARK SMILES CCCCCCCCCCCCCCCC(=O)[O-]
REMARK SMILES IDX 9 1 10 2 11 3 12 4 13 5 14 6 15 7 16 8 17 9 18 10 8 11 7 12
REMARK SMILES IDX 6 13 5 14 4 15 3 16 2 17 1 18
REMARK H PARENT
REMARK Flexibility Score: inf
ROOT
ATOM      1  C   UNL     1      58.014  -3.832  31.982  1.00  0.00     0.000 C 
ENDROOT
BRANCH   1   2
ATOM      2  C   UNL     1      59.193  -2.846  31.969  1.00  0.00     0.000 C 
BRANCH   2   3
ATOM      3  C   UNL     1      59.984  -2.890  30.649  1.00  0.00     0.000 C 
BRANCH   3   4
ATOM      4  C   UNL     1      60.244  -1.490  30.072  1.00  0.00     0.000 C 
BRANCH   4   5
ATOM      5  C   UNL     1      60.652  -1.526  28.588  1.00  0.00     0.000 C 
BRANCH   5   6
ATOM      6  C   UNL     1      61.097  -2.927  28.129  1.00  0.00     0.006 C 
BRANCH   6   7
ATOM      7  C   UNL     1      62.598  -3.041  27.817  1.00  0.00     0.053 C 
BRANCH   7   8
ATOM      8  C   UNL     1      62.848  -3.366  26.377  1.00  0.00     0.041 C 
ATOM      9  O   UNL     1      63.151  -4.539  26.034  1.00  0.00    -0.550 OA
ATOM     10  O   UNL     1      62.778  -2.365  25.416  1.00  0.00    -0.550 OA
ENDBRANCH   7   8
ENDBRANCH   6   7
ENDBRANCH   5   6
ENDBRANCH   4   5
ENDBRANCH   3   4
ENDBRANCH   2   3
ENDBRANCH   1   2
BRANCH   1  11
ATOM     11  C   UNL     1      57.521  -4.185  30.569  1.00  0.00     0.000 C 
BRANCH  11  12
ATOM     12  C   UNL     1      55.989  -4.308  30.487  1.00  0.00    -0.000 C 
BRANCH  12  13
ATOM     13  C   UNL     1      55.242  -4.048  31.812  1.00  0.00    -0.000 C 
BRANCH  13  14
ATOM     14  C   UNL     1      54.241  -2.879  31.780  1.00  0.00    -0.000 C 
BRANCH  14  15
ATOM     15  C   UNL     1      54.632  -1.787  30.774  1.00  0.00    -0.000 C 
BRANCH  15  16
ATOM     16  C   UNL     1      55.350  -0.627  31.474  1.00  0.00    -0.000 C 
BRANCH  16  17
ATOM     17  C   UNL     1      56.693  -0.324  30.801  1.00  0.00    -0.003 C 
ATOM     18  C   UNL     1      56.678  -0.734  29.331  1.00  0.00     0.004 C 
ENDBRANCH  16  17
ENDBRANCH  15  16
ENDBRANCH  14  15
ENDBRANCH  13  14
ENDBRANCH  12  13
ENDBRANCH  11  12
ENDBRANCH   1  11
TORSDOF 14
ENDMDL
MODEL 4
REMARK VINA RESULT:    -4.262      1.299      3.624
REMARK INTER + INTRA:          -9.751
REMARK INTER:                  -7.886
REMARK INTRA:                  -1.865
REMARK UNBOUND:                -2.001
REMARK SMILES CCCCCCCCCCCCCCCC(=O)[O-]
REMARK SMILES IDX 9 1 10 2 11 3 12 4 13 5 14 6 15 7 16 8 17 9 18 10 8 11 7 12
REMARK SMILES IDX 6 13 5 14 4 15 3 16 2 17 1 18
REMARK H PARENT
REMARK Flexibility Score: inf
ROOT
ATOM      1  C   UNL     1      57.252  -4.249  30.780  1.00  0.00     0.000 C 
ENDROOT
BRANCH   1   2
ATOM      2  C   UNL     1      57.904  -3.862  32.117  1.00  0.00     0.000 C 
BRANCH   2   3
ATOM      3  C   UNL     1      59.160  -2.991  31.930  1.00  0.00     0.000 C 
BRANCH   3   4
ATOM      4  C   UNL     1      58.828  -1.494  31.833  1.00  0.00     0.000 C 
BRANCH   4   5
ATOM      5  C   UNL     1      59.285  -0.870  30.502  1.00  0.00     0.000 C 
BRANCH   5   6
ATOM      6  C   UNL     1      59.978  -1.888  29.576  1.00  0.00     0.006 C 
BRANCH   6   7
ATOM      7  C   UNL     1      61.095  -1.289  28.706  1.00  0.00     0.053 C 
BRANCH   7   8
ATOM      8  C   UNL     1      61.901  -2.349  28.023  1.00  0.00     0.041 C 
ATOM      9  O   UNL     1      61.335  -3.367  27.544  1.00  0.00    -0.550 OA
ATOM     10  O   UNL     1      63.283  -2.230  27.944  1.00  0.00    -0.550 OA
ENDBRANCH   7   8
ENDBRANCH   6   7
ENDBRANCH   5   6
ENDBRANCH   4   5
ENDBRANCH   3   4
ENDBRANCH   2   3
ENDBRANCH   1   2
BRANCH   1  11
ATOM     11  C   UNL     1      55.761  -4.592  30.925  1.00  0.00     0.000 C 
BRANCH  11  12
ATOM     12  C   UNL     1      55.103  -3.887  32.125  1.00  0.00    -0.000 C 
BRANCH  12  13
ATOM     13  C   UNL     1      54.142  -2.737  31.759  1.00  0.00    -0.000 C 
BRANCH  13  14
ATOM     14  C   UNL     1      54.824  -1.443  31.279  1.00  0.00    -0.000 C 
BRANCH  14  15
ATOM     15  C   UNL     1      54.699  -1.229  29.764  1.00  0.00    -0.000 C 
BRANCH  15  16
ATOM     16  C   UNL     1      56.076  -1.005  29.126  1.00  0.00    -0.000 C 
BRANCH  16  17
ATOM     17  C   UNL     1      56.069   0.233  28.224  1.00  0.00    -0.003 C 
ATOM     18  C   UNL     1      57.012   1.309  28.756  1.00  0.00     0.004 C 
ENDBRANCH  16  17
ENDBRANCH  15  16
ENDBRANCH  14  15
ENDBRANCH  13  14
ENDBRANCH  12  13
ENDBRANCH  11  12
ENDBRANCH   1  11
TORSDOF 14
ENDMDL
MODEL 5
REMARK VINA RESULT:    -3.978      1.731      3.171
REMARK INTER + INTRA:          -9.234
REMARK INTER:                  -7.263
REMARK INTRA:                  -1.971
REMARK UNBOUND:                -2.001
REMARK SMILES CCCCCCCCCCCCCCCC(=O)[O-]
REMARK SMILES IDX 9 1 10 2 11 3 12 4 13 5 14 6 15 7 16 8 17 9 18 10 8 11 7 12
REMARK SMILES IDX 6 13 5 14 4 15 3 16 2 17 1 18
REMARK H PARENT
REMARK Flexibility Score: inf
ROOT
ATOM      1  C   UNL     1      59.446  -0.948  31.075  1.00  0.00     0.000 C 
ENDROOT
BRANCH   1   2
ATOM      2  C   UNL     1      59.277  -0.791  29.556  1.00  0.00     0.000 C 
BRANCH   2   3
ATOM      3  C   UNL     1      60.450  -1.399  28.766  1.00  0.00     0.000 C 
BRANCH   3   4
ATOM      4  C   UNL     1      60.332  -2.924  28.615  1.00  0.00     0.000 C 
BRANCH   4   5
ATOM      5  C   UNL     1      61.613  -3.664  29.040  1.00  0.00     0.000 C 
BRANCH   5   6
ATOM      6  C   UNL     1      62.890  -2.851  28.756  1.00  0.00     0.006 C 
BRANCH   6   7
ATOM      7  C   UNL     1      63.894  -3.558  27.831  1.00  0.00     0.053 C 
BRANCH   7   8
ATOM      8  C   UNL     1      63.208  -4.339  26.753  1.00  0.00     0.041 C 
ATOM      9  O   UNL     1      63.234  -5.598  26.767  1.00  0.00    -0.550 OA
ATOM     10  O   UNL     1      62.567  -3.676  25.715  1.00  0.00    -0.550 OA
ENDBRANCH   7   8
ENDBRANCH   6   7
ENDBRANCH   5   6
ENDBRANCH   4   5
ENDBRANCH   3   4
ENDBRANCH   2   3
ENDBRANCH   1   2
BRANCH   1  11
ATOM     11  C   UNL     1      58.201  -0.502  31.859  1.00  0.00     0.000 C 
BRANCH  11  12
ATOM     12  C   UNL     1      57.070   0.002  30.943  1.00  0.00    -0.000 C 
BRANCH  12  13
ATOM     13  C   UNL     1      55.647  -0.395  31.386  1.00  0.00    -0.000 C 
BRANCH  13  14
ATOM     14  C   UNL     1      54.973  -1.478  30.525  1.00  0.00    -0.000 C 
BRANCH  14  15
ATOM     15  C   UNL     1      55.721  -1.747  29.212  1.00  0.00    -0.000 C 
BRANCH  15  16
ATOM     16  C   UNL     1      56.049  -3.237  29.062  1.00  0.00    -0.000 C 
BRANCH  16  17
ATOM     17  C   UNL     1      56.175  -3.914  30.431  1.00  0.00    -0.003 C 
ATOM     18  C   UNL     1      57.638  -4.127  30.808  1.00  0.00     0.004 C 
ENDBRANCH  16  17
ENDBRANCH  15  16
ENDBRANCH  14  15
ENDBRANCH  13  14
ENDBRANCH  12  13
ENDBRANCH  11  12
ENDBRANCH   1  11
TORSDOF 14
ENDMDL
MODEL 6
REMARK VINA RESULT:    -3.969      2.523      5.715
REMARK INTER + INTRA:          -9.219
REMARK INTER:                  -6.902
REMARK INTRA:                  -2.317
REMARK UNBOUND:                -2.001
REMARK SMILES CCCCCCCCCCCCCCCC(=O)[O-]
REMARK SMILES IDX 9 1 10 2 11 3 12 4 13 5 14 6 15 7 16 8 17 9 18 10 8 11 7 12
REMARK SMILES IDX 6 13 5 14 4 15 3 16 2 17 1 18
REMARK H PARENT
REMARK Flexibility Score: inf
ROOT
ATOM      1  C   UNL     1      59.028  -0.925  30.818  1.00  0.00     0.000 C 
ENDROOT
BRANCH   1   2
ATOM      2  C   UNL     1      58.254   0.198  31.525  1.00  0.00     0.000 C 
BRANCH   2   3
ATOM      3  C   UNL     1      57.117   0.768  30.657  1.00  0.00     0.000 C 
BRANCH   3   4
ATOM      4  C   UNL     1      57.422   0.677  29.153  1.00  0.00     0.000 C 
BRANCH   4   5
ATOM      5  C   UNL     1      56.309  -0.036  28.364  1.00  0.00     0.000 C 
BRANCH   5   6
ATOM      6  C   UNL     1      55.421  -0.921  29.258  1.00  0.00     0.006 C 
BRANCH   6   7
ATOM      7  C   UNL     1      55.619  -2.431  29.046  1.00  0.00     0.053 C 
BRANCH   7   8
ATOM      8  C   UNL     1      55.674  -3.176  30.343  1.00  0.00     0.041 C 
ATOM      9  O   UNL     1      55.441  -2.580  31.427  1.00  0.00    -0.550 OA
ATOM     10  O   UNL     1      56.016  -4.522  30.357  1.00  0.00    -0.550 OA
ENDBRANCH   7   8
ENDBRANCH   6   7
ENDBRANCH   5   6
ENDBRANCH   4   5
ENDBRANCH   3   4
ENDBRANCH   2   3
ENDBRANCH   1   2
BRANCH   1  11
ATOM     11  C   UNL     1      58.944  -2.265  31.567  1.00  0.00     0.000 C 
BRANCH  11  12
ATOM     12  C   UNL     1      59.334  -3.465  30.684  1.00  0.00    -0.000 C 
BRANCH  12  13
ATOM     13  C   UNL     1      59.304  -3.195  29.166  1.00  0.00    -0.000 C 
BRANCH  13  14
ATOM     14  C   UNL     1      60.667  -3.301  28.457  1.00  0.00    -0.000 C 
BRANCH  14  15
ATOM     15  C   UNL     1      61.312  -1.932  28.197  1.00  0.00    -0.000 C 
BRANCH  15  16
ATOM     16  C   UNL     1      62.666  -1.819  28.908  1.00  0.00    -0.000 C 
BRANCH  16  17
ATOM     17  C   UNL     1      62.952  -3.068  29.748  1.00  0.00    -0.003 C 
ATOM     18  C   UNL     1      62.953  -2.741  31.239  1.00  0.00     0.004 C 
ENDBRANCH  16  17
ENDBRANCH  15  16
ENDBRANCH  14  15
ENDBRANCH  13  14
ENDBRANCH  12  13
ENDBRANCH  11  12
ENDBRANCH   1  11
TORSDOF 14
ENDMDL
MODEL 7
REMARK VINA RESULT:    -3.946      2.256      6.174
REMARK INTER + INTRA:          -9.178
REMARK INTER:                  -7.387
REMARK INTRA:                  -1.791
REMARK UNBOUND:                -2.001
REMARK SMILES CCCCCCCCCCCCCCCC(=O)[O-]
REMARK SMILES IDX 9 1 10 2 11 3 12 4 13 5 14 6 15 7 16 8 17 9 18 10 8 11 7 12
REMARK SMILES IDX 6 13 5 14 4 15 3 16 2 17 1 18
REMARK H PARENT
REMARK Flexibility Score: inf
ROOT
ATOM      1  C   UNL     1      57.847  -4.186  30.236  1.00  0.00     0.000 C 
ENDROOT
BRANCH   1   2
ATOM      2  C   UNL     1      56.312  -4.238  30.280  1.00  0.00     0.000 C 
BRANCH   2   3
ATOM      3  C   UNL     1      55.769  -4.411  31.710  1.00  0.00     0.000 C 
BRANCH   3   4
ATOM      4  C   UNL     1      54.711  -3.356  32.070  1.00  0.00     0.000 C 
BRANCH   4   5
ATOM      5  C   UNL     1      54.485  -2.333  30.943  1.00  0.00     0.000 C 
BRANCH   5   6
ATOM      6  C   UNL     1      54.806  -0.891  31.376  1.00  0.00     0.006 C 
BRANCH   6   7
ATOM      7  C   UNL     1      56.308  -0.560  31.401  1.00  0.00     0.053 C 
BRANCH   7   8
ATOM      8  C   UNL     1      56.767   0.055  30.116  1.00  0.00     0.041 C 
ATOM      9  O   UNL     1      56.854  -0.645  29.073  1.00  0.00    -0.550 OA
ATOM     10  O   UNL     1      57.131   1.395  30.077  1.00  0.00    -0.550 OA
ENDBRANCH   7   8
ENDBRANCH   6   7
ENDBRANCH   5   6
ENDBRANCH   4   5
ENDBRANCH   3   4
ENDBRANCH   2   3
ENDBRANCH   1   2
BRANCH   1  11
ATOM     11  C   UNL     1      58.452  -3.478  31.459  1.00  0.00     0.000 C 
BRANCH  11  12
ATOM     12  C   UNL     1      59.870  -2.942  31.194  1.00  0.00    -0.000 C 
BRANCH  12  13
ATOM     13  C   UNL     1      59.930  -1.507  30.630  1.00  0.00    -0.000 C 
BRANCH  13  14
ATOM     14  C   UNL     1      60.338  -1.404  29.149  1.00  0.00    -0.000 C 
BRANCH  14  15
ATOM     15  C   UNL     1      60.839  -2.736  28.575  1.00  0.00    -0.000 C 
BRANCH  15  16
ATOM     16  C   UNL     1      61.971  -2.508  27.566  1.00  0.00    -0.000 C 
BRANCH  16  17
ATOM     17  C   UNL     1      63.334  -2.844  28.181  1.00  0.00    -0.003 C 
ATOM     18  C   UNL     1      63.173  -3.561  29.519  1.00  0.00     0.004 C 
ENDBRANCH  16  17
ENDBRANCH  15  16
ENDBRANCH  14  15
ENDBRANCH  13  14
ENDBRANCH  12  13
ENDBRANCH  11  12
ENDBRANCH   1  11
TORSDOF 14
ENDMDL
MODEL 8
REMARK VINA RESULT:    -3.844     16.933     19.594
REMARK INTER + INTRA:          -8.992
REMARK INTER:                  -6.012
REMARK INTRA:                  -2.981
REMARK UNBOUND:                -2.001
REMARK SMILES CCCCCCCCCCCCCCCC(=O)[O-]
REMARK SMILES IDX 9 1 10 2 11 3 12 4 13 5 14 6 15 7 16 8 17 9 18 10 8 11 7 12
REMARK SMILES IDX 6 13 5 14 4 15 3 16 2 17 1 18
REMARK H PARENT
REMARK Flexibility Score: inf
ROOT
ATOM      1  C   UNL     1      62.069 -12.752  14.058  1.00  0.00     0.000 C 
ENDROOT
BRANCH   1   2
ATOM      2  C   UNL     1      62.135 -11.467  14.898  1.00  0.00     0.000 C 
BRANCH   2   3
ATOM      3  C   UNL     1      62.041 -11.744  16.409  1.00  0.00     0.000 C 
BRANCH   3   4
ATOM      4  C   UNL     1      61.853 -13.237  16.724  1.00  0.00     0.000 C 
BRANCH   4   5
ATOM      5  C   UNL     1      62.993 -13.811  17.583  1.00  0.00     0.000 C 
BRANCH   5   6
ATOM      6  C   UNL     1      63.626 -15.072  16.966  1.00  0.00     0.006 C 
BRANCH   6   7
ATOM      7  C   UNL     1      62.775 -15.730  15.868  1.00  0.00     0.053 C 
BRANCH   7   8
ATOM      8  C   UNL     1      63.616 -16.256  14.747  1.00  0.00     0.041 C 
ATOM      9  O   UNL     1      63.103 -16.480  13.619  1.00  0.00    -0.550 OA
ATOM     10  O   UNL     1      64.961 -16.531  14.957  1.00  0.00    -0.550 OA
ENDBRANCH   7   8
ENDBRANCH   6   7
ENDBRANCH   5   6
ENDBRANCH   4   5
ENDBRANCH   3   4
ENDBRANCH   2   3
ENDBRANCH   1   2
BRANCH   1  11
ATOM     11  C   UNL     1      63.305 -12.940  13.163  1.00  0.00     0.000 C 
BRANCH  11  12
ATOM     12  C   UNL     1      64.534 -12.169  13.677  1.00  0.00    -0.000 C 
BRANCH  12  13
ATOM     13  C   UNL     1      65.538 -13.012  14.490  1.00  0.00    -0.000 C 
BRANCH  13  14
ATOM     14  C   UNL     1      65.961 -12.403  15.840  1.00  0.00    -0.000 C 
BRANCH  14  15
ATOM     15  C   UNL     1      65.664 -10.900  15.935  1.00  0.00    -0.000 C 
BRANCH  15  16
ATOM     16  C   UNL     1      65.456 -10.472  17.392  1.00  0.00    -0.000 C 
BRANCH  16  17
ATOM     17  C   UNL     1      65.846 -11.597  18.357  1.00  0.00    -0.003 C 
ATOM     18  C   UNL     1      65.006 -11.547  19.631  1.00  0.00     0.004 C 
ENDBRANCH  16  17
ENDBRANCH  15  16
ENDBRANCH  14  15
ENDBRANCH  13  14
ENDBRANCH  12  13
ENDBRANCH  11  12
ENDBRANCH   1  11
TORSDOF 14
ENDMDL
MODEL 9
REMARK VINA RESULT:    -3.803      2.752      6.416
REMARK INTER + INTRA:          -8.917
REMARK INTER:                  -6.957
REMARK INTRA:                  -1.960
REMARK UNBOUND:                -2.001
REMARK SMILES CCCCCCCCCCCCCCCC(=O)[O-]
REMARK SMILES IDX 9 1 10 2 11 3 12 4 13 5 14 6 15 7 16 8 17 9 18 10 8 11 7 12
REMARK SMILES IDX 6 13 5 14 4 15 3 16 2 17 1 18
REMARK H PARENT
REMARK Flexibility Score: inf
ROOT
ATOM      1  C   UNL     1      58.682  -3.913  30.121  1.00  0.00     0.000 C 
ENDROOT
BRANCH   1   2
ATOM      2  C   UNL     1      58.417  -3.189  31.451  1.00  0.00     0.000 C 
BRANCH   2   3
ATOM      3  C   UNL     1      59.580  -2.270  31.864  1.00  0.00     0.000 C 
BRANCH   3   4
ATOM      4  C   UNL     1      59.176  -0.788  31.899  1.00  0.00     0.000 C 
BRANCH   4   5
ATOM      5  C   UNL     1      58.707  -0.267  30.529  1.00  0.00     0.000 C 
BRANCH   5   6
ATOM      6  C   UNL     1      57.334   0.428  30.596  1.00  0.00     0.006 C 
BRANCH   6   7
ATOM      7  C   UNL     1      56.138  -0.538  30.573  1.00  0.00     0.053 C 
BRANCH   7   8
ATOM      8  C   UNL     1      55.802  -0.980  29.182  1.00  0.00     0.041 C 
ATOM      9  O   UNL     1      55.790  -0.147  28.238  1.00  0.00    -0.550 OA
ATOM     10  O   UNL     1      55.468  -2.305  28.935  1.00  0.00    -0.550 OA
ENDBRANCH   7   8
ENDBRANCH   6   7
ENDBRANCH   5   6
ENDBRANCH   4   5
ENDBRANCH   3   4
ENDBRANCH   2   3
ENDBRANCH   1   2
BRANCH   1  11
ATOM     11  C   UNL     1      60.157  -3.842  29.692  1.00  0.00     0.000 C 
BRANCH  11  12
ATOM     12  C   UNL     1      60.360  -3.032  28.398  1.00  0.00    -0.000 C 
BRANCH  12  13
ATOM     13  C   UNL     1      61.317  -1.829  28.526  1.00  0.00    -0.000 C 
BRANCH  13  14
ATOM     14  C   UNL     1      62.653  -2.129  29.229  1.00  0.00    -0.000 C 
BRANCH  14  15
ATOM     15  C   UNL     1      63.661  -2.842  28.316  1.00  0.00    -0.000 C 
BRANCH  15  16
ATOM     16  C   UNL     1      63.810  -4.317  28.710  1.00  0.00    -0.000 C 
BRANCH  16  17
ATOM     17  C   UNL     1      63.189  -5.235  27.653  1.00  0.00    -0.003 C 
ATOM     18  C   UNL     1      63.385  -4.671  26.248  1.00  0.00     0.004 C 
ENDBRANCH  16  17
ENDBRANCH  15  16
ENDBRANCH  14  15
ENDBRANCH  13  14
ENDBRANCH  12  13
ENDBRANCH  11  12
ENDBRANCH   1  11
TORSDOF 14
ENDMDL
