MODEL 1
REMARK VINA RESULT:    -7.356      0.000      0.000
REMARK INTER + INTRA:          -8.949
REMARK INTER:                  -8.646
REMARK INTRA:                  -0.303
REMARK UNBOUND:                -0.303
REMARK SMILES O=c1cc(-c2ccc(O)c(O)c2)oc2cc(O)cc(O)c12
REMARK SMILES IDX 4 1 3 2 2 3 1 4 21 5 19 6 18 7 16 8 15 9 14 10 13 11 5 12
REMARK SMILES IDX 6 13 7 14 8 15 12 16 10 17 9 18 11 20 20 22 17 24
REMARK H PARENT 9 19 11 21 20 23 17 25
REMARK Flexibility Score: inf
ROOT
ATOM      1  C   UNL     1      22.827  34.233   6.135  1.00  0.00     0.138 A 
ATOM      2  C   UNL     1      22.925  35.338   5.274  1.00  0.00     0.100 A 
ATOM      3  C   UNL     1      21.827  36.185   5.115  1.00  0.00     0.197 A 
ATOM      4  O   UNL     1      21.924  37.173   4.339  1.00  0.00    -0.289 OA
ATOM      5  C   UNL     1      20.636  35.918   5.818  1.00  0.00     0.107 A 
ATOM      6  C   UNL     1      19.478  36.727   5.716  1.00  0.00     0.134 A 
ATOM      7  C   UNL     1      18.328  36.389   6.446  1.00  0.00     0.093 A 
ATOM      8  C   UNL     1      18.316  35.260   7.273  1.00  0.00     0.123 A 
ATOM      9  C   UNL     1      19.456  34.461   7.378  1.00  0.00     0.094 A 
ATOM     10  C   UNL     1      20.611  34.780   6.659  1.00  0.00     0.146 A 
ATOM     11  O   UNL     1      21.684  34.003   6.777  1.00  0.00    -0.456 OA
ENDROOT
BRANCH   1  12
ATOM     12  C   UNL     1      23.961  33.298   6.342  1.00  0.00     0.021 A 
ATOM     13  C   UNL     1      24.829  33.017   5.274  1.00  0.00     0.016 A 
ATOM     14  C   UNL     1      25.899  32.135   5.440  1.00  0.00     0.051 A 
ATOM     15  C   UNL     1      26.116  31.510   6.670  1.00  0.00     0.157 A 
ATOM     16  C   UNL     1      24.175  32.655   7.577  1.00  0.00     0.062 A 
ATOM     17  C   UNL     1      25.249  31.767   7.744  1.00  0.00     0.158 A 
BRANCH  15  18
ATOM     18  O   UNL     1      27.194  30.636   6.807  1.00  0.00    -0.504 OA
ATOM     19  H   UNL     1      27.946  30.599   6.131  1.00  0.00     0.293 HD
ENDBRANCH  15  18
BRANCH  17  20
ATOM     20  O   UNL     1      25.453  31.139   8.972  1.00  0.00    -0.504 OA
ATOM     21  H   UNL     1      24.838  30.405   9.302  1.00  0.00     0.293 HD
ENDBRANCH  17  20
ENDBRANCH   1  12
BRANCH   6  22
ATOM     22  O   UNL     1      19.462  37.857   4.898  1.00  0.00    -0.507 OA
ATOM     23  H   UNL     1      18.862  38.649   5.095  1.00  0.00     0.293 HD
ENDBRANCH   6  22
BRANCH   8  24
ATOM     24  O   UNL     1      17.174  34.925   7.998  1.00  0.00    -0.508 OA
ATOM     25  H   UNL     1      17.226  34.644   8.971  1.00  0.00     0.293 HD
ENDBRANCH   8  24
TORSDOF 5
ENDMDL
MODEL 2
REMARK VINA RESULT:    -6.730      1.490      6.895
REMARK INTER + INTRA:          -8.214
REMARK INTER:                  -7.937
REMARK INTRA:                  -0.277
REMARK UNBOUND:                -0.303
REMARK SMILES O=c1cc(-c2ccc(O)c(O)c2)oc2cc(O)cc(O)c12
REMARK SMILES IDX 4 1 3 2 2 3 1 4 21 5 19 6 18 7 16 8 15 9 14 10 13 11 5 12
REMARK SMILES IDX 6 13 7 14 8 15 12 16 10 17 9 18 11 20 20 22 17 24
REMARK H PARENT 9 19 11 21 20 23 17 25
REMARK Flexibility Score: inf
ROOT
ATOM      1  C   UNL     1      22.132  34.076   5.826  1.00  0.00     0.138 A 
ATOM      2  C   UNL     1      22.569  33.615   4.574  1.00  0.00     0.100 A 
ATOM      3  C   UNL     1      23.749  32.874   4.489  1.00  0.00     0.197 A 
ATOM      4  O   UNL     1      24.135  32.466   3.360  1.00  0.00    -0.289 OA
ATOM      5  C   UNL     1      24.486  32.604   5.658  1.00  0.00     0.107 A 
ATOM      6  C   UNL     1      25.691  31.860   5.660  1.00  0.00     0.134 A 
ATOM      7  C   UNL     1      26.368  31.638   6.869  1.00  0.00     0.093 A 
ATOM      8  C   UNL     1      25.864  32.147   8.072  1.00  0.00     0.123 A 
ATOM      9  C   UNL     1      24.676  32.880   8.075  1.00  0.00     0.094 A 
ATOM     10  C   UNL     1      23.986  33.112   6.881  1.00  0.00     0.146 A 
ATOM     11  O   UNL     1      22.856  33.812   6.911  1.00  0.00    -0.456 OA
ENDROOT
BRANCH   1  12
ATOM     12  C   UNL     1      20.886  34.869   5.977  1.00  0.00     0.021 A 
ATOM     13  C   UNL     1      20.775  36.113   5.334  1.00  0.00     0.016 A 
ATOM     14  C   UNL     1      19.617  36.882   5.466  1.00  0.00     0.051 A 
ATOM     15  C   UNL     1      18.553  36.429   6.250  1.00  0.00     0.157 A 
ATOM     16  C   UNL     1      19.816  34.423   6.778  1.00  0.00     0.062 A 
ATOM     17  C   UNL     1      18.652  35.195   6.912  1.00  0.00     0.158 A 
BRANCH  15  18
ATOM     18  O   UNL     1      17.408  37.217   6.361  1.00  0.00    -0.504 OA
ATOM     19  H   UNL     1      16.478  36.837   6.234  1.00  0.00     0.293 HD
ENDBRANCH  15  18
BRANCH  17  20
ATOM     20  O   UNL     1      17.599  34.742   7.705  1.00  0.00    -0.504 OA
ATOM     21  H   UNL     1      16.680  35.170   7.664  1.00  0.00     0.293 HD
ENDBRANCH  17  20
ENDBRANCH   1  12
BRANCH   6  22
ATOM     22  O   UNL     1      26.216  31.342   4.476  1.00  0.00    -0.507 OA
ATOM     23  H   UNL     1      25.703  30.676   3.912  1.00  0.00     0.293 HD
ENDBRANCH   6  22
BRANCH   8  24
ATOM     24  O   UNL     1      26.538  31.927   9.272  1.00  0.00    -0.508 OA
ATOM     25  H   UNL     1      27.495  32.232   9.407  1.00  0.00     0.293 HD
ENDBRANCH   8  24
TORSDOF 5
ENDMDL
MODEL 3
REMARK VINA RESULT:    -6.352      1.820      6.967
REMARK INTER + INTRA:          -7.769
REMARK INTER:                  -7.456
REMARK INTRA:                  -0.312
REMARK UNBOUND:                -0.303
REMARK SMILES O=c1cc(-c2ccc(O)c(O)c2)oc2cc(O)cc(O)c12
REMARK SMILES IDX 4 1 3 2 2 3 1 4 21 5 19 6 18 7 16 8 15 9 14 10 13 11 5 12
REMARK SMILES IDX 6 13 7 14 8 15 12 16 10 17 9 18 11 20 20 22 17 24
REMARK H PARENT 9 19 11 21 20 23 17 25
REMARK Flexibility Score: inf
ROOT
ATOM      1  C   UNL     1      23.108  33.439   5.701  1.00  0.00     0.138 A 
ATOM      2  C   UNL     1      23.678  33.348   4.421  1.00  0.00     0.100 A 
ATOM      3  C   UNL     1      24.708  32.435   4.190  1.00  0.00     0.197 A 
ATOM      4  O   UNL     1      25.213  32.361   3.038  1.00  0.00    -0.289 OA
ATOM      5  C   UNL     1      25.164  31.621   5.245  1.00  0.00     0.107 A 
ATOM      6  C   UNL     1      26.202  30.670   5.097  1.00  0.00     0.134 A 
ATOM      7  C   UNL     1      26.603  29.901   6.201  1.00  0.00     0.093 A 
ATOM      8  C   UNL     1      25.986  30.067   7.447  1.00  0.00     0.123 A 
ATOM      9  C   UNL     1      24.961  31.003   7.597  1.00  0.00     0.094 A 
ATOM     10  C   UNL     1      24.548  31.779   6.510  1.00  0.00     0.146 A 
ATOM     11  O   UNL     1      23.569  32.663   6.679  1.00  0.00    -0.456 OA
ENDROOT
BRANCH   1  12
ATOM     12  C   UNL     1      22.011  34.393   6.005  1.00  0.00     0.021 A 
ATOM     13  C   UNL     1      21.814  35.508   5.174  1.00  0.00     0.016 A 
ATOM     14  C   UNL     1      20.794  36.424   5.442  1.00  0.00     0.051 A 
ATOM     15  C   UNL     1      19.960  36.249   6.548  1.00  0.00     0.157 A 
ATOM     16  C   UNL     1      21.175  34.227   7.127  1.00  0.00     0.062 A 
ATOM     17  C   UNL     1      20.152  35.148   7.398  1.00  0.00     0.158 A 
BRANCH  15  18
ATOM     18  O   UNL     1      18.948  37.178   6.789  1.00  0.00    -0.504 OA
ATOM     19  H   UNL     1      19.129  38.174   6.822  1.00  0.00     0.293 HD
ENDBRANCH  15  18
BRANCH  17  20
ATOM     20  O   UNL     1      19.329  34.973   8.510  1.00  0.00    -0.504 OA
ATOM     21  H   UNL     1      19.387  34.143   9.089  1.00  0.00     0.293 HD
ENDBRANCH  17  20
ENDBRANCH   1  12
BRANCH   6  22
ATOM     22  O   UNL     1      26.835  30.484   3.868  1.00  0.00    -0.507 OA
ATOM     23  H   UNL     1      27.198  31.263   3.333  1.00  0.00     0.293 HD
ENDBRANCH   6  22
BRANCH   8  24
ATOM     24  O   UNL     1      26.384  29.303   8.542  1.00  0.00    -0.508 OA
ATOM     25  H   UNL     1      27.318  29.377   8.929  1.00  0.00     0.293 HD
ENDBRANCH   8  24
TORSDOF 5
ENDMDL
MODEL 4
REMARK VINA RESULT:    -6.266      2.340      7.120
REMARK INTER + INTRA:          -7.668
REMARK INTER:                  -7.404
REMARK INTRA:                  -0.264
REMARK UNBOUND:                -0.303
REMARK SMILES O=c1cc(-c2ccc(O)c(O)c2)oc2cc(O)cc(O)c12
REMARK SMILES IDX 4 1 3 2 2 3 1 4 21 5 19 6 18 7 16 8 15 9 14 10 13 11 5 12
REMARK SMILES IDX 6 13 7 14 8 15 12 16 10 17 9 18 11 20 20 22 17 24
REMARK H PARENT 9 19 11 21 20 23 17 25
REMARK Flexibility Score: inf
ROOT
ATOM      1  C   UNL     1      22.375  33.047   5.229  1.00  0.00     0.138 A 
ATOM      2  C   UNL     1      22.167  32.130   4.186  1.00  0.00     0.100 A 
ATOM      3  C   UNL     1      22.853  30.914   4.193  1.00  0.00     0.197 A 
ATOM      4  O   UNL     1      22.660  30.098   3.252  1.00  0.00    -0.289 OA
ATOM      5  C   UNL     1      23.746  30.626   5.243  1.00  0.00     0.107 A 
ATOM      6  C   UNL     1      24.480  29.419   5.327  1.00  0.00     0.134 A 
ATOM      7  C   UNL     1      25.355  29.210   6.404  1.00  0.00     0.093 A 
ATOM      8  C   UNL     1      25.509  30.187   7.395  1.00  0.00     0.123 A 
ATOM      9  C   UNL     1      24.787  31.379   7.317  1.00  0.00     0.094 A 
ATOM     10  C   UNL     1      23.911  31.605   6.252  1.00  0.00     0.146 A 
ATOM     11  O   UNL     1      23.233  32.749   6.201  1.00  0.00    -0.456 OA
ENDROOT
BRANCH   1  12
ATOM     12  C   UNL     1      21.674  34.355   5.274  1.00  0.00     0.021 A 
ATOM     13  C   UNL     1      22.380  35.529   4.959  1.00  0.00     0.016 A 
ATOM     14  C   UNL     1      21.746  36.773   5.001  1.00  0.00     0.051 A 
ATOM     15  C   UNL     1      20.401  36.869   5.366  1.00  0.00     0.157 A 
ATOM     16  C   UNL     1      20.322  34.459   5.655  1.00  0.00     0.062 A 
ATOM     17  C   UNL     1      19.685  35.708   5.698  1.00  0.00     0.158 A 
BRANCH  15  18
ATOM     18  O   UNL     1      19.794  38.124   5.397  1.00  0.00    -0.504 OA
ATOM     19  H   UNL     1      18.849  38.273   5.067  1.00  0.00     0.293 HD
ENDBRANCH  15  18
BRANCH  17  20
ATOM     20  O   UNL     1      18.345  35.799   6.075  1.00  0.00    -0.504 OA
ATOM     21  H   UNL     1      17.835  34.995   6.422  1.00  0.00     0.293 HD
ENDBRANCH  17  20
ENDBRANCH   1  12
BRANCH   6  22
ATOM     22  O   UNL     1      24.346  28.429   4.353  1.00  0.00    -0.507 OA
ATOM     23  H   UNL     1      23.642  27.704   4.423  1.00  0.00     0.293 HD
ENDBRANCH   6  22
BRANCH   8  24
ATOM     24  O   UNL     1      26.378  29.980   8.464  1.00  0.00    -0.508 OA
ATOM     25  H   UNL     1      26.904  29.118   8.562  1.00  0.00     0.293 HD
ENDBRANCH   8  24
TORSDOF 5
ENDMDL
MODEL 5
REMARK VINA RESULT:    -6.149      2.014      7.202
REMARK INTER + INTRA:          -7.530
REMARK INTER:                  -7.265
REMARK INTRA:                  -0.265
REMARK UNBOUND:                -0.303
REMARK SMILES O=c1cc(-c2ccc(O)c(O)c2)oc2cc(O)cc(O)c12
REMARK SMILES IDX 4 1 3 2 2 3 1 4 21 5 19 6 18 7 16 8 15 9 14 10 13 11 5 12
REMARK SMILES IDX 6 13 7 14 8 15 12 16 10 17 9 18 11 20 20 22 17 24
REMARK H PARENT 9 19 11 21 20 23 17 25
REMARK Flexibility Score: inf
ROOT
ATOM      1  C   UNL     1      23.432  33.021   6.582  1.00  0.00     0.138 A 
ATOM      2  C   UNL     1      24.479  33.196   7.502  1.00  0.00     0.100 A 
ATOM      3  C   UNL     1      25.328  32.125   7.790  1.00  0.00     0.197 A 
ATOM      4  O   UNL     1      26.263  32.292   8.617  1.00  0.00    -0.289 OA
ATOM      5  C   UNL     1      25.120  30.884   7.157  1.00  0.00     0.107 A 
ATOM      6  C   UNL     1      25.933  29.749   7.390  1.00  0.00     0.134 A 
ATOM      7  C   UNL     1      25.655  28.547   6.723  1.00  0.00     0.093 A 
ATOM      8  C   UNL     1      24.581  28.459   5.830  1.00  0.00     0.123 A 
ATOM      9  C   UNL     1      23.777  29.576   5.596  1.00  0.00     0.094 A 
ATOM     10  C   UNL     1      24.037  30.783   6.250  1.00  0.00     0.146 A 
ATOM     11  O   UNL     1      23.257  31.833   6.009  1.00  0.00    -0.456 OA
ENDROOT
BRANCH   1  12
ATOM     12  C   UNL     1      22.499  34.123   6.238  1.00  0.00     0.021 A 
ATOM     13  C   UNL     1      22.800  34.974   5.162  1.00  0.00     0.016 A 
ATOM     14  C   UNL     1      21.942  36.023   4.823  1.00  0.00     0.051 A 
ATOM     15  C   UNL     1      20.775  36.247   5.557  1.00  0.00     0.157 A 
ATOM     16  C   UNL     1      21.327  34.361   6.985  1.00  0.00     0.062 A 
ATOM     17  C   UNL     1      20.466  35.415   6.645  1.00  0.00     0.158 A 
BRANCH  15  18
ATOM     18  O   UNL     1      19.936  37.300   5.194  1.00  0.00    -0.504 OA
ATOM     19  H   UNL     1      20.097  38.249   5.508  1.00  0.00     0.293 HD
ENDBRANCH  15  18
BRANCH  17  20
ATOM     20  O   UNL     1      19.308  35.641   7.389  1.00  0.00    -0.504 OA
ATOM     21  H   UNL     1      19.346  36.008   8.333  1.00  0.00     0.293 HD
ENDBRANCH  17  20
ENDBRANCH   1  12
BRANCH   6  22
ATOM     22  O   UNL     1      27.009  29.808   8.276  1.00  0.00    -0.507 OA
ATOM     23  H   UNL     1      27.221  29.046   8.909  1.00  0.00     0.293 HD
ENDBRANCH   6  22
BRANCH   8  24
ATOM     24  O   UNL     1      24.306  27.264   5.167  1.00  0.00    -0.508 OA
ATOM     25  H   UNL     1      24.504  27.147   4.180  1.00  0.00     0.293 HD
ENDBRANCH   8  24
TORSDOF 5
ENDMDL
MODEL 6
REMARK VINA RESULT:    -6.066      1.421      2.496
REMARK INTER + INTRA:          -7.433
REMARK INTER:                  -7.140
REMARK INTRA:                  -0.294
REMARK UNBOUND:                -0.303
REMARK SMILES O=c1cc(-c2ccc(O)c(O)c2)oc2cc(O)cc(O)c12
REMARK SMILES IDX 4 1 3 2 2 3 1 4 21 5 19 6 18 7 16 8 15 9 14 10 13 11 5 12
REMARK SMILES IDX 6 13 7 14 8 15 12 16 10 17 9 18 11 20 20 22 17 24
REMARK H PARENT 9 19 11 21 20 23 17 25
REMARK Flexibility Score: inf
ROOT
ATOM      1  C   UNL     1      22.052  34.040   7.202  1.00  0.00     0.138 A 
ATOM      2  C   UNL     1      21.599  34.385   8.486  1.00  0.00     0.100 A 
ATOM      3  C   UNL     1      20.416  35.114   8.625  1.00  0.00     0.197 A 
ATOM      4  O   UNL     1      20.019  35.420   9.782  1.00  0.00    -0.289 OA
ATOM      5  C   UNL     1      19.696  35.496   7.477  1.00  0.00     0.107 A 
ATOM      6  C   UNL     1      18.489  36.233   7.528  1.00  0.00     0.134 A 
ATOM      7  C   UNL     1      17.835  36.580   6.336  1.00  0.00     0.093 A 
ATOM      8  C   UNL     1      18.365  36.203   5.097  1.00  0.00     0.123 A 
ATOM      9  C   UNL     1      19.555  35.475   5.041  1.00  0.00     0.094 A 
ATOM     10  C   UNL     1      20.222  35.120   6.217  1.00  0.00     0.146 A 
ATOM     11  O   UNL     1      21.353  34.425   6.137  1.00  0.00    -0.456 OA
ENDROOT
BRANCH   1  12
ATOM     12  C   UNL     1      23.303  33.268   6.994  1.00  0.00     0.021 A 
ATOM     13  C   UNL     1      23.910  33.265   5.727  1.00  0.00     0.016 A 
ATOM     14  C   UNL     1      25.083  32.541   5.503  1.00  0.00     0.051 A 
ATOM     15  C   UNL     1      25.665  31.800   6.534  1.00  0.00     0.157 A 
ATOM     16  C   UNL     1      23.885  32.508   8.028  1.00  0.00     0.062 A 
ATOM     17  C   UNL     1      25.062  31.779   7.802  1.00  0.00     0.158 A 
BRANCH  15  18
ATOM     18  O   UNL     1      26.837  31.088   6.282  1.00  0.00    -0.504 OA
ATOM     19  H   UNL     1      26.931  30.106   6.510  1.00  0.00     0.293 HD
ENDBRANCH  15  18
BRANCH  17  20
ATOM     20  O   UNL     1      25.631  31.033   8.833  1.00  0.00    -0.504 OA
ATOM     21  H   UNL     1      25.204  30.177   9.169  1.00  0.00     0.293 HD
ENDBRANCH  17  20
ENDBRANCH   1  12
BRANCH   6  22
ATOM     22  O   UNL     1      17.938  36.622   8.749  1.00  0.00    -0.507 OA
ATOM     23  H   UNL     1      17.846  35.975   9.523  1.00  0.00     0.293 HD
ENDBRANCH   6  22
BRANCH   8  24
ATOM     24  O   UNL     1      17.715  36.547   3.913  1.00  0.00    -0.508 OA
ATOM     25  H   UNL     1      16.723  36.383   3.786  1.00  0.00     0.293 HD
ENDBRANCH   8  24
TORSDOF 5
ENDMDL
MODEL 7
REMARK VINA RESULT:    -5.921      1.661      7.241
REMARK INTER + INTRA:          -7.262
REMARK INTER:                  -6.974
REMARK INTRA:                  -0.288
REMARK UNBOUND:                -0.303
REMARK SMILES O=c1cc(-c2ccc(O)c(O)c2)oc2cc(O)cc(O)c12
REMARK SMILES IDX 4 1 3 2 2 3 1 4 21 5 19 6 18 7 16 8 15 9 14 10 13 11 5 12
REMARK SMILES IDX 6 13 7 14 8 15 12 16 10 17 9 18 11 20 20 22 17 24
REMARK H PARENT 9 19 11 21 20 23 17 25
REMARK Flexibility Score: inf
ROOT
ATOM      1  C   UNL     1      22.755  33.623   6.816  1.00  0.00     0.138 A 
ATOM      2  C   UNL     1      23.744  33.587   7.813  1.00  0.00     0.100 A 
ATOM      3  C   UNL     1      24.873  32.787   7.633  1.00  0.00     0.197 A 
ATOM      4  O   UNL     1      25.754  32.760   8.534  1.00  0.00    -0.289 OA
ATOM      5  C   UNL     1      25.004  32.024   6.456  1.00  0.00     0.107 A 
ATOM      6  C   UNL     1      26.116  31.189   6.193  1.00  0.00     0.134 A 
ATOM      7  C   UNL     1      26.168  30.457   4.998  1.00  0.00     0.093 A 
ATOM      8  C   UNL     1      25.130  30.544   4.062  1.00  0.00     0.123 A 
ATOM      9  C   UNL     1      24.032  31.368   4.317  1.00  0.00     0.094 A 
ATOM     10  C   UNL     1      23.961  32.105   5.502  1.00  0.00     0.146 A 
ATOM     11  O   UNL     1      22.905  32.883   5.720  1.00  0.00    -0.456 OA
ENDROOT
BRANCH   1  12
ATOM     12  C   UNL     1      21.533  34.454   6.954  1.00  0.00     0.021 A 
ATOM     13  C   UNL     1      20.769  34.371   8.130  1.00  0.00     0.016 A 
ATOM     14  C   UNL     1      19.611  35.137   8.282  1.00  0.00     0.051 A 
ATOM     15  C   UNL     1      19.190  35.991   7.260  1.00  0.00     0.157 A 
ATOM     16  C   UNL     1      21.096  35.307   5.920  1.00  0.00     0.062 A 
ATOM     17  C   UNL     1      19.933  36.075   6.072  1.00  0.00     0.158 A 
BRANCH  15  18
ATOM     18  O   UNL     1      18.030  36.745   7.441  1.00  0.00    -0.504 OA
ATOM     19  H   UNL     1      17.903  37.353   8.240  1.00  0.00     0.293 HD
ENDBRANCH  15  18
BRANCH  17  20
ATOM     20  O   UNL     1      19.511  36.917   5.044  1.00  0.00    -0.504 OA
ATOM     21  H   UNL     1      19.476  37.924   5.161  1.00  0.00     0.293 HD
ENDBRANCH  17  20
ENDBRANCH   1  12
BRANCH   6  22
ATOM     22  O   UNL     1      27.165  31.082   7.108  1.00  0.00    -0.507 OA
ATOM     23  H   UNL     1      28.133  31.109   6.813  1.00  0.00     0.293 HD
ENDBRANCH   6  22
BRANCH   8  24
ATOM     24  O   UNL     1      25.182  29.817   2.875  1.00  0.00    -0.508 OA
ATOM     25  H   UNL     1      24.596  29.005   2.724  1.00  0.00     0.293 HD
ENDBRANCH   8  24
TORSDOF 5
ENDMDL
MODEL 8
REMARK VINA RESULT:    -5.653      2.181      6.927
REMARK INTER + INTRA:          -6.948
REMARK INTER:                  -6.651
REMARK INTRA:                  -0.296
REMARK UNBOUND:                -0.303
REMARK SMILES O=c1cc(-c2ccc(O)c(O)c2)oc2cc(O)cc(O)c12
REMARK SMILES IDX 4 1 3 2 2 3 1 4 21 5 19 6 18 7 16 8 15 9 14 10 13 11 5 12
REMARK SMILES IDX 6 13 7 14 8 15 12 16 10 17 9 18 11 20 20 22 17 24
REMARK H PARENT 9 19 11 21 20 23 17 25
REMARK Flexibility Score: inf
ROOT
ATOM      1  C   UNL     1      22.490  33.901   5.409  1.00  0.00     0.138 A 
ATOM      2  C   UNL     1      23.807  34.379   5.518  1.00  0.00     0.100 A 
ATOM      3  C   UNL     1      24.874  33.514   5.272  1.00  0.00     0.197 A 
ATOM      4  O   UNL     1      26.052  33.952   5.374  1.00  0.00    -0.289 OA
ATOM      5  C   UNL     1      24.617  32.174   4.922  1.00  0.00     0.107 A 
ATOM      6  C   UNL     1      25.640  31.233   4.655  1.00  0.00     0.134 A 
ATOM      7  C   UNL     1      25.300  29.914   4.318  1.00  0.00     0.093 A 
ATOM      8  C   UNL     1      23.958  29.521   4.243  1.00  0.00     0.123 A 
ATOM      9  C   UNL     1      22.946  30.446   4.505  1.00  0.00     0.094 A 
ATOM     10  C   UNL     1      23.265  31.764   4.843  1.00  0.00     0.146 A 
ATOM     11  O   UNL     1      22.282  32.627   5.086  1.00  0.00    -0.456 OA
ENDROOT
BRANCH   1  12
ATOM     12  C   UNL     1      21.316  34.774   5.660  1.00  0.00     0.021 A 
ATOM     13  C   UNL     1      21.325  36.098   5.188  1.00  0.00     0.016 A 
ATOM     14  C   UNL     1      20.237  36.942   5.418  1.00  0.00     0.051 A 
ATOM     15  C   UNL     1      19.125  36.485   6.129  1.00  0.00     0.157 A 
ATOM     16  C   UNL     1      20.199  34.322   6.389  1.00  0.00     0.062 A 
ATOM     17  C   UNL     1      19.106  35.170   6.621  1.00  0.00     0.158 A 
BRANCH  15  18
ATOM     18  O   UNL     1      18.052  37.350   6.341  1.00  0.00    -0.504 OA
ATOM     19  H   UNL     1      17.678  37.527   7.265  1.00  0.00     0.293 HD
ENDBRANCH  15  18
BRANCH  17  20
ATOM     20  O   UNL     1      18.004  34.711   7.342  1.00  0.00    -0.504 OA
ATOM     21  H   UNL     1      17.480  35.322   7.958  1.00  0.00     0.293 HD
ENDBRANCH  17  20
ENDBRANCH   1  12
BRANCH   6  22
ATOM     22  O   UNL     1      26.985  31.597   4.722  1.00  0.00    -0.507 OA
ATOM     23  H   UNL     1      27.459  31.724   5.609  1.00  0.00     0.293 HD
ENDBRANCH   6  22
BRANCH   8  24
ATOM     24  O   UNL     1      23.621  28.211   3.908  1.00  0.00    -0.508 OA
ATOM     25  H   UNL     1      22.759  27.993   3.421  1.00  0.00     0.293 HD
ENDBRANCH   8  24
TORSDOF 5
ENDMDL
MODEL 9
REMARK VINA RESULT:    -5.543      1.419      7.193
REMARK INTER + INTRA:          -6.818
REMARK INTER:                  -6.543
REMARK INTRA:                  -0.274
REMARK UNBOUND:                -0.303
REMARK SMILES O=c1cc(-c2ccc(O)c(O)c2)oc2cc(O)cc(O)c12
REMARK SMILES IDX 4 1 3 2 2 3 1 4 21 5 19 6 18 7 16 8 15 9 14 10 13 11 5 12
REMARK SMILES IDX 6 13 7 14 8 15 12 16 10 17 9 18 11 20 20 22 17 24
REMARK H PARENT 9 19 11 21 20 23 17 25
REMARK Flexibility Score: inf
ROOT
ATOM      1  C   UNL     1      22.310  33.964   6.487  1.00  0.00     0.138 A 
ATOM      2  C   UNL     1      22.868  33.632   7.732  1.00  0.00     0.100 A 
ATOM      3  C   UNL     1      24.057  32.902   7.780  1.00  0.00     0.197 A 
ATOM      4  O   UNL     1      24.550  32.609   8.902  1.00  0.00    -0.289 OA
ATOM      5  C   UNL     1      24.678  32.506   6.579  1.00  0.00     0.107 A 
ATOM      6  C   UNL     1      25.885  31.767   6.538  1.00  0.00     0.134 A 
ATOM      7  C   UNL     1      26.436  31.406   5.300  1.00  0.00     0.093 A 
ATOM      8  C   UNL     1      25.804  31.769   4.105  1.00  0.00     0.123 A 
ATOM      9  C   UNL     1      24.615  32.500   4.141  1.00  0.00     0.094 A 
ATOM     10  C   UNL     1      24.049  32.869   5.364  1.00  0.00     0.146 A 
ATOM     11  O   UNL     1      22.916  33.565   5.371  1.00  0.00    -0.456 OA
ENDROOT
BRANCH   1  12
ATOM     12  C   UNL     1      21.047  34.736   6.375  1.00  0.00     0.021 A 
ATOM     13  C   UNL     1      20.997  35.864   5.539  1.00  0.00     0.016 A 
ATOM     14  C   UNL     1      19.824  36.612   5.422  1.00  0.00     0.051 A 
ATOM     15  C   UNL     1      18.683  36.255   6.144  1.00  0.00     0.157 A 
ATOM     16  C   UNL     1      19.897  34.387   7.112  1.00  0.00     0.062 A 
ATOM     17  C   UNL     1      18.719  35.139   6.996  1.00  0.00     0.158 A 
BRANCH  15  18
ATOM     18  O   UNL     1      17.525  37.019   6.005  1.00  0.00    -0.504 OA
ATOM     19  H   UNL     1      16.637  36.727   6.394  1.00  0.00     0.293 HD
ENDBRANCH  15  18
BRANCH  17  20
ATOM     20  O   UNL     1      17.586  34.784   7.728  1.00  0.00    -0.504 OA
ATOM     21  H   UNL     1      17.022  35.478   8.204  1.00  0.00     0.293 HD
ENDBRANCH  17  20
ENDBRANCH   1  12
BRANCH   6  22
ATOM     22  O   UNL     1      26.535  31.390   7.713  1.00  0.00    -0.507 OA
ATOM     23  H   UNL     1      26.053  31.361   8.604  1.00  0.00     0.293 HD
ENDBRANCH   6  22
BRANCH   8  24
ATOM     24  O   UNL     1      26.353  31.411   2.875  1.00  0.00    -0.508 OA
ATOM     25  H   UNL     1      27.182  30.831   2.813  1.00  0.00     0.293 HD
ENDBRANCH   8  24
TORSDOF 5
ENDMDL
