MODEL 1
REMARK VINA RESULT:    -5.049      0.000      0.000
REMARK INTER + INTRA:         -15.992
REMARK INTER:                 -12.724
REMARK INTRA:                  -3.268
REMARK UNBOUND:                -3.268
REMARK SMILES CCCCCCCCCCCCCCCCCCCCCCCCCCCC(=O)[O-]
REMARK SMILES IDX 15 1 16 2 17 3 18 4 19 5 20 6 21 7 22 8 23 9 24 10 25 11
REMARK SMILES IDX 26 12 27 13 28 14 29 15 30 16 14 17 13 18 12 19 11 20 10 21
REMARK SMILES IDX 9 22 8 23 7 24 6 25 5 26 4 27 3 28 2 29 1 30
REMARK H PARENT
REMARK Flexibility Score: inf
ROOT
ATOM      1  C   UNL     1      11.827   5.611  10.410  1.00  0.00     0.000 C 
ENDROOT
BRANCH   1   2
ATOM      2  C   UNL     1      10.602   5.223  11.256  1.00  0.00     0.000 C 
BRANCH   2   3
ATOM      3  C   UNL     1       9.533   4.481  10.434  1.00  0.00     0.000 C 
BRANCH   3   4
ATOM      4  C   UNL     1       9.920   4.316   8.958  1.00  0.00     0.000 C 
BRANCH   4   5
ATOM      5  C   UNL     1       9.101   3.221   8.250  1.00  0.00     0.000 C 
BRANCH   5   6
ATOM      6  C   UNL     1       8.848   1.986   9.140  1.00  0.00     0.000 C 
BRANCH   6   7
ATOM      7  C   UNL     1       9.587   0.712   8.685  1.00  0.00     0.000 C 
BRANCH   7   8
ATOM      8  C   UNL     1      11.104   0.697   8.950  1.00  0.00     0.000 C 
BRANCH   8   9
ATOM      9  C   UNL     1      11.553  -0.163  10.151  1.00  0.00     0.000 C 
BRANCH   9  10
ATOM     10  C   UNL     1      11.811   0.617  11.452  1.00  0.00     0.000 C 
BRANCH  10  11
ATOM     11  C   UNL     1      12.363   2.027  11.206  1.00  0.00     0.000 C 
BRANCH  11  12
ATOM     12  C   UNL     1      13.298   2.455  12.349  1.00  0.00     0.006 C 
BRANCH  12  13
ATOM     13  C   UNL     1      12.609   2.375  13.720  1.00  0.00     0.053 C 
BRANCH  13  14
ATOM     14  C   UNL     1      13.458   1.665  14.729  1.00  0.00     0.041 C 
ATOM     15  O   UNL     1      14.188   2.322  15.518  1.00  0.00    -0.550 OA
ATOM     16  O   UNL     1      13.416   0.279  14.822  1.00  0.00    -0.550 OA
ENDBRANCH  13  14
ENDBRANCH  12  13
ENDBRANCH  11  12
ENDBRANCH  10  11
ENDBRANCH   9  10
ENDBRANCH   8   9
ENDBRANCH   7   8
ENDBRANCH   6   7
ENDBRANCH   5   6
ENDBRANCH   4   5
ENDBRANCH   3   4
ENDBRANCH   2   3
ENDBRANCH   1   2
BRANCH   1  17
ATOM     17  C   UNL     1      12.112   7.120  10.442  1.00  0.00     0.000 C 
BRANCH  17  18
ATOM     18  C   UNL     1      11.514   7.771  11.695  1.00  0.00     0.000 C 
BRANCH  18  19
ATOM     19  C   UNL     1      11.577   9.301  11.595  1.00  0.00     0.000 C 
BRANCH  19  20
ATOM     20  C   UNL     1      11.764   9.804  10.154  1.00  0.00     0.000 C 
BRANCH  20  21
ATOM     21  C   UNL     1      12.904  10.830   9.997  1.00  0.00     0.000 C 
BRANCH  21  22
ATOM     22  C   UNL     1      12.428  12.134   9.331  1.00  0.00    -0.000 C 
BRANCH  22  23
ATOM     23  C   UNL     1      11.904  13.157  10.352  1.00  0.00    -0.000 C 
BRANCH  23  24
ATOM     24  C   UNL     1      12.514  12.960  11.749  1.00  0.00    -0.000 C 
BRANCH  24  25
ATOM     25  C   UNL     1      11.422  12.934  12.829  1.00  0.00    -0.000 C 
BRANCH  25  26
ATOM     26  C   UNL     1      10.050  12.520  12.272  1.00  0.00    -0.000 C 
BRANCH  26  27
ATOM     27  C   UNL     1       9.133  11.923  13.353  1.00  0.00    -0.000 C 
BRANCH  27  28
ATOM     28  C   UNL     1       9.775  11.931  14.753  1.00  0.00    -0.000 C 
BRANCH  28  29
ATOM     29  C   UNL     1       9.596  10.604  15.525  1.00  0.00    -0.003 C 
ATOM     30  C   UNL     1      10.233  10.650  16.916  1.00  0.00     0.004 C 
ENDBRANCH  28  29
ENDBRANCH  27  28
ENDBRANCH  26  27
ENDBRANCH  25  26
ENDBRANCH  24  25
ENDBRANCH  23  24
ENDBRANCH  22  23
ENDBRANCH  21  22
ENDBRANCH  20  21
ENDBRANCH  19  20
ENDBRANCH  18  19
ENDBRANCH  17  18
ENDBRANCH   1  17
TORSDOF 26
ENDMDL
MODEL 2
REMARK VINA RESULT:    -5.017      3.130      9.040
REMARK INTER + INTRA:         -15.912
REMARK INTER:                 -11.913
REMARK INTRA:                  -3.999
REMARK UNBOUND:                -3.268
REMARK SMILES CCCCCCCCCCCCCCCCCCCCCCCCCCCC(=O)[O-]
REMARK SMILES IDX 15 1 16 2 17 3 18 4 19 5 20 6 21 7 22 8 23 9 24 10 25 11
REMARK SMILES IDX 26 12 27 13 28 14 29 15 30 16 14 17 13 18 12 19 11 20 10 21
REMARK SMILES IDX 9 22 8 23 7 24 6 25 5 26 4 27 3 28 2 29 1 30
REMARK H PARENT
REMARK Flexibility Score: inf
ROOT
ATOM      1  C   UNL     1       9.332   4.376  13.002  1.00  0.00     0.000 C 
ENDROOT
BRANCH   1   2
ATOM      2  C   UNL     1      10.449   5.080  13.792  1.00  0.00     0.000 C 
BRANCH   2   3
ATOM      3  C   UNL     1      10.477   6.599  13.542  1.00  0.00     0.000 C 
BRANCH   3   4
ATOM      4  C   UNL     1      10.788   6.959  12.082  1.00  0.00     0.000 C 
BRANCH   4   5
ATOM      5  C   UNL     1      11.461   8.337  11.943  1.00  0.00     0.000 C 
BRANCH   5   6
ATOM      6  C   UNL     1      11.820   8.689  10.483  1.00  0.00     0.000 C 
BRANCH   6   7
ATOM      7  C   UNL     1      12.239  10.156  10.267  1.00  0.00     0.000 C 
BRANCH   7   8
ATOM      8  C   UNL     1      12.050  11.083  11.482  1.00  0.00     0.000 C 
BRANCH   8   9
ATOM      9  C   UNL     1      11.801  12.568  11.143  1.00  0.00     0.000 C 
BRANCH   9  10
ATOM     10  C   UNL     1      10.709  13.255  11.981  1.00  0.00     0.000 C 
BRANCH  10  11
ATOM     11  C   UNL     1      10.990  13.206  13.489  1.00  0.00     0.000 C 
BRANCH  11  12
ATOM     12  C   UNL     1       9.738  12.765  14.265  1.00  0.00     0.006 C 
BRANCH  12  13
ATOM     13  C   UNL     1       9.927  11.397  14.938  1.00  0.00     0.053 C 
BRANCH  13  14
ATOM     14  C   UNL     1      10.196  11.531  16.405  1.00  0.00     0.041 C 
ATOM     15  O   UNL     1      10.449  10.510  17.099  1.00  0.00    -0.550 OA
ATOM     16  O   UNL     1      10.204  12.788  16.999  1.00  0.00    -0.550 OA
ENDBRANCH  13  14
ENDBRANCH  12  13
ENDBRANCH  11  12
ENDBRANCH  10  11
ENDBRANCH   9  10
ENDBRANCH   8   9
ENDBRANCH   7   8
ENDBRANCH   6   7
ENDBRANCH   5   6
ENDBRANCH   4   5
ENDBRANCH   3   4
ENDBRANCH   2   3
ENDBRANCH   1   2
BRANCH   1  17
ATOM     17  C   UNL     1       9.695   2.932  12.627  1.00  0.00     0.000 C 
BRANCH  17  18
ATOM     18  C   UNL     1       9.554   2.700  11.117  1.00  0.00     0.000 C 
BRANCH  18  19
ATOM     19  C   UNL     1       9.199   4.007  10.396  1.00  0.00     0.000 C 
BRANCH  19  20
ATOM     20  C   UNL     1      10.238   4.413   9.339  1.00  0.00     0.000 C 
BRANCH  20  21
ATOM     21  C   UNL     1      11.655   3.873   9.620  1.00  0.00     0.000 C 
BRANCH  21  22
ATOM     22  C   UNL     1      12.574   4.941  10.239  1.00  0.00    -0.000 C 
BRANCH  22  23
ATOM     23  C   UNL     1      13.456   4.376  11.365  1.00  0.00    -0.000 C 
BRANCH  23  24
ATOM     24  C   UNL     1      13.201   2.882  11.619  1.00  0.00    -0.000 C 
BRANCH  24  25
ATOM     25  C   UNL     1      13.349   2.542  13.110  1.00  0.00    -0.000 C 
BRANCH  25  26
ATOM     26  C   UNL     1      13.170   1.041  13.395  1.00  0.00    -0.000 C 
BRANCH  26  27
ATOM     27  C   UNL     1      12.686   0.770  14.829  1.00  0.00    -0.000 C 
BRANCH  27  28
ATOM     28  C   UNL     1      12.117   2.025  15.516  1.00  0.00    -0.000 C 
BRANCH  28  29
ATOM     29  C   UNL     1      10.905   1.737  16.432  1.00  0.00    -0.003 C 
ATOM     30  C   UNL     1      10.111   3.003  16.762  1.00  0.00     0.004 C 
ENDBRANCH  28  29
ENDBRANCH  27  28
ENDBRANCH  26  27
ENDBRANCH  25  26
ENDBRANCH  24  25
ENDBRANCH  23  24
ENDBRANCH  22  23
ENDBRANCH  21  22
ENDBRANCH  20  21
ENDBRANCH  19  20
ENDBRANCH  18  19
ENDBRANCH  17  18
ENDBRANCH   1  17
TORSDOF 26
ENDMDL
MODEL 3
REMARK VINA RESULT:    -5.012      3.499      9.553
REMARK INTER + INTRA:         -15.898
REMARK INTER:                 -12.490
REMARK INTRA:                  -3.408
REMARK UNBOUND:                -3.268
REMARK SMILES CCCCCCCCCCCCCCCCCCCCCCCCCCCC(=O)[O-]
REMARK SMILES IDX 15 1 16 2 17 3 18 4 19 5 20 6 21 7 22 8 23 9 24 10 25 11
REMARK SMILES IDX 26 12 27 13 28 14 29 15 30 16 14 17 13 18 12 19 11 20 10 21
REMARK SMILES IDX 9 22 8 23 7 24 6 25 5 26 4 27 3 28 2 29 1 30
REMARK H PARENT
REMARK Flexibility Score: inf
ROOT
ATOM      1  C   UNL     1      10.866   7.051  12.797  1.00  0.00     0.000 C 
ENDROOT
BRANCH   1   2
ATOM      2  C   UNL     1      10.249   5.902  13.613  1.00  0.00     0.000 C 
BRANCH   2   3
ATOM      3  C   UNL     1      10.407   6.109  15.130  1.00  0.00     0.000 C 
BRANCH   3   4
ATOM      4  C   UNL     1       9.077   6.001  15.890  1.00  0.00     0.000 C 
BRANCH   4   5
ATOM      5  C   UNL     1       8.494   7.377  16.263  1.00  0.00     0.000 C 
BRANCH   5   6
ATOM      6  C   UNL     1       9.441   8.547  15.918  1.00  0.00     0.000 C 
BRANCH   6   7
ATOM      7  C   UNL     1       8.869   9.942  16.233  1.00  0.00     0.000 C 
BRANCH   7   8
ATOM      8  C   UNL     1       9.663  11.129  15.657  1.00  0.00     0.000 C 
BRANCH   8   9
ATOM      9  C   UNL     1       9.114  11.709  14.337  1.00  0.00     0.000 C 
BRANCH   9  10
ATOM     10  C   UNL     1      10.160  11.914  13.228  1.00  0.00     0.000 C 
BRANCH  10  11
ATOM     11  C   UNL     1      10.472  10.627  12.453  1.00  0.00     0.000 C 
BRANCH  11  12
ATOM     12  C   UNL     1      11.934  10.617  11.976  1.00  0.00     0.006 C 
BRANCH  12  13
ATOM     13  C   UNL     1      12.043  10.514  10.447  1.00  0.00     0.053 C 
BRANCH  13  14
ATOM     14  C   UNL     1      12.354  11.838   9.820  1.00  0.00     0.041 C 
ATOM     15  O   UNL     1      12.934  11.889   8.703  1.00  0.00    -0.550 OA
ATOM     16  O   UNL     1      11.972  13.015  10.453  1.00  0.00    -0.550 OA
ENDBRANCH  13  14
ENDBRANCH  12  13
ENDBRANCH  11  12
ENDBRANCH  10  11
ENDBRANCH   9  10
ENDBRANCH   8   9
ENDBRANCH   7   8
ENDBRANCH   6   7
ENDBRANCH   5   6
ENDBRANCH   4   5
ENDBRANCH   3   4
ENDBRANCH   2   3
ENDBRANCH   1   2
BRANCH   1  17
ATOM     17  C   UNL     1      11.252   6.623  11.374  1.00  0.00     0.000 C 
BRANCH  17  18
ATOM     18  C   UNL     1      10.547   5.321  10.975  1.00  0.00     0.000 C 
BRANCH  18  19
ATOM     19  C   UNL     1      10.857   4.959   9.517  1.00  0.00     0.000 C 
BRANCH  19  20
ATOM     20  C   UNL     1       9.826   3.997   8.903  1.00  0.00     0.000 C 
BRANCH  20  21
ATOM     21  C   UNL     1       9.140   3.080   9.936  1.00  0.00     0.000 C 
BRANCH  21  22
ATOM     22  C   UNL     1       9.484   1.596   9.719  1.00  0.00    -0.000 C 
BRANCH  22  23
ATOM     23  C   UNL     1      10.897   1.399   9.147  1.00  0.00    -0.000 C 
BRANCH  23  24
ATOM     24  C   UNL     1      11.629   0.205   9.779  1.00  0.00    -0.000 C 
BRANCH  24  25
ATOM     25  C   UNL     1      12.422   0.638  11.021  1.00  0.00    -0.000 C 
BRANCH  25  26
ATOM     26  C   UNL     1      12.797   2.130  10.992  1.00  0.00    -0.000 C 
BRANCH  26  27
ATOM     27  C   UNL     1      13.165   2.669  12.384  1.00  0.00    -0.000 C 
BRANCH  27  28
ATOM     28  C   UNL     1      11.944   2.817  13.311  1.00  0.00    -0.000 C 
BRANCH  28  29
ATOM     29  C   UNL     1      12.231   2.435  14.781  1.00  0.00    -0.003 C 
ATOM     30  C   UNL     1      13.714   2.148  15.029  1.00  0.00     0.004 C 
ENDBRANCH  28  29
ENDBRANCH  27  28
ENDBRANCH  26  27
ENDBRANCH  25  26
ENDBRANCH  24  25
ENDBRANCH  23  24
ENDBRANCH  22  23
ENDBRANCH  21  22
ENDBRANCH  20  21
ENDBRANCH  19  20
ENDBRANCH  18  19
ENDBRANCH  17  18
ENDBRANCH   1  17
TORSDOF 26
ENDMDL
MODEL 4
REMARK VINA RESULT:    -5.000      4.074      9.664
REMARK INTER + INTRA:         -15.867
REMARK INTER:                 -11.043
REMARK INTRA:                  -4.824
REMARK UNBOUND:                -3.268
REMARK SMILES CCCCCCCCCCCCCCCCCCCCCCCCCCCC(=O)[O-]
REMARK SMILES IDX 15 1 16 2 17 3 18 4 19 5 20 6 21 7 22 8 23 9 24 10 25 11
REMARK SMILES IDX 26 12 27 13 28 14 29 15 30 16 14 17 13 18 12 19 11 20 10 21
REMARK SMILES IDX 9 22 8 23 7 24 6 25 5 26 4 27 3 28 2 29 1 30
REMARK H PARENT
REMARK Flexibility Score: inf
ROOT
ATOM      1  C   UNL     1      13.144   1.863  15.345  1.00  0.00     0.000 C 
ENDROOT
BRANCH   1   2
ATOM      2  C   UNL     1      13.532   0.822  14.281  1.00  0.00     0.000 C 
BRANCH   2   3
ATOM      3  C   UNL     1      13.124   1.253  12.862  1.00  0.00     0.000 C 
BRANCH   3   4
ATOM      4  C   UNL     1      13.019   2.777  12.705  1.00  0.00     0.000 C 
BRANCH   4   5
ATOM      5  C   UNL     1      13.343   3.248  11.275  1.00  0.00     0.000 C 
BRANCH   5   6
ATOM      6  C   UNL     1      13.153   4.768  11.083  1.00  0.00     0.000 C 
BRANCH   6   7
ATOM      7  C   UNL     1      11.915   5.154  10.252  1.00  0.00     0.000 C 
BRANCH   7   8
ATOM      8  C   UNL     1      10.875   6.027  10.979  1.00  0.00     0.000 C 
BRANCH   8   9
ATOM      9  C   UNL     1      11.428   6.872  12.146  1.00  0.00     0.000 C 
BRANCH   9  10
ATOM     10  C   UNL     1      11.234   8.392  12.001  1.00  0.00     0.000 C 
BRANCH  10  11
ATOM     11  C   UNL     1      11.839   8.952  10.707  1.00  0.00     0.000 C 
BRANCH  11  12
ATOM     12  C   UNL     1      12.015  10.477  10.801  1.00  0.00     0.006 C 
BRANCH  12  13
ATOM     13  C   UNL     1      12.708  11.057   9.560  1.00  0.00     0.053 C 
BRANCH  13  14
ATOM     14  C   UNL     1      12.455  12.527   9.417  1.00  0.00     0.041 C 
ATOM     15  O   UNL     1      13.005  13.177   8.488  1.00  0.00    -0.550 OA
ATOM     16  O   UNL     1      11.584  13.171  10.288  1.00  0.00    -0.550 OA
ENDBRANCH  13  14
ENDBRANCH  12  13
ENDBRANCH  11  12
ENDBRANCH  10  11
ENDBRANCH   9  10
ENDBRANCH   8   9
ENDBRANCH   7   8
ENDBRANCH   6   7
ENDBRANCH   5   6
ENDBRANCH   4   5
ENDBRANCH   3   4
ENDBRANCH   2   3
ENDBRANCH   1   2
BRANCH   1  17
ATOM     17  C   UNL     1      11.918   1.440  16.166  1.00  0.00     0.000 C 
BRANCH  17  18
ATOM     18  C   UNL     1      11.609  -0.050  15.974  1.00  0.00     0.000 C 
BRANCH  18  19
ATOM     19  C   UNL     1      10.159  -0.250  15.513  1.00  0.00     0.000 C 
BRANCH  19  20
ATOM     20  C   UNL     1      10.051  -0.701  14.047  1.00  0.00     0.000 C 
BRANCH  20  21
ATOM     21  C   UNL     1      10.971  -1.887  13.692  1.00  0.00     0.000 C 
BRANCH  21  22
ATOM     22  C   UNL     1      11.298  -1.942  12.189  1.00  0.00    -0.000 C 
BRANCH  22  23
ATOM     23  C   UNL     1      10.501  -0.907  11.377  1.00  0.00    -0.000 C 
BRANCH  23  24
ATOM     24  C   UNL     1      11.300  -0.348  10.189  1.00  0.00    -0.000 C 
BRANCH  24  25
ATOM     25  C   UNL     1      10.829   1.067   9.824  1.00  0.00    -0.000 C 
BRANCH  25  26
ATOM     26  C   UNL     1       9.427   1.383  10.371  1.00  0.00    -0.000 C 
BRANCH  26  27
ATOM     27  C   UNL     1       9.394   2.691  11.179  1.00  0.00    -0.000 C 
BRANCH  27  28
ATOM     28  C   UNL     1       8.732   2.525  12.560  1.00  0.00    -0.000 C 
BRANCH  28  29
ATOM     29  C   UNL     1       9.637   2.958  13.737  1.00  0.00    -0.003 C 
ATOM     30  C   UNL     1       9.494   4.446  14.063  1.00  0.00     0.004 C 
ENDBRANCH  28  29
ENDBRANCH  27  28
ENDBRANCH  26  27
ENDBRANCH  25  26
ENDBRANCH  24  25
ENDBRANCH  23  24
ENDBRANCH  22  23
ENDBRANCH  21  22
ENDBRANCH  20  21
ENDBRANCH  19  20
ENDBRANCH  18  19
ENDBRANCH  17  18
ENDBRANCH   1  17
TORSDOF 26
ENDMDL
MODEL 5
REMARK VINA RESULT:    -4.987      1.264      2.673
REMARK INTER + INTRA:         -15.835
REMARK INTER:                 -12.612
REMARK INTRA:                  -3.223
REMARK UNBOUND:                -3.268
REMARK SMILES CCCCCCCCCCCCCCCCCCCCCCCCCCCC(=O)[O-]
REMARK SMILES IDX 15 1 16 2 17 3 18 4 19 5 20 6 21 7 22 8 23 9 24 10 25 11
REMARK SMILES IDX 26 12 27 13 28 14 29 15 30 16 14 17 13 18 12 19 11 20 10 21
REMARK SMILES IDX 9 22 8 23 7 24 6 25 5 26 4 27 3 28 2 29 1 30
REMARK H PARENT
REMARK Flexibility Score: inf
ROOT
ATOM      1  C   UNL     1      11.325   7.596  11.679  1.00  0.00     0.000 C 
ENDROOT
BRANCH   1   2
ATOM      2  C   UNL     1      12.033   6.910  10.499  1.00  0.00     0.000 C 
BRANCH   2   3
ATOM      3  C   UNL     1      11.620   5.435  10.344  1.00  0.00     0.000 C 
BRANCH   3   4
ATOM      4  C   UNL     1      10.672   4.959  11.454  1.00  0.00     0.000 C 
BRANCH   4   5
ATOM      5  C   UNL     1       9.394   4.304  10.900  1.00  0.00     0.000 C 
BRANCH   5   6
ATOM      6  C   UNL     1       9.326   4.324   9.358  1.00  0.00     0.000 C 
BRANCH   6   7
ATOM      7  C   UNL     1       9.222   2.930   8.708  1.00  0.00     0.000 C 
BRANCH   7   8
ATOM      8  C   UNL     1       9.865   1.779   9.504  1.00  0.00     0.000 C 
BRANCH   8   9
ATOM      9  C   UNL     1      11.301   1.408   9.078  1.00  0.00     0.000 C 
BRANCH   9  10
ATOM     10  C   UNL     1      12.408   1.866  10.044  1.00  0.00     0.000 C 
BRANCH  10  11
ATOM     11  C   UNL     1      12.444   1.051  11.344  1.00  0.00     0.000 C 
BRANCH  11  12
ATOM     12  C   UNL     1      13.136   1.842  12.466  1.00  0.00     0.006 C 
BRANCH  12  13
ATOM     13  C   UNL     1      12.191   2.121  13.644  1.00  0.00     0.053 C 
BRANCH  13  14
ATOM     14  C   UNL     1      12.908   2.061  14.958  1.00  0.00     0.041 C 
ATOM     15  O   UNL     1      14.127   2.368  15.030  1.00  0.00    -0.550 OA
ATOM     16  O   UNL     1      12.219   1.699  16.111  1.00  0.00    -0.550 OA
ENDBRANCH  13  14
ENDBRANCH  12  13
ENDBRANCH  11  12
ENDBRANCH  10  11
ENDBRANCH   9  10
ENDBRANCH   8   9
ENDBRANCH   7   8
ENDBRANCH   6   7
ENDBRANCH   5   6
ENDBRANCH   4   5
ENDBRANCH   3   4
ENDBRANCH   2   3
ENDBRANCH   1   2
BRANCH   1  17
ATOM     17  C   UNL     1      11.346   9.128  11.570  1.00  0.00     0.000 C 
BRANCH  17  18
ATOM     18  C   UNL     1      12.041   9.583  10.281  1.00  0.00     0.000 C 
BRANCH  18  19
ATOM     19  C   UNL     1      12.365  11.082  10.338  1.00  0.00     0.000 C 
BRANCH  19  20
ATOM     20  C   UNL     1      12.389  11.639  11.771  1.00  0.00     0.000 C 
BRANCH  20  21
ATOM     21  C   UNL     1      11.852  13.080  11.887  1.00  0.00     0.000 C 
BRANCH  21  22
ATOM     22  C   UNL     1      10.820  13.229  13.018  1.00  0.00    -0.000 C 
BRANCH  22  23
ATOM     23  C   UNL     1       9.390  12.908  12.554  1.00  0.00    -0.000 C 
BRANCH  23  24
ATOM     24  C   UNL     1       8.729  11.806  13.397  1.00  0.00    -0.000 C 
BRANCH  24  25
ATOM     25  C   UNL     1       9.778  11.024  14.202  1.00  0.00    -0.000 C 
BRANCH  25  26
ATOM     26  C   UNL     1       9.316  10.724  15.638  1.00  0.00    -0.000 C 
BRANCH  26  27
ATOM     27  C   UNL     1      10.280  11.292  16.694  1.00  0.00    -0.000 C 
BRANCH  27  28
ATOM     28  C   UNL     1       9.868  12.692  17.189  1.00  0.00    -0.000 C 
BRANCH  28  29
ATOM     29  C   UNL     1      10.938  13.779  16.936  1.00  0.00    -0.003 C 
ATOM     30  C   UNL     1      11.544  14.312  18.236  1.00  0.00     0.004 C 
ENDBRANCH  28  29
ENDBRANCH  27  28
ENDBRANCH  26  27
ENDBRANCH  25  26
ENDBRANCH  24  25
ENDBRANCH  23  24
ENDBRANCH  22  23
ENDBRANCH  21  22
ENDBRANCH  20  21
ENDBRANCH  19  20
ENDBRANCH  18  19
ENDBRANCH  17  18
ENDBRANCH   1  17
TORSDOF 26
ENDMDL
MODEL 6
REMARK VINA RESULT:    -4.971      3.058      9.226
REMARK INTER + INTRA:         -15.796
REMARK INTER:                 -11.952
REMARK INTRA:                  -3.844
REMARK UNBOUND:                -3.268
REMARK SMILES CCCCCCCCCCCCCCCCCCCCCCCCCCCC(=O)[O-]
REMARK SMILES IDX 15 1 16 2 17 3 18 4 19 5 20 6 21 7 22 8 23 9 24 10 25 11
REMARK SMILES IDX 26 12 27 13 28 14 29 15 30 16 14 17 13 18 12 19 11 20 10 21
REMARK SMILES IDX 9 22 8 23 7 24 6 25 5 26 4 27 3 28 2 29 1 30
REMARK H PARENT
REMARK Flexibility Score: inf
ROOT
ATOM      1  C   UNL     1      10.715   5.515  10.787  1.00  0.00     0.000 C 
ENDROOT
BRANCH   1   2
ATOM      2  C   UNL     1      11.705   6.678  10.977  1.00  0.00     0.000 C 
BRANCH   2   3
ATOM      3  C   UNL     1      11.227   7.688  12.036  1.00  0.00     0.000 C 
BRANCH   3   4
ATOM      4  C   UNL     1      11.620   9.134  11.704  1.00  0.00     0.000 C 
BRANCH   4   5
ATOM      5  C   UNL     1      12.047   9.309  10.234  1.00  0.00     0.000 C 
BRANCH   5   6
ATOM      6  C   UNL     1      12.531  10.739   9.912  1.00  0.00     0.000 C 
BRANCH   6   7
ATOM      7  C   UNL     1      12.577  11.684  11.129  1.00  0.00     0.000 C 
BRANCH   7   8
ATOM      8  C   UNL     1      11.573  12.851  11.099  1.00  0.00     0.000 C 
BRANCH   8   9
ATOM      9  C   UNL     1      11.200  13.432  12.479  1.00  0.00     0.000 C 
BRANCH   9  10
ATOM     10  C   UNL     1       9.799  13.052  12.990  1.00  0.00     0.000 C 
BRANCH  10  11
ATOM     11  C   UNL     1       9.576  11.536  13.055  1.00  0.00     0.000 C 
BRANCH  11  12
ATOM     12  C   UNL     1       9.364  11.076  14.507  1.00  0.00     0.006 C 
BRANCH  12  13
ATOM     13  C   UNL     1       9.329  12.258  15.488  1.00  0.00     0.053 C 
BRANCH  13  14
ATOM     14  C   UNL     1      10.193  12.012  16.687  1.00  0.00     0.041 C 
ATOM     15  O   UNL     1      10.572  10.844  16.966  1.00  0.00    -0.550 OA
ATOM     16  O   UNL     1      10.607  13.079  17.476  1.00  0.00    -0.550 OA
ENDBRANCH  13  14
ENDBRANCH  12  13
ENDBRANCH  11  12
ENDBRANCH  10  11
ENDBRANCH   9  10
ENDBRANCH   8   9
ENDBRANCH   7   8
ENDBRANCH   6   7
ENDBRANCH   5   6
ENDBRANCH   4   5
ENDBRANCH   3   4
ENDBRANCH   2   3
ENDBRANCH   1   2
BRANCH   1  17
ATOM     17  C   UNL     1      10.955   4.744   9.481  1.00  0.00     0.000 C 
BRANCH  17  18
ATOM     18  C   UNL     1       9.670   4.061   8.996  1.00  0.00     0.000 C 
BRANCH  18  19
ATOM     19  C   UNL     1       8.995   3.296  10.142  1.00  0.00     0.000 C 
BRANCH  19  20
ATOM     20  C   UNL     1       9.414   1.819  10.209  1.00  0.00     0.000 C 
BRANCH  20  21
ATOM     21  C   UNL     1      10.268   1.360   9.009  1.00  0.00     0.000 C 
BRANCH  21  22
ATOM     22  C   UNL     1      11.690   0.949   9.427  1.00  0.00    -0.000 C 
BRANCH  22  23
ATOM     23  C   UNL     1      11.935   1.133  10.934  1.00  0.00    -0.000 C 
BRANCH  23  24
ATOM     24  C   UNL     1      12.907   2.284  11.237  1.00  0.00    -0.000 C 
BRANCH  24  25
ATOM     25  C   UNL     1      12.647   2.874  12.631  1.00  0.00    -0.000 C 
BRANCH  25  26
ATOM     26  C   UNL     1      11.475   2.189  13.353  1.00  0.00    -0.000 C 
BRANCH  26  27
ATOM     27  C   UNL     1      10.295   3.145  13.595  1.00  0.00    -0.000 C 
BRANCH  27  28
ATOM     28  C   UNL     1      10.700   4.412  14.370  1.00  0.00    -0.000 C 
BRANCH  28  29
ATOM     29  C   UNL     1       9.603   5.502  14.395  1.00  0.00    -0.003 C 
ATOM     30  C   UNL     1       9.936   6.640  15.362  1.00  0.00     0.004 C 
ENDBRANCH  28  29
ENDBRANCH  27  28
ENDBRANCH  26  27
ENDBRANCH  25  26
ENDBRANCH  24  25
ENDBRANCH  23  24
ENDBRANCH  22  23
ENDBRANCH  21  22
ENDBRANCH  20  21
ENDBRANCH  19  20
ENDBRANCH  18  19
ENDBRANCH  17  18
ENDBRANCH   1  17
TORSDOF 26
ENDMDL
MODEL 7
REMARK VINA RESULT:    -4.959      3.704      7.375
REMARK INTER + INTRA:         -15.764
REMARK INTER:                 -10.375
REMARK INTRA:                  -5.389
REMARK UNBOUND:                -3.268
REMARK SMILES CCCCCCCCCCCCCCCCCCCCCCCCCCCC(=O)[O-]
REMARK SMILES IDX 15 1 16 2 17 3 18 4 19 5 20 6 21 7 22 8 23 9 24 10 25 11
REMARK SMILES IDX 26 12 27 13 28 14 29 15 30 16 14 17 13 18 12 19 11 20 10 21
REMARK SMILES IDX 9 22 8 23 7 24 6 25 5 26 4 27 3 28 2 29 1 30
REMARK H PARENT
REMARK Flexibility Score: inf
ROOT
ATOM      1  C   UNL     1       8.057   3.646  14.863  1.00  0.00     0.000 C 
ENDROOT
BRANCH   1   2
ATOM      2  C   UNL     1       8.406   3.148  13.450  1.00  0.00     0.000 C 
BRANCH   2   3
ATOM      3  C   UNL     1       9.422   1.992  13.471  1.00  0.00     0.000 C 
BRANCH   3   4
ATOM      4  C   UNL     1      10.648   2.257  12.586  1.00  0.00     0.000 C 
BRANCH   4   5
ATOM      5  C   UNL     1      11.685   3.168  13.269  1.00  0.00     0.000 C 
BRANCH   5   6
ATOM      6  C   UNL     1      13.111   2.575  13.256  1.00  0.00     0.000 C 
BRANCH   6   7
ATOM      7  C   UNL     1      13.173   1.078  12.897  1.00  0.00     0.000 C 
BRANCH   7   8
ATOM      8  C   UNL     1      13.195   0.111  14.096  1.00  0.00     0.000 C 
BRANCH   8   9
ATOM      9  C   UNL     1      13.164   0.784  15.484  1.00  0.00     0.000 C 
BRANCH   9  10
ATOM     10  C   UNL     1      11.831   0.658  16.241  1.00  0.00     0.000 C 
BRANCH  10  11
ATOM     11  C   UNL     1      11.298   2.005  16.746  1.00  0.00     0.000 C 
BRANCH  11  12
ATOM     12  C   UNL     1       9.871   1.856  17.298  1.00  0.00     0.006 C 
BRANCH  12  13
ATOM     13  C   UNL     1       9.721   2.484  18.692  1.00  0.00     0.053 C 
BRANCH  13  14
ATOM     14  C   UNL     1      10.498   1.730  19.728  1.00  0.00     0.041 C 
ATOM     15  O   UNL     1      11.243   2.347  20.534  1.00  0.00    -0.550 OA
ATOM     16  O   UNL     1      10.371   0.349  19.825  1.00  0.00    -0.550 OA
ENDBRANCH  13  14
ENDBRANCH  12  13
ENDBRANCH  11  12
ENDBRANCH  10  11
ENDBRANCH   9  10
ENDBRANCH   8   9
ENDBRANCH   7   8
ENDBRANCH   6   7
ENDBRANCH   5   6
ENDBRANCH   4   5
ENDBRANCH   3   4
ENDBRANCH   2   3
ENDBRANCH   1   2
BRANCH   1  17
ATOM     17  C   UNL     1       8.356   5.140  15.053  1.00  0.00     0.000 C 
BRANCH  17  18
ATOM     18  C   UNL     1       9.752   5.355  15.650  1.00  0.00     0.000 C 
BRANCH  18  19
ATOM     19  C   UNL     1      10.502   6.461  14.895  1.00  0.00     0.000 C 
BRANCH  19  20
ATOM     20  C   UNL     1      10.107   6.552  13.412  1.00  0.00     0.000 C 
BRANCH  20  21
ATOM     21  C   UNL     1      11.234   7.078  12.499  1.00  0.00     0.000 C 
BRANCH  21  22
ATOM     22  C   UNL     1      11.352   6.272  11.193  1.00  0.00    -0.000 C 
BRANCH  22  23
ATOM     23  C   UNL     1      10.108   5.411  10.921  1.00  0.00    -0.000 C 
BRANCH  23  24
ATOM     24  C   UNL     1      10.199   4.648   9.590  1.00  0.00    -0.000 C 
BRANCH  24  25
ATOM     25  C   UNL     1       9.030   3.664   9.437  1.00  0.00    -0.000 C 
BRANCH  25  26
ATOM     26  C   UNL     1       9.391   2.446   8.570  1.00  0.00    -0.000 C 
BRANCH  26  27
ATOM     27  C   UNL     1      10.667   1.738   9.055  1.00  0.00    -0.000 C 
BRANCH  27  28
ATOM     28  C   UNL     1      10.478   0.221   9.236  1.00  0.00    -0.000 C 
BRANCH  28  29
ATOM     29  C   UNL     1      11.594  -0.449  10.071  1.00  0.00    -0.003 C 
ATOM     30  C   UNL     1      11.034  -1.395  11.136  1.00  0.00     0.004 C 
ENDBRANCH  28  29
ENDBRANCH  27  28
ENDBRANCH  26  27
ENDBRANCH  25  26
ENDBRANCH  24  25
ENDBRANCH  23  24
ENDBRANCH  22  23
ENDBRANCH  21  22
ENDBRANCH  20  21
ENDBRANCH  19  20
ENDBRANCH  18  19
ENDBRANCH  17  18
ENDBRANCH   1  17
TORSDOF 26
ENDMDL
MODEL 8
REMARK VINA RESULT:    -4.931      3.658      8.233
REMARK INTER + INTRA:         -15.693
REMARK INTER:                  -9.868
REMARK INTRA:                  -5.825
REMARK UNBOUND:                -3.268
REMARK SMILES CCCCCCCCCCCCCCCCCCCCCCCCCCCC(=O)[O-]
REMARK SMILES IDX 15 1 16 2 17 3 18 4 19 5 20 6 21 7 22 8 23 9 24 10 25 11
REMARK SMILES IDX 26 12 27 13 28 14 29 15 30 16 14 17 13 18 12 19 11 20 10 21
REMARK SMILES IDX 9 22 8 23 7 24 6 25 5 26 4 27 3 28 2 29 1 30
REMARK H PARENT
REMARK Flexibility Score: inf
ROOT
ATOM      1  C   UNL     1      10.950   4.929  10.576  1.00  0.00     0.000 C 
ENDROOT
BRANCH   1   2
ATOM      2  C   UNL     1      11.621   6.292  10.822  1.00  0.00     0.000 C 
BRANCH   2   3
ATOM      3  C   UNL     1      11.243   6.893  12.188  1.00  0.00     0.000 C 
BRANCH   3   4
ATOM      4  C   UNL     1      10.120   6.119  12.893  1.00  0.00     0.000 C 
BRANCH   4   5
ATOM      5  C   UNL     1      10.366   5.966  14.405  1.00  0.00     0.000 C 
BRANCH   5   6
ATOM      6  C   UNL     1      10.610   4.502  14.832  1.00  0.00     0.000 C 
BRANCH   6   7
ATOM      7  C   UNL     1       9.949   3.454  13.914  1.00  0.00     0.000 C 
BRANCH   7   8
ATOM      8  C   UNL     1      10.920   2.502  13.192  1.00  0.00     0.000 C 
BRANCH   8   9
ATOM      9  C   UNL     1      12.397   2.949  13.186  1.00  0.00     0.000 C 
BRANCH   9  10
ATOM     10  C   UNL     1      13.392   1.923  13.755  1.00  0.00     0.000 C 
BRANCH  10  11
ATOM     11  C   UNL     1      13.448   1.929  15.289  1.00  0.00     0.000 C 
BRANCH  11  12
ATOM     12  C   UNL     1      12.608   0.781  15.871  1.00  0.00     0.006 C 
BRANCH  12  13
ATOM     13  C   UNL     1      11.385   1.294  16.646  1.00  0.00     0.053 C 
BRANCH  13  14
ATOM     14  C   UNL     1      10.753   0.213  17.468  1.00  0.00     0.041 C 
ATOM     15  O   UNL     1       9.795   0.483  18.240  1.00  0.00    -0.550 OA
ATOM     16  O   UNL     1      11.200  -1.098  17.356  1.00  0.00    -0.550 OA
ENDBRANCH  13  14
ENDBRANCH  12  13
ENDBRANCH  11  12
ENDBRANCH  10  11
ENDBRANCH   9  10
ENDBRANCH   8   9
ENDBRANCH   7   8
ENDBRANCH   6   7
ENDBRANCH   5   6
ENDBRANCH   4   5
ENDBRANCH   3   4
ENDBRANCH   2   3
ENDBRANCH   1   2
BRANCH   1  17
ATOM     17  C   UNL     1      10.499   4.748   9.120  1.00  0.00     0.000 C 
BRANCH  17  18
ATOM     18  C   UNL     1       9.102   4.119   9.046  1.00  0.00     0.000 C 
BRANCH  18  19
ATOM     19  C   UNL     1       8.775   3.367  10.343  1.00  0.00     0.000 C 
BRANCH  19  20
ATOM     20  C   UNL     1       8.957   1.846  10.220  1.00  0.00     0.000 C 
BRANCH  20  21
ATOM     21  C   UNL     1       9.290   1.373   8.790  1.00  0.00     0.000 C 
BRANCH  21  22
ATOM     22  C   UNL     1      10.673   0.704   8.703  1.00  0.00    -0.000 C 
BRANCH  22  23
ATOM     23  C   UNL     1      11.662   1.266   9.737  1.00  0.00    -0.000 C 
BRANCH  23  24
ATOM     24  C   UNL     1      12.245   0.175  10.650  1.00  0.00    -0.000 C 
BRANCH  24  25
ATOM     25  C   UNL     1      11.612  -1.192  10.348  1.00  0.00    -0.000 C 
BRANCH  25  26
ATOM     26  C   UNL     1      10.800  -1.741  11.533  1.00  0.00    -0.000 C 
BRANCH  26  27
ATOM     27  C   UNL     1      11.146  -1.040  12.858  1.00  0.00    -0.000 C 
BRANCH  27  28
ATOM     28  C   UNL     1      10.186  -1.413  14.002  1.00  0.00    -0.000 C 
BRANCH  28  29
ATOM     29  C   UNL     1       9.069  -0.371  14.240  1.00  0.00    -0.003 C 
ATOM     30  C   UNL     1       8.065  -0.321  13.086  1.00  0.00     0.004 C 
ENDBRANCH  28  29
ENDBRANCH  27  28
ENDBRANCH  26  27
ENDBRANCH  25  26
ENDBRANCH  24  25
ENDBRANCH  23  24
ENDBRANCH  22  23
ENDBRANCH  21  22
ENDBRANCH  20  21
ENDBRANCH  19  20
ENDBRANCH  18  19
ENDBRANCH  17  18
ENDBRANCH   1  17
TORSDOF 26
ENDMDL
MODEL 9
REMARK VINA RESULT:    -4.910      3.595      9.906
REMARK INTER + INTRA:         -15.642
REMARK INTER:                 -11.951
REMARK INTRA:                  -3.691
REMARK UNBOUND:                -3.268
REMARK SMILES CCCCCCCCCCCCCCCCCCCCCCCCCCCC(=O)[O-]
REMARK SMILES IDX 15 1 16 2 17 3 18 4 19 5 20 6 21 7 22 8 23 9 24 10 25 11
REMARK SMILES IDX 26 12 27 13 28 14 29 15 30 16 14 17 13 18 12 19 11 20 10 21
REMARK SMILES IDX 9 22 8 23 7 24 6 25 5 26 4 27 3 28 2 29 1 30
REMARK H PARENT
REMARK Flexibility Score: inf
ROOT
ATOM      1  C   UNL     1      11.623   8.298  11.015  1.00  0.00     0.000 C 
ENDROOT
BRANCH   1   2
ATOM      2  C   UNL     1      11.658   9.803  11.332  1.00  0.00     0.000 C 
BRANCH   2   3
ATOM      3  C   UNL     1      12.376  10.616  10.239  1.00  0.00     0.000 C 
BRANCH   3   4
ATOM      4  C   UNL     1      12.378  12.126  10.521  1.00  0.00     0.000 C 
BRANCH   4   5
ATOM      5  C   UNL     1      12.383  12.447  12.027  1.00  0.00     0.000 C 
BRANCH   5   6
ATOM      6  C   UNL     1      11.611  13.739  12.371  1.00  0.00     0.000 C 
BRANCH   6   7
ATOM      7  C   UNL     1      10.341  13.515  13.215  1.00  0.00     0.000 C 
BRANCH   7   8
ATOM      8  C   UNL     1       9.267  12.620  12.569  1.00  0.00     0.000 C 
BRANCH   8   9
ATOM      9  C   UNL     1       8.749  11.470  13.458  1.00  0.00     0.000 C 
BRANCH   9  10
ATOM     10  C   UNL     1       9.802  10.834  14.382  1.00  0.00     0.000 C 
BRANCH  10  11
ATOM     11  C   UNL     1       9.186  10.120  15.593  1.00  0.00     0.000 C 
BRANCH  11  12
ATOM     12  C   UNL     1       9.705  10.726  16.907  1.00  0.00     0.006 C 
BRANCH  12  13
ATOM     13  C   UNL     1      10.361  12.098  16.692  1.00  0.00     0.053 C 
BRANCH  13  14
ATOM     14  C   UNL     1       9.457  13.218  17.108  1.00  0.00     0.041 C 
ATOM     15  O   UNL     1       8.423  13.479  16.439  1.00  0.00    -0.550 OA
ATOM     16  O   UNL     1       9.739  13.950  18.256  1.00  0.00    -0.550 OA
ENDBRANCH  13  14
ENDBRANCH  12  13
ENDBRANCH  11  12
ENDBRANCH  10  11
ENDBRANCH   9  10
ENDBRANCH   8   9
ENDBRANCH   7   8
ENDBRANCH   6   7
ENDBRANCH   5   6
ENDBRANCH   4   5
ENDBRANCH   3   4
ENDBRANCH   2   3
ENDBRANCH   1   2
BRANCH   1  17
ATOM     17  C   UNL     1      11.243   7.447  12.235  1.00  0.00     0.000 C 
BRANCH  17  18
ATOM     18  C   UNL     1      10.933   6.001  11.828  1.00  0.00     0.000 C 
BRANCH  18  19
ATOM     19  C   UNL     1      11.665   5.633  10.530  1.00  0.00     0.000 C 
BRANCH  19  20
ATOM     20  C   UNL     1      10.809   4.784   9.576  1.00  0.00     0.000 C 
BRANCH  20  21
ATOM     21  C   UNL     1       9.515   4.242  10.217  1.00  0.00     0.000 C 
BRANCH  21  22
ATOM     22  C   UNL     1       9.534   2.710  10.364  1.00  0.00    -0.000 C 
BRANCH  22  23
ATOM     23  C   UNL     1      10.216   2.015   9.174  1.00  0.00    -0.000 C 
BRANCH  23  24
ATOM     24  C   UNL     1      11.465   1.222   9.592  1.00  0.00    -0.000 C 
BRANCH  24  25
ATOM     25  C   UNL     1      11.738   1.374  11.095  1.00  0.00    -0.000 C 
BRANCH  25  26
ATOM     26  C   UNL     1      13.072   2.083  11.385  1.00  0.00    -0.000 C 
BRANCH  26  27
ATOM     27  C   UNL     1      13.010   2.954  12.652  1.00  0.00    -0.000 C 
BRANCH  27  28
ATOM     28  C   UNL     1      11.834   2.585  13.575  1.00  0.00    -0.000 C 
BRANCH  28  29
ATOM     29  C   UNL     1      12.270   2.150  14.993  1.00  0.00    -0.003 C 
ATOM     30  C   UNL     1      13.792   2.077  15.136  1.00  0.00     0.004 C 
ENDBRANCH  28  29
ENDBRANCH  27  28
ENDBRANCH  26  27
ENDBRANCH  25  26
ENDBRANCH  24  25
ENDBRANCH  23  24
ENDBRANCH  22  23
ENDBRANCH  21  22
ENDBRANCH  20  21
ENDBRANCH  19  20
ENDBRANCH  18  19
ENDBRANCH  17  18
ENDBRANCH   1  17
TORSDOF 26
ENDMDL
