MODEL 1
REMARK VINA RESULT:    -8.729      0.000      0.000
REMARK INTER + INTRA:          -9.776
REMARK INTER:                  -9.494
REMARK INTRA:                  -0.282
REMARK UNBOUND:                -0.282
REMARK SMILES CC1(C)CC[C@]2(C(=O)[O-])CC[C@@]3(C)C(=CC[C@@H]4[C@@]5(C)CC[C@H](O)C(C)(C)[C@H]5CC[C@@]43C)[C@@H]2C1
REMARK SMILES IDX 6 1 5 2 10 3 32 4 4 5 11 6 14 7 33 8 2 9 12 10 15 11 1 12
REMARK SMILES IDX 3 13 13 14 30 15 16 16 17 17 29 18 31 19 18 20 28 21 27 22
REMARK SMILES IDX 20 23 19 24 24 25 21 26 22 27 25 28 26 29 7 30 8 31 9 32
REMARK SMILES IDX 23 33
REMARK H PARENT 23 34
REMARK Flexibility Score: inf
ROOT
ATOM      1  C   UNL     1      11.815  44.494  29.128  1.00  0.00     0.017 C 
ATOM      2  C   UNL     1      11.509  43.905  27.711  1.00  0.00     0.014 C 
ATOM      3  C   UNL     1      11.667  46.048  29.011  1.00  0.00     0.014 C 
ATOM      4  C   UNL     1      13.295  44.118  29.583  1.00  0.00     0.028 C 
ATOM      5  C   UNL     1      11.815  42.397  27.541  1.00  0.00     0.007 C 
ATOM      6  C   UNL     1      12.167  46.861  30.239  1.00  0.00     0.013 C 
ATOM      7  C   UNL     1      14.134  45.395  29.898  1.00  0.00    -0.064 C 
ATOM      8  C   UNL     1      14.013  43.148  28.594  1.00  0.00     0.015 C 
ATOM      9  C   UNL     1      13.166  41.925  28.174  1.00  0.00    -0.035 C 
ATOM     10  C   UNL     1      13.522  46.377  30.893  1.00  0.00    -0.006 C 
ATOM     11  C   UNL     1      15.148  45.782  29.099  1.00  0.00    -0.027 C 
ATOM     12  C   UNL     1      12.931  40.990  29.384  1.00  0.00     0.011 C 
ATOM     13  C   UNL     1      13.966  41.120  27.123  1.00  0.00     0.011 C 
ATOM     14  C   UNL     1      13.206  45.565  32.203  1.00  0.00     0.017 C 
ATOM     15  C   UNL     1      14.500  47.622  31.251  1.00  0.00    -0.020 C 
ATOM     16  C   UNL     1      15.660  47.179  28.962  1.00  0.00     0.032 C 
ATOM     17  C   UNL     1      15.108  48.266  29.938  1.00  0.00     0.006 C 
ATOM     18  C   UNL     1      15.676  47.197  32.212  1.00  0.00     0.008 C 
ATOM     19  C   UNL     1      13.630  48.681  32.017  1.00  0.00     0.012 C 
ATOM     20  C   UNL     1      16.198  49.428  30.174  1.00  0.00    -0.025 C 
ATOM     21  C   UNL     1      17.106  47.507  31.748  1.00  0.00     0.005 C 
ATOM     22  C   UNL     1      17.378  48.920  31.122  1.00  0.00     0.003 C 
ATOM     23  C   UNL     1      15.489  50.773  30.646  1.00  0.00     0.010 C 
ATOM     24  C   UNL     1      16.815  49.795  28.773  1.00  0.00     0.012 C 
ATOM     25  C   UNL     1      17.962  50.007  32.115  1.00  0.00    -0.006 C 
ATOM     26  C   UNL     1      15.817  51.409  32.019  1.00  0.00     0.033 C 
ATOM     27  C   UNL     1      16.793  50.629  32.913  1.00  0.00     0.120 C 
ATOM     28  C   UNL     1      18.982  49.397  33.116  1.00  0.00     0.014 C 
ATOM     29  C   UNL     1      18.749  51.090  31.319  1.00  0.00     0.014 C 
ENDROOT
BRANCH   1  30
ATOM     30  C   UNL     1      10.739  43.974  30.099  1.00  0.00     0.048 C 
ATOM     31  O   UNL     1      11.040  43.242  31.076  1.00  0.00    -0.550 OA
ATOM     32  O   UNL     1       9.407  44.328  29.956  1.00  0.00    -0.550 OA
ENDBRANCH   1  30
BRANCH  27  33
ATOM     33  O   UNL     1      17.244  51.439  33.976  1.00  0.00    -0.393 OA
ATOM     34  H   UNL     1      17.771  50.875  34.598  1.00  0.00     0.210 HD
ENDBRANCH  27  33
TORSDOF 2
ENDMDL
MODEL 2
REMARK VINA RESULT:    -8.479      2.362      8.119
REMARK INTER + INTRA:          -9.504
REMARK INTER:                  -9.231
REMARK INTRA:                  -0.272
REMARK UNBOUND:                -0.282
REMARK SMILES CC1(C)CC[C@]2(C(=O)[O-])CC[C@@]3(C)C(=CC[C@@H]4[C@@]5(C)CC[C@H](O)C(C)(C)[C@H]5CC[C@@]43C)[C@@H]2C1
REMARK SMILES IDX 6 1 5 2 10 3 32 4 4 5 11 6 14 7 33 8 2 9 12 10 15 11 1 12
REMARK SMILES IDX 3 13 13 14 30 15 16 16 17 17 29 18 31 19 18 20 28 21 27 22
REMARK SMILES IDX 20 23 19 24 24 25 21 26 22 27 25 28 26 29 7 30 8 31 9 32
REMARK SMILES IDX 23 33
REMARK H PARENT 23 34
REMARK Flexibility Score: inf
ROOT
ATOM      1  C   UNL     1      17.517  50.531  31.070  1.00  0.00     0.017 C 
ATOM      2  C   UNL     1      18.043  51.607  32.076  1.00  0.00     0.014 C 
ATOM      3  C   UNL     1      16.117  51.025  30.574  1.00  0.00     0.014 C 
ATOM      4  C   UNL     1      17.377  49.115  31.786  1.00  0.00     0.028 C 
ATOM      5  C   UNL     1      19.317  51.212  32.862  1.00  0.00     0.007 C 
ATOM      6  C   UNL     1      15.297  49.990  29.752  1.00  0.00     0.013 C 
ATOM      7  C   UNL     1      15.919  48.570  31.684  1.00  0.00    -0.064 C 
ATOM      8  C   UNL     1      17.928  49.108  33.246  1.00  0.00     0.015 C 
ATOM      9  C   UNL     1      19.329  49.743  33.400  1.00  0.00    -0.035 C 
ATOM     10  C   UNL     1      15.320  48.501  30.282  1.00  0.00    -0.006 C 
ATOM     11  C   UNL     1      15.121  48.496  32.767  1.00  0.00    -0.027 C 
ATOM     12  C   UNL     1      20.394  48.882  32.682  1.00  0.00     0.011 C 
ATOM     13  C   UNL     1      19.691  49.755  34.904  1.00  0.00     0.011 C 
ATOM     14  C   UNL     1      16.310  47.651  29.401  1.00  0.00     0.017 C 
ATOM     15  C   UNL     1      13.846  47.822  30.246  1.00  0.00    -0.020 C 
ATOM     16  C   UNL     1      13.627  48.514  32.746  1.00  0.00     0.032 C 
ATOM     17  C   UNL     1      12.907  48.437  31.363  1.00  0.00     0.006 C 
ATOM     18  C   UNL     1      13.907  46.257  30.426  1.00  0.00     0.008 C 
ATOM     19  C   UNL     1      13.247  48.107  28.823  1.00  0.00     0.012 C 
ATOM     20  C   UNL     1      11.459  47.750  31.511  1.00  0.00    -0.025 C 
ATOM     21  C   UNL     1      13.062  45.648  31.554  1.00  0.00     0.005 C 
ATOM     22  C   UNL     1      11.594  46.174  31.728  1.00  0.00     0.003 C 
ATOM     23  C   UNL     1      10.508  48.183  30.309  1.00  0.00     0.010 C 
ATOM     24  C   UNL     1      10.765  48.365  32.784  1.00  0.00     0.012 C 
ATOM     25  C   UNL     1      10.467  45.298  31.041  1.00  0.00    -0.006 C 
ATOM     26  C   UNL     1       9.928  47.131  29.332  1.00  0.00     0.033 C 
ATOM     27  C   UNL     1      10.384  45.680  29.545  1.00  0.00     0.120 C 
ATOM     28  C   UNL     1      10.760  43.775  31.154  1.00  0.00     0.014 C 
ATOM     29  C   UNL     1       9.105  45.519  31.763  1.00  0.00     0.014 C 
ENDROOT
BRANCH   1  30
ATOM     30  C   UNL     1      18.478  50.501  29.866  1.00  0.00     0.048 C 
ATOM     31  O   UNL     1      19.078  49.448  29.535  1.00  0.00    -0.550 OA
ATOM     32  O   UNL     1      18.682  51.624  29.079  1.00  0.00    -0.550 OA
ENDBRANCH   1  30
BRANCH  27  33
ATOM     33  O   UNL     1       9.569  44.793  28.813  1.00  0.00    -0.393 OA
ATOM     34  H   UNL     1       8.659  44.806  29.206  1.00  0.00     0.210 HD
ENDBRANCH  27  33
TORSDOF 2
ENDMDL
MODEL 3
REMARK VINA RESULT:    -8.286      1.862      8.193
REMARK INTER + INTRA:          -9.294
REMARK INTER:                  -9.173
REMARK INTRA:                  -0.121
REMARK UNBOUND:                -0.282
REMARK SMILES CC1(C)CC[C@]2(C(=O)[O-])CC[C@@]3(C)C(=CC[C@@H]4[C@@]5(C)CC[C@H](O)C(C)(C)[C@H]5CC[C@@]43C)[C@@H]2C1
REMARK SMILES IDX 6 1 5 2 10 3 32 4 4 5 11 6 14 7 33 8 2 9 12 10 15 11 1 12
REMARK SMILES IDX 3 13 13 14 30 15 16 16 17 17 29 18 31 19 18 20 28 21 27 22
REMARK SMILES IDX 20 23 19 24 24 25 21 26 22 27 25 28 26 29 7 30 8 31 9 32
REMARK SMILES IDX 23 33
REMARK H PARENT 23 34
REMARK Flexibility Score: inf
ROOT
ATOM      1  C   UNL     1      18.168  49.313  31.134  1.00  0.00     0.017 C 
ATOM      2  C   UNL     1      18.672  50.708  30.635  1.00  0.00     0.014 C 
ATOM      3  C   UNL     1      17.617  48.558  29.879  1.00  0.00     0.014 C 
ATOM      4  C   UNL     1      17.013  49.491  32.218  1.00  0.00     0.028 C 
ATOM      5  C   UNL     1      19.056  51.711  31.750  1.00  0.00     0.007 C 
ATOM      6  C   UNL     1      16.837  47.247  30.178  1.00  0.00     0.013 C 
ATOM      7  C   UNL     1      15.706  48.762  31.778  1.00  0.00    -0.064 C 
ATOM      8  C   UNL     1      16.774  50.979  32.622  1.00  0.00     0.015 C 
ATOM      9  C   UNL     1      18.063  51.762  32.958  1.00  0.00    -0.035 C 
ATOM     10  C   UNL     1      15.846  47.288  31.409  1.00  0.00    -0.006 C 
ATOM     11  C   UNL     1      14.609  49.452  31.411  1.00  0.00    -0.027 C 
ATOM     12  C   UNL     1      18.709  51.209  34.250  1.00  0.00     0.011 C 
ATOM     13  C   UNL     1      17.676  53.234  33.237  1.00  0.00     0.011 C 
ATOM     14  C   UNL     1      16.513  46.568  32.638  1.00  0.00     0.017 C 
ATOM     15  C   UNL     1      14.428  46.574  31.068  1.00  0.00    -0.020 C 
ATOM     16  C   UNL     1      13.533  48.952  30.502  1.00  0.00     0.032 C 
ATOM     17  C   UNL     1      13.572  47.453  30.068  1.00  0.00     0.006 C 
ATOM     18  C   UNL     1      13.578  46.291  32.366  1.00  0.00     0.008 C 
ATOM     19  C   UNL     1      14.761  45.186  30.415  1.00  0.00     0.012 C 
ATOM     20  C   UNL     1      12.088  46.910  29.759  1.00  0.00    -0.025 C 
ATOM     21  C   UNL     1      12.148  46.847  32.402  1.00  0.00     0.005 C 
ATOM     22  C   UNL     1      11.270  46.681  31.112  1.00  0.00     0.003 C 
ATOM     23  C   UNL     1      12.144  45.650  28.788  1.00  0.00     0.010 C 
ATOM     24  C   UNL     1      11.343  48.009  28.913  1.00  0.00     0.012 C 
ATOM     25  C   UNL     1      10.289  45.438  31.106  1.00  0.00    -0.006 C 
ATOM     26  C   UNL     1      11.599  44.271  29.236  1.00  0.00     0.033 C 
ATOM     27  C   UNL     1      11.083  44.181  30.680  1.00  0.00     0.120 C 
ATOM     28  C   UNL     1       9.661  45.182  32.505  1.00  0.00     0.014 C 
ATOM     29  C   UNL     1       9.090  45.707  30.149  1.00  0.00     0.014 C 
ENDROOT
BRANCH   1  30
ATOM     30  C   UNL     1      19.383  48.537  31.675  1.00  0.00     0.048 C 
ATOM     31  O   UNL     1      19.651  48.516  32.903  1.00  0.00    -0.550 OA
ATOM     32  O   UNL     1      20.200  47.799  30.833  1.00  0.00    -0.550 OA
ENDBRANCH   1  30
BRANCH  27  33
ATOM     33  O   UNL     1      10.345  42.995  30.868  1.00  0.00    -0.393 OA
ATOM     34  H   UNL     1      10.980  42.257  31.059  1.00  0.00     0.210 HD
ENDBRANCH  27  33
TORSDOF 2
ENDMDL
MODEL 4
REMARK VINA RESULT:    -7.991      2.797      9.462
REMARK INTER + INTRA:          -8.973
REMARK INTER:                  -8.694
REMARK INTRA:                  -0.279
REMARK UNBOUND:                -0.282
REMARK SMILES CC1(C)CC[C@]2(C(=O)[O-])CC[C@@]3(C)C(=CC[C@@H]4[C@@]5(C)CC[C@H](O)C(C)(C)[C@H]5CC[C@@]43C)[C@@H]2C1
REMARK SMILES IDX 6 1 5 2 10 3 32 4 4 5 11 6 14 7 33 8 2 9 12 10 15 11 1 12
REMARK SMILES IDX 3 13 13 14 30 15 16 16 17 17 29 18 31 19 18 20 28 21 27 22
REMARK SMILES IDX 20 23 19 24 24 25 21 26 22 27 25 28 26 29 7 30 8 31 9 32
REMARK SMILES IDX 23 33
REMARK H PARENT 23 34
REMARK Flexibility Score: inf
ROOT
ATOM      1  C   UNL     1      18.188  52.995  34.600  1.00  0.00     0.017 C 
ATOM      2  C   UNL     1      19.575  53.167  35.303  1.00  0.00     0.014 C 
ATOM      3  C   UNL     1      17.647  51.585  35.011  1.00  0.00     0.014 C 
ATOM      4  C   UNL     1      18.349  53.080  33.017  1.00  0.00     0.028 C 
ATOM      5  C   UNL     1      20.395  54.402  34.857  1.00  0.00     0.007 C 
ATOM      6  C   UNL     1      16.393  51.098  34.230  1.00  0.00     0.013 C 
ATOM      7  C   UNL     1      17.812  51.791  32.322  1.00  0.00    -0.064 C 
ATOM      8  C   UNL     1      19.795  53.457  32.566  1.00  0.00     0.015 C 
ATOM      9  C   UNL     1      20.400  54.665  33.315  1.00  0.00    -0.035 C 
ATOM     10  C   UNL     1      16.386  51.378  32.674  1.00  0.00    -0.006 C 
ATOM     11  C   UNL     1      18.647  50.913  31.732  1.00  0.00    -0.027 C 
ATOM     12  C   UNL     1      19.635  55.961  32.957  1.00  0.00     0.011 C 
ATOM     13  C   UNL     1      21.859  54.850  32.836  1.00  0.00     0.011 C 
ATOM     14  C   UNL     1      15.462  52.615  32.373  1.00  0.00     0.017 C 
ATOM     15  C   UNL     1      15.862  50.094  31.830  1.00  0.00    -0.020 C 
ATOM     16  C   UNL     1      18.369  49.461  31.519  1.00  0.00     0.032 C 
ATOM     17  C   UNL     1      16.936  48.929  31.838  1.00  0.00     0.006 C 
ATOM     18  C   UNL     1      15.513  50.465  30.338  1.00  0.00     0.008 C 
ATOM     19  C   UNL     1      14.536  49.607  32.515  1.00  0.00     0.012 C 
ATOM     20  C   UNL     1      16.584  47.652  30.923  1.00  0.00    -0.025 C 
ATOM     21  C   UNL     1      16.200  49.650  29.234  1.00  0.00     0.005 C 
ATOM     22  C   UNL     1      16.277  48.094  29.419  1.00  0.00     0.003 C 
ATOM     23  C   UNL     1      15.449  46.769  31.607  1.00  0.00     0.010 C 
ATOM     24  C   UNL     1      17.844  46.709  30.913  1.00  0.00     0.012 C 
ATOM     25  C   UNL     1      15.147  47.260  28.687  1.00  0.00    -0.006 C 
ATOM     26  C   UNL     1      14.088  46.535  30.906  1.00  0.00     0.033 C 
ATOM     27  C   UNL     1      13.878  47.262  29.570  1.00  0.00     0.120 C 
ATOM     28  C   UNL     1      14.791  47.855  27.296  1.00  0.00     0.014 C 
ATOM     29  C   UNL     1      15.647  45.811  28.409  1.00  0.00     0.014 C 
ENDROOT
BRANCH   1  30
ATOM     30  C   UNL     1      17.236  54.066  35.164  1.00  0.00     0.048 C 
ATOM     31  O   UNL     1      16.729  54.945  34.423  1.00  0.00    -0.550 OA
ATOM     32  O   UNL     1      16.871  54.072  36.501  1.00  0.00    -0.550 OA
ENDBRANCH   1  30
BRANCH  27  33
ATOM     33  O   UNL     1      12.757  46.739  28.893  1.00  0.00    -0.393 OA
ATOM     34  H   UNL     1      12.582  45.825  29.237  1.00  0.00     0.210 HD
ENDBRANCH  27  33
TORSDOF 2
ENDMDL
MODEL 5
REMARK VINA RESULT:    -7.808      1.720      8.050
REMARK INTER + INTRA:          -8.774
REMARK INTER:                  -8.582
REMARK INTRA:                  -0.193
REMARK UNBOUND:                -0.282
REMARK SMILES CC1(C)CC[C@]2(C(=O)[O-])CC[C@@]3(C)C(=CC[C@@H]4[C@@]5(C)CC[C@H](O)C(C)(C)[C@H]5CC[C@@]43C)[C@@H]2C1
REMARK SMILES IDX 6 1 5 2 10 3 32 4 4 5 11 6 14 7 33 8 2 9 12 10 15 11 1 12
REMARK SMILES IDX 3 13 13 14 30 15 16 16 17 17 29 18 31 19 18 20 28 21 27 22
REMARK SMILES IDX 20 23 19 24 24 25 21 26 22 27 25 28 26 29 7 30 8 31 9 32
REMARK SMILES IDX 23 33
REMARK H PARENT 23 34
REMARK Flexibility Score: inf
ROOT
ATOM      1  C   UNL     1      15.979  49.480  31.289  1.00  0.00     0.017 C 
ATOM      2  C   UNL     1      16.746  49.843  32.604  1.00  0.00     0.014 C 
ATOM      3  C   UNL     1      14.577  48.934  31.722  1.00  0.00     0.014 C 
ATOM      4  C   UNL     1      16.771  48.367  30.468  1.00  0.00     0.028 C 
ATOM      5  C   UNL     1      18.242  50.195  32.421  1.00  0.00     0.007 C 
ATOM      6  C   UNL     1      13.737  48.280  30.589  1.00  0.00     0.013 C 
ATOM      7  C   UNL     1      15.887  47.106  30.225  1.00  0.00    -0.064 C 
ATOM      8  C   UNL     1      18.164  48.025  31.083  1.00  0.00     0.015 C 
ATOM      9  C   UNL     1      19.023  49.260  31.439  1.00  0.00    -0.035 C 
ATOM     10  C   UNL     1      14.524  47.349  29.583  1.00  0.00    -0.006 C 
ATOM     11  C   UNL     1      16.146  45.939  30.846  1.00  0.00    -0.027 C 
ATOM     12  C   UNL     1      19.446  50.011  30.155  1.00  0.00     0.011 C 
ATOM     13  C   UNL     1      20.317  48.766  32.126  1.00  0.00     0.011 C 
ATOM     14  C   UNL     1      14.781  48.131  28.242  1.00  0.00     0.017 C 
ATOM     15  C   UNL     1      13.712  45.980  29.263  1.00  0.00    -0.020 C 
ATOM     16  C   UNL     1      15.145  44.865  31.129  1.00  0.00     0.032 C 
ATOM     17  C   UNL     1      13.718  45.007  30.512  1.00  0.00     0.006 C 
ATOM     18  C   UNL     1      14.298  45.219  28.012  1.00  0.00     0.008 C 
ATOM     19  C   UNL     1      12.239  46.395  28.911  1.00  0.00     0.012 C 
ATOM     20  C   UNL     1      13.054  43.560  30.271  1.00  0.00    -0.025 C 
ATOM     21  C   UNL     1      14.700  43.751  28.210  1.00  0.00     0.005 C 
ATOM     22  C   UNL     1      13.718  42.830  29.015  1.00  0.00     0.003 C 
ATOM     23  C   UNL     1      11.467  43.674  30.219  1.00  0.00     0.010 C 
ATOM     24  C   UNL     1      13.331  42.687  31.551  1.00  0.00     0.012 C 
ATOM     25  C   UNL     1      12.728  41.956  28.141  1.00  0.00    -0.006 C 
ATOM     26  C   UNL     1      10.678  43.266  28.950  1.00  0.00     0.033 C 
ATOM     27  C   UNL     1      11.516  42.830  27.740  1.00  0.00     0.120 C 
ATOM     28  C   UNL     1      13.407  41.419  26.849  1.00  0.00     0.014 C 
ATOM     29  C   UNL     1      12.282  40.694  28.938  1.00  0.00     0.014 C 
ENDROOT
BRANCH   1  30
ATOM     30  C   UNL     1      15.770  50.780  30.490  1.00  0.00     0.048 C 
ATOM     31  O   UNL     1      15.317  51.817  31.037  1.00  0.00    -0.550 OA
ATOM     32  O   UNL     1      16.113  50.864  29.150  1.00  0.00    -0.550 OA
ENDBRANCH   1  30
BRANCH  27  33
ATOM     33  O   UNL     1      10.702  42.202  26.775  1.00  0.00    -0.393 OA
ATOM     34  H   UNL     1       9.870  42.732  26.674  1.00  0.00     0.210 HD
ENDBRANCH  27  33
TORSDOF 2
ENDMDL
MODEL 6
REMARK VINA RESULT:    -7.739      1.635      2.485
REMARK INTER + INTRA:          -8.700
REMARK INTER:                  -9.318
REMARK INTRA:                   0.618
REMARK UNBOUND:                -0.282
REMARK SMILES CC1(C)CC[C@]2(C(=O)[O-])CC[C@@]3(C)C(=CC[C@@H]4[C@@]5(C)CC[C@H](O)C(C)(C)[C@H]5CC[C@@]43C)[C@@H]2C1
REMARK SMILES IDX 6 1 5 2 10 3 32 4 4 5 11 6 14 7 33 8 2 9 12 10 15 11 1 12
REMARK SMILES IDX 3 13 13 14 30 15 16 16 17 17 29 18 31 19 18 20 28 21 27 22
REMARK SMILES IDX 20 23 19 24 24 25 21 26 22 27 25 28 26 29 7 30 8 31 9 32
REMARK SMILES IDX 23 33
REMARK H PARENT 23 34
REMARK Flexibility Score: inf
ROOT
ATOM      1  C   UNL     1      12.413  46.289  28.799  1.00  0.00     0.017 C 
ATOM      2  C   UNL     1      12.290  45.096  27.794  1.00  0.00     0.014 C 
ATOM      3  C   UNL     1      13.399  47.320  28.156  1.00  0.00     0.014 C 
ATOM      4  C   UNL     1      12.982  45.785  30.199  1.00  0.00     0.028 C 
ATOM      5  C   UNL     1      11.535  43.855  28.328  1.00  0.00     0.007 C 
ATOM      6  C   UNL     1      13.862  48.473  29.091  1.00  0.00     0.013 C 
ATOM      7  C   UNL     1      14.288  46.545  30.587  1.00  0.00    -0.064 C 
ATOM      8  C   UNL     1      13.135  44.234  30.278  1.00  0.00     0.015 C 
ATOM      9  C   UNL     1      11.895  43.447  29.795  1.00  0.00    -0.035 C 
ATOM     10  C   UNL     1      14.210  48.069  30.579  1.00  0.00    -0.006 C 
ATOM     11  C   UNL     1      15.485  45.927  30.586  1.00  0.00    -0.027 C 
ATOM     12  C   UNL     1      10.705  43.673  30.757  1.00  0.00     0.011 C 
ATOM     13  C   UNL     1      12.234  41.939  29.836  1.00  0.00     0.011 C 
ATOM     14  C   UNL     1      13.015  48.473  31.520  1.00  0.00     0.017 C 
ATOM     15  C   UNL     1      15.572  48.784  31.098  1.00  0.00    -0.020 C 
ATOM     16  C   UNL     1      16.808  46.599  30.410  1.00  0.00     0.032 C 
ATOM     17  C   UNL     1      16.848  48.159  30.398  1.00  0.00     0.006 C 
ATOM     18  C   UNL     1      15.739  48.682  32.663  1.00  0.00     0.008 C 
ATOM     19  C   UNL     1      15.454  50.308  30.739  1.00  0.00     0.012 C 
ATOM     20  C   UNL     1      18.268  48.699  30.930  1.00  0.00    -0.025 C 
ATOM     21  C   UNL     1      17.046  48.074  33.190  1.00  0.00     0.005 C 
ATOM     22  C   UNL     1      18.386  48.531  32.514  1.00  0.00     0.003 C 
ATOM     23  C   UNL     1      18.547  50.170  30.388  1.00  0.00     0.010 C 
ATOM     24  C   UNL     1      19.393  47.827  30.257  1.00  0.00     0.012 C 
ATOM     25  C   UNL     1      19.168  49.689  33.259  1.00  0.00    -0.006 C 
ATOM     26  C   UNL     1      18.729  51.359  31.363  1.00  0.00     0.033 C 
ATOM     27  C   UNL     1      18.548  51.047  32.856  1.00  0.00     0.120 C 
ATOM     28  C   UNL     1      19.094  49.544  34.805  1.00  0.00     0.014 C 
ATOM     29  C   UNL     1      20.683  49.626  32.903  1.00  0.00     0.014 C 
ENDROOT
BRANCH   1  30
ATOM     30  C   UNL     1      11.027  46.950  28.919  1.00  0.00     0.048 C 
ATOM     31  O   UNL     1       9.984  46.261  29.055  1.00  0.00    -0.550 OA
ATOM     32  O   UNL     1      10.884  48.328  28.923  1.00  0.00    -0.550 OA
ENDBRANCH   1  30
BRANCH  27  33
ATOM     33  O   UNL     1      19.032  52.110  33.646  1.00  0.00    -0.393 OA
ATOM     34  H   UNL     1      19.811  51.784  34.167  1.00  0.00     0.210 HD
ENDBRANCH  27  33
TORSDOF 2
ENDMDL
MODEL 7
REMARK VINA RESULT:    -7.698      1.572      8.249
REMARK INTER + INTRA:          -8.654
REMARK INTER:                  -8.387
REMARK INTRA:                  -0.268
REMARK UNBOUND:                -0.282
REMARK SMILES CC1(C)CC[C@]2(C(=O)[O-])CC[C@@]3(C)C(=CC[C@@H]4[C@@]5(C)CC[C@H](O)C(C)(C)[C@H]5CC[C@@]43C)[C@@H]2C1
REMARK SMILES IDX 6 1 5 2 10 3 32 4 4 5 11 6 14 7 33 8 2 9 12 10 15 11 1 12
REMARK SMILES IDX 3 13 13 14 30 15 16 16 17 17 29 18 31 19 18 20 28 21 27 22
REMARK SMILES IDX 20 23 19 24 24 25 21 26 22 27 25 28 26 29 7 30 8 31 9 32
REMARK SMILES IDX 23 33
REMARK H PARENT 23 34
REMARK Flexibility Score: inf
ROOT
ATOM      1  C   UNL     1      17.150  50.852  32.026  1.00  0.00     0.017 C 
ATOM      2  C   UNL     1      17.378  51.549  33.408  1.00  0.00     0.014 C 
ATOM      3  C   UNL     1      15.612  50.913  31.740  1.00  0.00     0.014 C 
ATOM      4  C   UNL     1      17.638  49.336  32.077  1.00  0.00     0.028 C 
ATOM      5  C   UNL     1      18.804  51.406  33.994  1.00  0.00     0.007 C 
ATOM      6  C   UNL     1      15.124  50.061  30.535  1.00  0.00     0.013 C 
ATOM      7  C   UNL     1      16.483  48.356  31.709  1.00  0.00    -0.064 C 
ATOM      8  C   UNL     1      18.350  48.964  33.415  1.00  0.00     0.015 C 
ATOM      9  C   UNL     1      19.427  49.977  33.866  1.00  0.00    -0.035 C 
ATOM     10  C   UNL     1      15.763  48.623  30.390  1.00  0.00    -0.006 C 
ATOM     11  C   UNL     1      15.925  47.552  32.635  1.00  0.00    -0.027 C 
ATOM     12  C   UNL     1      20.623  49.964  32.885  1.00  0.00     0.011 C 
ATOM     13  C   UNL     1      19.964  49.529  35.245  1.00  0.00     0.011 C 
ATOM     14  C   UNL     1      16.864  48.654  29.265  1.00  0.00     0.017 C 
ATOM     15  C   UNL     1      14.650  47.499  30.026  1.00  0.00    -0.020 C 
ATOM     16  C   UNL     1      14.541  46.992  32.578  1.00  0.00     0.032 C 
ATOM     17  C   UNL     1      13.715  47.198  31.269  1.00  0.00     0.006 C 
ATOM     18  C   UNL     1      15.304  46.151  29.534  1.00  0.00     0.008 C 
ATOM     19  C   UNL     1      13.798  48.067  28.837  1.00  0.00     0.012 C 
ATOM     20  C   UNL     1      12.654  46.004  31.069  1.00  0.00    -0.025 C 
ATOM     21  C   UNL     1      14.906  44.867  30.274  1.00  0.00     0.005 C 
ATOM     22  C   UNL     1      13.386  44.661  30.607  1.00  0.00     0.003 C 
ATOM     23  C   UNL     1      11.456  46.470  30.131  1.00  0.00     0.010 C 
ATOM     24  C   UNL     1      11.967  45.736  32.459  1.00  0.00     0.012 C 
ATOM     25  C   UNL     1      12.576  43.768  29.581  1.00  0.00    -0.006 C 
ATOM     26  C   UNL     1      11.171  45.760  28.785  1.00  0.00     0.033 C 
ATOM     27  C   UNL     1      12.152  44.648  28.383  1.00  0.00     0.120 C 
ATOM     28  C   UNL     1      13.418  42.574  29.052  1.00  0.00     0.014 C 
ATOM     29  C   UNL     1      11.340  43.132  30.286  1.00  0.00     0.014 C 
ENDROOT
BRANCH   1  30
ATOM     30  C   UNL     1      17.879  51.681  30.952  1.00  0.00     0.048 C 
ATOM     31  O   UNL     1      18.759  51.168  30.217  1.00  0.00    -0.550 OA
ATOM     32  O   UNL     1      17.559  53.011  30.730  1.00  0.00    -0.550 OA
ENDBRANCH   1  30
BRANCH  27  33
ATOM     33  O   UNL     1      11.626  43.886  27.320  1.00  0.00    -0.393 OA
ATOM     34  H   UNL     1      12.332  43.779  26.631  1.00  0.00     0.210 HD
ENDBRANCH  27  33
TORSDOF 2
ENDMDL
MODEL 8
REMARK VINA RESULT:    -7.655      3.692      7.809
REMARK INTER + INTRA:          -8.608
REMARK INTER:                  -8.391
REMARK INTRA:                  -0.217
REMARK UNBOUND:                -0.282
REMARK SMILES CC1(C)CC[C@]2(C(=O)[O-])CC[C@@]3(C)C(=CC[C@@H]4[C@@]5(C)CC[C@H](O)C(C)(C)[C@H]5CC[C@@]43C)[C@@H]2C1
REMARK SMILES IDX 6 1 5 2 10 3 32 4 4 5 11 6 14 7 33 8 2 9 12 10 15 11 1 12
REMARK SMILES IDX 3 13 13 14 30 15 16 16 17 17 29 18 31 19 18 20 28 21 27 22
REMARK SMILES IDX 20 23 19 24 24 25 21 26 22 27 25 28 26 29 7 30 8 31 9 32
REMARK SMILES IDX 23 33
REMARK H PARENT 23 34
REMARK Flexibility Score: inf
ROOT
ATOM      1  C   UNL     1      10.854  49.507  32.648  1.00  0.00     0.017 C 
ATOM      2  C   UNL     1      11.242  51.001  32.392  1.00  0.00     0.014 C 
ATOM      3  C   UNL     1      12.189  48.734  32.913  1.00  0.00     0.014 C 
ATOM      4  C   UNL     1      10.109  48.896  31.378  1.00  0.00     0.028 C 
ATOM      5  C   UNL     1      10.092  51.906  31.888  1.00  0.00     0.007 C 
ATOM      6  C   UNL     1      12.067  47.184  32.948  1.00  0.00     0.013 C 
ATOM      7  C   UNL     1      10.852  47.636  30.837  1.00  0.00    -0.064 C 
ATOM      8  C   UNL     1       9.819  49.954  30.269  1.00  0.00     0.015 C 
ATOM      9  C   UNL     1       9.183  51.263  30.789  1.00  0.00    -0.035 C 
ATOM     10  C   UNL     1      11.134  46.531  31.851  1.00  0.00    -0.006 C 
ATOM     11  C   UNL     1      11.506  47.660  29.660  1.00  0.00    -0.027 C 
ATOM     12  C   UNL     1       7.754  50.995  31.318  1.00  0.00     0.011 C 
ATOM     13  C   UNL     1       9.051  52.243  29.599  1.00  0.00     0.011 C 
ATOM     14  C   UNL     1       9.756  46.143  32.504  1.00  0.00     0.017 C 
ATOM     15  C   UNL     1      11.810  45.210  31.191  1.00  0.00    -0.020 C 
ATOM     16  C   UNL     1      12.648  46.772  29.284  1.00  0.00     0.032 C 
ATOM     17  C   UNL     1      13.019  45.600  30.246  1.00  0.00     0.006 C 
ATOM     18  C   UNL     1      10.768  44.356  30.371  1.00  0.00     0.008 C 
ATOM     19  C   UNL     1      12.319  44.316  32.376  1.00  0.00     0.012 C 
ATOM     20  C   UNL     1      13.686  44.382  29.431  1.00  0.00    -0.025 C 
ATOM     21  C   UNL     1      11.116  44.039  28.910  1.00  0.00     0.005 C 
ATOM     22  C   UNL     1      12.584  43.583  28.595  1.00  0.00     0.003 C 
ATOM     23  C   UNL     1      14.577  43.483  30.396  1.00  0.00     0.010 C 
ATOM     24  C   UNL     1      14.723  44.995  28.418  1.00  0.00     0.012 C 
ATOM     25  C   UNL     1      12.809  42.018  28.501  1.00  0.00    -0.006 C 
ATOM     26  C   UNL     1      14.249  41.986  30.623  1.00  0.00     0.033 C 
ATOM     27  C   UNL     1      12.984  41.456  29.931  1.00  0.00     0.120 C 
ATOM     28  C   UNL     1      11.613  41.295  27.822  1.00  0.00     0.014 C 
ATOM     29  C   UNL     1      14.049  41.710  27.611  1.00  0.00     0.014 C 
ENDROOT
BRANCH   1  30
ATOM     30  C   UNL     1       9.998  49.454  33.928  1.00  0.00     0.048 C 
ATOM     31  O   UNL     1       8.752  49.301  33.874  1.00  0.00    -0.550 OA
ATOM     32  O   UNL     1      10.577  49.530  35.184  1.00  0.00    -0.550 OA
ENDBRANCH   1  30
BRANCH  27  33
ATOM     33  O   UNL     1      12.962  40.046  29.956  1.00  0.00    -0.393 OA
ATOM     34  H   UNL     1      12.478  39.726  29.151  1.00  0.00     0.210 HD
ENDBRANCH  27  33
TORSDOF 2
ENDMDL
MODEL 9
REMARK VINA RESULT:    -7.556      1.813      3.172
REMARK INTER + INTRA:          -8.500
REMARK INTER:                  -9.163
REMARK INTRA:                   0.663
REMARK UNBOUND:                -0.282
REMARK SMILES CC1(C)CC[C@]2(C(=O)[O-])CC[C@@]3(C)C(=CC[C@@H]4[C@@]5(C)CC[C@H](O)C(C)(C)[C@H]5CC[C@@]43C)[C@@H]2C1
REMARK SMILES IDX 6 1 5 2 10 3 32 4 4 5 11 6 14 7 33 8 2 9 12 10 15 11 1 12
REMARK SMILES IDX 3 13 13 14 30 15 16 16 17 17 29 18 31 19 18 20 28 21 27 22
REMARK SMILES IDX 20 23 19 24 24 25 21 26 22 27 25 28 26 29 7 30 8 31 9 32
REMARK SMILES IDX 23 33
REMARK H PARENT 23 34
REMARK Flexibility Score: inf
ROOT
ATOM      1  C   UNL     1      14.374  45.706  28.836  1.00  0.00     0.017 C 
ATOM      2  C   UNL     1      14.822  44.302  28.310  1.00  0.00     0.014 C 
ATOM      3  C   UNL     1      15.365  46.753  28.225  1.00  0.00     0.014 C 
ATOM      4  C   UNL     1      14.439  45.755  30.427  1.00  0.00     0.028 C 
ATOM      5  C   UNL     1      14.115  43.093  28.968  1.00  0.00     0.007 C 
ATOM      6  C   UNL     1      15.261  48.190  28.809  1.00  0.00     0.013 C 
ATOM      7  C   UNL     1      15.370  46.903  30.922  1.00  0.00    -0.064 C 
ATOM      8  C   UNL     1      14.780  44.374  31.070  1.00  0.00     0.015 C 
ATOM      9  C   UNL     1      13.948  43.193  30.520  1.00  0.00    -0.035 C 
ATOM     10  C   UNL     1      15.075  48.297  30.375  1.00  0.00    -0.006 C 
ATOM     11  C   UNL     1      16.556  46.641  31.506  1.00  0.00    -0.027 C 
ATOM     12  C   UNL     1      12.463  43.345  30.925  1.00  0.00     0.011 C 
ATOM     13  C   UNL     1      14.468  41.891  31.173  1.00  0.00     0.011 C 
ATOM     14  C   UNL     1      13.566  48.607  30.699  1.00  0.00     0.017 C 
ATOM     15  C   UNL     1      16.015  49.453  31.020  1.00  0.00    -0.020 C 
ATOM     16  C   UNL     1      17.731  47.564  31.537  1.00  0.00     0.032 C 
ATOM     17  C   UNL     1      17.538  49.021  31.009  1.00  0.00     0.006 C 
ATOM     18  C   UNL     1      15.589  49.812  32.495  1.00  0.00     0.008 C 
ATOM     19  C   UNL     1      15.815  50.742  30.148  1.00  0.00     0.012 C 
ATOM     20  C   UNL     1      18.553  50.032  31.743  1.00  0.00    -0.025 C 
ATOM     21  C   UNL     1      16.674  49.726  33.578  1.00  0.00     0.005 C 
ATOM     22  C   UNL     1      18.085  50.324  33.243  1.00  0.00     0.003 C 
ATOM     23  C   UNL     1      18.794  51.329  30.852  1.00  0.00     0.010 C 
ATOM     24  C   UNL     1      19.966  49.339  31.795  1.00  0.00     0.012 C 
ATOM     25  C   UNL     1      18.344  51.799  33.757  1.00  0.00    -0.006 C 
ATOM     26  C   UNL     1      18.413  52.738  31.372  1.00  0.00     0.033 C 
ATOM     27  C   UNL     1      17.727  52.793  32.745  1.00  0.00     0.120 C 
ATOM     28  C   UNL     1      17.711  52.050  35.154  1.00  0.00     0.014 C 
ATOM     29  C   UNL     1      19.872  52.042  33.936  1.00  0.00     0.014 C 
ENDROOT
BRANCH   1  30
ATOM     30  C   UNL     1      12.964  45.990  28.284  1.00  0.00     0.048 C 
ATOM     31  O   UNL     1      12.533  47.165  28.168  1.00  0.00    -0.550 OA
ATOM     32  O   UNL     1      12.138  44.963  27.857  1.00  0.00    -0.550 OA
ENDBRANCH   1  30
BRANCH  27  33
ATOM     33  O   UNL     1      17.712  54.114  33.237  1.00  0.00    -0.393 OA
ATOM     34  H   UNL     1      17.140  54.140  34.047  1.00  0.00     0.210 HD
ENDBRANCH  27  33
TORSDOF 2
ENDMDL
