MODEL 1
REMARK VINA RESULT:    -3.391      0.000      0.000
REMARK INTER + INTRA:         -11.992
REMARK INTER:                  -7.751
REMARK INTRA:                  -4.241
REMARK UNBOUND:                -4.241
REMARK SMILES CCCCCCCCCCCCCCCCCCCCCCCC(=O)[O-]
REMARK SMILES IDX 13 1 14 2 15 3 16 4 17 5 18 6 19 7 20 8 21 9 22 10 23 11
REMARK SMILES IDX 24 12 25 13 26 14 12 15 11 16 10 17 9 18 8 19 7 20 6 21 5 22
REMARK SMILES IDX 4 23 3 24 2 25 1 26
REMARK H PARENT
REMARK Flexibility Score: inf
ROOT
ATOM      1  C   UNL     1      -7.961   5.566  37.961  1.00  0.00     0.000 C 
ENDROOT
BRANCH   1   2
ATOM      2  C   UNL     1      -9.150   5.038  37.138  1.00  0.00     0.000 C 
BRANCH   2   3
ATOM      3  C   UNL     1      -9.480   3.548  37.349  1.00  0.00     0.000 C 
BRANCH   3   4
ATOM      4  C   UNL     1     -10.989   3.273  37.430  1.00  0.00     0.000 C 
BRANCH   4   5
ATOM      5  C   UNL     1     -11.310   2.318  38.586  1.00  0.00     0.000 C 
BRANCH   5   6
ATOM      6  C   UNL     1     -10.090   2.129  39.500  1.00  0.00     0.000 C 
BRANCH   6   7
ATOM      7  C   UNL     1      -9.642   0.662  39.585  1.00  0.00     0.000 C 
BRANCH   7   8
ATOM      8  C   UNL     1      -8.420   0.367  38.698  1.00  0.00     0.000 C 
BRANCH   8   9
ATOM      9  C   UNL     1      -7.190  -0.063  39.513  1.00  0.00     0.000 C 
BRANCH   9  10
ATOM     10  C   UNL     1      -6.785  -1.523  39.240  1.00  0.00     0.006 C 
BRANCH  10  11
ATOM     11  C   UNL     1      -7.692  -2.194  38.200  1.00  0.00     0.053 C 
BRANCH  11  12
ATOM     12  C   UNL     1      -8.432  -3.364  38.775  1.00  0.00     0.041 C 
ATOM     13  O   UNL     1      -8.494  -3.527  40.022  1.00  0.00    -0.550 OA
ATOM     14  O   UNL     1      -9.082  -4.256  37.931  1.00  0.00    -0.550 OA
ENDBRANCH  11  12
ENDBRANCH  10  11
ENDBRANCH   9  10
ENDBRANCH   8   9
ENDBRANCH   7   8
ENDBRANCH   6   7
ENDBRANCH   5   6
ENDBRANCH   4   5
ENDBRANCH   3   4
ENDBRANCH   2   3
ENDBRANCH   1   2
BRANCH   1  15
ATOM     15  C   UNL     1      -7.731   4.771  39.259  1.00  0.00     0.000 C 
BRANCH  15  16
ATOM     16  C   UNL     1      -6.284   4.273  39.396  1.00  0.00     0.000 C 
BRANCH  16  17
ATOM     17  C   UNL     1      -5.927   3.209  38.344  1.00  0.00     0.000 C 
BRANCH  17  18
ATOM     18  C   UNL     1      -4.700   3.592  37.495  1.00  0.00    -0.000 C 
BRANCH  18  19
ATOM     19  C   UNL     1      -3.431   2.760  37.758  1.00  0.00    -0.000 C 
BRANCH  19  20
ATOM     20  C   UNL     1      -3.681   1.555  38.678  1.00  0.00    -0.000 C 
BRANCH  20  21
ATOM     21  C   UNL     1      -3.739   0.223  37.910  1.00  0.00    -0.000 C 
BRANCH  21  22
ATOM     22  C   UNL     1      -3.098   0.287  36.506  1.00  0.00    -0.000 C 
BRANCH  22  23
ATOM     23  C   UNL     1      -4.142   0.149  35.385  1.00  0.00    -0.000 C 
BRANCH  23  24
ATOM     24  C   UNL     1      -5.566  -0.095  35.919  1.00  0.00    -0.000 C 
BRANCH  24  25
ATOM     25  C   UNL     1      -6.595   0.981  35.527  1.00  0.00    -0.003 C 
ATOM     26  C   UNL     1      -7.967   0.401  35.186  1.00  0.00     0.004 C 
ENDBRANCH  24  25
ENDBRANCH  23  24
ENDBRANCH  22  23
ENDBRANCH  21  22
ENDBRANCH  20  21
ENDBRANCH  19  20
ENDBRANCH  18  19
ENDBRANCH  17  18
ENDBRANCH  16  17
ENDBRANCH  15  16
ENDBRANCH   1  15
TORSDOF 22
ENDMDL
MODEL 2
REMARK VINA RESULT:    -3.299      2.225      5.805
REMARK INTER + INTRA:         -11.782
REMARK INTER:                  -7.859
REMARK INTRA:                  -3.923
REMARK UNBOUND:                -4.241
REMARK SMILES CCCCCCCCCCCCCCCCCCCCCCCC(=O)[O-]
REMARK SMILES IDX 13 1 14 2 15 3 16 4 17 5 18 6 19 7 20 8 21 9 22 10 23 11
REMARK SMILES IDX 24 12 25 13 26 14 12 15 11 16 10 17 9 18 8 19 7 20 6 21 5 22
REMARK SMILES IDX 4 23 3 24 2 25 1 26
REMARK H PARENT
REMARK Flexibility Score: inf
ROOT
ATOM      1  C   UNL     1      -8.675   4.858  36.932  1.00  0.00     0.000 C 
ENDROOT
BRANCH   1   2
ATOM      2  C   UNL     1      -8.071   5.833  37.959  1.00  0.00     0.000 C 
BRANCH   2   3
ATOM      3  C   UNL     1      -7.709   5.208  39.319  1.00  0.00     0.000 C 
BRANCH   3   4
ATOM      4  C   UNL     1      -7.931   3.688  39.359  1.00  0.00     0.000 C 
BRANCH   4   5
ATOM      5  C   UNL     1      -6.652   2.959  39.789  1.00  0.00     0.000 C 
BRANCH   5   6
ATOM      6  C   UNL     1      -5.463   3.929  39.862  1.00  0.00     0.000 C 
BRANCH   6   7
ATOM      7  C   UNL     1      -4.158   3.297  39.352  1.00  0.00     0.000 C 
BRANCH   7   8
ATOM      8  C   UNL     1      -4.403   2.246  38.254  1.00  0.00     0.000 C 
BRANCH   8   9
ATOM      9  C   UNL     1      -3.559   0.977  38.454  1.00  0.00     0.000 C 
BRANCH   9  10
ATOM     10  C   UNL     1      -4.301  -0.298  38.014  1.00  0.00     0.006 C 
BRANCH  10  11
ATOM     11  C   UNL     1      -5.782  -0.035  37.712  1.00  0.00     0.053 C 
BRANCH  11  12
ATOM     12  C   UNL     1      -6.350  -1.047  36.764  1.00  0.00     0.041 C 
ATOM     13  O   UNL     1      -7.199  -1.887  37.165  1.00  0.00    -0.550 OA
ATOM     14  O   UNL     1      -5.963  -1.042  35.430  1.00  0.00    -0.550 OA
ENDBRANCH  11  12
ENDBRANCH  10  11
ENDBRANCH   9  10
ENDBRANCH   8   9
ENDBRANCH   7   8
ENDBRANCH   6   7
ENDBRANCH   5   6
ENDBRANCH   4   5
ENDBRANCH   3   4
ENDBRANCH   2   3
ENDBRANCH   1   2
BRANCH   1  15
ATOM     15  C   UNL     1      -9.913   5.430  36.220  1.00  0.00     0.000 C 
BRANCH  15  16
ATOM     16  C   UNL     1      -9.941   5.090  34.722  1.00  0.00     0.000 C 
BRANCH  16  17
ATOM     17  C   UNL     1     -11.305   4.543  34.269  1.00  0.00     0.000 C 
BRANCH  17  18
ATOM     18  C   UNL     1     -11.201   3.174  33.571  1.00  0.00    -0.000 C 
BRANCH  18  19
ATOM     19  C   UNL     1     -12.159   2.090  34.099  1.00  0.00    -0.000 C 
BRANCH  19  20
ATOM     20  C   UNL     1     -13.217   2.641  35.068  1.00  0.00    -0.000 C 
BRANCH  20  21
ATOM     21  C   UNL     1     -13.077   2.068  36.489  1.00  0.00    -0.000 C 
BRANCH  21  22
ATOM     22  C   UNL     1     -12.616   3.106  37.535  1.00  0.00    -0.000 C 
BRANCH  22  23
ATOM     23  C   UNL     1     -11.323   2.674  38.248  1.00  0.00    -0.000 C 
BRANCH  23  24
ATOM     24  C   UNL     1     -10.883   1.245  37.879  1.00  0.00    -0.000 C 
BRANCH  24  25
ATOM     25  C   UNL     1      -9.391   1.099  37.530  1.00  0.00    -0.003 C 
ATOM     26  C   UNL     1      -9.096   1.351  36.052  1.00  0.00     0.004 C 
ENDBRANCH  24  25
ENDBRANCH  23  24
ENDBRANCH  22  23
ENDBRANCH  21  22
ENDBRANCH  20  21
ENDBRANCH  19  20
ENDBRANCH  18  19
ENDBRANCH  17  18
ENDBRANCH  16  17
ENDBRANCH  15  16
ENDBRANCH   1  15
TORSDOF 22
ENDMDL
MODEL 3
REMARK VINA RESULT:    -3.261      1.451      5.453
REMARK INTER + INTRA:         -11.696
REMARK INTER:                  -7.280
REMARK INTRA:                  -4.416
REMARK UNBOUND:                -4.241
REMARK SMILES CCCCCCCCCCCCCCCCCCCCCCCC(=O)[O-]
REMARK SMILES IDX 13 1 14 2 15 3 16 4 17 5 18 6 19 7 20 8 21 9 22 10 23 11
REMARK SMILES IDX 24 12 25 13 26 14 12 15 11 16 10 17 9 18 8 19 7 20 6 21 5 22
REMARK SMILES IDX 4 23 3 24 2 25 1 26
REMARK H PARENT
REMARK Flexibility Score: inf
ROOT
ATOM      1  C   UNL     1      -5.871  -0.035  34.442  1.00  0.00     0.000 C 
ENDROOT
BRANCH   1   2
ATOM      2  C   UNL     1      -4.494   0.227  33.805  1.00  0.00     0.000 C 
BRANCH   2   3
ATOM      3  C   UNL     1      -3.298  -0.378  34.562  1.00  0.00     0.000 C 
BRANCH   3   4
ATOM      4  C   UNL     1      -2.714   0.571  35.619  1.00  0.00     0.000 C 
BRANCH   4   5
ATOM      5  C   UNL     1      -3.117   0.132  37.032  1.00  0.00     0.000 C 
BRANCH   5   6
ATOM      6  C   UNL     1      -3.600   1.329  37.865  1.00  0.00     0.000 C 
BRANCH   6   7
ATOM      7  C   UNL     1      -5.019   1.123  38.419  1.00  0.00     0.000 C 
BRANCH   7   8
ATOM      8  C   UNL     1      -5.523  -0.318  38.227  1.00  0.00     0.000 C 
BRANCH   8   9
ATOM      9  C   UNL     1      -6.689  -0.665  39.166  1.00  0.00     0.000 C 
BRANCH   9  10
ATOM     10  C   UNL     1      -7.917  -1.200  38.407  1.00  0.00     0.006 C 
BRANCH  10  11
ATOM     11  C   UNL     1      -7.528  -1.936  37.118  1.00  0.00     0.053 C 
BRANCH  11  12
ATOM     12  C   UNL     1      -8.464  -3.066  36.813  1.00  0.00     0.041 C 
ATOM     13  O   UNL     1      -8.893  -3.238  35.641  1.00  0.00    -0.550 OA
ATOM     14  O   UNL     1      -8.837  -3.949  37.819  1.00  0.00    -0.550 OA
ENDBRANCH  11  12
ENDBRANCH  10  11
ENDBRANCH   9  10
ENDBRANCH   8   9
ENDBRANCH   7   8
ENDBRANCH   6   7
ENDBRANCH   5   6
ENDBRANCH   4   5
ENDBRANCH   3   4
ENDBRANCH   2   3
ENDBRANCH   1   2
BRANCH   1  15
ATOM     15  C   UNL     1      -6.536   1.244  34.978  1.00  0.00     0.000 C 
BRANCH  15  16
ATOM     16  C   UNL     1      -5.785   2.518  34.561  1.00  0.00     0.000 C 
BRANCH  16  17
ATOM     17  C   UNL     1      -5.706   3.552  35.697  1.00  0.00     0.000 C 
BRANCH  17  18
ATOM     18  C   UNL     1      -6.975   3.586  36.568  1.00  0.00    -0.000 C 
BRANCH  18  19
ATOM     19  C   UNL     1      -6.987   4.655  37.676  1.00  0.00    -0.000 C 
BRANCH  19  20
ATOM     20  C   UNL     1      -7.808   4.238  38.907  1.00  0.00    -0.000 C 
BRANCH  20  21
ATOM     21  C   UNL     1      -8.198   2.751  38.885  1.00  0.00    -0.000 C 
BRANCH  21  22
ATOM     22  C   UNL     1      -9.723   2.508  38.932  1.00  0.00    -0.000 C 
BRANCH  22  23
ATOM     23  C   UNL     1     -10.328   2.349  37.526  1.00  0.00    -0.000 C 
BRANCH  23  24
ATOM     24  C   UNL     1     -11.194   3.551  37.107  1.00  0.00    -0.000 C 
BRANCH  24  25
ATOM     25  C   UNL     1     -10.729   4.267  35.827  1.00  0.00    -0.003 C 
ATOM     26  C   UNL     1     -10.093   5.630  36.101  1.00  0.00     0.004 C 
ENDBRANCH  24  25
ENDBRANCH  23  24
ENDBRANCH  22  23
ENDBRANCH  21  22
ENDBRANCH  20  21
ENDBRANCH  19  20
ENDBRANCH  18  19
ENDBRANCH  17  18
ENDBRANCH  16  17
ENDBRANCH  15  16
ENDBRANCH   1  15
TORSDOF 22
ENDMDL
MODEL 4
REMARK VINA RESULT:    -3.259      1.466      2.620
REMARK INTER + INTRA:         -11.692
REMARK INTER:                  -6.922
REMARK INTRA:                  -4.770
REMARK UNBOUND:                -4.241
REMARK SMILES CCCCCCCCCCCCCCCCCCCCCCCC(=O)[O-]
REMARK SMILES IDX 13 1 14 2 15 3 16 4 17 5 18 6 19 7 20 8 21 9 22 10 23 11
REMARK SMILES IDX 24 12 25 13 26 14 12 15 11 16 10 17 9 18 8 19 7 20 6 21 5 22
REMARK SMILES IDX 4 23 3 24 2 25 1 26
REMARK H PARENT
REMARK Flexibility Score: inf
ROOT
ATOM      1  C   UNL     1      -8.472   2.219  34.839  1.00  0.00     0.000 C 
ENDROOT
BRANCH   1   2
ATOM      2  C   UNL     1      -9.761   3.051  34.716  1.00  0.00     0.000 C 
BRANCH   2   3
ATOM      3  C   UNL     1     -10.272   3.662  36.034  1.00  0.00     0.000 C 
BRANCH   3   4
ATOM      4  C   UNL     1      -9.697   5.060  36.310  1.00  0.00     0.000 C 
BRANCH   4   5
ATOM      5  C   UNL     1      -8.734   5.030  37.503  1.00  0.00     0.000 C 
BRANCH   5   6
ATOM      6  C   UNL     1      -8.852   3.706  38.274  1.00  0.00     0.000 C 
BRANCH   6   7
ATOM      7  C   UNL     1      -7.896   3.639  39.474  1.00  0.00     0.000 C 
BRANCH   7   8
ATOM      8  C   UNL     1      -7.516   2.194  39.845  1.00  0.00     0.000 C 
BRANCH   8   9
ATOM      9  C   UNL     1      -7.756   1.208  38.691  1.00  0.00     0.000 C 
BRANCH   9  10
ATOM     10  C   UNL     1      -6.864  -0.044  38.792  1.00  0.00     0.006 C 
BRANCH  10  11
ATOM     11  C   UNL     1      -7.353  -1.180  37.885  1.00  0.00     0.053 C 
BRANCH  11  12
ATOM     12  C   UNL     1      -8.007  -2.279  38.666  1.00  0.00     0.041 C 
ATOM     13  O   UNL     1      -7.628  -2.538  39.839  1.00  0.00    -0.550 OA
ATOM     14  O   UNL     1      -9.058  -2.997  38.108  1.00  0.00    -0.550 OA
ENDBRANCH  11  12
ENDBRANCH  10  11
ENDBRANCH   9  10
ENDBRANCH   8   9
ENDBRANCH   7   8
ENDBRANCH   6   7
ENDBRANCH   5   6
ENDBRANCH   4   5
ENDBRANCH   3   4
ENDBRANCH   2   3
ENDBRANCH   1   2
BRANCH   1  15
ATOM     15  C   UNL     1      -7.364   2.687  33.878  1.00  0.00     0.000 C 
BRANCH  15  16
ATOM     16  C   UNL     1      -6.326   3.586  34.569  1.00  0.00     0.000 C 
BRANCH  16  17
ATOM     17  C   UNL     1      -5.991   3.109  35.992  1.00  0.00     0.000 C 
BRANCH  17  18
ATOM     18  C   UNL     1      -5.149   4.128  36.784  1.00  0.00    -0.000 C 
BRANCH  18  19
ATOM     19  C   UNL     1      -4.603   3.625  38.133  1.00  0.00    -0.000 C 
BRANCH  19  20
ATOM     20  C   UNL     1      -3.339   2.763  37.987  1.00  0.00    -0.000 C 
BRANCH  20  21
ATOM     21  C   UNL     1      -3.521   1.341  38.546  1.00  0.00    -0.000 C 
BRANCH  21  22
ATOM     22  C   UNL     1      -3.493   0.240  37.465  1.00  0.00    -0.000 C 
BRANCH  22  23
ATOM     23  C   UNL     1      -3.040   0.782  36.098  1.00  0.00    -0.000 C 
BRANCH  23  24
ATOM     24  C   UNL     1      -3.653   0.010  34.914  1.00  0.00    -0.000 C 
BRANCH  24  25
ATOM     25  C   UNL     1      -5.098  -0.472  35.137  1.00  0.00    -0.003 C 
ATOM     26  C   UNL     1      -5.874  -0.657  33.833  1.00  0.00     0.004 C 
ENDBRANCH  24  25
ENDBRANCH  23  24
ENDBRANCH  22  23
ENDBRANCH  21  22
ENDBRANCH  20  21
ENDBRANCH  19  20
ENDBRANCH  18  19
ENDBRANCH  17  18
ENDBRANCH  16  17
ENDBRANCH  15  16
ENDBRANCH   1  15
TORSDOF 22
ENDMDL
MODEL 5
REMARK VINA RESULT:    -3.253      2.682      6.128
REMARK INTER + INTRA:         -11.677
REMARK INTER:                  -7.167
REMARK INTRA:                  -4.511
REMARK UNBOUND:                -4.241
REMARK SMILES CCCCCCCCCCCCCCCCCCCCCCCC(=O)[O-]
REMARK SMILES IDX 13 1 14 2 15 3 16 4 17 5 18 6 19 7 20 8 21 9 22 10 23 11
REMARK SMILES IDX 24 12 25 13 26 14 12 15 11 16 10 17 9 18 8 19 7 20 6 21 5 22
REMARK SMILES IDX 4 23 3 24 2 25 1 26
REMARK H PARENT
REMARK Flexibility Score: inf
ROOT
ATOM      1  C   UNL     1      -7.891  -0.188  36.366  1.00  0.00     0.000 C 
ENDROOT
BRANCH   1   2
ATOM      2  C   UNL     1      -7.830   1.295  35.956  1.00  0.00     0.000 C 
BRANCH   2   3
ATOM      3  C   UNL     1      -6.413   1.894  35.881  1.00  0.00     0.000 C 
BRANCH   3   4
ATOM      4  C   UNL     1      -6.406   3.428  35.953  1.00  0.00     0.000 C 
BRANCH   4   5
ATOM      5  C   UNL     1      -5.263   3.929  36.844  1.00  0.00     0.000 C 
BRANCH   5   6
ATOM      6  C   UNL     1      -5.649   3.858  38.329  1.00  0.00     0.000 C 
BRANCH   6   7
ATOM      7  C   UNL     1      -4.753   2.894  39.123  1.00  0.00     0.000 C 
BRANCH   7   8
ATOM      8  C   UNL     1      -3.603   2.324  38.273  1.00  0.00     0.000 C 
BRANCH   8   9
ATOM      9  C   UNL     1      -3.504   0.794  38.367  1.00  0.00     0.000 C 
BRANCH   9  10
ATOM     10  C   UNL     1      -3.032   0.153  37.049  1.00  0.00     0.006 C 
BRANCH  10  11
ATOM     11  C   UNL     1      -2.866   1.185  35.927  1.00  0.00     0.053 C 
BRANCH  11  12
ATOM     12  C   UNL     1      -2.977   0.560  34.569  1.00  0.00     0.041 C 
ATOM     13  O   UNL     1      -2.951  -0.693  34.443  1.00  0.00    -0.550 OA
ATOM     14  O   UNL     1      -3.141   1.362  33.447  1.00  0.00    -0.550 OA
ENDBRANCH  11  12
ENDBRANCH  10  11
ENDBRANCH   9  10
ENDBRANCH   8   9
ENDBRANCH   7   8
ENDBRANCH   6   7
ENDBRANCH   5   6
ENDBRANCH   4   5
ENDBRANCH   3   4
ENDBRANCH   2   3
ENDBRANCH   1   2
BRANCH   1  15
ATOM     15  C   UNL     1      -6.604  -0.672  37.057  1.00  0.00     0.000 C 
BRANCH  15  16
ATOM     16  C   UNL     1      -6.711  -0.640  38.590  1.00  0.00     0.000 C 
BRANCH  16  17
ATOM     17  C   UNL     1      -8.130  -0.964  39.086  1.00  0.00     0.000 C 
BRANCH  17  18
ATOM     18  C   UNL     1      -8.679   0.091  40.066  1.00  0.00    -0.000 C 
BRANCH  18  19
ATOM     19  C   UNL     1      -8.073   1.499  39.926  1.00  0.00    -0.000 C 
BRANCH  19  20
ATOM     20  C   UNL     1      -8.977   2.469  39.149  1.00  0.00    -0.000 C 
BRANCH  20  21
ATOM     21  C   UNL     1     -10.455   2.043  39.160  1.00  0.00    -0.000 C 
BRANCH  21  22
ATOM     22  C   UNL     1     -10.925   1.393  37.840  1.00  0.00    -0.000 C 
BRANCH  22  23
ATOM     23  C   UNL     1     -12.029   2.214  37.152  1.00  0.00    -0.000 C 
BRANCH  23  24
ATOM     24  C   UNL     1     -11.708   3.719  37.091  1.00  0.00    -0.000 C 
BRANCH  24  25
ATOM     25  C   UNL     1     -10.649   4.111  36.045  1.00  0.00    -0.003 C 
ATOM     26  C   UNL     1      -9.660   5.158  36.558  1.00  0.00     0.004 C 
ENDBRANCH  24  25
ENDBRANCH  23  24
ENDBRANCH  22  23
ENDBRANCH  21  22
ENDBRANCH  20  21
ENDBRANCH  19  20
ENDBRANCH  18  19
ENDBRANCH  17  18
ENDBRANCH  16  17
ENDBRANCH  15  16
ENDBRANCH   1  15
TORSDOF 22
ENDMDL
MODEL 6
REMARK VINA RESULT:    -3.248      2.460      5.802
REMARK INTER + INTRA:         -11.667
REMARK INTER:                  -7.347
REMARK INTRA:                  -4.320
REMARK UNBOUND:                -4.241
REMARK SMILES CCCCCCCCCCCCCCCCCCCCCCCC(=O)[O-]
REMARK SMILES IDX 13 1 14 2 15 3 16 4 17 5 18 6 19 7 20 8 21 9 22 10 23 11
REMARK SMILES IDX 24 12 25 13 26 14 12 15 11 16 10 17 9 18 8 19 7 20 6 21 5 22
REMARK SMILES IDX 4 23 3 24 2 25 1 26
REMARK H PARENT
REMARK Flexibility Score: inf
ROOT
ATOM      1  C   UNL     1      -8.835   4.048  35.534  1.00  0.00     0.000 C 
ENDROOT
BRANCH   1   2
ATOM      2  C   UNL     1      -9.390   4.840  36.731  1.00  0.00     0.000 C 
BRANCH   2   3
ATOM      3  C   UNL     1      -8.326   5.516  37.616  1.00  0.00     0.000 C 
BRANCH   3   4
ATOM      4  C   UNL     1      -7.944   4.676  38.844  1.00  0.00     0.000 C 
BRANCH   4   5
ATOM      5  C   UNL     1      -6.473   4.249  38.779  1.00  0.00     0.000 C 
BRANCH   5   6
ATOM      6  C   UNL     1      -6.278   2.847  39.377  1.00  0.00     0.000 C 
BRANCH   6   7
ATOM      7  C   UNL     1      -5.515   1.906  38.432  1.00  0.00     0.000 C 
BRANCH   7   8
ATOM      8  C   UNL     1      -5.887   0.428  38.646  1.00  0.00     0.000 C 
BRANCH   8   9
ATOM      9  C   UNL     1      -5.079  -0.519  37.745  1.00  0.00     0.000 C 
BRANCH   9  10
ATOM     10  C   UNL     1      -4.967  -0.003  36.299  1.00  0.00     0.006 C 
BRANCH  10  11
ATOM     11  C   UNL     1      -6.122  -0.494  35.415  1.00  0.00     0.053 C 
BRANCH  11  12
ATOM     12  C   UNL     1      -5.814  -1.812  34.772  1.00  0.00     0.041 C 
ATOM     13  O   UNL     1      -6.602  -2.785  34.907  1.00  0.00    -0.550 OA
ATOM     14  O   UNL     1      -4.670  -1.955  33.996  1.00  0.00    -0.550 OA
ENDBRANCH  11  12
ENDBRANCH  10  11
ENDBRANCH   9  10
ENDBRANCH   8   9
ENDBRANCH   7   8
ENDBRANCH   6   7
ENDBRANCH   5   6
ENDBRANCH   4   5
ENDBRANCH   3   4
ENDBRANCH   2   3
ENDBRANCH   1   2
BRANCH   1  15
ATOM     15  C   UNL     1      -9.321   2.587  35.505  1.00  0.00     0.000 C 
BRANCH  15  16
ATOM     16  C   UNL     1      -8.578   1.700  36.516  1.00  0.00     0.000 C 
BRANCH  16  17
ATOM     17  C   UNL     1      -9.537   0.847  37.365  1.00  0.00     0.000 C 
BRANCH  17  18
ATOM     18  C   UNL     1      -9.568   1.271  38.845  1.00  0.00    -0.000 C 
BRANCH  18  19
ATOM     19  C   UNL     1     -10.726   2.207  39.240  1.00  0.00    -0.000 C 
BRANCH  19  20
ATOM     20  C   UNL     1     -11.970   2.030  38.356  1.00  0.00    -0.000 C 
BRANCH  20  21
ATOM     21  C   UNL     1     -12.535   3.369  37.850  1.00  0.00    -0.000 C 
BRANCH  21  22
ATOM     22  C   UNL     1     -13.346   3.247  36.541  1.00  0.00    -0.000 C 
BRANCH  22  23
ATOM     23  C   UNL     1     -12.871   2.068  35.674  1.00  0.00    -0.000 C 
BRANCH  23  24
ATOM     24  C   UNL     1     -12.758   2.430  34.181  1.00  0.00    -0.000 C 
BRANCH  24  25
ATOM     25  C   UNL     1     -13.045   3.906  33.851  1.00  0.00    -0.003 C 
ATOM     26  C   UNL     1     -11.799   4.672  33.406  1.00  0.00     0.004 C 
ENDBRANCH  24  25
ENDBRANCH  23  24
ENDBRANCH  22  23
ENDBRANCH  21  22
ENDBRANCH  20  21
ENDBRANCH  19  20
ENDBRANCH  18  19
ENDBRANCH  17  18
ENDBRANCH  16  17
ENDBRANCH  15  16
ENDBRANCH   1  15
TORSDOF 22
ENDMDL
MODEL 7
REMARK VINA RESULT:    -3.216      2.765      5.184
REMARK INTER + INTRA:         -11.594
REMARK INTER:                  -7.291
REMARK INTRA:                  -4.303
REMARK UNBOUND:                -4.241
REMARK SMILES CCCCCCCCCCCCCCCCCCCCCCCC(=O)[O-]
REMARK SMILES IDX 13 1 14 2 15 3 16 4 17 5 18 6 19 7 20 8 21 9 22 10 23 11
REMARK SMILES IDX 24 12 25 13 26 14 12 15 11 16 10 17 9 18 8 19 7 20 6 21 5 22
REMARK SMILES IDX 4 23 3 24 2 25 1 26
REMARK H PARENT
REMARK Flexibility Score: inf
ROOT
ATOM      1  C   UNL     1      -7.268  -0.341  36.378  1.00  0.00     0.000 C 
ENDROOT
BRANCH   1   2
ATOM      2  C   UNL     1      -8.242  -0.416  37.568  1.00  0.00     0.000 C 
BRANCH   2   3
ATOM      3  C   UNL     1      -8.853   0.931  37.998  1.00  0.00     0.000 C 
BRANCH   3   4
ATOM      4  C   UNL     1      -8.845   1.134  39.520  1.00  0.00     0.000 C 
BRANCH   4   5
ATOM      5  C   UNL     1      -8.945   2.623  39.874  1.00  0.00     0.000 C 
BRANCH   5   6
ATOM      6  C   UNL     1      -7.699   3.387  39.401  1.00  0.00     0.000 C 
BRANCH   6   7
ATOM      7  C   UNL     1      -7.976   4.883  39.180  1.00  0.00     0.000 C 
BRANCH   7   8
ATOM      8  C   UNL     1      -7.805   5.303  37.709  1.00  0.00     0.000 C 
BRANCH   8   9
ATOM      9  C   UNL     1      -9.151   5.492  36.991  1.00  0.00     0.000 C 
BRANCH   9  10
ATOM     10  C   UNL     1      -9.655   4.194  36.336  1.00  0.00     0.006 C 
BRANCH  10  11
ATOM     11  C   UNL     1     -10.998   3.732  36.917  1.00  0.00     0.053 C 
BRANCH  11  12
ATOM     12  C   UNL     1     -12.003   3.441  35.844  1.00  0.00     0.041 C 
ATOM     13  O   UNL     1     -11.873   3.946  34.697  1.00  0.00    -0.550 OA
ATOM     14  O   UNL     1     -13.066   2.584  36.103  1.00  0.00    -0.550 OA
ENDBRANCH  11  12
ENDBRANCH  10  11
ENDBRANCH   9  10
ENDBRANCH   8   9
ENDBRANCH   7   8
ENDBRANCH   6   7
ENDBRANCH   5   6
ENDBRANCH   4   5
ENDBRANCH   3   4
ENDBRANCH   2   3
ENDBRANCH   1   2
BRANCH   1  15
ATOM     15  C   UNL     1      -5.865  -0.874  36.719  1.00  0.00     0.000 C 
BRANCH  15  16
ATOM     16  C   UNL     1      -5.362  -0.381  38.084  1.00  0.00     0.000 C 
BRANCH  16  17
ATOM     17  C   UNL     1      -3.846  -0.119  38.092  1.00  0.00     0.000 C 
BRANCH  17  18
ATOM     18  C   UNL     1      -3.494   1.371  38.256  1.00  0.00    -0.000 C 
BRANCH  18  19
ATOM     19  C   UNL     1      -4.698   2.327  38.347  1.00  0.00    -0.000 C 
BRANCH  19  20
ATOM     20  C   UNL     1      -4.738   3.355  37.205  1.00  0.00    -0.000 C 
BRANCH  20  21
ATOM     21  C   UNL     1      -5.678   2.936  36.061  1.00  0.00    -0.000 C 
BRANCH  21  22
ATOM     22  C   UNL     1      -4.985   2.864  34.683  1.00  0.00    -0.000 C 
BRANCH  22  23
ATOM     23  C   UNL     1      -4.561   1.430  34.322  1.00  0.00    -0.000 C 
BRANCH  23  24
ATOM     24  C   UNL     1      -3.085   1.139  34.653  1.00  0.00    -0.000 C 
BRANCH  24  25
ATOM     25  C   UNL     1      -2.650  -0.321  34.435  1.00  0.00    -0.003 C 
ATOM     26  C   UNL     1      -3.567  -1.081  33.477  1.00  0.00     0.004 C 
ENDBRANCH  24  25
ENDBRANCH  23  24
ENDBRANCH  22  23
ENDBRANCH  21  22
ENDBRANCH  20  21
ENDBRANCH  19  20
ENDBRANCH  18  19
ENDBRANCH  17  18
ENDBRANCH  16  17
ENDBRANCH  15  16
ENDBRANCH   1  15
TORSDOF 22
ENDMDL
MODEL 8
REMARK VINA RESULT:    -3.195      1.308      2.857
REMARK INTER + INTRA:         -11.545
REMARK INTER:                  -7.685
REMARK INTRA:                  -3.861
REMARK UNBOUND:                -4.241
REMARK SMILES CCCCCCCCCCCCCCCCCCCCCCCC(=O)[O-]
REMARK SMILES IDX 13 1 14 2 15 3 16 4 17 5 18 6 19 7 20 8 21 9 22 10 23 11
REMARK SMILES IDX 24 12 25 13 26 14 12 15 11 16 10 17 9 18 8 19 7 20 6 21 5 22
REMARK SMILES IDX 4 23 3 24 2 25 1 26
REMARK H PARENT
REMARK Flexibility Score: inf
ROOT
ATOM      1  C   UNL     1     -10.959   4.178  34.963  1.00  0.00     0.000 C 
ENDROOT
BRANCH   1   2
ATOM      2  C   UNL     1     -11.321   2.923  35.779  1.00  0.00     0.000 C 
BRANCH   2   3
ATOM      3  C   UNL     1     -12.769   2.880  36.302  1.00  0.00     0.000 C 
BRANCH   3   4
ATOM      4  C   UNL     1     -12.870   3.148  37.811  1.00  0.00     0.000 C 
BRANCH   4   5
ATOM      5  C   UNL     1     -11.655   2.576  38.551  1.00  0.00     0.000 C 
BRANCH   5   6
ATOM      6  C   UNL     1     -12.074   1.465  39.525  1.00  0.00     0.000 C 
BRANCH   6   7
ATOM      7  C   UNL     1     -11.475   0.100  39.151  1.00  0.00     0.000 C 
BRANCH   7   8
ATOM      8  C   UNL     1     -10.000   0.202  38.720  1.00  0.00     0.000 C 
BRANCH   8   9
ATOM      9  C   UNL     1      -9.028  -0.050  39.882  1.00  0.00     0.000 C 
BRANCH   9  10
ATOM     10  C   UNL     1      -7.781  -0.840  39.445  1.00  0.00     0.006 C 
BRANCH  10  11
ATOM     11  C   UNL     1      -8.077  -1.801  38.286  1.00  0.00     0.053 C 
BRANCH  11  12
ATOM     12  C   UNL     1      -8.373  -3.188  38.770  1.00  0.00     0.041 C 
ATOM     13  O   UNL     1      -8.768  -4.072  37.964  1.00  0.00    -0.550 OA
ATOM     14  O   UNL     1      -8.182  -3.512  40.108  1.00  0.00    -0.550 OA
ENDBRANCH  11  12
ENDBRANCH  10  11
ENDBRANCH   9  10
ENDBRANCH   8   9
ENDBRANCH   7   8
ENDBRANCH   6   7
ENDBRANCH   5   6
ENDBRANCH   4   5
ENDBRANCH   3   4
ENDBRANCH   2   3
ENDBRANCH   1   2
BRANCH   1  15
ATOM     15  C   UNL     1     -10.197   5.229  35.789  1.00  0.00     0.000 C 
BRANCH  15  16
ATOM     16  C   UNL     1      -9.230   4.596  36.802  1.00  0.00     0.000 C 
BRANCH  16  17
ATOM     17  C   UNL     1      -8.372   5.644  37.531  1.00  0.00     0.000 C 
BRANCH  17  18
ATOM     18  C   UNL     1      -7.739   5.107  38.827  1.00  0.00    -0.000 C 
BRANCH  18  19
ATOM     19  C   UNL     1      -8.030   3.627  39.140  1.00  0.00    -0.000 C 
BRANCH  19  20
ATOM     20  C   UNL     1      -6.812   2.881  39.707  1.00  0.00    -0.000 C 
BRANCH  20  21
ATOM     21  C   UNL     1      -5.475   3.503  39.268  1.00  0.00    -0.000 C 
BRANCH  21  22
ATOM     22  C   UNL     1      -4.369   2.464  38.986  1.00  0.00    -0.000 C 
BRANCH  22  23
ATOM     23  C   UNL     1      -4.357   2.015  37.514  1.00  0.00    -0.000 C 
BRANCH  23  24
ATOM     24  C   UNL     1      -5.138   0.708  37.281  1.00  0.00    -0.000 C 
BRANCH  24  25
ATOM     25  C   UNL     1      -6.090   0.733  36.071  1.00  0.00    -0.003 C 
ATOM     26  C   UNL     1      -7.450   1.351  36.393  1.00  0.00     0.004 C 
ENDBRANCH  24  25
ENDBRANCH  23  24
ENDBRANCH  22  23
ENDBRANCH  21  22
ENDBRANCH  20  21
ENDBRANCH  19  20
ENDBRANCH  18  19
ENDBRANCH  17  18
ENDBRANCH  16  17
ENDBRANCH  15  16
ENDBRANCH   1  15
TORSDOF 22
ENDMDL
MODEL 9
REMARK VINA RESULT:    -3.177      1.843      3.506
REMARK INTER + INTRA:         -11.503
REMARK INTER:                  -6.939
REMARK INTRA:                  -4.564
REMARK UNBOUND:                -4.241
REMARK SMILES CCCCCCCCCCCCCCCCCCCCCCCC(=O)[O-]
REMARK SMILES IDX 13 1 14 2 15 3 16 4 17 5 18 6 19 7 20 8 21 9 22 10 23 11
REMARK SMILES IDX 24 12 25 13 26 14 12 15 11 16 10 17 9 18 8 19 7 20 6 21 5 22
REMARK SMILES IDX 4 23 3 24 2 25 1 26
REMARK H PARENT
REMARK Flexibility Score: inf
ROOT
ATOM      1  C   UNL     1      -9.060   3.810  33.412  1.00  0.00     0.000 C 
ENDROOT
BRANCH   1   2
ATOM      2  C   UNL     1     -10.513   4.266  33.637  1.00  0.00     0.000 C 
BRANCH   2   3
ATOM      3  C   UNL     1     -10.939   4.387  35.112  1.00  0.00     0.000 C 
BRANCH   3   4
ATOM      4  C   UNL     1     -10.064   5.365  35.910  1.00  0.00     0.000 C 
BRANCH   4   5
ATOM      5  C   UNL     1      -9.433   4.671  37.124  1.00  0.00     0.000 C 
BRANCH   5   6
ATOM      6  C   UNL     1     -10.136   3.338  37.423  1.00  0.00     0.000 C 
BRANCH   6   7
ATOM      7  C   UNL     1      -9.557   2.635  38.661  1.00  0.00     0.000 C 
BRANCH   7   8
ATOM      8  C   UNL     1      -8.073   2.975  38.891  1.00  0.00     0.000 C 
BRANCH   8   9
ATOM      9  C   UNL     1      -7.297   1.817  39.538  1.00  0.00     0.000 C 
BRANCH   9  10
ATOM     10  C   UNL     1      -8.228   0.740  40.125  1.00  0.00     0.006 C 
BRANCH  10  11
ATOM     11  C   UNL     1      -7.845  -0.673  39.665  1.00  0.00     0.053 C 
BRANCH  11  12
ATOM     12  C   UNL     1      -8.989  -1.375  38.999  1.00  0.00     0.041 C 
ATOM     13  O   UNL     1      -9.832  -2.010  39.687  1.00  0.00    -0.550 OA
ATOM     14  O   UNL     1      -9.141  -1.302  37.620  1.00  0.00    -0.550 OA
ENDBRANCH  11  12
ENDBRANCH  10  11
ENDBRANCH   9  10
ENDBRANCH   8   9
ENDBRANCH   7   8
ENDBRANCH   6   7
ENDBRANCH   5   6
ENDBRANCH   4   5
ENDBRANCH   3   4
ENDBRANCH   2   3
ENDBRANCH   1   2
BRANCH   1  15
ATOM     15  C   UNL     1      -8.756   2.443  34.049  1.00  0.00     0.000 C 
BRANCH  15  16
ATOM     16  C   UNL     1      -7.517   2.479  34.957  1.00  0.00     0.000 C 
BRANCH  16  17
ATOM     17  C   UNL     1      -7.354   1.190  35.781  1.00  0.00     0.000 C 
BRANCH  17  18
ATOM     18  C   UNL     1      -5.882   0.792  35.991  1.00  0.00    -0.000 C 
BRANCH  18  19
ATOM     19  C   UNL     1      -5.653  -0.454  36.865  1.00  0.00    -0.000 C 
BRANCH  19  20
ATOM     20  C   UNL     1      -4.628  -0.224  37.986  1.00  0.00    -0.000 C 
BRANCH  20  21
ATOM     21  C   UNL     1      -3.697   0.968  37.705  1.00  0.00    -0.000 C 
BRANCH  21  22
ATOM     22  C   UNL     1      -3.711   2.043  38.813  1.00  0.00    -0.000 C 
BRANCH  22  23
ATOM     23  C   UNL     1      -3.479   3.456  38.252  1.00  0.00    -0.000 C 
BRANCH  23  24
ATOM     24  C   UNL     1      -4.746   4.331  38.288  1.00  0.00    -0.000 C 
BRANCH  24  25
ATOM     25  C   UNL     1      -5.385   4.600  36.914  1.00  0.00    -0.003 C 
ATOM     26  C   UNL     1      -4.431   4.335  35.749  1.00  0.00     0.004 C 
ENDBRANCH  24  25
ENDBRANCH  23  24
ENDBRANCH  22  23
ENDBRANCH  21  22
ENDBRANCH  20  21
ENDBRANCH  19  20
ENDBRANCH  18  19
ENDBRANCH  17  18
ENDBRANCH  16  17
ENDBRANCH  15  16
ENDBRANCH   1  15
TORSDOF 22
ENDMDL
