MODEL 1
REMARK VINA RESULT:    -5.002      0.000      0.000
REMARK INTER + INTRA:          -5.495
REMARK INTER:                  -5.440
REMARK INTRA:                  -0.055
REMARK UNBOUND:                -0.055
REMARK SMILES COc1cc2ccc(=O)oc2cc1O
REMARK SMILES IDX 3 1 13 2 12 3 11 4 5 5 4 6 6 7 7 8 8 9 9 10 10 11 2 12 1 13
REMARK SMILES IDX 14 14
REMARK H PARENT 14 15
REMARK Flexibility Score: inf
ROOT
ATOM      1  C   UNL     1     -15.172 -19.631  20.964  1.00  0.00     0.161 A 
ATOM      2  C   UNL     1     -14.729 -18.302  20.886  1.00  0.00     0.161 A 
ATOM      3  C   UNL     1     -15.371 -17.391  20.036  1.00  0.00     0.098 A 
ATOM      4  C   UNL     1     -16.457 -17.798  19.257  1.00  0.00     0.142 A 
ATOM      5  C   UNL     1     -16.908 -19.133  19.330  1.00  0.00     0.022 A 
ATOM      6  C   UNL     1     -16.268 -20.044  20.180  1.00  0.00     0.062 A 
ATOM      7  C   UNL     1     -17.998 -19.510  18.538  1.00  0.00     0.019 A 
ATOM      8  C   UNL     1     -18.602 -18.567  17.709  1.00  0.00     0.094 A 
ATOM      9  C   UNL     1     -18.100 -17.261  17.689  1.00  0.00     0.336 A 
ATOM     10  O   UNL     1     -18.631 -16.396  16.946  1.00  0.00    -0.246 OA
ATOM     11  O   UNL     1     -17.062 -16.928  18.451  1.00  0.00    -0.423 OA
ENDROOT
BRANCH   1  12
ATOM     12  O   UNL     1     -14.500 -20.509  21.829  1.00  0.00    -0.493 OA
ATOM     13  C   UNL     1     -14.899 -20.788  23.167  1.00  0.00     0.278 C 
ENDBRANCH   1  12
BRANCH   2  14
ATOM     14  O   UNL     1     -13.645 -17.892  21.661  1.00  0.00    -0.504 OA
ATOM     15  H   UNL     1     -12.793 -17.542  21.240  1.00  0.00     0.293 HD
ENDBRANCH   2  14
TORSDOF 2
ENDMDL
MODEL 2
REMARK VINA RESULT:    -4.828      7.754      9.055
REMARK INTER + INTRA:          -5.307
REMARK INTER:                  -5.242
REMARK INTRA:                  -0.065
REMARK UNBOUND:                -0.055
REMARK SMILES COc1cc2ccc(=O)oc2cc1O
REMARK SMILES IDX 3 1 13 2 12 3 11 4 5 5 4 6 6 7 7 8 8 9 9 10 10 11 2 12 1 13
REMARK SMILES IDX 14 14
REMARK H PARENT 14 15
REMARK Flexibility Score: inf
ROOT
ATOM      1  C   UNL     1      -8.909 -12.725  22.146  1.00  0.00     0.161 A 
ATOM      2  C   UNL     1     -10.310 -12.805  22.185  1.00  0.00     0.161 A 
ATOM      3  C   UNL     1     -11.026 -13.212  21.050  1.00  0.00     0.098 A 
ATOM      4  C   UNL     1     -10.353 -13.541  19.871  1.00  0.00     0.142 A 
ATOM      5  C   UNL     1      -8.945 -13.463  19.825  1.00  0.00     0.022 A 
ATOM      6  C   UNL     1      -8.228 -13.057  20.958  1.00  0.00     0.062 A 
ATOM      7  C   UNL     1      -8.300 -13.799  18.630  1.00  0.00     0.019 A 
ATOM      8  C   UNL     1      -9.057 -14.198  17.531  1.00  0.00     0.094 A 
ATOM      9  C   UNL     1     -10.450 -14.252  17.650  1.00  0.00     0.336 A 
ATOM     10  O   UNL     1     -11.152 -14.608  16.669  1.00  0.00    -0.246 OA
ATOM     11  O   UNL     1     -11.040 -13.926  18.798  1.00  0.00    -0.423 OA
ENDROOT
BRANCH   1  12
ATOM     12  O   UNL     1      -8.232 -12.313  23.305  1.00  0.00    -0.493 OA
ATOM     13  C   UNL     1      -7.606 -11.044  23.465  1.00  0.00     0.278 C 
ENDBRANCH   1  12
BRANCH   2  14
ATOM     14  O   UNL     1     -10.985 -12.477  23.359  1.00  0.00    -0.504 OA
ATOM     15  H   UNL     1     -11.010 -11.527  23.710  1.00  0.00     0.293 HD
ENDBRANCH   2  14
TORSDOF 2
ENDMDL
MODEL 3
REMARK VINA RESULT:    -4.812     14.144     16.168
REMARK INTER + INTRA:          -5.289
REMARK INTER:                  -5.224
REMARK INTRA:                  -0.064
REMARK UNBOUND:                -0.055
REMARK SMILES COc1cc2ccc(=O)oc2cc1O
REMARK SMILES IDX 3 1 13 2 12 3 11 4 5 5 4 6 6 7 7 8 8 9 9 10 10 11 2 12 1 13
REMARK SMILES IDX 14 14
REMARK H PARENT 14 15
REMARK Flexibility Score: inf
ROOT
ATOM      1  C   UNL     1      -8.242  -9.564  29.460  1.00  0.00     0.161 A 
ATOM      2  C   UNL     1      -8.409 -10.200  28.220  1.00  0.00     0.161 A 
ATOM      3  C   UNL     1      -7.472 -11.144  27.777  1.00  0.00     0.098 A 
ATOM      4  C   UNL     1      -6.362 -11.460  28.566  1.00  0.00     0.142 A 
ATOM      5  C   UNL     1      -6.187 -10.824  29.813  1.00  0.00     0.022 A 
ATOM      6  C   UNL     1      -7.124  -9.881  30.257  1.00  0.00     0.062 A 
ATOM      7  C   UNL     1      -5.067 -11.161  30.580  1.00  0.00     0.019 A 
ATOM      8  C   UNL     1      -4.164 -12.106  30.095  1.00  0.00     0.094 A 
ATOM      9  C   UNL     1      -4.403 -12.695  28.849  1.00  0.00     0.336 A 
ATOM     10  O   UNL     1      -3.599 -13.549  28.393  1.00  0.00    -0.246 OA
ATOM     11  O   UNL     1      -5.476 -12.357  28.139  1.00  0.00    -0.423 OA
ENDROOT
BRANCH   1  12
ATOM     12  O   UNL     1      -9.205  -8.626  29.863  1.00  0.00    -0.493 OA
ATOM     13  C   UNL     1     -10.139  -8.830  30.917  1.00  0.00     0.278 C 
ENDBRANCH   1  12
BRANCH   2  14
ATOM     14  O   UNL     1      -9.515  -9.888  27.430  1.00  0.00    -0.504 OA
ATOM     15  H   UNL     1      -9.735  -8.932  27.180  1.00  0.00     0.293 HD
ENDBRANCH   2  14
TORSDOF 2
ENDMDL
MODEL 4
REMARK VINA RESULT:    -4.738      1.378      5.363
REMARK INTER + INTRA:          -5.209
REMARK INTER:                  -5.144
REMARK INTRA:                  -0.065
REMARK UNBOUND:                -0.055
REMARK SMILES COc1cc2ccc(=O)oc2cc1O
REMARK SMILES IDX 3 1 13 2 12 3 11 4 5 5 4 6 6 7 7 8 8 9 9 10 10 11 2 12 1 13
REMARK SMILES IDX 14 14
REMARK H PARENT 14 15
REMARK Flexibility Score: inf
ROOT
ATOM      1  C   UNL     1     -16.926 -17.363  18.199  1.00  0.00     0.161 A 
ATOM      2  C   UNL     1     -17.735 -18.498  18.363  1.00  0.00     0.161 A 
ATOM      3  C   UNL     1     -17.456 -19.425  19.377  1.00  0.00     0.098 A 
ATOM      4  C   UNL     1     -16.369 -19.229  20.232  1.00  0.00     0.142 A 
ATOM      5  C   UNL     1     -15.550 -18.090  20.073  1.00  0.00     0.022 A 
ATOM      6  C   UNL     1     -15.829 -17.163  19.060  1.00  0.00     0.062 A 
ATOM      7  C   UNL     1     -14.470 -17.922  20.945  1.00  0.00     0.019 A 
ATOM      8  C   UNL     1     -14.235 -18.872  21.937  1.00  0.00     0.094 A 
ATOM      9  C   UNL     1     -15.089 -19.976  22.035  1.00  0.00     0.336 A 
ATOM     10  O   UNL     1     -14.893 -20.845  22.922  1.00  0.00    -0.246 OA
ATOM     11  O   UNL     1     -16.109 -20.113  21.192  1.00  0.00    -0.423 OA
ENDROOT
BRANCH   1  12
ATOM     12  O   UNL     1     -17.242 -16.461  17.170  1.00  0.00    -0.493 OA
ATOM     13  C   UNL     1     -16.582 -16.410  15.910  1.00  0.00     0.278 C 
ENDBRANCH   1  12
BRANCH   2  14
ATOM     14  O   UNL     1     -18.821 -18.698  17.511  1.00  0.00    -0.504 OA
ATOM     15  H   UNL     1     -19.216 -19.618  17.361  1.00  0.00     0.293 HD
ENDBRANCH   2  14
TORSDOF 2
ENDMDL
MODEL 5
REMARK VINA RESULT:    -4.639      1.579      5.058
REMARK INTER + INTRA:          -5.100
REMARK INTER:                  -5.035
REMARK INTRA:                  -0.065
REMARK UNBOUND:                -0.055
REMARK SMILES COc1cc2ccc(=O)oc2cc1O
REMARK SMILES IDX 3 1 13 2 12 3 11 4 5 5 4 6 6 7 7 8 8 9 9 10 10 11 2 12 1 13
REMARK SMILES IDX 14 14
REMARK H PARENT 14 15
REMARK Flexibility Score: inf
ROOT
ATOM      1  C   UNL     1     -17.767 -17.943  16.787  1.00  0.00     0.161 A 
ATOM      2  C   UNL     1     -16.896 -16.847  16.876  1.00  0.00     0.161 A 
ATOM      3  C   UNL     1     -16.052 -16.701  17.986  1.00  0.00     0.098 A 
ATOM      4  C   UNL     1     -16.072 -17.645  19.015  1.00  0.00     0.142 A 
ATOM      5  C   UNL     1     -16.946 -18.751  18.934  1.00  0.00     0.022 A 
ATOM      6  C   UNL     1     -17.789 -18.898  17.825  1.00  0.00     0.062 A 
ATOM      7  C   UNL     1     -16.942 -19.679  19.980  1.00  0.00     0.019 A 
ATOM      8  C   UNL     1     -16.084 -19.489  21.062  1.00  0.00     0.094 A 
ATOM      9  C   UNL     1     -15.245 -18.370  21.074  1.00  0.00     0.336 A 
ATOM     10  O   UNL     1     -14.464 -18.180  22.042  1.00  0.00    -0.246 OA
ATOM     11  O   UNL     1     -15.269 -17.501  20.066  1.00  0.00    -0.423 OA
ENDROOT
BRANCH   1  12
ATOM     12  O   UNL     1     -18.595 -18.049  15.658  1.00  0.00    -0.493 OA
ATOM     13  C   UNL     1     -18.381 -18.958  14.584  1.00  0.00     0.278 C 
ENDBRANCH   1  12
BRANCH   2  14
ATOM     14  O   UNL     1     -16.874 -15.902  15.851  1.00  0.00    -0.504 OA
ATOM     15  H   UNL     1     -16.665 -16.162  14.894  1.00  0.00     0.293 HD
ENDBRANCH   2  14
TORSDOF 2
ENDMDL
MODEL 6
REMARK VINA RESULT:    -4.622      5.671      8.168
REMARK INTER + INTRA:          -5.082
REMARK INTER:                  -5.024
REMARK INTRA:                  -0.058
REMARK UNBOUND:                -0.055
REMARK SMILES COc1cc2ccc(=O)oc2cc1O
REMARK SMILES IDX 3 1 13 2 12 3 11 4 5 5 4 6 6 7 7 8 8 9 9 10 10 11 2 12 1 13
REMARK SMILES IDX 14 14
REMARK H PARENT 14 15
REMARK Flexibility Score: inf
ROOT
ATOM      1  C   UNL     1     -12.253 -15.801  20.398  1.00  0.00     0.161 A 
ATOM      2  C   UNL     1     -12.496 -14.457  20.074  1.00  0.00     0.161 A 
ATOM      3  C   UNL     1     -11.622 -13.454  20.515  1.00  0.00     0.098 A 
ATOM      4  C   UNL     1     -10.501 -13.782  21.282  1.00  0.00     0.142 A 
ATOM      5  C   UNL     1     -10.250 -15.131  21.612  1.00  0.00     0.022 A 
ATOM      6  C   UNL     1     -11.122 -16.135  21.171  1.00  0.00     0.062 A 
ATOM      7  C   UNL     1      -9.119 -15.427  22.380  1.00  0.00     0.019 A 
ATOM      8  C   UNL     1      -8.281 -14.393  22.794  1.00  0.00     0.094 A 
ATOM      9  C   UNL     1      -8.594 -13.080  22.429  1.00  0.00     0.336 A 
ATOM     10  O   UNL     1      -7.851 -12.132  22.793  1.00  0.00    -0.246 OA
ATOM     11  O   UNL     1      -9.676 -12.824  21.697  1.00  0.00    -0.423 OA
ENDROOT
BRANCH   1  12
ATOM     12  O   UNL     1     -13.154 -16.773  19.936  1.00  0.00    -0.493 OA
ATOM     13  C   UNL     1     -13.848 -17.693  20.772  1.00  0.00     0.278 C 
ENDBRANCH   1  12
BRANCH   2  14
ATOM     14  O   UNL     1     -13.614 -14.126  19.310  1.00  0.00    -0.504 OA
ATOM     15  H   UNL     1     -14.048 -14.796  18.686  1.00  0.00     0.293 HD
ENDBRANCH   2  14
TORSDOF 2
ENDMDL
MODEL 7
REMARK VINA RESULT:    -4.614      6.413      8.788
REMARK INTER + INTRA:          -5.073
REMARK INTER:                  -5.016
REMARK INTRA:                  -0.057
REMARK UNBOUND:                -0.055
REMARK SMILES COc1cc2ccc(=O)oc2cc1O
REMARK SMILES IDX 3 1 13 2 12 3 11 4 5 5 4 6 6 7 7 8 8 9 9 10 10 11 2 12 1 13
REMARK SMILES IDX 14 14
REMARK H PARENT 14 15
REMARK Flexibility Score: inf
ROOT
ATOM      1  C   UNL     1      -8.740 -13.289  22.328  1.00  0.00     0.161 A 
ATOM      2  C   UNL     1      -9.777 -13.135  21.395  1.00  0.00     0.161 A 
ATOM      3  C   UNL     1     -10.650 -14.198  21.127  1.00  0.00     0.098 A 
ATOM      4  C   UNL     1     -10.495 -15.422  21.783  1.00  0.00     0.142 A 
ATOM      5  C   UNL     1      -9.454 -15.585  22.722  1.00  0.00     0.022 A 
ATOM      6  C   UNL     1      -8.581 -14.523  22.992  1.00  0.00     0.062 A 
ATOM      7  C   UNL     1      -9.326 -16.821  23.363  1.00  0.00     0.019 A 
ATOM      8  C   UNL     1     -10.219 -17.847  23.061  1.00  0.00     0.094 A 
ATOM      9  C   UNL     1     -11.227 -17.612  22.119  1.00  0.00     0.336 A 
ATOM     10  O   UNL     1     -12.043 -18.525  21.831  1.00  0.00    -0.246 OA
ATOM     11  O   UNL     1     -11.328 -16.427  21.522  1.00  0.00    -0.423 OA
ENDROOT
BRANCH   1  12
ATOM     12  O   UNL     1      -7.889 -12.198  22.567  1.00  0.00    -0.493 OA
ATOM     13  C   UNL     1      -8.053 -11.264  23.628  1.00  0.00     0.278 C 
ENDBRANCH   1  12
BRANCH   2  14
ATOM     14  O   UNL     1      -9.935 -11.916  20.738  1.00  0.00    -0.504 OA
ATOM     15  H   UNL     1     -10.757 -11.341  20.876  1.00  0.00     0.293 HD
ENDBRANCH   2  14
TORSDOF 2
ENDMDL
MODEL 8
REMARK VINA RESULT:    -4.603      1.314      4.776
REMARK INTER + INTRA:          -5.061
REMARK INTER:                  -5.014
REMARK INTRA:                  -0.047
REMARK UNBOUND:                -0.055
REMARK SMILES COc1cc2ccc(=O)oc2cc1O
REMARK SMILES IDX 3 1 13 2 12 3 11 4 5 5 4 6 6 7 7 8 8 9 9 10 10 11 2 12 1 13
REMARK SMILES IDX 14 14
REMARK H PARENT 14 15
REMARK Flexibility Score: inf
ROOT
ATOM      1  C   UNL     1     -17.659 -18.871  18.689  1.00  0.00     0.161 A 
ATOM      2  C   UNL     1     -17.038 -17.639  18.433  1.00  0.00     0.161 A 
ATOM      3  C   UNL     1     -15.879 -17.272  19.132  1.00  0.00     0.098 A 
ATOM      4  C   UNL     1     -15.333 -18.129  20.091  1.00  0.00     0.142 A 
ATOM      5  C   UNL     1     -15.952 -19.369  20.355  1.00  0.00     0.022 A 
ATOM      6  C   UNL     1     -17.110 -19.737  19.656  1.00  0.00     0.062 A 
ATOM      7  C   UNL     1     -15.381 -20.205  21.320  1.00  0.00     0.019 A 
ATOM      8  C   UNL     1     -14.228 -19.795  21.987  1.00  0.00     0.094 A 
ATOM      9  C   UNL     1     -13.670 -18.551  21.673  1.00  0.00     0.336 A 
ATOM     10  O   UNL     1     -12.630 -18.162  22.265  1.00  0.00    -0.246 OA
ATOM     11  O   UNL     1     -14.233 -17.774  20.751  1.00  0.00    -0.423 OA
ENDROOT
BRANCH   1  12
ATOM     12  O   UNL     1     -18.818 -19.197  17.967  1.00  0.00    -0.493 OA
ATOM     13  C   UNL     1     -19.813 -20.113  18.409  1.00  0.00     0.278 C 
ENDBRANCH   1  12
BRANCH   2  14
ATOM     14  O   UNL     1     -17.580 -16.781  17.477  1.00  0.00    -0.504 OA
ATOM     15  H   UNL     1     -18.364 -17.058  16.899  1.00  0.00     0.293 HD
ENDBRANCH   2  14
TORSDOF 2
ENDMDL
MODEL 9
REMARK VINA RESULT:    -4.600      1.831      2.982
REMARK INTER + INTRA:          -5.059
REMARK INTER:                  -5.012
REMARK INTRA:                  -0.046
REMARK UNBOUND:                -0.055
REMARK SMILES COc1cc2ccc(=O)oc2cc1O
REMARK SMILES IDX 3 1 13 2 12 3 11 4 5 5 4 6 6 7 7 8 8 9 9 10 10 11 2 12 1 13
REMARK SMILES IDX 14 14
REMARK H PARENT 14 15
REMARK Flexibility Score: inf
ROOT
ATOM      1  C   UNL     1     -13.222 -18.129  21.537  1.00  0.00     0.161 A 
ATOM      2  C   UNL     1     -14.375 -18.861  21.860  1.00  0.00     0.161 A 
ATOM      3  C   UNL     1     -15.519 -18.770  21.054  1.00  0.00     0.098 A 
ATOM      4  C   UNL     1     -15.522 -17.948  19.925  1.00  0.00     0.142 A 
ATOM      5  C   UNL     1     -14.367 -17.209  19.593  1.00  0.00     0.022 A 
ATOM      6  C   UNL     1     -13.223 -17.300  20.397  1.00  0.00     0.062 A 
ATOM      7  C   UNL     1     -14.401 -16.396  18.456  1.00  0.00     0.019 A 
ATOM      8  C   UNL     1     -15.563 -16.340  17.688  1.00  0.00     0.094 A 
ATOM      9  C   UNL     1     -16.671 -17.101  18.078  1.00  0.00     0.336 A 
ATOM     10  O   UNL     1     -17.729 -17.063  17.399  1.00  0.00    -0.246 OA
ATOM     11  O   UNL     1     -16.612 -17.866  19.165  1.00  0.00    -0.423 OA
ENDROOT
BRANCH   1  12
ATOM     12  O   UNL     1     -12.099 -18.251  22.371  1.00  0.00    -0.493 OA
ATOM     13  C   UNL     1     -10.765 -17.948  21.977  1.00  0.00     0.278 C 
ENDBRANCH   1  12
BRANCH   2  14
ATOM     14  O   UNL     1     -14.376 -19.682  22.987  1.00  0.00    -0.504 OA
ATOM     15  H   UNL     1     -14.233 -19.306  23.917  1.00  0.00     0.293 HD
ENDBRANCH   2  14
TORSDOF 2
ENDMDL
