MODEL 1
REMARK VINA RESULT:    -2.101      0.000      0.000
REMARK INTER + INTRA:          -7.063
REMARK INTER:                  -5.295
REMARK INTRA:                  -1.769
REMARK UNBOUND:                -1.769
REMARK SMILES CCCCCCCCCCCCCCCCCCCCCCCCCCCC(=O)[O-]
REMARK SMILES IDX 15 1 16 2 17 3 18 4 19 5 20 6 21 7 22 8 23 9 24 10 25 11
REMARK SMILES IDX 26 12 27 13 28 14 29 15 30 16 14 17 13 18 12 19 11 20 10 21
REMARK SMILES IDX 9 22 8 23 7 24 6 25 5 26 4 27 3 28 2 29 1 30
REMARK H PARENT
REMARK Flexibility Score: inf
ROOT
ATOM      1  C   UNL     1       4.021  24.557  23.648  1.00  0.00     0.000 C 
ENDROOT
BRANCH   1   2
ATOM      2  C   UNL     1       3.344  23.695  22.567  1.00  0.00     0.000 C 
BRANCH   2   3
ATOM      3  C   UNL     1       1.838  23.504  22.831  1.00  0.00     0.000 C 
BRANCH   3   4
ATOM      4  C   UNL     1       1.564  22.422  23.889  1.00  0.00     0.000 C 
BRANCH   4   5
ATOM      5  C   UNL     1       1.794  22.954  25.317  1.00  0.00     0.000 C 
BRANCH   5   6
ATOM      6  C   UNL     1       0.545  22.837  26.208  1.00  0.00     0.000 C 
BRANCH   6   7
ATOM      7  C   UNL     1       0.033  24.202  26.695  1.00  0.00     0.000 C 
BRANCH   7   8
ATOM      8  C   UNL     1      -0.429  25.069  25.515  1.00  0.00     0.000 C 
BRANCH   8   9
ATOM      9  C   UNL     1       0.350  26.390  25.418  1.00  0.00     0.000 C 
BRANCH   9  10
ATOM     10  C   UNL     1       1.187  26.487  24.129  1.00  0.00     0.000 C 
BRANCH  10  11
ATOM     11  C   UNL     1       0.332  26.881  22.913  1.00  0.00     0.000 C 
BRANCH  11  12
ATOM     12  C   UNL     1       0.759  28.235  22.322  1.00  0.00     0.006 C 
BRANCH  12  13
ATOM     13  C   UNL     1       0.400  28.359  20.832  1.00  0.00     0.053 C 
BRANCH  13  14
ATOM     14  C   UNL     1      -0.773  29.260  20.555  1.00  0.00     0.041 C 
ATOM     15  O   UNL     1      -0.614  30.425  20.098  1.00  0.00    -0.550 OA
ATOM     16  O   UNL     1      -2.063  28.785  20.763  1.00  0.00    -0.550 OA
ENDBRANCH  13  14
ENDBRANCH  12  13
ENDBRANCH  11  12
ENDBRANCH  10  11
ENDBRANCH   9  10
ENDBRANCH   8   9
ENDBRANCH   7   8
ENDBRANCH   6   7
ENDBRANCH   5   6
ENDBRANCH   4   5
ENDBRANCH   3   4
ENDBRANCH   2   3
ENDBRANCH   1   2
BRANCH   1  17
ATOM     17  C   UNL     1       5.423  24.027  24.007  1.00  0.00     0.000 C 
BRANCH  17  18
ATOM     18  C   UNL     1       5.444  23.294  25.367  1.00  0.00     0.000 C 
BRANCH  18  19
ATOM     19  C   UNL     1       6.811  22.674  25.705  1.00  0.00     0.000 C 
BRANCH  19  20
ATOM     20  C   UNL     1       6.775  21.840  26.997  1.00  0.00     0.000 C 
BRANCH  20  21
ATOM     21  C   UNL     1       7.106  20.359  26.753  1.00  0.00     0.000 C 
BRANCH  21  22
ATOM     22  C   UNL     1       5.857  19.458  26.742  1.00  0.00    -0.000 C 
BRANCH  22  23
ATOM     23  C   UNL     1       6.065  18.161  25.942  1.00  0.00    -0.000 C 
BRANCH  23  24
ATOM     24  C   UNL     1       5.968  16.903  26.821  1.00  0.00    -0.000 C 
BRANCH  24  25
ATOM     25  C   UNL     1       6.365  15.619  26.071  1.00  0.00    -0.000 C 
BRANCH  25  26
ATOM     26  C   UNL     1       5.255  14.976  25.209  1.00  0.00    -0.000 C 
BRANCH  26  27
ATOM     27  C   UNL     1       5.267  15.366  23.717  1.00  0.00    -0.000 C 
BRANCH  27  28
ATOM     28  C   UNL     1       3.934  15.087  22.986  1.00  0.00    -0.000 C 
BRANCH  28  29
ATOM     29  C   UNL     1       2.776  15.986  23.446  1.00  0.00    -0.003 C 
ATOM     30  C   UNL     1       1.983  15.386  24.606  1.00  0.00     0.004 C 
ENDBRANCH  28  29
ENDBRANCH  27  28
ENDBRANCH  26  27
ENDBRANCH  25  26
ENDBRANCH  24  25
ENDBRANCH  23  24
ENDBRANCH  22  23
ENDBRANCH  21  22
ENDBRANCH  20  21
ENDBRANCH  19  20
ENDBRANCH  18  19
ENDBRANCH  17  18
ENDBRANCH   1  17
TORSDOF 26
ENDMDL
MODEL 2
REMARK VINA RESULT:    -1.476      1.382      3.095
REMARK INTER + INTRA:          -5.488
REMARK INTER:                  -4.660
REMARK INTRA:                  -0.828
REMARK UNBOUND:                -1.769
REMARK SMILES CCCCCCCCCCCCCCCCCCCCCCCCCCCC(=O)[O-]
REMARK SMILES IDX 15 1 16 2 17 3 18 4 19 5 20 6 21 7 22 8 23 9 24 10 25 11
REMARK SMILES IDX 26 12 27 13 28 14 29 15 30 16 14 17 13 18 12 19 11 20 10 21
REMARK SMILES IDX 9 22 8 23 7 24 6 25 5 26 4 27 3 28 2 29 1 30
REMARK H PARENT
REMARK Flexibility Score: inf
ROOT
ATOM      1  C   UNL     1       2.010  22.241  23.275  1.00  0.00     0.000 C 
ENDROOT
BRANCH   1   2
ATOM      2  C   UNL     1       0.841  22.662  24.184  1.00  0.00     0.000 C 
BRANCH   2   3
ATOM      3  C   UNL     1       1.158  22.453  25.678  1.00  0.00     0.000 C 
BRANCH   3   4
ATOM      4  C   UNL     1      -0.041  22.789  26.581  1.00  0.00     0.000 C 
BRANCH   4   5
ATOM      5  C   UNL     1      -0.168  24.306  26.816  1.00  0.00     0.000 C 
BRANCH   5   6
ATOM      6  C   UNL     1       1.031  25.100  26.268  1.00  0.00     0.000 C 
BRANCH   6   7
ATOM      7  C   UNL     1       0.606  26.302  25.410  1.00  0.00     0.000 C 
BRANCH   7   8
ATOM      8  C   UNL     1       0.280  25.863  23.974  1.00  0.00     0.000 C 
BRANCH   8   9
ATOM      9  C   UNL     1       1.025  26.701  22.922  1.00  0.00     0.000 C 
BRANCH   9  10
ATOM     10  C   UNL     1       0.499  28.146  22.841  1.00  0.00     0.000 C 
BRANCH  10  11
ATOM     11  C   UNL     1       0.507  28.684  21.401  1.00  0.00     0.000 C 
BRANCH  11  12
ATOM     12  C   UNL     1      -0.815  28.393  20.669  1.00  0.00     0.006 C 
BRANCH  12  13
ATOM     13  C   UNL     1      -1.658  29.662  20.466  1.00  0.00     0.053 C 
BRANCH  13  14
ATOM     14  C   UNL     1      -0.893  30.821  19.885  1.00  0.00     0.041 C 
ATOM     15  O   UNL     1      -1.479  31.751  19.266  1.00  0.00    -0.550 OA
ATOM     16  O   UNL     1       0.481  30.895  20.074  1.00  0.00    -0.550 OA
ENDBRANCH  13  14
ENDBRANCH  12  13
ENDBRANCH  11  12
ENDBRANCH  10  11
ENDBRANCH   9  10
ENDBRANCH   8   9
ENDBRANCH   7   8
ENDBRANCH   6   7
ENDBRANCH   5   6
ENDBRANCH   4   5
ENDBRANCH   3   4
ENDBRANCH   2   3
ENDBRANCH   1   2
BRANCH   1  17
ATOM     17  C   UNL     1       2.408  23.365  22.299  1.00  0.00     0.000 C 
BRANCH  17  18
ATOM     18  C   UNL     1       3.292  24.440  22.971  1.00  0.00     0.000 C 
BRANCH  18  19
ATOM     19  C   UNL     1       4.589  23.873  23.575  1.00  0.00     0.000 C 
BRANCH  19  20
ATOM     20  C   UNL     1       4.626  24.000  25.108  1.00  0.00     0.000 C 
BRANCH  20  21
ATOM     21  C   UNL     1       6.057  23.980  25.667  1.00  0.00     0.000 C 
BRANCH  21  22
ATOM     22  C   UNL     1       6.256  22.926  26.772  1.00  0.00    -0.000 C 
BRANCH  22  23
ATOM     23  C   UNL     1       7.123  21.740  26.316  1.00  0.00    -0.000 C 
BRANCH  23  24
ATOM     24  C   UNL     1       6.725  20.420  26.998  1.00  0.00    -0.000 C 
BRANCH  24  25
ATOM     25  C   UNL     1       7.074  19.182  26.154  1.00  0.00    -0.000 C 
BRANCH  25  26
ATOM     26  C   UNL     1       5.878  18.298  25.734  1.00  0.00    -0.000 C 
BRANCH  26  27
ATOM     27  C   UNL     1       5.919  16.843  26.244  1.00  0.00    -0.000 C 
BRANCH  27  28
ATOM     28  C   UNL     1       6.563  15.849  25.252  1.00  0.00    -0.000 C 
BRANCH  28  29
ATOM     29  C   UNL     1       5.557  15.189  24.297  1.00  0.00    -0.003 C 
ATOM     30  C   UNL     1       6.216  14.608  23.048  1.00  0.00     0.004 C 
ENDBRANCH  28  29
ENDBRANCH  27  28
ENDBRANCH  26  27
ENDBRANCH  25  26
ENDBRANCH  24  25
ENDBRANCH  23  24
ENDBRANCH  22  23
ENDBRANCH  21  22
ENDBRANCH  20  21
ENDBRANCH  19  20
ENDBRANCH  18  19
ENDBRANCH  17  18
ENDBRANCH   1  17
TORSDOF 26
ENDMDL
MODEL 3
REMARK VINA RESULT:    -1.282      4.142      9.901
REMARK INTER + INTRA:          -5.000
REMARK INTER:                  -3.254
REMARK INTRA:                  -1.746
REMARK UNBOUND:                -1.769
REMARK SMILES CCCCCCCCCCCCCCCCCCCCCCCCCCCC(=O)[O-]
REMARK SMILES IDX 15 1 16 2 17 3 18 4 19 5 20 6 21 7 22 8 23 9 24 10 25 11
REMARK SMILES IDX 26 12 27 13 28 14 29 15 30 16 14 17 13 18 12 19 11 20 10 21
REMARK SMILES IDX 9 22 8 23 7 24 6 25 5 26 4 27 3 28 2 29 1 30
REMARK H PARENT
REMARK Flexibility Score: inf
ROOT
ATOM      1  C   UNL     1       1.481  22.682  25.671  1.00  0.00     0.000 C 
ENDROOT
BRANCH   1   2
ATOM      2  C   UNL     1       2.472  22.279  26.778  1.00  0.00     0.000 C 
BRANCH   2   3
ATOM      3  C   UNL     1       3.803  21.754  26.206  1.00  0.00     0.000 C 
BRANCH   3   4
ATOM      4  C   UNL     1       4.314  20.516  26.962  1.00  0.00     0.000 C 
BRANCH   4   5
ATOM      5  C   UNL     1       5.825  20.301  26.746  1.00  0.00     0.000 C 
BRANCH   5   6
ATOM      6  C   UNL     1       6.289  18.885  27.125  1.00  0.00     0.000 C 
BRANCH   6   7
ATOM      7  C   UNL     1       5.307  17.795  26.669  1.00  0.00     0.000 C 
BRANCH   7   8
ATOM      8  C   UNL     1       5.474  17.497  25.171  1.00  0.00     0.000 C 
BRANCH   8   9
ATOM      9  C   UNL     1       4.493  16.422  24.675  1.00  0.00     0.000 C 
BRANCH   9  10
ATOM     10  C   UNL     1       5.051  14.997  24.836  1.00  0.00     0.000 C 
BRANCH  10  11
ATOM     11  C   UNL     1       4.064  14.069  25.562  1.00  0.00     0.000 C 
BRANCH  11  12
ATOM     12  C   UNL     1       3.249  14.816  26.632  1.00  0.00     0.006 C 
BRANCH  12  13
ATOM     13  C   UNL     1       1.795  14.322  26.707  1.00  0.00     0.053 C 
BRANCH  13  14
ATOM     14  C   UNL     1       0.788  15.286  26.139  1.00  0.00     0.041 C 
ATOM     15  O   UNL     1      -0.265  15.583  26.766  1.00  0.00    -0.550 OA
ATOM     16  O   UNL     1       1.044  15.900  24.918  1.00  0.00    -0.550 OA
ENDBRANCH  13  14
ENDBRANCH  12  13
ENDBRANCH  11  12
ENDBRANCH  10  11
ENDBRANCH   9  10
ENDBRANCH   8   9
ENDBRANCH   7   8
ENDBRANCH   6   7
ENDBRANCH   5   6
ENDBRANCH   4   5
ENDBRANCH   3   4
ENDBRANCH   2   3
ENDBRANCH   1   2
BRANCH   1  17
ATOM     17  C   UNL     1       0.272  23.451  26.240  1.00  0.00     0.000 C 
BRANCH  17  18
ATOM     18  C   UNL     1      -0.011  24.757  25.463  1.00  0.00     0.000 C 
BRANCH  18  19
ATOM     19  C   UNL     1       1.261  25.556  25.129  1.00  0.00     0.000 C 
BRANCH  19  20
ATOM     20  C   UNL     1       1.132  26.341  23.813  1.00  0.00     0.000 C 
BRANCH  20  21
ATOM     21  C   UNL     1       1.596  25.529  22.594  1.00  0.00     0.000 C 
BRANCH  21  22
ATOM     22  C   UNL     1       2.377  24.259  22.980  1.00  0.00    -0.000 C 
BRANCH  22  23
ATOM     23  C   UNL     1       3.898  24.483  23.019  1.00  0.00    -0.000 C 
BRANCH  23  24
ATOM     24  C   UNL     1       4.623  23.461  23.911  1.00  0.00    -0.000 C 
BRANCH  24  25
ATOM     25  C   UNL     1       6.100  23.820  24.151  1.00  0.00    -0.000 C 
BRANCH  25  26
ATOM     26  C   UNL     1       6.554  25.192  23.603  1.00  0.00    -0.000 C 
BRANCH  26  27
ATOM     27  C   UNL     1       7.118  26.171  24.652  1.00  0.00    -0.000 C 
BRANCH  27  28
ATOM     28  C   UNL     1       6.297  26.229  25.960  1.00  0.00    -0.000 C 
BRANCH  28  29
ATOM     29  C   UNL     1       6.933  25.455  27.124  1.00  0.00    -0.003 C 
ATOM     30  C   UNL     1       6.705  23.947  27.031  1.00  0.00     0.004 C 
ENDBRANCH  28  29
ENDBRANCH  27  28
ENDBRANCH  26  27
ENDBRANCH  25  26
ENDBRANCH  24  25
ENDBRANCH  23  24
ENDBRANCH  22  23
ENDBRANCH  21  22
ENDBRANCH  20  21
ENDBRANCH  19  20
ENDBRANCH  18  19
ENDBRANCH  17  18
ENDBRANCH   1  17
TORSDOF 26
ENDMDL
MODEL 4
REMARK VINA RESULT:    -1.256      1.332      2.090
REMARK INTER + INTRA:          -4.935
REMARK INTER:                  -2.899
REMARK INTRA:                  -2.036
REMARK UNBOUND:                -1.769
REMARK SMILES CCCCCCCCCCCCCCCCCCCCCCCCCCCC(=O)[O-]
REMARK SMILES IDX 15 1 16 2 17 3 18 4 19 5 20 6 21 7 22 8 23 9 24 10 25 11
REMARK SMILES IDX 26 12 27 13 28 14 29 15 30 16 14 17 13 18 12 19 11 20 10 21
REMARK SMILES IDX 9 22 8 23 7 24 6 25 5 26 4 27 3 28 2 29 1 30
REMARK H PARENT
REMARK Flexibility Score: inf
ROOT
ATOM      1  C   UNL     1       4.895  24.833  24.553  1.00  0.00     0.000 C 
ENDROOT
BRANCH   1   2
ATOM      2  C   UNL     1       4.252  24.379  23.229  1.00  0.00     0.000 C 
BRANCH   2   3
ATOM      3  C   UNL     1       2.720  24.251  23.339  1.00  0.00     0.000 C 
BRANCH   3   4
ATOM      4  C   UNL     1       2.288  22.873  23.870  1.00  0.00     0.000 C 
BRANCH   4   5
ATOM      5  C   UNL     1       2.479  22.766  25.395  1.00  0.00     0.000 C 
BRANCH   5   6
ATOM      6  C   UNL     1       1.291  22.090  26.101  1.00  0.00     0.000 C 
BRANCH   6   7
ATOM      7  C   UNL     1       0.578  23.024  27.091  1.00  0.00     0.000 C 
BRANCH   7   8
ATOM      8  C   UNL     1      -0.541  23.812  26.394  1.00  0.00     0.000 C 
BRANCH   8   9
ATOM      9  C   UNL     1      -0.752  25.202  27.014  1.00  0.00     0.000 C 
BRANCH   9  10
ATOM     10  C   UNL     1       0.115  26.283  26.344  1.00  0.00     0.000 C 
BRANCH  10  11
ATOM     11  C   UNL     1       0.372  25.979  24.859  1.00  0.00     0.000 C 
BRANCH  11  12
ATOM     12  C   UNL     1       0.525  27.263  24.025  1.00  0.00     0.006 C 
BRANCH  12  13
ATOM     13  C   UNL     1       0.531  26.978  22.514  1.00  0.00     0.053 C 
BRANCH  13  14
ATOM     14  C   UNL     1       0.683  28.206  21.658  1.00  0.00     0.041 C 
ATOM     15  O   UNL     1      -0.076  28.420  20.673  1.00  0.00    -0.550 OA
ATOM     16  O   UNL     1       1.650  29.150  21.984  1.00  0.00    -0.550 OA
ENDBRANCH  13  14
ENDBRANCH  12  13
ENDBRANCH  11  12
ENDBRANCH  10  11
ENDBRANCH   9  10
ENDBRANCH   8   9
ENDBRANCH   7   8
ENDBRANCH   6   7
ENDBRANCH   5   6
ENDBRANCH   4   5
ENDBRANCH   3   4
ENDBRANCH   2   3
ENDBRANCH   1   2
BRANCH   1  17
ATOM     17  C   UNL     1       6.205  24.074  24.842  1.00  0.00     0.000 C 
BRANCH  17  18
ATOM     18  C   UNL     1       6.036  23.014  25.954  1.00  0.00     0.000 C 
BRANCH  18  19
ATOM     19  C   UNL     1       7.123  21.925  25.928  1.00  0.00     0.000 C 
BRANCH  19  20
ATOM     20  C   UNL     1       6.853  20.803  26.945  1.00  0.00     0.000 C 
BRANCH  20  21
ATOM     21  C   UNL     1       6.468  19.476  26.272  1.00  0.00     0.000 C 
BRANCH  21  22
ATOM     22  C   UNL     1       5.507  18.627  27.124  1.00  0.00    -0.000 C 
BRANCH  22  23
ATOM     23  C   UNL     1       4.133  18.434  26.459  1.00  0.00    -0.000 C 
BRANCH  23  24
ATOM     24  C   UNL     1       3.435  17.140  26.911  1.00  0.00    -0.000 C 
BRANCH  24  25
ATOM     25  C   UNL     1       3.544  16.009  25.873  1.00  0.00    -0.000 C 
BRANCH  25  26
ATOM     26  C   UNL     1       4.012  16.436  24.463  1.00  0.00    -0.000 C 
BRANCH  26  27
ATOM     27  C   UNL     1       4.128  15.297  23.430  1.00  0.00    -0.000 C 
BRANCH  27  28
ATOM     28  C   UNL     1       5.579  14.988  22.999  1.00  0.00    -0.000 C 
BRANCH  28  29
ATOM     29  C   UNL     1       6.603  15.116  24.136  1.00  0.00    -0.003 C 
ATOM     30  C   UNL     1       6.372  14.107  25.260  1.00  0.00     0.004 C 
ENDBRANCH  28  29
ENDBRANCH  27  28
ENDBRANCH  26  27
ENDBRANCH  25  26
ENDBRANCH  24  25
ENDBRANCH  23  24
ENDBRANCH  22  23
ENDBRANCH  21  22
ENDBRANCH  20  21
ENDBRANCH  19  20
ENDBRANCH  18  19
ENDBRANCH  17  18
ENDBRANCH   1  17
TORSDOF 26
ENDMDL
MODEL 5
REMARK VINA RESULT:    -0.104      4.091     11.517
REMARK INTER + INTRA:          -2.030
REMARK INTER:                  -0.409
REMARK INTRA:                  -1.621
REMARK UNBOUND:                -1.769
REMARK SMILES CCCCCCCCCCCCCCCCCCCCCCCCCCCC(=O)[O-]
REMARK SMILES IDX 15 1 16 2 17 3 18 4 19 5 20 6 21 7 22 8 23 9 24 10 25 11
REMARK SMILES IDX 26 12 27 13 28 14 29 15 30 16 14 17 13 18 12 19 11 20 10 21
REMARK SMILES IDX 9 22 8 23 7 24 6 25 5 26 4 27 3 28 2 29 1 30
REMARK H PARENT
REMARK Flexibility Score: inf
ROOT
ATOM      1  C   UNL     1       1.539  22.182  23.782  1.00  0.00     0.000 C 
ENDROOT
BRANCH   1   2
ATOM      2  C   UNL     1       2.751  22.503  24.675  1.00  0.00     0.000 C 
BRANCH   2   3
ATOM      3  C   UNL     1       2.338  23.173  26.000  1.00  0.00     0.000 C 
BRANCH   3   4
ATOM      4  C   UNL     1       3.409  23.011  27.092  1.00  0.00     0.000 C 
BRANCH   4   5
ATOM      5  C   UNL     1       4.374  24.211  27.125  1.00  0.00     0.000 C 
BRANCH   5   6
ATOM      6  C   UNL     1       5.851  23.796  27.026  1.00  0.00     0.000 C 
BRANCH   6   7
ATOM      7  C   UNL     1       6.249  23.344  25.612  1.00  0.00     0.000 C 
BRANCH   7   8
ATOM      8  C   UNL     1       7.125  22.084  25.665  1.00  0.00     0.000 C 
BRANCH   8   9
ATOM      9  C   UNL     1       6.874  21.248  26.931  1.00  0.00     0.000 C 
BRANCH   9  10
ATOM     10  C   UNL     1       6.873  19.736  26.647  1.00  0.00     0.000 C 
BRANCH  10  11
ATOM     11  C   UNL     1       5.458  19.137  26.708  1.00  0.00     0.000 C 
BRANCH  11  12
ATOM     12  C   UNL     1       5.485  17.607  26.867  1.00  0.00     0.006 C 
BRANCH  12  13
ATOM     13  C   UNL     1       4.384  16.918  26.045  1.00  0.00     0.053 C 
BRANCH  13  14
ATOM     14  C   UNL     1       4.658  16.873  24.566  1.00  0.00     0.041 C 
ATOM     15  O   UNL     1       5.831  16.747  24.118  1.00  0.00    -0.550 OA
ATOM     16  O   UNL     1       3.595  16.925  23.673  1.00  0.00    -0.550 OA
ENDBRANCH  13  14
ENDBRANCH  12  13
ENDBRANCH  11  12
ENDBRANCH  10  11
ENDBRANCH   9  10
ENDBRANCH   8   9
ENDBRANCH   7   8
ENDBRANCH   6   7
ENDBRANCH   5   6
ENDBRANCH   4   5
ENDBRANCH   3   4
ENDBRANCH   2   3
ENDBRANCH   1   2
BRANCH   1  17
ATOM     17  C   UNL     1       1.746  22.678  22.337  1.00  0.00     0.000 C 
BRANCH  17  18
ATOM     18  C   UNL     1       3.123  23.351  22.139  1.00  0.00     0.000 C 
BRANCH  18  19
ATOM     19  C   UNL     1       3.256  24.695  22.877  1.00  0.00     0.000 C 
BRANCH  19  20
ATOM     20  C   UNL     1       1.937  25.486  22.899  1.00  0.00     0.000 C 
BRANCH  20  21
ATOM     21  C   UNL     1       1.679  26.238  21.584  1.00  0.00     0.000 C 
BRANCH  21  22
ATOM     22  C   UNL     1       1.566  27.762  21.776  1.00  0.00    -0.000 C 
BRANCH  22  23
ATOM     23  C   UNL     1       0.231  28.186  22.411  1.00  0.00    -0.000 C 
BRANCH  23  24
ATOM     24  C   UNL     1      -0.688  28.920  21.419  1.00  0.00    -0.000 C 
BRANCH  24  25
ATOM     25  C   UNL     1       0.027  29.293  20.108  1.00  0.00    -0.000 C 
BRANCH  25  26
ATOM     26  C   UNL     1       0.225  30.806  19.859  1.00  0.00    -0.000 C 
BRANCH  26  27
ATOM     27  C   UNL     1      -1.025  31.682  20.076  1.00  0.00    -0.000 C 
BRANCH  27  28
ATOM     28  C   UNL     1      -2.166  31.405  19.071  1.00  0.00    -0.000 C 
BRANCH  28  29
ATOM     29  C   UNL     1      -2.423  32.561  18.093  1.00  0.00    -0.003 C 
ATOM     30  C   UNL     1      -2.028  32.223  16.657  1.00  0.00     0.004 C 
ENDBRANCH  28  29
ENDBRANCH  27  28
ENDBRANCH  26  27
ENDBRANCH  25  26
ENDBRANCH  24  25
ENDBRANCH  23  24
ENDBRANCH  22  23
ENDBRANCH  21  22
ENDBRANCH  20  21
ENDBRANCH  19  20
ENDBRANCH  18  19
ENDBRANCH  17  18
ENDBRANCH   1  17
TORSDOF 26
ENDMDL
MODEL 6
REMARK VINA RESULT:    -0.046      4.310      8.926
REMARK INTER + INTRA:          -1.885
REMARK INTER:                   1.225
REMARK INTRA:                  -3.110
REMARK UNBOUND:                -1.769
REMARK SMILES CCCCCCCCCCCCCCCCCCCCCCCCCCCC(=O)[O-]
REMARK SMILES IDX 15 1 16 2 17 3 18 4 19 5 20 6 21 7 22 8 23 9 24 10 25 11
REMARK SMILES IDX 26 12 27 13 28 14 29 15 30 16 14 17 13 18 12 19 11 20 10 21
REMARK SMILES IDX 9 22 8 23 7 24 6 25 5 26 4 27 3 28 2 29 1 30
REMARK H PARENT
REMARK Flexibility Score: inf
ROOT
ATOM      1  C   UNL     1       3.132  23.632  22.499  1.00  0.00     0.000 C 
ENDROOT
BRANCH   1   2
ATOM      2  C   UNL     1       2.211  22.571  23.130  1.00  0.00     0.000 C 
BRANCH   2   3
ATOM      3  C   UNL     1       1.106  22.108  22.160  1.00  0.00     0.000 C 
BRANCH   3   4
ATOM      4  C   UNL     1       1.063  20.577  22.015  1.00  0.00     0.000 C 
BRANCH   4   5
ATOM      5  C   UNL     1       2.143  19.895  22.877  1.00  0.00     0.000 C 
BRANCH   5   6
ATOM      6  C   UNL     1       2.300  18.397  22.565  1.00  0.00     0.000 C 
BRANCH   6   7
ATOM      7  C   UNL     1       3.493  17.759  23.294  1.00  0.00     0.000 C 
BRANCH   7   8
ATOM      8  C   UNL     1       3.042  16.556  24.136  1.00  0.00     0.000 C 
BRANCH   8   9
ATOM      9  C   UNL     1       3.323  15.215  23.439  1.00  0.00     0.000 C 
BRANCH   9  10
ATOM     10  C   UNL     1       4.809  14.819  23.502  1.00  0.00     0.000 C 
BRANCH  10  11
ATOM     11  C   UNL     1       5.213  14.309  24.895  1.00  0.00     0.000 C 
BRANCH  11  12
ATOM     12  C   UNL     1       6.609  14.805  25.309  1.00  0.00     0.006 C 
BRANCH  12  13
ATOM     13  C   UNL     1       6.540  16.026  26.241  1.00  0.00     0.053 C 
BRANCH  13  14
ATOM     14  C   UNL     1       6.441  17.344  25.520  1.00  0.00     0.041 C 
ATOM     15  O   UNL     1       6.917  17.498  24.362  1.00  0.00    -0.550 OA
ATOM     16  O   UNL     1       5.772  18.402  26.123  1.00  0.00    -0.550 OA
ENDBRANCH  13  14
ENDBRANCH  12  13
ENDBRANCH  11  12
ENDBRANCH  10  11
ENDBRANCH   9  10
ENDBRANCH   8   9
ENDBRANCH   7   8
ENDBRANCH   6   7
ENDBRANCH   5   6
ENDBRANCH   4   5
ENDBRANCH   3   4
ENDBRANCH   2   3
ENDBRANCH   1   2
BRANCH   1  17
ATOM     17  C   UNL     1       4.174  24.156  23.508  1.00  0.00     0.000 C 
BRANCH  17  18
ATOM     18  C   UNL     1       5.611  24.115  22.942  1.00  0.00     0.000 C 
BRANCH  18  19
ATOM     19  C   UNL     1       6.691  23.972  24.029  1.00  0.00     0.000 C 
BRANCH  19  20
ATOM     20  C   UNL     1       6.585  25.063  25.108  1.00  0.00     0.000 C 
BRANCH  20  21
ATOM     21  C   UNL     1       6.953  24.547  26.508  1.00  0.00     0.000 C 
BRANCH  21  22
ATOM     22  C   UNL     1       6.542  23.080  26.734  1.00  0.00    -0.000 C 
BRANCH  22  23
ATOM     23  C   UNL     1       5.062  22.928  27.124  1.00  0.00    -0.000 C 
BRANCH  23  24
ATOM     24  C   UNL     1       4.342  21.847  26.301  1.00  0.00    -0.000 C 
BRANCH  24  25
ATOM     25  C   UNL     1       3.306  21.062  27.125  1.00  0.00    -0.000 C 
BRANCH  25  26
ATOM     26  C   UNL     1       1.858  21.603  27.073  1.00  0.00    -0.000 C 
BRANCH  26  27
ATOM     27  C   UNL     1       1.724  23.138  27.092  1.00  0.00    -0.000 C 
BRANCH  27  28
ATOM     28  C   UNL     1       1.040  23.723  25.837  1.00  0.00    -0.000 C 
BRANCH  28  29
ATOM     29  C   UNL     1       1.276  25.230  25.649  1.00  0.00    -0.003 C 
ATOM     30  C   UNL     1       0.003  26.057  25.826  1.00  0.00     0.004 C 
ENDBRANCH  28  29
ENDBRANCH  27  28
ENDBRANCH  26  27
ENDBRANCH  25  26
ENDBRANCH  24  25
ENDBRANCH  23  24
ENDBRANCH  22  23
ENDBRANCH  21  22
ENDBRANCH  20  21
ENDBRANCH  19  20
ENDBRANCH  18  19
ENDBRANCH  17  18
ENDBRANCH   1  17
TORSDOF 26
ENDMDL
MODEL 7
REMARK VINA RESULT:    -0.025      1.536      3.116
REMARK INTER + INTRA:          -1.832
REMARK INTER:                  -0.477
REMARK INTRA:                  -1.355
REMARK UNBOUND:                -1.769
REMARK SMILES CCCCCCCCCCCCCCCCCCCCCCCCCCCC(=O)[O-]
REMARK SMILES IDX 15 1 16 2 17 3 18 4 19 5 20 6 21 7 22 8 23 9 24 10 25 11
REMARK SMILES IDX 26 12 27 13 28 14 29 15 30 16 14 17 13 18 12 19 11 20 10 21
REMARK SMILES IDX 9 22 8 23 7 24 6 25 5 26 4 27 3 28 2 29 1 30
REMARK H PARENT
REMARK Flexibility Score: inf
ROOT
ATOM      1  C   UNL     1       2.832  22.078  24.864  1.00  0.00     0.000 C 
ENDROOT
BRANCH   1   2
ATOM      2  C   UNL     1       1.485  22.769  24.581  1.00  0.00     0.000 C 
BRANCH   2   3
ATOM      3  C   UNL     1       1.106  22.718  23.088  1.00  0.00     0.000 C 
BRANCH   3   4
ATOM      4  C   UNL     1       2.306  23.014  22.172  1.00  0.00     0.000 C 
BRANCH   4   5
ATOM      5  C   UNL     1       3.127  24.214  22.682  1.00  0.00     0.000 C 
BRANCH   5   6
ATOM      6  C   UNL     1       2.248  25.374  23.177  1.00  0.00     0.000 C 
BRANCH   6   7
ATOM      7  C   UNL     1       2.093  26.491  22.132  1.00  0.00     0.000 C 
BRANCH   7   8
ATOM      8  C   UNL     1       0.702  27.137  22.222  1.00  0.00     0.000 C 
BRANCH   8   9
ATOM      9  C   UNL     1       0.302  27.849  20.920  1.00  0.00     0.000 C 
BRANCH   9  10
ATOM     10  C   UNL     1      -0.957  27.240  20.278  1.00  0.00     0.000 C 
BRANCH  10  11
ATOM     11  C   UNL     1      -2.249  27.839  20.860  1.00  0.00     0.000 C 
BRANCH  11  12
ATOM     12  C   UNL     1      -2.652  29.142  20.147  1.00  0.00     0.006 C 
BRANCH  12  13
ATOM     13  C   UNL     1      -1.948  30.372  20.743  1.00  0.00     0.053 C 
BRANCH  13  14
ATOM     14  C   UNL     1      -1.132  31.154  19.748  1.00  0.00     0.041 C 
ATOM     15  O   UNL     1       0.123  31.041  19.694  1.00  0.00    -0.550 OA
ATOM     16  O   UNL     1      -1.776  31.984  18.839  1.00  0.00    -0.550 OA
ENDBRANCH  13  14
ENDBRANCH  12  13
ENDBRANCH  11  12
ENDBRANCH  10  11
ENDBRANCH   9  10
ENDBRANCH   8   9
ENDBRANCH   7   8
ENDBRANCH   6   7
ENDBRANCH   5   6
ENDBRANCH   4   5
ENDBRANCH   3   4
ENDBRANCH   2   3
ENDBRANCH   1   2
BRANCH   1  17
ATOM     17  C   UNL     1       3.364  22.419  26.269  1.00  0.00     0.000 C 
BRANCH  17  18
ATOM     18  C   UNL     1       3.537  23.940  26.479  1.00  0.00     0.000 C 
BRANCH  18  19
ATOM     19  C   UNL     1       4.971  24.433  26.216  1.00  0.00     0.000 C 
BRANCH  19  20
ATOM     20  C   UNL     1       5.766  23.472  25.315  1.00  0.00     0.000 C 
BRANCH  20  21
ATOM     21  C   UNL     1       7.110  23.058  25.935  1.00  0.00     0.000 C 
BRANCH  21  22
ATOM     22  C   UNL     1       6.983  21.872  26.908  1.00  0.00    -0.000 C 
BRANCH  22  23
ATOM     23  C   UNL     1       6.692  20.542  26.192  1.00  0.00    -0.000 C 
BRANCH  23  24
ATOM     24  C   UNL     1       6.839  19.325  27.122  1.00  0.00    -0.000 C 
BRANCH  24  25
ATOM     25  C   UNL     1       5.606  18.405  27.100  1.00  0.00    -0.000 C 
BRANCH  25  26
ATOM     26  C   UNL     1       5.903  16.888  27.068  1.00  0.00    -0.000 C 
BRANCH  26  27
ATOM     27  C   UNL     1       5.002  16.057  26.133  1.00  0.00    -0.000 C 
BRANCH  27  28
ATOM     28  C   UNL     1       4.601  16.791  24.834  1.00  0.00    -0.000 C 
BRANCH  28  29
ATOM     29  C   UNL     1       4.293  15.849  23.661  1.00  0.00    -0.003 C 
ATOM     30  C   UNL     1       2.796  15.625  23.455  1.00  0.00     0.004 C 
ENDBRANCH  28  29
ENDBRANCH  27  28
ENDBRANCH  26  27
ENDBRANCH  25  26
ENDBRANCH  24  25
ENDBRANCH  23  24
ENDBRANCH  22  23
ENDBRANCH  21  22
ENDBRANCH  20  21
ENDBRANCH  19  20
ENDBRANCH  18  19
ENDBRANCH  17  18
ENDBRANCH   1  17
TORSDOF 26
ENDMDL
MODEL 8
REMARK VINA RESULT:     0.200      1.613      3.497
REMARK INTER + INTRA:          -1.265
REMARK INTER:                   1.618
REMARK INTRA:                  -2.883
REMARK UNBOUND:                -1.769
REMARK SMILES CCCCCCCCCCCCCCCCCCCCCCCCCCCC(=O)[O-]
REMARK SMILES IDX 15 1 16 2 17 3 18 4 19 5 20 6 21 7 22 8 23 9 24 10 25 11
REMARK SMILES IDX 26 12 27 13 28 14 29 15 30 16 14 17 13 18 12 19 11 20 10 21
REMARK SMILES IDX 9 22 8 23 7 24 6 25 5 26 4 27 3 28 2 29 1 30
REMARK H PARENT
REMARK Flexibility Score: inf
ROOT
ATOM      1  C   UNL     1       3.316  24.348  24.713  1.00  0.00     0.000 C 
ENDROOT
BRANCH   1   2
ATOM      2  C   UNL     1       3.739  23.332  25.790  1.00  0.00     0.000 C 
BRANCH   2   3
ATOM      3  C   UNL     1       2.703  23.220  26.925  1.00  0.00     0.000 C 
BRANCH   3   4
ATOM      4  C   UNL     1       1.747  22.032  26.726  1.00  0.00     0.000 C 
BRANCH   4   5
ATOM      5  C   UNL     1       0.334  22.500  26.327  1.00  0.00     0.000 C 
BRANCH   5   6
ATOM      6  C   UNL     1      -0.017  23.889  26.887  1.00  0.00     0.000 C 
BRANCH   6   7
ATOM      7  C   UNL     1      -0.434  24.884  25.792  1.00  0.00     0.000 C 
BRANCH   7   8
ATOM      8  C   UNL     1       0.188  26.266  26.042  1.00  0.00     0.000 C 
BRANCH   8   9
ATOM      9  C   UNL     1       0.374  27.068  24.743  1.00  0.00     0.000 C 
BRANCH   9  10
ATOM     10  C   UNL     1       0.737  26.172  23.546  1.00  0.00     0.000 C 
BRANCH  10  11
ATOM     11  C   UNL     1       1.347  26.977  22.386  1.00  0.00     0.000 C 
BRANCH  11  12
ATOM     12  C   UNL     1       0.573  28.280  22.119  1.00  0.00     0.006 C 
BRANCH  12  13
ATOM     13  C   UNL     1      -0.243  28.216  20.818  1.00  0.00     0.053 C 
BRANCH  13  14
ATOM     14  C   UNL     1      -0.760  29.550  20.350  1.00  0.00     0.041 C 
ATOM     15  O   UNL     1       0.019  30.441  19.915  1.00  0.00    -0.550 OA
ATOM     16  O   UNL     1      -2.129  29.791  20.354  1.00  0.00    -0.550 OA
ENDBRANCH  13  14
ENDBRANCH  12  13
ENDBRANCH  11  12
ENDBRANCH  10  11
ENDBRANCH   9  10
ENDBRANCH   8   9
ENDBRANCH   7   8
ENDBRANCH   6   7
ENDBRANCH   5   6
ENDBRANCH   4   5
ENDBRANCH   3   4
ENDBRANCH   2   3
ENDBRANCH   1   2
BRANCH   1  17
ATOM     17  C   UNL     1       3.133  23.679  23.337  1.00  0.00     0.000 C 
BRANCH  17  18
ATOM     18  C   UNL     1       1.653  23.357  23.032  1.00  0.00     0.000 C 
BRANCH  18  19
ATOM     19  C   UNL     1       1.463  22.052  22.240  1.00  0.00     0.000 C 
BRANCH  19  20
ATOM     20  C   UNL     1       1.758  20.803  23.088  1.00  0.00     0.000 C 
BRANCH  20  21
ATOM     21  C   UNL     1       2.059  19.564  22.229  1.00  0.00     0.000 C 
BRANCH  21  22
ATOM     22  C   UNL     1       1.932  18.245  23.013  1.00  0.00    -0.000 C 
BRANCH  22  23
ATOM     23  C   UNL     1       3.234  17.426  23.017  1.00  0.00    -0.000 C 
BRANCH  23  24
ATOM     24  C   UNL     1       3.008  15.956  22.622  1.00  0.00    -0.000 C 
BRANCH  24  25
ATOM     25  C   UNL     1       3.240  14.982  23.791  1.00  0.00    -0.000 C 
BRANCH  25  26
ATOM     26  C   UNL     1       2.190  15.033  24.925  1.00  0.00    -0.000 C 
BRANCH  26  27
ATOM     27  C   UNL     1       2.653  15.718  26.226  1.00  0.00    -0.000 C 
BRANCH  27  28
ATOM     28  C   UNL     1       3.944  15.117  26.825  1.00  0.00    -0.000 C 
BRANCH  28  29
ATOM     29  C   UNL     1       5.134  16.088  26.829  1.00  0.00    -0.003 C 
ATOM     30  C   UNL     1       4.769  17.479  26.313  1.00  0.00     0.004 C 
ENDBRANCH  28  29
ENDBRANCH  27  28
ENDBRANCH  26  27
ENDBRANCH  25  26
ENDBRANCH  24  25
ENDBRANCH  23  24
ENDBRANCH  22  23
ENDBRANCH  21  22
ENDBRANCH  20  21
ENDBRANCH  19  20
ENDBRANCH  18  19
ENDBRANCH  17  18
ENDBRANCH   1  17
TORSDOF 26
ENDMDL
