MODEL 1
REMARK VINA RESULT:    -4.746      0.000      0.000
REMARK INTER + INTRA:          -9.339
REMARK INTER:                  -8.075
REMARK INTRA:                  -1.263
REMARK UNBOUND:                -1.263
REMARK SMILES CCCCCCCCCCCCCC(=O)[O-]
REMARK SMILES IDX 8 1 9 2 10 3 11 4 12 5 13 6 14 7 15 8 16 9 7 10 6 11 5 12
REMARK SMILES IDX 4 13 3 14 2 15 1 16
REMARK H PARENT
REMARK Flexibility Score: inf
ROOT
ATOM      1  C   UNL     1      99.849  88.758  88.469  1.00  0.00     0.000 C 
ENDROOT
BRANCH   1   2
ATOM      2  C   UNL     1      99.464  88.343  87.038  1.00  0.00     0.000 C 
BRANCH   2   3
ATOM      3  C   UNL     1     100.244  89.137  85.969  1.00  0.00     0.000 C 
BRANCH   3   4
ATOM      4  C   UNL     1      99.339  89.832  84.933  1.00  0.00     0.000 C 
BRANCH   4   5
ATOM      5  C   UNL     1      99.042  91.315  85.224  1.00  0.00     0.006 C 
BRANCH   5   6
ATOM      6  C   UNL     1      99.955  91.945  86.290  1.00  0.00     0.053 C 
BRANCH   6   7
ATOM      7  C   UNL     1      99.209  92.259  87.551  1.00  0.00     0.041 C 
ATOM      8  O   UNL     1      97.972  92.488  87.513  1.00  0.00    -0.550 OA
ATOM      9  O   UNL     1      99.887  92.330  88.761  1.00  0.00    -0.550 OA
ENDBRANCH   6   7
ENDBRANCH   5   6
ENDBRANCH   4   5
ENDBRANCH   3   4
ENDBRANCH   2   3
ENDBRANCH   1   2
BRANCH   1  10
ATOM     10  C   UNL     1     101.146  88.088  88.950  1.00  0.00     0.000 C 
BRANCH  10  11
ATOM     11  C   UNL     1     101.019  87.505  90.368  1.00  0.00    -0.000 C 
BRANCH  11  12
ATOM     12  C   UNL     1     101.923  88.219  91.390  1.00  0.00    -0.000 C 
BRANCH  12  13
ATOM     13  C   UNL     1     101.177  88.971  92.507  1.00  0.00    -0.000 C 
BRANCH  13  14
ATOM     14  C   UNL     1      99.651  88.969  92.314  1.00  0.00    -0.000 C 
BRANCH  14  15
ATOM     15  C   UNL     1      99.108  90.350  91.913  1.00  0.00    -0.003 C 
ATOM     16  C   UNL     1      97.805  90.267  91.119  1.00  0.00     0.004 C 
ENDBRANCH  14  15
ENDBRANCH  13  14
ENDBRANCH  12  13
ENDBRANCH  11  12
ENDBRANCH  10  11
ENDBRANCH   1  10
TORSDOF 12
ENDMDL
MODEL 2
REMARK VINA RESULT:    -4.697      2.813      6.053
REMARK INTER + INTRA:          -9.256
REMARK INTER:                  -7.859
REMARK INTRA:                  -1.397
REMARK UNBOUND:                -1.263
REMARK SMILES CCCCCCCCCCCCCC(=O)[O-]
REMARK SMILES IDX 8 1 9 2 10 3 11 4 12 5 13 6 14 7 15 8 16 9 7 10 6 11 5 12
REMARK SMILES IDX 4 13 3 14 2 15 1 16
REMARK H PARENT
REMARK Flexibility Score: inf
ROOT
ATOM      1  C   UNL     1      98.559  92.410  88.136  1.00  0.00     0.000 C 
ENDROOT
BRANCH   1   2
ATOM      2  C   UNL     1      99.512  91.818  89.190  1.00  0.00     0.000 C 
BRANCH   2   3
ATOM      3  C   UNL     1      99.063  90.419  89.663  1.00  0.00     0.000 C 
BRANCH   3   4
ATOM      4  C   UNL     1      98.724  90.354  91.165  1.00  0.00     0.000 C 
BRANCH   4   5
ATOM      5  C   UNL     1      99.744  89.584  92.026  1.00  0.00     0.006 C 
BRANCH   5   6
ATOM      6  C   UNL     1     100.774  88.780  91.216  1.00  0.00     0.053 C 
BRANCH   6   7
ATOM      7  C   UNL     1     101.629  87.919  92.095  1.00  0.00     0.041 C 
ATOM      8  O   UNL     1     101.173  87.475  93.181  1.00  0.00    -0.550 OA
ATOM      9  O   UNL     1     102.939  87.637  91.730  1.00  0.00    -0.550 OA
ENDBRANCH   6   7
ENDBRANCH   5   6
ENDBRANCH   4   5
ENDBRANCH   3   4
ENDBRANCH   2   3
ENDBRANCH   1   2
BRANCH   1  10
ATOM     10  C   UNL     1      99.163  92.400  86.723  1.00  0.00     0.000 C 
BRANCH  10  11
ATOM     11  C   UNL     1      98.513  91.347  85.809  1.00  0.00    -0.000 C 
BRANCH  11  12
ATOM     12  C   UNL     1      99.544  90.433  85.123  1.00  0.00    -0.000 C 
BRANCH  12  13
ATOM     13  C   UNL     1     100.927  90.387  85.799  1.00  0.00    -0.000 C 
BRANCH  13  14
ATOM     14  C   UNL     1     101.067  89.226  86.798  1.00  0.00    -0.000 C 
BRANCH  14  15
ATOM     15  C   UNL     1     100.310  87.967  86.346  1.00  0.00    -0.003 C 
ATOM     16  C   UNL     1      99.195  87.567  87.311  1.00  0.00     0.004 C 
ENDBRANCH  14  15
ENDBRANCH  13  14
ENDBRANCH  12  13
ENDBRANCH  11  12
ENDBRANCH  10  11
ENDBRANCH   1  10
TORSDOF 12
ENDMDL
MODEL 3
REMARK VINA RESULT:    -4.569      1.402      2.696
REMARK INTER + INTRA:          -9.038
REMARK INTER:                  -7.435
REMARK INTRA:                  -1.603
REMARK UNBOUND:                -1.263
REMARK SMILES CCCCCCCCCCCCCC(=O)[O-]
REMARK SMILES IDX 8 1 9 2 10 3 11 4 12 5 13 6 14 7 15 8 16 9 7 10 6 11 5 12
REMARK SMILES IDX 4 13 3 14 2 15 1 16
REMARK H PARENT
REMARK Flexibility Score: inf
ROOT
ATOM      1  C   UNL     1     101.814  87.932  90.146  1.00  0.00     0.000 C 
ENDROOT
BRANCH   1   2
ATOM      2  C   UNL     1     101.419  88.082  88.666  1.00  0.00     0.000 C 
BRANCH   2   3
ATOM      3  C   UNL     1      99.934  87.744  88.421  1.00  0.00     0.000 C 
BRANCH   3   4
ATOM      4  C   UNL     1      99.552  87.682  86.929  1.00  0.00     0.000 C 
BRANCH   4   5
ATOM      5  C   UNL     1     100.373  88.607  86.011  1.00  0.00     0.006 C 
BRANCH   5   6
ATOM      6  C   UNL     1      99.540  89.674  85.281  1.00  0.00     0.053 C 
BRANCH   6   7
ATOM      7  C   UNL     1     100.044  91.058  85.550  1.00  0.00     0.041 C 
ATOM      8  O   UNL     1     101.220  91.234  85.963  1.00  0.00    -0.550 OA
ATOM      9  O   UNL     1      99.204  92.151  85.374  1.00  0.00    -0.550 OA
ENDBRANCH   6   7
ENDBRANCH   5   6
ENDBRANCH   4   5
ENDBRANCH   3   4
ENDBRANCH   2   3
ENDBRANCH   1   2
BRANCH   1  10
ATOM     10  C   UNL     1     100.854  87.020  90.924  1.00  0.00     0.000 C 
BRANCH  10  11
ATOM     11  C   UNL     1     100.381  87.649  92.246  1.00  0.00    -0.000 C 
BRANCH  11  12
ATOM     12  C   UNL     1     100.262  89.182  92.170  1.00  0.00    -0.000 C 
BRANCH  12  13
ATOM     13  C   UNL     1      98.828  89.731  92.279  1.00  0.00    -0.000 C 
BRANCH  13  14
ATOM     14  C   UNL     1      98.312  90.323  90.956  1.00  0.00    -0.000 C 
BRANCH  14  15
ATOM     15  C   UNL     1      99.443  90.886  90.083  1.00  0.00    -0.003 C 
ATOM     16  C   UNL     1      98.936  91.818  88.983  1.00  0.00     0.004 C 
ENDBRANCH  14  15
ENDBRANCH  13  14
ENDBRANCH  12  13
ENDBRANCH  11  12
ENDBRANCH  10  11
ENDBRANCH   1  10
TORSDOF 12
ENDMDL
MODEL 4
REMARK VINA RESULT:    -4.466      2.500      6.034
REMARK INTER + INTRA:          -8.862
REMARK INTER:                  -7.363
REMARK INTRA:                  -1.499
REMARK UNBOUND:                -1.263
REMARK SMILES CCCCCCCCCCCCCC(=O)[O-]
REMARK SMILES IDX 8 1 9 2 10 3 11 4 12 5 13 6 14 7 15 8 16 9 7 10 6 11 5 12
REMARK SMILES IDX 4 13 3 14 2 15 1 16
REMARK H PARENT
REMARK Flexibility Score: inf
ROOT
ATOM      1  C   UNL     1      99.696  90.490  89.289  1.00  0.00     0.000 C 
ENDROOT
BRANCH   1   2
ATOM      2  C   UNL     1      98.384  90.842  90.012  1.00  0.00     0.000 C 
BRANCH   2   3
ATOM      3  C   UNL     1      98.212  90.052  91.327  1.00  0.00     0.000 C 
BRANCH   3   4
ATOM      4  C   UNL     1      99.312  90.336  92.368  1.00  0.00     0.000 C 
BRANCH   4   5
ATOM      5  C   UNL     1     100.195  89.125  92.724  1.00  0.00     0.006 C 
BRANCH   5   6
ATOM      6  C   UNL     1     101.524  89.064  91.952  1.00  0.00     0.053 C 
BRANCH   6   7
ATOM      7  C   UNL     1     101.759  87.714  91.347  1.00  0.00     0.041 C 
ATOM      8  O   UNL     1     102.927  87.344  91.061  1.00  0.00    -0.550 OA
ATOM      9  O   UNL     1     100.684  86.879  91.071  1.00  0.00    -0.550 OA
ENDBRANCH   6   7
ENDBRANCH   5   6
ENDBRANCH   4   5
ENDBRANCH   3   4
ENDBRANCH   2   3
ENDBRANCH   1   2
BRANCH   1  10
ATOM     10  C   UNL     1      99.651  89.105  88.625  1.00  0.00     0.000 C 
BRANCH  10  11
ATOM     11  C   UNL     1     100.649  88.974  87.460  1.00  0.00    -0.000 C 
BRANCH  11  12
ATOM     12  C   UNL     1      99.990  88.473  86.162  1.00  0.00    -0.000 C 
BRANCH  12  13
ATOM     13  C   UNL     1      99.721  89.560  85.105  1.00  0.00    -0.000 C 
BRANCH  13  14
ATOM     14  C   UNL     1      98.355  90.244  85.284  1.00  0.00    -0.000 C 
BRANCH  14  15
ATOM     15  C   UNL     1      98.466  91.602  85.992  1.00  0.00    -0.003 C 
ATOM     16  C   UNL     1      99.873  92.195  85.922  1.00  0.00     0.004 C 
ENDBRANCH  14  15
ENDBRANCH  13  14
ENDBRANCH  12  13
ENDBRANCH  11  12
ENDBRANCH  10  11
ENDBRANCH   1  10
TORSDOF 12
ENDMDL
MODEL 5
REMARK VINA RESULT:    -4.269     11.505     12.393
REMARK INTER + INTRA:          -8.528
REMARK INTER:                  -6.938
REMARK INTRA:                  -1.589
REMARK UNBOUND:                -1.263
REMARK SMILES CCCCCCCCCCCCCC(=O)[O-]
REMARK SMILES IDX 8 1 9 2 10 3 11 4 12 5 13 6 14 7 15 8 16 9 7 10 6 11 5 12
REMARK SMILES IDX 4 13 3 14 2 15 1 16
REMARK H PARENT
REMARK Flexibility Score: inf
ROOT
ATOM      1  C   UNL     1     104.038  95.503  98.193  1.00  0.00     0.000 C 
ENDROOT
BRANCH   1   2
ATOM      2  C   UNL     1     104.165  96.836  97.434  1.00  0.00     0.000 C 
BRANCH   2   3
ATOM      3  C   UNL     1     105.473  96.922  96.619  1.00  0.00     0.000 C 
BRANCH   3   4
ATOM      4  C   UNL     1     105.299  97.588  95.240  1.00  0.00     0.000 C 
BRANCH   4   5
ATOM      5  C   UNL     1     104.002  98.401  95.072  1.00  0.00     0.006 C 
BRANCH   5   6
ATOM      6  C   UNL     1     104.221  99.915  94.923  1.00  0.00     0.053 C 
BRANCH   6   7
ATOM      7  C   UNL     1     105.102 100.463  96.004  1.00  0.00     0.041 C 
ATOM      8  O   UNL     1     104.705 100.473  97.199  1.00  0.00    -0.550 OA
ATOM      9  O   UNL     1     106.346 100.991  95.686  1.00  0.00    -0.550 OA
ENDBRANCH   6   7
ENDBRANCH   5   6
ENDBRANCH   4   5
ENDBRANCH   3   4
ENDBRANCH   2   3
ENDBRANCH   1   2
BRANCH   1  10
ATOM     10  C   UNL     1     102.754  95.422  99.034  1.00  0.00     0.000 C 
BRANCH  10  11
ATOM     11  C   UNL     1     101.730  96.506  98.655  1.00  0.00    -0.000 C 
BRANCH  11  12
ATOM     12  C   UNL     1     100.421  95.921  98.095  1.00  0.00    -0.000 C 
BRANCH  12  13
ATOM     13  C   UNL     1      99.719  96.791  97.036  1.00  0.00    -0.000 C 
BRANCH  13  14
ATOM     14  C   UNL     1     100.707  97.574  96.154  1.00  0.00    -0.000 C 
BRANCH  14  15
ATOM     15  C   UNL     1     100.435  99.086  96.166  1.00  0.00    -0.003 C 
ATOM     16  C   UNL     1     101.157  99.809  97.303  1.00  0.00     0.004 C 
ENDBRANCH  14  15
ENDBRANCH  13  14
ENDBRANCH  12  13
ENDBRANCH  11  12
ENDBRANCH  10  11
ENDBRANCH   1  10
TORSDOF 12
ENDMDL
MODEL 6
REMARK VINA RESULT:    -4.266     10.614     12.243
REMARK INTER + INTRA:          -8.523
REMARK INTER:                  -7.395
REMARK INTRA:                  -1.128
REMARK UNBOUND:                -1.263
REMARK SMILES CCCCCCCCCCCCCC(=O)[O-]
REMARK SMILES IDX 8 1 9 2 10 3 11 4 12 5 13 6 14 7 15 8 16 9 7 10 6 11 5 12
REMARK SMILES IDX 4 13 3 14 2 15 1 16
REMARK H PARENT
REMARK Flexibility Score: inf
ROOT
ATOM      1  C   UNL     1     104.310  96.932  97.399  1.00  0.00     0.000 C 
ENDROOT
BRANCH   1   2
ATOM      2  C   UNL     1     105.498  96.958  96.421  1.00  0.00     0.000 C 
BRANCH   2   3
ATOM      3  C   UNL     1     105.100  97.499  95.032  1.00  0.00     0.000 C 
BRANCH   3   4
ATOM      4  C   UNL     1     103.826  98.366  95.047  1.00  0.00     0.000 C 
BRANCH   4   5
ATOM      5  C   UNL     1     104.049  99.850  94.700  1.00  0.00     0.006 C 
BRANCH   5   6
ATOM      6  C   UNL     1     105.495 100.334  94.893  1.00  0.00     0.053 C 
BRANCH   6   7
ATOM      7  C   UNL     1     105.749 100.797  96.295  1.00  0.00     0.041 C 
ATOM      8  O   UNL     1     104.783 101.090  97.049  1.00  0.00    -0.550 OA
ATOM      9  O   UNL     1     107.051 100.935  96.758  1.00  0.00    -0.550 OA
ENDBRANCH   6   7
ENDBRANCH   5   6
ENDBRANCH   4   5
ENDBRANCH   3   4
ENDBRANCH   2   3
ENDBRANCH   1   2
BRANCH   1  10
ATOM     10  C   UNL     1     104.133  95.564  98.076  1.00  0.00     0.000 C 
BRANCH  10  11
ATOM     11  C   UNL     1     102.911  95.520  99.009  1.00  0.00    -0.000 C 
BRANCH  11  12
ATOM     12  C   UNL     1     101.995  96.747  98.853  1.00  0.00    -0.000 C 
BRANCH  12  13
ATOM     13  C   UNL     1     100.661  96.478  98.131  1.00  0.00    -0.000 C 
BRANCH  13  14
ATOM     14  C   UNL     1     100.516  97.278  96.825  1.00  0.00    -0.000 C 
BRANCH  14  15
ATOM     15  C   UNL     1      99.642  96.555  95.788  1.00  0.00    -0.003 C 
ATOM     16  C   UNL     1      98.832  95.408  96.391  1.00  0.00     0.004 C 
ENDBRANCH  14  15
ENDBRANCH  13  14
ENDBRANCH  12  13
ENDBRANCH  11  12
ENDBRANCH  10  11
ENDBRANCH   1  10
TORSDOF 12
ENDMDL
MODEL 7
REMARK VINA RESULT:    -4.179     10.476     12.154
REMARK INTER + INTRA:          -8.373
REMARK INTER:                  -6.848
REMARK INTRA:                  -1.525
REMARK UNBOUND:                -1.263
REMARK SMILES CCCCCCCCCCCCCC(=O)[O-]
REMARK SMILES IDX 8 1 9 2 10 3 11 4 12 5 13 6 14 7 15 8 16 9 7 10 6 11 5 12
REMARK SMILES IDX 4 13 3 14 2 15 1 16
REMARK H PARENT
REMARK Flexibility Score: inf
ROOT
ATOM      1  C   UNL     1     103.275  95.984  98.628  1.00  0.00     0.000 C 
ENDROOT
BRANCH   1   2
ATOM      2  C   UNL     1     103.988  97.154  97.927  1.00  0.00     0.000 C 
BRANCH   2   3
ATOM      3  C   UNL     1     105.060  96.670  96.926  1.00  0.00     0.000 C 
BRANCH   3   4
ATOM      4  C   UNL     1     104.992  97.376  95.558  1.00  0.00     0.000 C 
BRANCH   4   5
ATOM      5  C   UNL     1     103.782  98.311  95.372  1.00  0.00     0.006 C 
BRANCH   5   6
ATOM      6  C   UNL     1     104.151  99.752  94.980  1.00  0.00     0.053 C 
BRANCH   6   7
ATOM      7  C   UNL     1     104.832 100.479  96.100  1.00  0.00     0.041 C 
ATOM      8  O   UNL     1     105.991 100.943  95.940  1.00  0.00    -0.550 OA
ATOM      9  O   UNL     1     104.197 100.615  97.328  1.00  0.00    -0.550 OA
ENDBRANCH   6   7
ENDBRANCH   5   6
ENDBRANCH   4   5
ENDBRANCH   3   4
ENDBRANCH   2   3
ENDBRANCH   1   2
BRANCH   1  10
ATOM     10  C   UNL     1     101.745  96.072  98.515  1.00  0.00     0.000 C 
BRANCH  10  11
ATOM     11  C   UNL     1     101.231  97.521  98.564  1.00  0.00    -0.000 C 
BRANCH  11  12
ATOM     12  C   UNL     1     100.201  97.827  97.461  1.00  0.00    -0.000 C 
BRANCH  12  13
ATOM     13  C   UNL     1     100.347  96.984  96.181  1.00  0.00    -0.000 C 
BRANCH  13  14
ATOM     14  C   UNL     1      99.048  96.259  95.791  1.00  0.00    -0.000 C 
BRANCH  14  15
ATOM     15  C   UNL     1      98.296  95.704  97.011  1.00  0.00    -0.003 C 
ATOM     16  C   UNL     1      98.660  94.253  97.322  1.00  0.00     0.004 C 
ENDBRANCH  14  15
ENDBRANCH  13  14
ENDBRANCH  12  13
ENDBRANCH  11  12
ENDBRANCH  10  11
ENDBRANCH   1  10
TORSDOF 12
ENDMDL
MODEL 8
REMARK VINA RESULT:    -4.175      9.919     11.966
REMARK INTER + INTRA:          -8.368
REMARK INTER:                  -6.726
REMARK INTRA:                  -1.642
REMARK UNBOUND:                -1.263
REMARK SMILES CCCCCCCCCCCCCC(=O)[O-]
REMARK SMILES IDX 8 1 9 2 10 3 11 4 12 5 13 6 14 7 15 8 16 9 7 10 6 11 5 12
REMARK SMILES IDX 4 13 3 14 2 15 1 16
REMARK H PARENT
REMARK Flexibility Score: inf
ROOT
ATOM      1  C   UNL     1     101.606  96.326  98.484  1.00  0.00     0.000 C 
ENDROOT
BRANCH   1   2
ATOM      2  C   UNL     1     103.047  96.208  99.010  1.00  0.00     0.000 C 
BRANCH   2   3
ATOM      3  C   UNL     1     104.083  96.148  97.867  1.00  0.00     0.000 C 
BRANCH   3   4
ATOM      4  C   UNL     1     104.482  97.533  97.322  1.00  0.00     0.000 C 
BRANCH   4   5
ATOM      5  C   UNL     1     104.541  97.632  95.786  1.00  0.00     0.006 C 
BRANCH   5   6
ATOM      6  C   UNL     1     104.890  99.033  95.256  1.00  0.00     0.053 C 
BRANCH   6   7
ATOM      7  C   UNL     1     103.687  99.923  95.192  1.00  0.00     0.041 C 
ATOM      8  O   UNL     1     102.964  99.936  94.162  1.00  0.00    -0.550 OA
ATOM      9  O   UNL     1     103.385 100.761  96.257  1.00  0.00    -0.550 OA
ENDBRANCH   6   7
ENDBRANCH   5   6
ENDBRANCH   4   5
ENDBRANCH   3   4
ENDBRANCH   2   3
ENDBRANCH   1   2
BRANCH   1  10
ATOM     10  C   UNL     1     100.989  97.706  98.756  1.00  0.00     0.000 C 
BRANCH  10  11
ATOM     11  C   UNL     1     100.864  98.560  97.482  1.00  0.00    -0.000 C 
BRANCH  11  12
ATOM     12  C   UNL     1     100.798  97.712  96.199  1.00  0.00    -0.000 C 
BRANCH  12  13
ATOM     13  C   UNL     1      99.376  97.381  95.709  1.00  0.00    -0.000 C 
BRANCH  13  14
ATOM     14  C   UNL     1      99.061  95.876  95.760  1.00  0.00    -0.000 C 
BRANCH  14  15
ATOM     15  C   UNL     1      98.398  95.459  97.083  1.00  0.00    -0.003 C 
ATOM     16  C   UNL     1      98.762  94.036  97.505  1.00  0.00     0.004 C 
ENDBRANCH  14  15
ENDBRANCH  13  14
ENDBRANCH  12  13
ENDBRANCH  11  12
ENDBRANCH  10  11
ENDBRANCH   1  10
TORSDOF 12
ENDMDL
MODEL 9
REMARK VINA RESULT:    -4.153     10.328     12.071
REMARK INTER + INTRA:          -8.330
REMARK INTER:                  -7.074
REMARK INTRA:                  -1.256
REMARK UNBOUND:                -1.263
REMARK SMILES CCCCCCCCCCCCCC(=O)[O-]
REMARK SMILES IDX 8 1 9 2 10 3 11 4 12 5 13 6 14 7 15 8 16 9 7 10 6 11 5 12
REMARK SMILES IDX 4 13 3 14 2 15 1 16
REMARK H PARENT
REMARK Flexibility Score: inf
ROOT
ATOM      1  C   UNL     1     104.385  97.151  97.472  1.00  0.00     0.000 C 
ENDROOT
BRANCH   1   2
ATOM      2  C   UNL     1     105.218  96.996  96.187  1.00  0.00     0.000 C 
BRANCH   2   3
ATOM      3  C   UNL     1     104.913  98.104  95.156  1.00  0.00     0.000 C 
BRANCH   3   4
ATOM      4  C   UNL     1     103.429  98.516  95.112  1.00  0.00     0.000 C 
BRANCH   4   5
ATOM      5  C   UNL     1     103.175 100.033  95.207  1.00  0.00     0.006 C 
BRANCH   5   6
ATOM      6  C   UNL     1     101.749 100.408  95.645  1.00  0.00     0.053 C 
BRANCH   6   7
ATOM      7  C   UNL     1     101.647 101.850  96.039  1.00  0.00     0.041 C 
ATOM      8  O   UNL     1     102.430 102.327  96.901  1.00  0.00    -0.550 OA
ATOM      9  O   UNL     1     100.664 102.656  95.479  1.00  0.00    -0.550 OA
ENDBRANCH   6   7
ENDBRANCH   5   6
ENDBRANCH   4   5
ENDBRANCH   3   4
ENDBRANCH   2   3
ENDBRANCH   1   2
BRANCH   1  10
ATOM     10  C   UNL     1     103.997  95.799  98.091  1.00  0.00     0.000 C 
BRANCH  10  11
ATOM     11  C   UNL     1     102.689  95.872  98.898  1.00  0.00    -0.000 C 
BRANCH  11  12
ATOM     12  C   UNL     1     101.827  97.094  98.531  1.00  0.00    -0.000 C 
BRANCH  12  13
ATOM     13  C   UNL     1     100.445  96.762  97.937  1.00  0.00    -0.000 C 
BRANCH  13  14
ATOM     14  C   UNL     1     100.353  97.065  96.432  1.00  0.00    -0.000 C 
BRANCH  14  15
ATOM     15  C   UNL     1      99.276  96.224  95.729  1.00  0.00    -0.003 C 
ATOM     16  C   UNL     1      98.792  95.049  96.578  1.00  0.00     0.004 C 
ENDBRANCH  14  15
ENDBRANCH  13  14
ENDBRANCH  12  13
ENDBRANCH  11  12
ENDBRANCH  10  11
ENDBRANCH   1  10
TORSDOF 12
ENDMDL
