MODEL 1
REMARK VINA RESULT:    -5.320      0.000      0.000
REMARK INTER + INTRA:          -8.598
REMARK INTER:                  -7.653
REMARK INTRA:                  -0.945
REMARK UNBOUND:                -0.945
REMARK SMILES O=c1cc(-c2ccc(O)c(O)c2)oc2cc(O[C@H]3O[C@H](CO)[C@@H](O)[C@H](O)[C@H]3O)cc(O)c12
REMARK SMILES IDX 17 1 16 2 4 3 3 4 13 5 2 6 14 7 1 8 32 9 15 10 30 11 29 12
REMARK SMILES IDX 5 13 6 14 7 15 8 16 12 17 10 18 9 19 11 21 31 23 18 25 27 26
REMARK SMILES IDX 19 27 25 28 20 29 23 30 28 31 26 33 21 35 22 36 24 38
REMARK H PARENT 9 20 11 22 31 24 28 32 26 34 22 37 24 39
REMARK Flexibility Score: inf
ROOT
ATOM      1  O   UNL     1     -44.157 -40.712  73.212  1.00  0.00    -0.462 OA
ENDROOT
BRANCH   1   2
ATOM      2  C   UNL     1     -44.665 -39.447  72.896  1.00  0.00     0.130 A 
ATOM      3  C   UNL     1     -48.487 -37.019  71.450  1.00  0.00     0.138 A 
ATOM      4  C   UNL     1     -47.817 -35.791  71.470  1.00  0.00     0.100 A 
ATOM      5  O   UNL     1     -47.859 -38.114  71.857  1.00  0.00    -0.456 OA
ATOM      6  C   UNL     1     -46.482 -35.742  71.877  1.00  0.00     0.197 A 
ATOM      7  C   UNL     1     -46.583 -38.130  72.224  1.00  0.00     0.146 A 
ATOM      8  O   UNL     1     -45.939 -34.612  71.977  1.00  0.00    -0.289 OA
ATOM      9  C   UNL     1     -45.809 -36.939  72.228  1.00  0.00     0.107 A 
ATOM     10  C   UNL     1     -46.018 -39.350  72.581  1.00  0.00     0.094 A 
ATOM     11  C   UNL     1     -44.413 -37.042  72.532  1.00  0.00     0.134 A 
ATOM     12  C   UNL     1     -43.869 -38.292  72.854  1.00  0.00     0.093 A 
BRANCH   3  13
ATOM     13  C   UNL     1     -49.893 -37.137  71.004  1.00  0.00     0.021 A 
ATOM     14  C   UNL     1     -50.937 -37.342  71.926  1.00  0.00     0.016 A 
ATOM     15  C   UNL     1     -52.266 -37.340  71.498  1.00  0.00     0.051 A 
ATOM     16  C   UNL     1     -52.573 -37.155  70.143  1.00  0.00     0.157 A 
ATOM     17  C   UNL     1     -50.207 -36.948  69.647  1.00  0.00     0.062 A 
ATOM     18  C   UNL     1     -51.536 -36.959  69.213  1.00  0.00     0.158 A 
BRANCH  16  19
ATOM     19  O   UNL     1     -53.900 -37.159  69.719  1.00  0.00    -0.504 OA
ATOM     20  H   UNL     1     -54.598 -36.560  70.151  1.00  0.00     0.293 HD
ENDBRANCH  16  19
BRANCH  18  21
ATOM     21  O   UNL     1     -51.809 -36.779  67.856  1.00  0.00    -0.504 OA
ATOM     22  H   UNL     1     -52.005 -37.557  67.240  1.00  0.00     0.293 HD
ENDBRANCH  18  21
ENDBRANCH   3  13
BRANCH  11  23
ATOM     23  O   UNL     1     -43.517 -35.967  72.512  1.00  0.00    -0.507 OA
ATOM     24  H   UNL     1     -42.859 -35.754  71.780  1.00  0.00     0.293 HD
ENDBRANCH  11  23
ENDBRANCH   1   2
BRANCH   1  25
ATOM     25  C   UNL     1     -43.061 -40.976  74.097  1.00  0.00     0.339 C 
ATOM     26  C   UNL     1     -42.267 -42.197  73.612  1.00  0.00     0.214 C 
ATOM     27  O   UNL     1     -43.491 -41.164  75.437  1.00  0.00    -0.332 OA
ATOM     28  C   UNL     1     -43.126 -43.467  73.732  1.00  0.00     0.180 C 
ATOM     29  C   UNL     1     -44.404 -42.249  75.556  1.00  0.00     0.179 C 
ATOM     30  C   UNL     1     -43.724 -43.584  75.149  1.00  0.00     0.177 C 
BRANCH  26  31
ATOM     31  O   UNL     1     -41.873 -41.997  72.279  1.00  0.00    -0.384 OA
ATOM     32  H   UNL     1     -40.975 -42.412  72.177  1.00  0.00     0.211 HD
ENDBRANCH  26  31
BRANCH  28  33
ATOM     33  O   UNL     1     -42.333 -44.594  73.462  1.00  0.00    -0.387 OA
ATOM     34  H   UNL     1     -42.625 -45.310  74.084  1.00  0.00     0.211 HD
ENDBRANCH  28  33
BRANCH  29  35
ATOM     35  C   UNL     1     -44.896 -42.285  77.014  1.00  0.00     0.191 C 
BRANCH  35  36
ATOM     36  O   UNL     1     -46.244 -42.671  77.065  1.00  0.00    -0.394 OA
ATOM     37  H   UNL     1     -46.548 -42.843  76.135  1.00  0.00     0.210 HD
ENDBRANCH  35  36
ENDBRANCH  29  35
BRANCH  30  38
ATOM     38  O   UNL     1     -44.672 -44.627  75.145  1.00  0.00    -0.387 OA
ATOM     39  H   UNL     1     -44.328 -45.363  75.719  1.00  0.00     0.211 HD
ENDBRANCH  30  38
ENDBRANCH   1  25
TORSDOF 11
ENDMDL
MODEL 2
REMARK VINA RESULT:    -5.163      5.408      8.676
REMARK INTER + INTRA:          -8.372
REMARK INTER:                  -7.533
REMARK INTRA:                  -0.839
REMARK UNBOUND:                -0.945
REMARK SMILES O=c1cc(-c2ccc(O)c(O)c2)oc2cc(O[C@H]3O[C@H](CO)[C@@H](O)[C@H](O)[C@H]3O)cc(O)c12
REMARK SMILES IDX 17 1 16 2 4 3 3 4 13 5 2 6 14 7 1 8 32 9 15 10 30 11 29 12
REMARK SMILES IDX 5 13 6 14 7 15 8 16 12 17 10 18 9 19 11 21 31 23 18 25 27 26
REMARK SMILES IDX 19 27 25 28 20 29 23 30 28 31 26 33 21 35 22 36 24 38
REMARK H PARENT 9 20 11 22 31 24 28 32 26 34 22 37 24 39
REMARK Flexibility Score: inf
ROOT
ATOM      1  O   UNL     1     -42.561 -43.653  75.825  1.00  0.00    -0.462 OA
ENDROOT
BRANCH   1   2
ATOM      2  C   UNL     1     -42.565 -43.970  74.461  1.00  0.00     0.130 A 
ATOM      3  C   UNL     1     -44.531 -46.673  71.081  1.00  0.00     0.138 A 
ATOM      4  C   UNL     1     -43.726 -46.138  70.069  1.00  0.00     0.100 A 
ATOM      5  O   UNL     1     -44.437 -46.193  72.314  1.00  0.00    -0.456 OA
ATOM      6  C   UNL     1     -42.804 -45.136  70.381  1.00  0.00     0.197 A 
ATOM      7  C   UNL     1     -43.557 -45.265  72.671  1.00  0.00     0.146 A 
ATOM      8  O   UNL     1     -42.166 -44.609  69.434  1.00  0.00    -0.289 OA
ATOM      9  C   UNL     1     -42.665 -44.700  71.722  1.00  0.00     0.107 A 
ATOM     10  C   UNL     1     -43.519 -44.878  74.008  1.00  0.00     0.094 A 
ATOM     11  C   UNL     1     -41.672 -43.781  72.193  1.00  0.00     0.134 A 
ATOM     12  C   UNL     1     -41.638 -43.440  73.551  1.00  0.00     0.093 A 
BRANCH   3  13
ATOM     13  C   UNL     1     -45.507 -47.753  70.817  1.00  0.00     0.021 A 
ATOM     14  C   UNL     1     -45.084 -49.050  70.470  1.00  0.00     0.016 A 
ATOM     15  C   UNL     1     -46.015 -50.082  70.334  1.00  0.00     0.051 A 
ATOM     16  C   UNL     1     -47.382 -49.832  70.521  1.00  0.00     0.157 A 
ATOM     17  C   UNL     1     -46.878 -47.508  71.008  1.00  0.00     0.062 A 
ATOM     18  C   UNL     1     -47.814 -48.537  70.859  1.00  0.00     0.158 A 
BRANCH  16  19
ATOM     19  O   UNL     1     -48.308 -50.863  70.379  1.00  0.00    -0.504 OA
ATOM     20  H   UNL     1     -48.429 -51.351  69.496  1.00  0.00     0.293 HD
ENDBRANCH  16  19
BRANCH  18  21
ATOM     21  O   UNL     1     -49.168 -48.254  71.045  1.00  0.00    -0.504 OA
ATOM     22  H   UNL     1     -49.764 -48.835  71.619  1.00  0.00     0.293 HD
ENDBRANCH  18  21
ENDBRANCH   3  13
BRANCH  11  23
ATOM     23  O   UNL     1     -40.689 -43.196  71.386  1.00  0.00    -0.507 OA
ATOM     24  H   UNL     1     -39.745 -43.526  71.264  1.00  0.00     0.293 HD
ENDBRANCH  11  23
ENDBRANCH   1   2
BRANCH   1  25
ATOM     25  C   UNL     1     -42.479 -42.333  76.377  1.00  0.00     0.339 C 
ATOM     26  C   UNL     1     -42.825 -42.360  77.873  1.00  0.00     0.214 C 
ATOM     27  O   UNL     1     -43.316 -41.415  75.690  1.00  0.00    -0.332 OA
ATOM     28  C   UNL     1     -44.305 -42.727  78.065  1.00  0.00     0.180 C 
ATOM     29  C   UNL     1     -44.683 -41.808  75.729  1.00  0.00     0.179 C 
ATOM     30  C   UNL     1     -45.204 -41.829  77.192  1.00  0.00     0.177 C 
BRANCH  26  31
ATOM     31  O   UNL     1     -42.000 -43.290  78.525  1.00  0.00    -0.384 OA
ATOM     32  H   UNL     1     -41.211 -42.790  78.864  1.00  0.00     0.211 HD
ENDBRANCH  26  31
BRANCH  28  33
ATOM     33  O   UNL     1     -44.653 -42.568  79.417  1.00  0.00    -0.387 OA
ATOM     34  H   UNL     1     -44.030 -43.132  79.944  1.00  0.00     0.211 HD
ENDBRANCH  28  33
BRANCH  29  35
ATOM     35  C   UNL     1     -45.477 -40.818  74.859  1.00  0.00     0.191 C 
BRANCH  35  36
ATOM     36  O   UNL     1     -46.245 -39.965  75.666  1.00  0.00    -0.394 OA
ATOM     37  H   UNL     1     -45.669 -39.201  75.935  1.00  0.00     0.210 HD
ENDBRANCH  35  36
ENDBRANCH  29  35
BRANCH  30  38
ATOM     38  O   UNL     1     -46.516 -42.344  77.229  1.00  0.00    -0.387 OA
ATOM     39  H   UNL     1     -46.653 -42.783  78.111  1.00  0.00     0.211 HD
ENDBRANCH  30  38
ENDBRANCH   1  25
TORSDOF 11
ENDMDL
MODEL 3
REMARK VINA RESULT:    -5.162      4.760      7.607
REMARK INTER + INTRA:          -8.370
REMARK INTER:                  -7.494
REMARK INTRA:                  -0.876
REMARK UNBOUND:                -0.945
REMARK SMILES O=c1cc(-c2ccc(O)c(O)c2)oc2cc(O[C@H]3O[C@H](CO)[C@@H](O)[C@H](O)[C@H]3O)cc(O)c12
REMARK SMILES IDX 17 1 16 2 4 3 3 4 13 5 2 6 14 7 1 8 32 9 15 10 30 11 29 12
REMARK SMILES IDX 5 13 6 14 7 15 8 16 12 17 10 18 9 19 11 21 31 23 18 25 27 26
REMARK SMILES IDX 19 27 25 28 20 29 23 30 28 31 26 33 21 35 22 36 24 38
REMARK H PARENT 9 20 11 22 31 24 28 32 26 34 22 37 24 39
REMARK Flexibility Score: inf
ROOT
ATOM      1  O   UNL     1     -43.203 -46.650  69.553  1.00  0.00    -0.462 OA
ENDROOT
BRANCH   1   2
ATOM      2  C   UNL     1     -42.670 -45.374  69.333  1.00  0.00     0.130 A 
ATOM      3  C   UNL     1     -43.029 -40.754  70.391  1.00  0.00     0.138 A 
ATOM      4  C   UNL     1     -41.960 -40.396  69.563  1.00  0.00     0.100 A 
ATOM      5  O   UNL     1     -43.348 -42.033  70.533  1.00  0.00    -0.456 OA
ATOM      6  C   UNL     1     -41.269 -41.389  68.863  1.00  0.00     0.197 A 
ATOM      7  C   UNL     1     -42.747 -43.013  69.868  1.00  0.00     0.146 A 
ATOM      8  O   UNL     1     -40.254 -41.046  68.206  1.00  0.00    -0.289 OA
ATOM      9  C   UNL     1     -41.683 -42.740  68.968  1.00  0.00     0.107 A 
ATOM     10  C   UNL     1     -43.204 -44.313  70.061  1.00  0.00     0.094 A 
ATOM     11  C   UNL     1     -41.148 -43.828  68.205  1.00  0.00     0.134 A 
ATOM     12  C   UNL     1     -41.656 -45.119  68.398  1.00  0.00     0.093 A 
BRANCH   3  13
ATOM     13  C   UNL     1     -43.814 -39.745  71.136  1.00  0.00     0.021 A 
ATOM     14  C   UNL     1     -43.448 -38.386  71.132  1.00  0.00     0.016 A 
ATOM     15  C   UNL     1     -44.263 -37.434  71.749  1.00  0.00     0.051 A 
ATOM     16  C   UNL     1     -45.443 -37.825  72.397  1.00  0.00     0.157 A 
ATOM     17  C   UNL     1     -45.001 -40.132  71.784  1.00  0.00     0.062 A 
ATOM     18  C   UNL     1     -45.811 -39.183  72.415  1.00  0.00     0.158 A 
BRANCH  16  19
ATOM     19  O   UNL     1     -46.250 -36.874  73.016  1.00  0.00    -0.504 OA
ATOM     20  H   UNL     1     -46.105 -35.879  72.873  1.00  0.00     0.293 HD
ENDBRANCH  16  19
BRANCH  18  21
ATOM     21  O   UNL     1     -46.976 -39.605  73.057  1.00  0.00    -0.504 OA
ATOM     22  H   UNL     1     -47.628 -40.244  72.622  1.00  0.00     0.293 HD
ENDBRANCH  18  21
ENDBRANCH   3  13
BRANCH  11  23
ATOM     23  O   UNL     1     -40.146 -43.699  67.237  1.00  0.00    -0.507 OA
ATOM     24  H   UNL     1     -39.222 -43.325  67.383  1.00  0.00     0.293 HD
ENDBRANCH  11  23
ENDBRANCH   1   2
BRANCH   1  25
ATOM     25  C   UNL     1     -43.397 -47.266  70.832  1.00  0.00     0.339 C 
ATOM     26  C   UNL     1     -43.035 -48.757  70.764  1.00  0.00     0.214 C 
ATOM     27  O   UNL     1     -44.723 -47.098  71.309  1.00  0.00    -0.332 OA
ATOM     28  C   UNL     1     -44.035 -49.501  69.863  1.00  0.00     0.180 C 
ATOM     29  C   UNL     1     -45.684 -47.653  70.419  1.00  0.00     0.179 C 
ATOM     30  C   UNL     1     -45.484 -49.188  70.286  1.00  0.00     0.177 C 
BRANCH  26  31
ATOM     31  O   UNL     1     -41.730 -48.898  70.269  1.00  0.00    -0.384 OA
ATOM     32  H   UNL     1     -41.798 -48.947  69.278  1.00  0.00     0.211 HD
ENDBRANCH  26  31
BRANCH  28  33
ATOM     33  O   UNL     1     -43.806 -50.884  69.956  1.00  0.00    -0.387 OA
ATOM     34  H   UNL     1     -42.956 -51.005  70.454  1.00  0.00     0.211 HD
ENDBRANCH  28  33
BRANCH  29  35
ATOM     35  C   UNL     1     -47.080 -47.310  70.968  1.00  0.00     0.191 C 
BRANCH  35  36
ATOM     36  O   UNL     1     -47.741 -46.424  70.103  1.00  0.00    -0.394 OA
ATOM     37  H   UNL     1     -47.301 -45.537  70.181  1.00  0.00     0.210 HD
ENDBRANCH  35  36
ENDBRANCH  29  35
BRANCH  30  38
ATOM     38  O   UNL     1     -46.354 -49.705  69.305  1.00  0.00    -0.387 OA
ATOM     39  H   UNL     1     -46.346 -50.697  69.373  1.00  0.00     0.211 HD
ENDBRANCH  30  38
ENDBRANCH   1  25
TORSDOF 11
ENDMDL
MODEL 4
REMARK VINA RESULT:    -5.120      1.367      1.917
REMARK INTER + INTRA:          -8.311
REMARK INTER:                  -7.313
REMARK INTRA:                  -0.997
REMARK UNBOUND:                -0.945
REMARK SMILES O=c1cc(-c2ccc(O)c(O)c2)oc2cc(O[C@H]3O[C@H](CO)[C@@H](O)[C@H](O)[C@H]3O)cc(O)c12
REMARK SMILES IDX 17 1 16 2 4 3 3 4 13 5 2 6 14 7 1 8 32 9 15 10 30 11 29 12
REMARK SMILES IDX 5 13 6 14 7 15 8 16 12 17 10 18 9 19 11 21 31 23 18 25 27 26
REMARK SMILES IDX 19 27 25 28 20 29 23 30 28 31 26 33 21 35 22 36 24 38
REMARK H PARENT 9 20 11 22 31 24 28 32 26 34 22 37 24 39
REMARK Flexibility Score: inf
ROOT
ATOM      1  O   UNL     1     -45.142 -40.080  74.352  1.00  0.00    -0.462 OA
ENDROOT
BRANCH   1   2
ATOM      2  C   UNL     1     -45.532 -38.940  73.640  1.00  0.00     0.130 A 
ATOM      3  C   UNL     1     -49.052 -36.858  71.218  1.00  0.00     0.138 A 
ATOM      4  C   UNL     1     -48.297 -35.712  70.943  1.00  0.00     0.100 A 
ATOM      5  O   UNL     1     -48.536 -37.815  71.978  1.00  0.00    -0.456 OA
ATOM      6  C   UNL     1     -46.994 -35.612  71.437  1.00  0.00     0.197 A 
ATOM      7  C   UNL     1     -47.294 -37.785  72.447  1.00  0.00     0.146 A 
ATOM      8  O   UNL     1     -46.378 -34.531  71.256  1.00  0.00    -0.289 OA
ATOM      9  C   UNL     1     -46.438 -36.685  72.177  1.00  0.00     0.107 A 
ATOM     10  C   UNL     1     -46.848 -38.874  73.190  1.00  0.00     0.094 A 
ATOM     11  C   UNL     1     -45.079 -36.763  72.623  1.00  0.00     0.134 A 
ATOM     12  C   UNL     1     -44.652 -37.889  73.339  1.00  0.00     0.093 A 
BRANCH   3  13
ATOM     13  C   UNL     1     -50.427 -37.032  70.701  1.00  0.00     0.021 A 
ATOM     14  C   UNL     1     -51.522 -37.183  71.573  1.00  0.00     0.016 A 
ATOM     15  C   UNL     1     -52.823 -37.235  71.069  1.00  0.00     0.051 A 
ATOM     16  C   UNL     1     -53.051 -37.158  69.687  1.00  0.00     0.157 A 
ATOM     17  C   UNL     1     -50.661 -36.951  69.317  1.00  0.00     0.062 A 
ATOM     18  C   UNL     1     -51.962 -37.017  68.808  1.00  0.00     0.158 A 
BRANCH  16  19
ATOM     19  O   UNL     1     -54.350 -37.215  69.188  1.00  0.00    -0.504 OA
ATOM     20  H   UNL     1     -54.534 -37.345  68.197  1.00  0.00     0.293 HD
ENDBRANCH  16  19
BRANCH  18  21
ATOM     21  O   UNL     1     -52.155 -36.944  67.428  1.00  0.00    -0.504 OA
ATOM     22  H   UNL     1     -52.427 -37.750  66.880  1.00  0.00     0.293 HD
ENDBRANCH  18  21
ENDBRANCH   3  13
BRANCH  11  23
ATOM     23  O   UNL     1     -44.107 -35.787  72.374  1.00  0.00    -0.507 OA
ATOM     24  H   UNL     1     -44.167 -34.812  72.619  1.00  0.00     0.293 HD
ENDBRANCH  11  23
ENDBRANCH   1   2
BRANCH   1  25
ATOM     25  C   UNL     1     -44.277 -40.098  75.495  1.00  0.00     0.339 C 
ATOM     26  C   UNL     1     -43.712 -41.509  75.713  1.00  0.00     0.214 C 
ATOM     27  O   UNL     1     -44.934 -39.639  76.667  1.00  0.00    -0.332 OA
ATOM     28  C   UNL     1     -44.840 -42.473  76.115  1.00  0.00     0.180 C 
ATOM     29  C   UNL     1     -46.073 -40.431  76.984  1.00  0.00     0.179 C 
ATOM     30  C   UNL     1     -45.654 -41.895  77.290  1.00  0.00     0.177 C 
BRANCH  26  31
ATOM     31  O   UNL     1     -43.088 -41.948  74.535  1.00  0.00    -0.384 OA
ATOM     32  H   UNL     1     -43.548 -41.497  73.778  1.00  0.00     0.211 HD
ENDBRANCH  26  31
BRANCH  28  33
ATOM     33  O   UNL     1     -44.287 -43.708  76.488  1.00  0.00    -0.387 OA
ATOM     34  H   UNL     1     -45.009 -44.385  76.407  1.00  0.00     0.211 HD
ENDBRANCH  28  33
BRANCH  29  35
ATOM     35  C   UNL     1     -46.773 -39.779  78.189  1.00  0.00     0.191 C 
BRANCH  35  36
ATOM     36  O   UNL     1     -48.155 -40.015  78.138  1.00  0.00    -0.394 OA
ATOM     37  H   UNL     1     -48.601 -39.340  78.715  1.00  0.00     0.210 HD
ENDBRANCH  35  36
ENDBRANCH  29  35
BRANCH  30  38
ATOM     38  O   UNL     1     -46.799 -42.697  77.473  1.00  0.00    -0.387 OA
ATOM     39  H   UNL     1     -47.488 -42.153  77.940  1.00  0.00     0.211 HD
ENDBRANCH  30  38
ENDBRANCH   1  25
TORSDOF 11
ENDMDL
MODEL 5
REMARK VINA RESULT:    -5.104      7.709     11.816
REMARK INTER + INTRA:          -8.287
REMARK INTER:                  -7.302
REMARK INTRA:                  -0.985
REMARK UNBOUND:                -0.945
REMARK SMILES O=c1cc(-c2ccc(O)c(O)c2)oc2cc(O[C@H]3O[C@H](CO)[C@@H](O)[C@H](O)[C@H]3O)cc(O)c12
REMARK SMILES IDX 17 1 16 2 4 3 3 4 13 5 2 6 14 7 1 8 32 9 15 10 30 11 29 12
REMARK SMILES IDX 5 13 6 14 7 15 8 16 12 17 10 18 9 19 11 21 31 23 18 25 27 26
REMARK SMILES IDX 19 27 25 28 20 29 23 30 28 31 26 33 21 35 22 36 24 38
REMARK H PARENT 9 20 11 22 31 24 28 32 26 34 22 37 24 39
REMARK Flexibility Score: inf
ROOT
ATOM      1  O   UNL     1     -50.280 -48.791  70.873  1.00  0.00    -0.462 OA
ENDROOT
BRANCH   1   2
ATOM      2  C   UNL     1     -48.902 -49.004  70.754  1.00  0.00     0.130 A 
ATOM      3  C   UNL     1     -44.601 -46.996  71.002  1.00  0.00     0.138 A 
ATOM      4  C   UNL     1     -43.936 -48.184  70.679  1.00  0.00     0.100 A 
ATOM      5  O   UNL     1     -45.920 -47.002  71.144  1.00  0.00    -0.456 OA
ATOM      6  C   UNL     1     -44.675 -49.350  70.466  1.00  0.00     0.197 A 
ATOM      7  C   UNL     1     -46.673 -48.072  70.923  1.00  0.00     0.146 A 
ATOM      8  O   UNL     1     -44.043 -50.420  70.273  1.00  0.00    -0.289 OA
ATOM      9  C   UNL     1     -46.090 -49.310  70.541  1.00  0.00     0.107 A 
ATOM     10  C   UNL     1     -48.052 -47.941  71.052  1.00  0.00     0.094 A 
ATOM     11  C   UNL     1     -46.965 -50.396  70.216  1.00  0.00     0.134 A 
ATOM     12  C   UNL     1     -48.351 -50.220  70.323  1.00  0.00     0.093 A 
BRANCH   3  13
ATOM     13  C   UNL     1     -43.874 -45.725  71.214  1.00  0.00     0.021 A 
ATOM     14  C   UNL     1     -43.486 -45.311  72.503  1.00  0.00     0.016 A 
ATOM     15  C   UNL     1     -42.705 -44.166  72.670  1.00  0.00     0.051 A 
ATOM     16  C   UNL     1     -42.318 -43.404  71.558  1.00  0.00     0.157 A 
ATOM     17  C   UNL     1     -43.479 -44.960  70.102  1.00  0.00     0.062 A 
ATOM     18  C   UNL     1     -42.709 -43.805  70.268  1.00  0.00     0.158 A 
BRANCH  16  19
ATOM     19  O   UNL     1     -41.543 -42.259  71.730  1.00  0.00    -0.504 OA
ATOM     20  H   UNL     1     -40.595 -42.199  71.370  1.00  0.00     0.293 HD
ENDBRANCH  16  19
BRANCH  18  21
ATOM     21  O   UNL     1     -42.345 -43.065  69.142  1.00  0.00    -0.504 OA
ATOM     22  H   UNL     1     -41.598 -42.382  69.166  1.00  0.00     0.293 HD
ENDBRANCH  18  21
ENDBRANCH   3  13
BRANCH  11  23
ATOM     23  O   UNL     1     -46.537 -51.650  69.764  1.00  0.00    -0.507 OA
ATOM     24  H   UNL     1     -45.973 -52.307  70.279  1.00  0.00     0.293 HD
ENDBRANCH  11  23
ENDBRANCH   1   2
BRANCH   1  25
ATOM     25  C   UNL     1     -51.231 -49.734  71.384  1.00  0.00     0.339 C 
ATOM     26  C   UNL     1     -52.598 -49.527  70.714  1.00  0.00     0.214 C 
ATOM     27  O   UNL     1     -51.353 -49.657  72.796  1.00  0.00    -0.332 OA
ATOM     28  C   UNL     1     -53.190 -48.172  71.134  1.00  0.00     0.180 C 
ATOM     29  C   UNL     1     -51.764 -48.364  73.225  1.00  0.00     0.179 C 
ATOM     30  C   UNL     1     -53.174 -48.025  72.669  1.00  0.00     0.177 C 
BRANCH  26  31
ATOM     31  O   UNL     1     -52.447 -49.585  69.320  1.00  0.00    -0.384 OA
ATOM     32  H   UNL     1     -51.709 -50.224  69.134  1.00  0.00     0.211 HD
ENDBRANCH  26  31
BRANCH  28  33
ATOM     33  O   UNL     1     -54.511 -48.075  70.667  1.00  0.00    -0.387 OA
ATOM     34  H   UNL     1     -54.853 -47.186  70.945  1.00  0.00     0.211 HD
ENDBRANCH  28  33
BRANCH  29  35
ATOM     35  C   UNL     1     -51.746 -48.357  74.764  1.00  0.00     0.191 C 
BRANCH  35  36
ATOM     36  O   UNL     1     -53.040 -48.554  75.269  1.00  0.00    -0.394 OA
ATOM     37  H   UNL     1     -53.685 -48.370  74.535  1.00  0.00     0.210 HD
ENDBRANCH  35  36
ENDBRANCH  29  35
BRANCH  30  38
ATOM     38  O   UNL     1     -53.513 -46.695  72.991  1.00  0.00    -0.387 OA
ATOM     39  H   UNL     1     -53.281 -46.537  73.945  1.00  0.00     0.211 HD
ENDBRANCH  30  38
ENDBRANCH   1  25
TORSDOF 11
ENDMDL
MODEL 6
REMARK VINA RESULT:    -5.076      7.458     10.411
REMARK INTER + INTRA:          -8.247
REMARK INTER:                  -7.274
REMARK INTRA:                  -0.974
REMARK UNBOUND:                -0.945
REMARK SMILES O=c1cc(-c2ccc(O)c(O)c2)oc2cc(O[C@H]3O[C@H](CO)[C@@H](O)[C@H](O)[C@H]3O)cc(O)c12
REMARK SMILES IDX 17 1 16 2 4 3 3 4 13 5 2 6 14 7 1 8 32 9 15 10 30 11 29 12
REMARK SMILES IDX 5 13 6 14 7 15 8 16 12 17 10 18 9 19 11 21 31 23 18 25 27 26
REMARK SMILES IDX 19 27 25 28 20 29 23 30 28 31 26 33 21 35 22 36 24 38
REMARK H PARENT 9 20 11 22 31 24 28 32 26 34 22 37 24 39
REMARK Flexibility Score: inf
ROOT
ATOM      1  O   UNL     1     -44.422 -45.996  70.894  1.00  0.00    -0.462 OA
ENDROOT
BRANCH   1   2
ATOM      2  C   UNL     1     -45.151 -47.185  70.778  1.00  0.00     0.130 A 
ATOM      3  C   UNL     1     -49.458 -49.176  71.072  1.00  0.00     0.138 A 
ATOM      4  C   UNL     1     -48.980 -50.454  70.763  1.00  0.00     0.100 A 
ATOM      5  O   UNL     1     -48.623 -48.145  71.065  1.00  0.00    -0.456 OA
ATOM      6  C   UNL     1     -47.620 -50.633  70.493  1.00  0.00     0.197 A 
ATOM      7  C   UNL     1     -47.319 -48.263  70.846  1.00  0.00     0.146 A 
ATOM      8  O   UNL     1     -47.241 -51.773  70.124  1.00  0.00    -0.289 OA
ATOM      9  C   UNL     1     -46.735 -49.529  70.573  1.00  0.00     0.107 A 
ATOM     10  C   UNL     1     -46.535 -47.115  70.916  1.00  0.00     0.094 A 
ATOM     11  C   UNL     1     -45.310 -49.603  70.451  1.00  0.00     0.134 A 
ATOM     12  C   UNL     1     -44.548 -48.433  70.561  1.00  0.00     0.093 A 
BRANCH   3  13
ATOM     13  C   UNL     1     -50.881 -48.928  71.392  1.00  0.00     0.021 A 
ATOM     14  C   UNL     1     -51.260 -48.287  72.587  1.00  0.00     0.016 A 
ATOM     15  C   UNL     1     -52.598 -47.963  72.819  1.00  0.00     0.051 A 
ATOM     16  C   UNL     1     -53.581 -48.292  71.874  1.00  0.00     0.157 A 
ATOM     17  C   UNL     1     -51.869 -49.251  70.446  1.00  0.00     0.062 A 
ATOM     18  C   UNL     1     -53.212 -48.941  70.682  1.00  0.00     0.158 A 
BRANCH  16  19
ATOM     19  O   UNL     1     -54.916 -47.972  72.112  1.00  0.00    -0.504 OA
ATOM     20  H   UNL     1     -55.319 -48.033  73.042  1.00  0.00     0.293 HD
ENDBRANCH  16  19
BRANCH  18  21
ATOM     21  O   UNL     1     -54.167 -49.288  69.725  1.00  0.00    -0.504 OA
ATOM     22  H   UNL     1     -55.083 -48.859  69.700  1.00  0.00     0.293 HD
ENDBRANCH  18  21
ENDBRANCH   3  13
BRANCH  11  23
ATOM     23  O   UNL     1     -44.594 -50.788  70.247  1.00  0.00    -0.507 OA
ATOM     24  H   UNL     1     -43.597 -50.868  70.127  1.00  0.00     0.293 HD
ENDBRANCH  11  23
ENDBRANCH   1   2
BRANCH   1  25
ATOM     25  C   UNL     1     -43.009 -45.899  71.110  1.00  0.00     0.339 C 
ATOM     26  C   UNL     1     -42.694 -44.728  72.053  1.00  0.00     0.214 C 
ATOM     27  O   UNL     1     -42.291 -45.765  69.894  1.00  0.00    -0.332 OA
ATOM     28  C   UNL     1     -43.034 -43.394  71.367  1.00  0.00     0.180 C 
ATOM     29  C   UNL     1     -42.689 -44.609  69.165  1.00  0.00     0.179 C 
ATOM     30  C   UNL     1     -42.380 -43.319  69.973  1.00  0.00     0.177 C 
BRANCH  26  31
ATOM     31  O   UNL     1     -43.432 -44.872  73.238  1.00  0.00    -0.384 OA
ATOM     32  H   UNL     1     -43.405 -45.835  73.481  1.00  0.00     0.211 HD
ENDBRANCH  26  31
BRANCH  28  33
ATOM     33  O   UNL     1     -42.573 -42.331  72.161  1.00  0.00    -0.387 OA
ATOM     34  H   UNL     1     -43.324 -41.689  72.250  1.00  0.00     0.211 HD
ENDBRANCH  28  33
BRANCH  29  35
ATOM     35  C   UNL     1     -41.943 -44.627  67.819  1.00  0.00     0.191 C 
BRANCH  35  36
ATOM     36  O   UNL     1     -40.844 -43.755  67.858  1.00  0.00    -0.394 OA
ATOM     37  H   UNL     1     -41.138 -42.879  67.492  1.00  0.00     0.210 HD
ENDBRANCH  35  36
ENDBRANCH  29  35
BRANCH  30  38
ATOM     38  O   UNL     1     -42.896 -42.193  69.300  1.00  0.00    -0.387 OA
ATOM     39  H   UNL     1     -43.889 -42.241  69.329  1.00  0.00     0.211 HD
ENDBRANCH  30  38
ENDBRANCH   1  25
TORSDOF 11
ENDMDL
MODEL 7
REMARK VINA RESULT:    -5.022      9.413     13.748
REMARK INTER + INTRA:          -8.169
REMARK INTER:                  -7.173
REMARK INTRA:                  -0.996
REMARK UNBOUND:                -0.945
REMARK SMILES O=c1cc(-c2ccc(O)c(O)c2)oc2cc(O[C@H]3O[C@H](CO)[C@@H](O)[C@H](O)[C@H]3O)cc(O)c12
REMARK SMILES IDX 17 1 16 2 4 3 3 4 13 5 2 6 14 7 1 8 32 9 15 10 30 11 29 12
REMARK SMILES IDX 5 13 6 14 7 15 8 16 12 17 10 18 9 19 11 21 31 23 18 25 27 26
REMARK SMILES IDX 19 27 25 28 20 29 23 30 28 31 26 33 21 35 22 36 24 38
REMARK H PARENT 9 20 11 22 31 24 28 32 26 34 22 37 24 39
REMARK Flexibility Score: inf
ROOT
ATOM      1  O   UNL     1     -50.276 -47.465  65.055  1.00  0.00    -0.462 OA
ENDROOT
BRANCH   1   2
ATOM      2  C   UNL     1     -50.110 -47.909  66.372  1.00  0.00     0.130 A 
ATOM      3  C   UNL     1     -47.073 -48.331  70.003  1.00  0.00     0.138 A 
ATOM      4  C   UNL     1     -48.016 -48.953  70.829  1.00  0.00     0.100 A 
ATOM      5  O   UNL     1     -47.434 -47.908  68.799  1.00  0.00    -0.456 OA
ATOM      6  C   UNL     1     -49.315 -49.159  70.356  1.00  0.00     0.197 A 
ATOM      7  C   UNL     1     -48.644 -48.105  68.289  1.00  0.00     0.146 A 
ATOM      8  O   UNL     1     -50.163 -49.630  71.155  1.00  0.00    -0.289 OA
ATOM      9  C   UNL     1     -49.652 -48.772  69.035  1.00  0.00     0.107 A 
ATOM     10  C   UNL     1     -48.889 -47.660  66.993  1.00  0.00     0.094 A 
ATOM     11  C   UNL     1     -50.900 -49.045  68.388  1.00  0.00     0.134 A 
ATOM     12  C   UNL     1     -51.102 -48.614  67.070  1.00  0.00     0.093 A 
BRANCH   3  13
ATOM     13  C   UNL     1     -45.676 -48.110  70.439  1.00  0.00     0.021 A 
ATOM     14  C   UNL     1     -44.695 -49.107  70.280  1.00  0.00     0.016 A 
ATOM     15  C   UNL     1     -43.361 -48.839  70.594  1.00  0.00     0.051 A 
ATOM     16  C   UNL     1     -42.988 -47.582  71.091  1.00  0.00     0.157 A 
ATOM     17  C   UNL     1     -45.297 -46.849  70.933  1.00  0.00     0.062 A 
ATOM     18  C   UNL     1     -43.964 -46.583  71.262  1.00  0.00     0.158 A 
BRANCH  16  19
ATOM     19  O   UNL     1     -41.658 -47.321  71.409  1.00  0.00    -0.504 OA
ATOM     20  H   UNL     1     -41.330 -46.377  71.592  1.00  0.00     0.293 HD
ENDBRANCH  16  19
BRANCH  18  21
ATOM     21  O   UNL     1     -43.627 -45.324  71.761  1.00  0.00    -0.504 OA
ATOM     22  H   UNL     1     -43.739 -45.086  72.738  1.00  0.00     0.293 HD
ENDBRANCH  18  21
ENDBRANCH   3  13
BRANCH  11  23
ATOM     23  O   UNL     1     -51.959 -49.747  68.975  1.00  0.00    -0.507 OA
ATOM     24  H   UNL     1     -51.880 -50.565  69.557  1.00  0.00     0.293 HD
ENDBRANCH  11  23
ENDBRANCH   1   2
BRANCH   1  25
ATOM     25  C   UNL     1     -50.128 -46.112  64.604  1.00  0.00     0.339 C 
ATOM     26  C   UNL     1     -51.453 -45.598  64.022  1.00  0.00     0.214 C 
ATOM     27  O   UNL     1     -49.083 -45.977  63.654  1.00  0.00    -0.332 OA
ATOM     28  C   UNL     1     -51.793 -46.361  62.731  1.00  0.00     0.180 C 
ATOM     29  C   UNL     1     -49.300 -46.787  62.504  1.00  0.00     0.179 C 
ATOM     30  C   UNL     1     -50.593 -46.349  61.762  1.00  0.00     0.177 C 
BRANCH  26  31
ATOM     31  O   UNL     1     -52.474 -45.763  64.971  1.00  0.00    -0.384 OA
ATOM     32  H   UNL     1     -52.311 -46.631  65.425  1.00  0.00     0.211 HD
ENDBRANCH  26  31
BRANCH  28  33
ATOM     33  O   UNL     1     -52.902 -45.761  62.113  1.00  0.00    -0.387 OA
ATOM     34  H   UNL     1     -53.125 -46.314  61.319  1.00  0.00     0.211 HD
ENDBRANCH  28  33
BRANCH  29  35
ATOM     35  C   UNL     1     -48.060 -46.660  61.603  1.00  0.00     0.191 C 
BRANCH  35  36
ATOM     36  O   UNL     1     -48.252 -45.650  60.647  1.00  0.00    -0.394 OA
ATOM     37  H   UNL     1     -47.681 -45.862  59.861  1.00  0.00     0.210 HD
ENDBRANCH  35  36
ENDBRANCH  29  35
BRANCH  30  38
ATOM     38  O   UNL     1     -50.868 -47.238  60.704  1.00  0.00    -0.387 OA
ATOM     39  H   UNL     1     -51.587 -47.859  60.997  1.00  0.00     0.211 HD
ENDBRANCH  30  38
ENDBRANCH   1  25
TORSDOF 11
ENDMDL
MODEL 8
REMARK VINA RESULT:    -4.918      1.956      2.741
REMARK INTER + INTRA:          -8.019
REMARK INTER:                  -7.471
REMARK INTRA:                  -0.548
REMARK UNBOUND:                -0.945
REMARK SMILES O=c1cc(-c2ccc(O)c(O)c2)oc2cc(O[C@H]3O[C@H](CO)[C@@H](O)[C@H](O)[C@H]3O)cc(O)c12
REMARK SMILES IDX 17 1 16 2 4 3 3 4 13 5 2 6 14 7 1 8 32 9 15 10 30 11 29 12
REMARK SMILES IDX 5 13 6 14 7 15 8 16 12 17 10 18 9 19 11 21 31 23 18 25 27 26
REMARK SMILES IDX 19 27 25 28 20 29 23 30 28 31 26 33 21 35 22 36 24 38
REMARK H PARENT 9 20 11 22 31 24 28 32 26 34 22 37 24 39
REMARK Flexibility Score: inf
ROOT
ATOM      1  O   UNL     1     -45.155 -40.404  73.585  1.00  0.00    -0.462 OA
ENDROOT
BRANCH   1   2
ATOM      2  C   UNL     1     -46.173 -39.455  73.736  1.00  0.00     0.130 A 
ATOM      3  C   UNL     1     -49.053 -36.418  71.485  1.00  0.00     0.138 A 
ATOM      4  C   UNL     1     -49.654 -35.980  72.669  1.00  0.00     0.100 A 
ATOM      5  O   UNL     1     -48.149 -37.388  71.529  1.00  0.00    -0.456 OA
ATOM      6  C   UNL     1     -49.262 -36.540  73.888  1.00  0.00     0.197 A 
ATOM      7  C   UNL     1     -47.717 -37.932  72.660  1.00  0.00     0.146 A 
ATOM      8  O   UNL     1     -49.888 -36.195  74.922  1.00  0.00    -0.289 OA
ATOM      9  C   UNL     1     -48.233 -37.515  73.915  1.00  0.00     0.107 A 
ATOM     10  C   UNL     1     -46.726 -38.906  72.582  1.00  0.00     0.094 A 
ATOM     11  C   UNL     1     -47.650 -38.066  75.102  1.00  0.00     0.134 A 
ATOM     12  C   UNL     1     -46.630 -39.019  74.989  1.00  0.00     0.093 A 
BRANCH   3  13
ATOM     13  C   UNL     1     -49.409 -35.845  70.168  1.00  0.00     0.021 A 
ATOM     14  C   UNL     1     -48.701 -34.754  69.630  1.00  0.00     0.016 A 
ATOM     15  C   UNL     1     -48.979 -34.300  68.340  1.00  0.00     0.051 A 
ATOM     16  C   UNL     1     -49.981 -34.912  67.573  1.00  0.00     0.157 A 
ATOM     17  C   UNL     1     -50.410 -36.459  69.393  1.00  0.00     0.062 A 
ATOM     18  C   UNL     1     -50.700 -35.997  68.106  1.00  0.00     0.158 A 
BRANCH  16  19
ATOM     19  O   UNL     1     -50.259 -34.452  66.289  1.00  0.00    -0.504 OA
ATOM     20  H   UNL     1     -49.555 -33.979  65.729  1.00  0.00     0.293 HD
ENDBRANCH  16  19
BRANCH  18  21
ATOM     21  O   UNL     1     -51.708 -36.623  67.372  1.00  0.00    -0.504 OA
ATOM     22  H   UNL     1     -52.153 -36.177  66.581  1.00  0.00     0.293 HD
ENDBRANCH  18  21
ENDBRANCH   3  13
BRANCH  11  23
ATOM     23  O   UNL     1     -48.012 -37.703  76.404  1.00  0.00    -0.507 OA
ATOM     24  H   UNL     1     -47.656 -38.106  77.256  1.00  0.00     0.293 HD
ENDBRANCH  11  23
ENDBRANCH   1   2
BRANCH   1  25
ATOM     25  C   UNL     1     -43.952 -40.473  74.361  1.00  0.00     0.339 C 
ATOM     26  C   UNL     1     -42.962 -41.458  73.723  1.00  0.00     0.214 C 
ATOM     27  O   UNL     1     -44.208 -40.828  75.711  1.00  0.00    -0.332 OA
ATOM     28  C   UNL     1     -43.515 -42.890  73.811  1.00  0.00     0.180 C 
ATOM     29  C   UNL     1     -44.853 -42.093  75.815  1.00  0.00     0.179 C 
ATOM     30  C   UNL     1     -43.942 -43.220  75.255  1.00  0.00     0.177 C 
BRANCH  26  31
ATOM     31  O   UNL     1     -42.743 -41.099  72.385  1.00  0.00    -0.384 OA
ATOM     32  H   UNL     1     -42.155 -40.298  72.392  1.00  0.00     0.211 HD
ENDBRANCH  26  31
BRANCH  28  33
ATOM     33  O   UNL     1     -42.527 -43.798  73.395  1.00  0.00    -0.387 OA
ATOM     34  H   UNL     1     -41.990 -44.030  74.197  1.00  0.00     0.211 HD
ENDBRANCH  28  33
BRANCH  29  35
ATOM     35  C   UNL     1     -45.191 -42.322  77.299  1.00  0.00     0.191 C 
BRANCH  35  36
ATOM     36  O   UNL     1     -46.551 -42.633  77.448  1.00  0.00    -0.394 OA
ATOM     37  H   UNL     1     -46.710 -43.518  77.024  1.00  0.00     0.210 HD
ENDBRANCH  35  36
ENDBRANCH  29  35
BRANCH  30  38
ATOM     38  O   UNL     1     -44.641 -44.444  75.243  1.00  0.00    -0.387 OA
ATOM     39  H   UNL     1     -45.123 -44.536  76.108  1.00  0.00     0.211 HD
ENDBRANCH  30  38
ENDBRANCH   1  25
TORSDOF 11
ENDMDL
MODEL 9
REMARK VINA RESULT:    -4.881      3.837      8.179
REMARK INTER + INTRA:          -7.967
REMARK INTER:                  -6.931
REMARK INTRA:                  -1.036
REMARK UNBOUND:                -0.945
REMARK SMILES O=c1cc(-c2ccc(O)c(O)c2)oc2cc(O[C@H]3O[C@H](CO)[C@@H](O)[C@H](O)[C@H]3O)cc(O)c12
REMARK SMILES IDX 17 1 16 2 4 3 3 4 13 5 2 6 14 7 1 8 32 9 15 10 30 11 29 12
REMARK SMILES IDX 5 13 6 14 7 15 8 16 12 17 10 18 9 19 11 21 31 23 18 25 27 26
REMARK SMILES IDX 19 27 25 28 20 29 23 30 28 31 26 33 21 35 22 36 24 38
REMARK H PARENT 9 20 11 22 31 24 28 32 26 34 22 37 24 39
REMARK Flexibility Score: inf
ROOT
ATOM      1  O   UNL     1     -45.256 -38.726  73.033  1.00  0.00    -0.462 OA
ENDROOT
BRANCH   1   2
ATOM      2  C   UNL     1     -44.299 -39.064  72.070  1.00  0.00     0.130 A 
ATOM      3  C   UNL     1     -42.558 -42.542  69.338  1.00  0.00     0.138 A 
ATOM      4  C   UNL     1     -41.577 -41.721  68.772  1.00  0.00     0.100 A 
ATOM      5  O   UNL     1     -43.434 -42.025  70.189  1.00  0.00    -0.456 OA
ATOM      6  C   UNL     1     -41.508 -40.375  69.145  1.00  0.00     0.197 A 
ATOM      7  C   UNL     1     -43.395 -40.764  70.601  1.00  0.00     0.146 A 
ATOM      8  O   UNL     1     -40.680 -39.643  68.547  1.00  0.00    -0.289 OA
ATOM      9  C   UNL     1     -42.404 -39.868  70.119  1.00  0.00     0.107 A 
ATOM     10  C   UNL     1     -44.338 -40.350  71.537  1.00  0.00     0.094 A 
ATOM     11  C   UNL     1     -42.352 -38.552  70.682  1.00  0.00     0.134 A 
ATOM     12  C   UNL     1     -43.295 -38.179  71.648  1.00  0.00     0.093 A 
BRANCH   3  13
ATOM     13  C   UNL     1     -42.665 -43.979  69.002  1.00  0.00     0.021 A 
ATOM     14  C   UNL     1     -42.286 -44.463  67.736  1.00  0.00     0.016 A 
ATOM     15  C   UNL     1     -42.289 -45.835  67.476  1.00  0.00     0.051 A 
ATOM     16  C   UNL     1     -42.690 -46.743  68.466  1.00  0.00     0.157 A 
ATOM     17  C   UNL     1     -43.061 -44.894  69.994  1.00  0.00     0.062 A 
ATOM     18  C   UNL     1     -43.079 -46.268  69.731  1.00  0.00     0.158 A 
BRANCH  16  19
ATOM     19  O   UNL     1     -42.697 -48.111  68.201  1.00  0.00    -0.504 OA
ATOM     20  H   UNL     1     -42.578 -48.470  67.258  1.00  0.00     0.293 HD
ENDBRANCH  16  19
BRANCH  18  21
ATOM     21  O   UNL     1     -43.489 -47.145  70.736  1.00  0.00    -0.504 OA
ATOM     22  H   UNL     1     -44.448 -47.185  71.055  1.00  0.00     0.293 HD
ENDBRANCH  18  21
ENDBRANCH   3  13
BRANCH  11  23
ATOM     23  O   UNL     1     -41.394 -37.587  70.351  1.00  0.00    -0.507 OA
ATOM     24  H   UNL     1     -40.591 -37.332  70.903  1.00  0.00     0.293 HD
ENDBRANCH  11  23
ENDBRANCH   1   2
BRANCH   1  25
ATOM     25  C   UNL     1     -46.466 -39.448  73.299  1.00  0.00     0.339 C 
ATOM     26  C   UNL     1     -47.682 -38.524  73.140  1.00  0.00     0.214 C 
ATOM     27  O   UNL     1     -46.460 -40.044  74.587  1.00  0.00    -0.332 OA
ATOM     28  C   UNL     1     -47.672 -37.446  74.236  1.00  0.00     0.180 C 
ATOM     29  C   UNL     1     -46.306 -39.078  75.620  1.00  0.00     0.179 C 
ATOM     30  C   UNL     1     -47.504 -38.089  75.627  1.00  0.00     0.177 C 
BRANCH  26  31
ATOM     31  O   UNL     1     -47.654 -37.930  71.868  1.00  0.00    -0.384 OA
ATOM     32  H   UNL     1     -48.461 -38.245  71.382  1.00  0.00     0.211 HD
ENDBRANCH  26  31
BRANCH  28  33
ATOM     33  O   UNL     1     -48.877 -36.726  74.193  1.00  0.00    -0.387 OA
ATOM     34  H   UNL     1     -48.922 -36.186  75.025  1.00  0.00     0.211 HD
ENDBRANCH  28  33
BRANCH  29  35
ATOM     35  C   UNL     1     -46.191 -39.837  76.953  1.00  0.00     0.191 C 
BRANCH  35  36
ATOM     36  O   UNL     1     -47.456 -39.989  77.540  1.00  0.00    -0.394 OA
ATOM     37  H   UNL     1     -47.326 -40.121  78.517  1.00  0.00     0.210 HD
ENDBRANCH  35  36
ENDBRANCH  29  35
BRANCH  30  38
ATOM     38  O   UNL     1     -47.277 -37.062  76.566  1.00  0.00    -0.387 OA
ATOM     39  H   UNL     1     -46.746 -37.439  77.318  1.00  0.00     0.211 HD
ENDBRANCH  30  38
ENDBRANCH   1  25
TORSDOF 11
ENDMDL
