MODEL 1
REMARK VINA RESULT:     2.129      0.000      0.000
REMARK INTER + INTRA:           7.177
REMARK INTER:                   5.366
REMARK INTRA:                   1.811
REMARK UNBOUND:                 1.811
REMARK SMILES CCCCCCCCCCCCCCCCCCCCCCCCCCCC(=O)[O-]
REMARK SMILES IDX 15 1 16 2 17 3 18 4 19 5 20 6 21 7 22 8 23 9 24 10 25 11
REMARK SMILES IDX 26 12 27 13 28 14 29 15 30 16 14 17 13 18 12 19 11 20 10 21
REMARK SMILES IDX 9 22 8 23 7 24 6 25 5 26 4 27 3 28 2 29 1 30
REMARK H PARENT
REMARK Flexibility Score: inf
ROOT
ATOM      1  C   UNL     1     -15.450  15.281  -6.293  1.00  0.00     0.000 C 
ENDROOT
BRANCH   1   2
ATOM      2  C   UNL     1     -15.777  16.787  -6.231  1.00  0.00     0.000 C 
BRANCH   2   3
ATOM      3  C   UNL     1     -16.069  17.382  -7.621  1.00  0.00     0.000 C 
BRANCH   3   4
ATOM      4  C   UNL     1     -17.093  18.526  -7.566  1.00  0.00     0.000 C 
BRANCH   4   5
ATOM      5  C   UNL     1     -17.001  19.450  -8.791  1.00  0.00     0.000 C 
BRANCH   5   6
ATOM      6  C   UNL     1     -16.934  18.671 -10.113  1.00  0.00     0.000 C 
BRANCH   6   7
ATOM      7  C   UNL     1     -15.500  18.572 -10.667  1.00  0.00     0.000 C 
BRANCH   7   8
ATOM      8  C   UNL     1     -15.458  18.619 -12.208  1.00  0.00     0.000 C 
BRANCH   8   9
ATOM      9  C   UNL     1     -16.666  19.330 -12.853  1.00  0.00     0.000 C 
BRANCH   9  10
ATOM     10  C   UNL     1     -17.067  20.647 -12.160  1.00  0.00     0.000 C 
BRANCH  10  11
ATOM     11  C   UNL     1     -16.695  21.886 -12.990  1.00  0.00     0.000 C 
BRANCH  11  12
ATOM     12  C   UNL     1     -15.172  22.062 -13.068  1.00  0.00     0.006 C 
BRANCH  12  13
ATOM     13  C   UNL     1     -14.501  21.922 -11.694  1.00  0.00     0.053 C 
BRANCH  13  14
ATOM     14  C   UNL     1     -13.141  21.301 -11.801  1.00  0.00     0.041 C 
ATOM     15  O   UNL     1     -12.975  20.253 -12.482  1.00  0.00    -0.550 OA
ATOM     16  O   UNL     1     -12.070  21.842 -11.099  1.00  0.00    -0.550 OA
ENDBRANCH  13  14
ENDBRANCH  12  13
ENDBRANCH  11  12
ENDBRANCH  10  11
ENDBRANCH   9  10
ENDBRANCH   8   9
ENDBRANCH   7   8
ENDBRANCH   6   7
ENDBRANCH   5   6
ENDBRANCH   4   5
ENDBRANCH   3   4
ENDBRANCH   2   3
ENDBRANCH   1   2
BRANCH   1  17
ATOM     17  C   UNL     1     -16.688  14.376  -6.421  1.00  0.00     0.000 C 
BRANCH  17  18
ATOM     18  C   UNL     1     -17.120  14.151  -7.879  1.00  0.00     0.000 C 
BRANCH  18  19
ATOM     19  C   UNL     1     -17.125  15.447  -8.703  1.00  0.00     0.000 C 
BRANCH  19  20
ATOM     20  C   UNL     1     -16.772  15.214 -10.183  1.00  0.00     0.000 C 
BRANCH  20  21
ATOM     21  C   UNL     1     -16.984  13.747 -10.591  1.00  0.00     0.000 C 
BRANCH  21  22
ATOM     22  C   UNL     1     -16.714  13.510 -12.089  1.00  0.00    -0.000 C 
BRANCH  22  23
ATOM     23  C   UNL     1     -15.210  13.428 -12.405  1.00  0.00    -0.000 C 
BRANCH  23  24
ATOM     24  C   UNL     1     -14.852  12.110 -13.119  1.00  0.00    -0.000 C 
BRANCH  24  25
ATOM     25  C   UNL     1     -14.699  10.932 -12.145  1.00  0.00    -0.000 C 
BRANCH  25  26
ATOM     26  C   UNL     1     -14.989  11.329 -10.687  1.00  0.00    -0.000 C 
BRANCH  26  27
ATOM     27  C   UNL     1     -13.707  11.512  -9.854  1.00  0.00    -0.000 C 
BRANCH  27  28
ATOM     28  C   UNL     1     -13.749  12.685  -8.856  1.00  0.00    -0.000 C 
BRANCH  28  29
ATOM     29  C   UNL     1     -13.159  12.325  -7.484  1.00  0.00    -0.003 C 
ATOM     30  C   UNL     1     -14.131  12.681  -6.361  1.00  0.00     0.004 C 
ENDBRANCH  28  29
ENDBRANCH  27  28
ENDBRANCH  26  27
ENDBRANCH  25  26
ENDBRANCH  24  25
ENDBRANCH  23  24
ENDBRANCH  22  23
ENDBRANCH  21  22
ENDBRANCH  20  21
ENDBRANCH  19  20
ENDBRANCH  18  19
ENDBRANCH  17  18
ENDBRANCH   1  17
TORSDOF 26
ENDMDL
MODEL 2
REMARK VINA RESULT:     2.553      1.167      3.051
REMARK INTER + INTRA:           8.245
REMARK INTER:                   7.251
REMARK INTRA:                   0.994
REMARK UNBOUND:                 1.811
REMARK SMILES CCCCCCCCCCCCCCCCCCCCCCCCCCCC(=O)[O-]
REMARK SMILES IDX 15 1 16 2 17 3 18 4 19 5 20 6 21 7 22 8 23 9 24 10 25 11
REMARK SMILES IDX 26 12 27 13 28 14 29 15 30 16 14 17 13 18 12 19 11 20 10 21
REMARK SMILES IDX 9 22 8 23 7 24 6 25 5 26 4 27 3 28 2 29 1 30
REMARK H PARENT
REMARK Flexibility Score: inf
ROOT
ATOM      1  C   UNL     1     -14.642  15.111  -7.104  1.00  0.00     0.000 C 
ENDROOT
BRANCH   1   2
ATOM      2  C   UNL     1     -14.998  16.509  -6.558  1.00  0.00     0.000 C 
BRANCH   2   3
ATOM      3  C   UNL     1     -16.519  16.747  -6.500  1.00  0.00     0.000 C 
BRANCH   3   4
ATOM      4  C   UNL     1     -17.093  17.210  -7.848  1.00  0.00     0.000 C 
BRANCH   4   5
ATOM      5  C   UNL     1     -16.933  18.724  -8.061  1.00  0.00     0.000 C 
BRANCH   5   6
ATOM      6  C   UNL     1     -17.122  19.135  -9.529  1.00  0.00     0.000 C 
BRANCH   6   7
ATOM      7  C   UNL     1     -15.914  18.758 -10.407  1.00  0.00     0.000 C 
BRANCH   7   8
ATOM      8  C   UNL     1     -16.272  17.721 -11.490  1.00  0.00     0.000 C 
BRANCH   8   9
ATOM      9  C   UNL     1     -16.243  18.272 -12.930  1.00  0.00     0.000 C 
BRANCH   9  10
ATOM     10  C   UNL     1     -17.046  19.574 -13.125  1.00  0.00     0.000 C 
BRANCH  10  11
ATOM     11  C   UNL     1     -16.563  20.706 -12.205  1.00  0.00     0.000 C 
BRANCH  11  12
ATOM     12  C   UNL     1     -16.071  21.910 -13.021  1.00  0.00     0.006 C 
BRANCH  12  13
ATOM     13  C   UNL     1     -14.540  22.021 -13.024  1.00  0.00     0.053 C 
BRANCH  13  14
ATOM     14  C   UNL     1     -13.896  20.833 -12.376  1.00  0.00     0.041 C 
ATOM     15  O   UNL     1     -13.419  20.928 -11.213  1.00  0.00    -0.550 OA
ATOM     16  O   UNL     1     -13.766  19.640 -13.078  1.00  0.00    -0.550 OA
ENDBRANCH  13  14
ENDBRANCH  12  13
ENDBRANCH  11  12
ENDBRANCH  10  11
ENDBRANCH   9  10
ENDBRANCH   8   9
ENDBRANCH   7   8
ENDBRANCH   6   7
ENDBRANCH   5   6
ENDBRANCH   4   5
ENDBRANCH   3   4
ENDBRANCH   2   3
ENDBRANCH   1   2
BRANCH   1  17
ATOM     17  C   UNL     1     -15.653  14.015  -6.723  1.00  0.00     0.000 C 
BRANCH  17  18
ATOM     18  C   UNL     1     -15.003  12.823  -6.001  1.00  0.00     0.000 C 
BRANCH  18  19
ATOM     19  C   UNL     1     -14.430  11.782  -6.973  1.00  0.00     0.000 C 
BRANCH  19  20
ATOM     20  C   UNL     1     -13.501  12.403  -8.032  1.00  0.00     0.000 C 
BRANCH  20  21
ATOM     21  C   UNL     1     -13.356  11.492  -9.261  1.00  0.00     0.000 C 
BRANCH  21  22
ATOM     22  C   UNL     1     -14.570  11.584 -10.206  1.00  0.00    -0.000 C 
BRANCH  22  23
ATOM     23  C   UNL     1     -15.585  12.647  -9.749  1.00  0.00    -0.000 C 
BRANCH  23  24
ATOM     24  C   UNL     1     -16.907  12.544 -10.536  1.00  0.00    -0.000 C 
BRANCH  24  25
ATOM     25  C   UNL     1     -16.828  11.537 -11.694  1.00  0.00    -0.000 C 
BRANCH  25  26
ATOM     26  C   UNL     1     -17.079  12.190 -13.064  1.00  0.00    -0.000 C 
BRANCH  26  27
ATOM     27  C   UNL     1     -16.628  13.662 -13.113  1.00  0.00    -0.000 C 
BRANCH  27  28
ATOM     28  C   UNL     1     -15.106  13.875 -13.028  1.00  0.00    -0.000 C 
BRANCH  28  29
ATOM     29  C   UNL     1     -14.312  12.564 -13.124  1.00  0.00    -0.003 C 
ATOM     30  C   UNL     1     -12.824  12.806 -12.877  1.00  0.00     0.004 C 
ENDBRANCH  28  29
ENDBRANCH  27  28
ENDBRANCH  26  27
ENDBRANCH  25  26
ENDBRANCH  24  25
ENDBRANCH  23  24
ENDBRANCH  22  23
ENDBRANCH  21  22
ENDBRANCH  20  21
ENDBRANCH  19  20
ENDBRANCH  18  19
ENDBRANCH  17  18
ENDBRANCH   1  17
TORSDOF 26
ENDMDL
MODEL 3
REMARK VINA RESULT:     3.468      3.024      8.111
REMARK INTER + INTRA:          10.550
REMARK INTER:                   4.940
REMARK INTRA:                   5.610
REMARK UNBOUND:                 1.811
REMARK SMILES CCCCCCCCCCCCCCCCCCCCCCCCCCCC(=O)[O-]
REMARK SMILES IDX 15 1 16 2 17 3 18 4 19 5 20 6 21 7 22 8 23 9 24 10 25 11
REMARK SMILES IDX 26 12 27 13 28 14 29 15 30 16 14 17 13 18 12 19 11 20 10 21
REMARK SMILES IDX 9 22 8 23 7 24 6 25 5 26 4 27 3 28 2 29 1 30
REMARK H PARENT
REMARK Flexibility Score: inf
ROOT
ATOM      1  C   UNL     1     -15.745  16.572  -9.789  1.00  0.00     0.000 C 
ENDROOT
BRANCH   1   2
ATOM      2  C   UNL     1     -17.121  16.168 -10.357  1.00  0.00     0.000 C 
BRANCH   2   3
ATOM      3  C   UNL     1     -17.091  15.973 -11.884  1.00  0.00     0.000 C 
BRANCH   3   4
ATOM      4  C   UNL     1     -15.693  16.200 -12.478  1.00  0.00     0.000 C 
BRANCH   4   5
ATOM      5  C   UNL     1     -14.941  14.881 -12.721  1.00  0.00     0.000 C 
BRANCH   5   6
ATOM      6  C   UNL     1     -15.602  13.688 -12.014  1.00  0.00     0.000 C 
BRANCH   6   7
ATOM      7  C   UNL     1     -16.820  13.146 -12.787  1.00  0.00     0.000 C 
BRANCH   7   8
ATOM      8  C   UNL     1     -16.995  11.623 -12.618  1.00  0.00     0.000 C 
BRANCH   8   9
ATOM      9  C   UNL     1     -16.127  11.005 -11.503  1.00  0.00     0.000 C 
BRANCH   9  10
ATOM     10  C   UNL     1     -14.976  11.912 -11.023  1.00  0.00     0.000 C 
BRANCH  10  11
ATOM     11  C   UNL     1     -14.623  11.681  -9.545  1.00  0.00     0.000 C 
BRANCH  11  12
ATOM     12  C   UNL     1     -14.592  13.006  -8.771  1.00  0.00     0.006 C 
BRANCH  12  13
ATOM     13  C   UNL     1     -15.929  13.303  -8.076  1.00  0.00     0.053 C 
BRANCH  13  14
ATOM     14  C   UNL     1     -15.868  13.010  -6.607  1.00  0.00     0.041 C 
ATOM     15  O   UNL     1     -14.753  12.909  -6.028  1.00  0.00    -0.550 OA
ATOM     16  O   UNL     1     -17.039  12.788  -5.892  1.00  0.00    -0.550 OA
ENDBRANCH  13  14
ENDBRANCH  12  13
ENDBRANCH  11  12
ENDBRANCH  10  11
ENDBRANCH   9  10
ENDBRANCH   8   9
ENDBRANCH   7   8
ENDBRANCH   6   7
ENDBRANCH   5   6
ENDBRANCH   4   5
ENDBRANCH   3   4
ENDBRANCH   2   3
ENDBRANCH   1   2
BRANCH   1  17
ATOM     17  C   UNL     1     -15.816  17.612  -8.657  1.00  0.00     0.000 C 
BRANCH  17  18
ATOM     18  C   UNL     1     -16.727  18.805  -8.994  1.00  0.00     0.000 C 
BRANCH  18  19
ATOM     19  C   UNL     1     -17.063  18.890 -10.490  1.00  0.00     0.000 C 
BRANCH  19  20
ATOM     20  C   UNL     1     -17.061  20.334 -11.020  1.00  0.00     0.000 C 
BRANCH  20  21
ATOM     21  C   UNL     1     -17.034  20.373 -12.556  1.00  0.00     0.000 C 
BRANCH  21  22
ATOM     22  C   UNL     1     -16.721  21.780 -13.102  1.00  0.00    -0.000 C 
BRANCH  22  23
ATOM     23  C   UNL     1     -15.221  22.116 -13.024  1.00  0.00    -0.000 C 
BRANCH  23  24
ATOM     24  C   UNL     1     -14.622  21.719 -11.660  1.00  0.00    -0.000 C 
BRANCH  24  25
ATOM     25  C   UNL     1     -14.489  20.198 -11.493  1.00  0.00    -0.000 C 
BRANCH  25  26
ATOM     26  C   UNL     1     -13.464  19.583 -12.460  1.00  0.00    -0.000 C 
BRANCH  26  27
ATOM     27  C   UNL     1     -12.114  20.326 -12.448  1.00  0.00    -0.000 C 
BRANCH  27  28
ATOM     28  C   UNL     1     -12.152  21.725 -11.807  1.00  0.00    -0.000 C 
BRANCH  28  29
ATOM     29  C   UNL     1     -10.853  22.082 -11.069  1.00  0.00    -0.003 C 
ATOM     30  C   UNL     1     -11.068  22.092  -9.557  1.00  0.00     0.004 C 
ENDBRANCH  28  29
ENDBRANCH  27  28
ENDBRANCH  26  27
ENDBRANCH  25  26
ENDBRANCH  24  25
ENDBRANCH  23  24
ENDBRANCH  22  23
ENDBRANCH  21  22
ENDBRANCH  20  21
ENDBRANCH  19  20
ENDBRANCH  18  19
ENDBRANCH  17  18
ENDBRANCH   1  17
TORSDOF 26
ENDMDL
MODEL 4
REMARK VINA RESULT:     4.948      3.134      8.005
REMARK INTER + INTRA:          14.280
REMARK INTER:                  11.598
REMARK INTRA:                   2.682
REMARK UNBOUND:                 1.811
REMARK SMILES CCCCCCCCCCCCCCCCCCCCCCCCCCCC(=O)[O-]
REMARK SMILES IDX 15 1 16 2 17 3 18 4 19 5 20 6 21 7 22 8 23 9 24 10 25 11
REMARK SMILES IDX 26 12 27 13 28 14 29 15 30 16 14 17 13 18 12 19 11 20 10 21
REMARK SMILES IDX 9 22 8 23 7 24 6 25 5 26 4 27 3 28 2 29 1 30
REMARK H PARENT
REMARK Flexibility Score: inf
ROOT
ATOM      1  C   UNL     1     -15.311  15.227  -8.149  1.00  0.00     0.000 C 
ENDROOT
BRANCH   1   2
ATOM      2  C   UNL     1     -16.821  14.979  -8.343  1.00  0.00     0.000 C 
BRANCH   2   3
ATOM      3  C   UNL     1     -17.125  14.183  -9.625  1.00  0.00     0.000 C 
BRANCH   3   4
ATOM      4  C   UNL     1     -16.227  14.598 -10.801  1.00  0.00     0.000 C 
BRANCH   4   5
ATOM      5  C   UNL     1     -16.948  14.482 -12.155  1.00  0.00     0.000 C 
BRANCH   5   6
ATOM      6  C   UNL     1     -16.871  13.066 -12.743  1.00  0.00     0.000 C 
BRANCH   6   7
ATOM      7  C   UNL     1     -15.700  12.250 -12.164  1.00  0.00     0.000 C 
BRANCH   7   8
ATOM      8  C   UNL     1     -15.940  11.830 -10.700  1.00  0.00     0.000 C 
BRANCH   8   9
ATOM      9  C   UNL     1     -14.682  11.304  -9.977  1.00  0.00     0.000 C 
BRANCH   9  10
ATOM     10  C   UNL     1     -13.677  12.404  -9.577  1.00  0.00     0.000 C 
BRANCH  10  11
ATOM     11  C   UNL     1     -13.118  12.202  -8.160  1.00  0.00     0.000 C 
BRANCH  11  12
ATOM     12  C   UNL     1     -14.237  11.851  -7.169  1.00  0.00     0.006 C 
BRANCH  12  13
ATOM     13  C   UNL     1     -15.046  13.086  -6.748  1.00  0.00     0.053 C 
BRANCH  13  14
ATOM     14  C   UNL     1     -15.949  12.789  -5.588  1.00  0.00     0.041 C 
ATOM     15  O   UNL     1     -15.682  11.838  -4.806  1.00  0.00    -0.550 OA
ATOM     16  O   UNL     1     -17.116  13.522  -5.408  1.00  0.00    -0.550 OA
ENDBRANCH  13  14
ENDBRANCH  12  13
ENDBRANCH  11  12
ENDBRANCH  10  11
ENDBRANCH   9  10
ENDBRANCH   8   9
ENDBRANCH   7   8
ENDBRANCH   6   7
ENDBRANCH   5   6
ENDBRANCH   4   5
ENDBRANCH   3   4
ENDBRANCH   2   3
ENDBRANCH   1   2
BRANCH   1  17
ATOM     17  C   UNL     1     -14.855  16.645  -8.535  1.00  0.00     0.000 C 
BRANCH  17  18
ATOM     18  C   UNL     1     -15.808  17.334  -9.526  1.00  0.00     0.000 C 
BRANCH  18  19
ATOM     19  C   UNL     1     -16.011  18.824  -9.214  1.00  0.00     0.000 C 
BRANCH  19  20
ATOM     20  C   UNL     1     -17.036  19.493 -10.147  1.00  0.00     0.000 C 
BRANCH  20  21
ATOM     21  C   UNL     1     -16.579  20.898 -10.574  1.00  0.00     0.000 C 
BRANCH  21  22
ATOM     22  C   UNL     1     -17.123  21.296 -11.960  1.00  0.00    -0.000 C 
BRANCH  22  23
ATOM     23  C   UNL     1     -16.108  22.124 -12.768  1.00  0.00    -0.000 C 
BRANCH  23  24
ATOM     24  C   UNL     1     -14.829  21.319 -13.067  1.00  0.00    -0.000 C 
BRANCH  24  25
ATOM     25  C   UNL     1     -13.916  21.181 -11.839  1.00  0.00    -0.000 C 
BRANCH  25  26
ATOM     26  C   UNL     1     -12.760  20.192 -12.069  1.00  0.00    -0.000 C 
BRANCH  26  27
ATOM     27  C   UNL     1     -13.124  19.071 -13.060  1.00  0.00    -0.000 C 
BRANCH  27  28
ATOM     28  C   UNL     1     -14.228  18.114 -12.575  1.00  0.00    -0.000 C 
BRANCH  28  29
ATOM     29  C   UNL     1     -15.643  18.641 -12.854  1.00  0.00    -0.003 C 
ATOM     30  C   UNL     1     -16.614  17.491 -13.117  1.00  0.00     0.004 C 
ENDBRANCH  28  29
ENDBRANCH  27  28
ENDBRANCH  26  27
ENDBRANCH  25  26
ENDBRANCH  24  25
ENDBRANCH  23  24
ENDBRANCH  22  23
ENDBRANCH  21  22
ENDBRANCH  20  21
ENDBRANCH  19  20
ENDBRANCH  18  19
ENDBRANCH  17  18
ENDBRANCH   1  17
TORSDOF 26
ENDMDL
