MODEL 1
REMARK VINA RESULT:    -4.861      0.000      0.000
REMARK INTER + INTRA:         -10.081
REMARK INTER:                  -8.270
REMARK INTRA:                  -1.810
REMARK UNBOUND:                -1.810
REMARK SMILES CCCCCCCCCCCCCC(=O)[O-]
REMARK SMILES IDX 8 1 9 2 10 3 11 4 12 5 13 6 14 7 15 8 16 9 7 10 6 11 5 12
REMARK SMILES IDX 4 13 3 14 2 15 1 16
REMARK H PARENT
REMARK Flexibility Score: inf
ROOT
ATOM      1  C   UNL     1     -14.098   5.327 -22.009  1.00  0.00     0.000 C 
ENDROOT
BRANCH   1   2
ATOM      2  C   UNL     1     -15.485   4.652 -22.063  1.00  0.00     0.000 C 
BRANCH   2   3
ATOM      3  C   UNL     1     -16.225   4.649 -20.711  1.00  0.00     0.000 C 
BRANCH   3   4
ATOM      4  C   UNL     1     -16.390   3.262 -20.061  1.00  0.00     0.000 C 
BRANCH   4   5
ATOM      5  C   UNL     1     -15.079   2.613 -19.579  1.00  0.00     0.006 C 
BRANCH   5   6
ATOM      6  C   UNL     1     -14.924   1.161 -20.050  1.00  0.00     0.053 C 
BRANCH   6   7
ATOM      7  C   UNL     1     -14.798   1.107 -21.540  1.00  0.00     0.041 C 
ATOM      8  O   UNL     1     -13.757   1.537 -22.103  1.00  0.00    -0.550 OA
ATOM      9  O   UNL     1     -15.850   0.627 -22.310  1.00  0.00    -0.550 OA
ENDBRANCH   6   7
ENDBRANCH   5   6
ENDBRANCH   4   5
ENDBRANCH   3   4
ENDBRANCH   2   3
ENDBRANCH   1   2
BRANCH   1  10
ATOM     10  C   UNL     1     -13.791   5.921 -20.623  1.00  0.00     0.000 C 
BRANCH  10  11
ATOM     11  C   UNL     1     -12.920   7.186 -20.696  1.00  0.00    -0.000 C 
BRANCH  11  12
ATOM     12  C   UNL     1     -13.688   8.457 -20.294  1.00  0.00    -0.000 C 
BRANCH  12  13
ATOM     13  C   UNL     1     -15.126   8.157 -19.838  1.00  0.00    -0.000 C 
BRANCH  13  14
ATOM     14  C   UNL     1     -16.184   8.848 -20.717  1.00  0.00    -0.000 C 
BRANCH  14  15
ATOM     15  C   UNL     1     -15.741   8.971 -22.183  1.00  0.00    -0.003 C 
ATOM     16  C   UNL     1     -16.491   8.015 -23.110  1.00  0.00     0.004 C 
ENDBRANCH  14  15
ENDBRANCH  13  14
ENDBRANCH  12  13
ENDBRANCH  11  12
ENDBRANCH  10  11
ENDBRANCH   1  10
TORSDOF 12
ENDMDL
MODEL 2
REMARK VINA RESULT:    -4.827      2.183      3.032
REMARK INTER + INTRA:         -10.024
REMARK INTER:                  -7.926
REMARK INTRA:                  -2.098
REMARK UNBOUND:                -1.810
REMARK SMILES CCCCCCCCCCCCCC(=O)[O-]
REMARK SMILES IDX 8 1 9 2 10 3 11 4 12 5 13 6 14 7 15 8 16 9 7 10 6 11 5 12
REMARK SMILES IDX 4 13 3 14 2 15 1 16
REMARK H PARENT
REMARK Flexibility Score: inf
ROOT
ATOM      1  C   UNL     1     -17.085   5.584 -20.665  1.00  0.00     0.000 C 
ENDROOT
BRANCH   1   2
ATOM      2  C   UNL     1     -17.280   4.076 -20.401  1.00  0.00     0.000 C 
BRANCH   2   3
ATOM      3  C   UNL     1     -17.274   3.219 -21.682  1.00  0.00     0.000 C 
BRANCH   3   4
ATOM      4  C   UNL     1     -16.462   1.912 -21.588  1.00  0.00     0.000 C 
BRANCH   4   5
ATOM      5  C   UNL     1     -15.256   1.968 -20.632  1.00  0.00     0.006 C 
BRANCH   5   6
ATOM      6  C   UNL     1     -14.128   1.011 -21.040  1.00  0.00     0.053 C 
BRANCH   6   7
ATOM      7  C   UNL     1     -14.162  -0.226 -20.197  1.00  0.00     0.041 C 
ATOM      8  O   UNL     1     -14.834  -0.247 -19.132  1.00  0.00    -0.550 OA
ATOM      9  O   UNL     1     -13.412  -1.337 -20.561  1.00  0.00    -0.550 OA
ENDBRANCH   6   7
ENDBRANCH   5   6
ENDBRANCH   4   5
ENDBRANCH   3   4
ENDBRANCH   2   3
ENDBRANCH   1   2
BRANCH   1  10
ATOM     10  C   UNL     1     -15.861   6.153 -19.926  1.00  0.00     0.000 C 
BRANCH  10  11
ATOM     11  C   UNL     1     -14.538   5.517 -20.386  1.00  0.00    -0.000 C 
BRANCH  11  12
ATOM     12  C   UNL     1     -14.151   5.928 -21.817  1.00  0.00    -0.000 C 
BRANCH  12  13
ATOM     13  C   UNL     1     -13.962   4.717 -22.746  1.00  0.00    -0.000 C 
BRANCH  13  14
ATOM     14  C   UNL     1     -14.941   4.723 -23.935  1.00  0.00    -0.000 C 
BRANCH  14  15
ATOM     15  C   UNL     1     -15.677   6.064 -24.084  1.00  0.00    -0.003 C 
ATOM     16  C   UNL     1     -17.162   5.892 -24.399  1.00  0.00     0.004 C 
ENDBRANCH  14  15
ENDBRANCH  13  14
ENDBRANCH  12  13
ENDBRANCH  11  12
ENDBRANCH  10  11
ENDBRANCH   1  10
TORSDOF 12
ENDMDL
MODEL 3
REMARK VINA RESULT:    -4.823      1.923      3.393
REMARK INTER + INTRA:         -10.017
REMARK INTER:                  -8.167
REMARK INTRA:                  -1.850
REMARK UNBOUND:                -1.810
REMARK SMILES CCCCCCCCCCCCCC(=O)[O-]
REMARK SMILES IDX 8 1 9 2 10 3 11 4 12 5 13 6 14 7 15 8 16 9 7 10 6 11 5 12
REMARK SMILES IDX 4 13 3 14 2 15 1 16
REMARK H PARENT
REMARK Flexibility Score: inf
ROOT
ATOM      1  C   UNL     1     -16.556   2.891 -21.393  1.00  0.00     0.000 C 
ENDROOT
BRANCH   1   2
ATOM      2  C   UNL     1     -16.009   2.653 -19.970  1.00  0.00     0.000 C 
BRANCH   2   3
ATOM      3  C   UNL     1     -14.537   2.197 -19.942  1.00  0.00     0.000 C 
BRANCH   3   4
ATOM      4  C   UNL     1     -14.185   1.070 -20.932  1.00  0.00     0.000 C 
BRANCH   4   5
ATOM      5  C   UNL     1     -14.860  -0.283 -20.639  1.00  0.00     0.006 C 
BRANCH   5   6
ATOM      6  C   UNL     1     -15.019  -1.154 -21.892  1.00  0.00     0.053 C 
BRANCH   6   7
ATOM      7  C   UNL     1     -15.999  -0.535 -22.838  1.00  0.00     0.041 C 
ATOM      8  O   UNL     1     -15.599  -0.019 -23.915  1.00  0.00    -0.550 OA
ATOM      9  O   UNL     1     -17.347  -0.482 -22.508  1.00  0.00    -0.550 OA
ENDBRANCH   6   7
ENDBRANCH   5   6
ENDBRANCH   4   5
ENDBRANCH   3   4
ENDBRANCH   2   3
ENDBRANCH   1   2
BRANCH   1  10
ATOM     10  C   UNL     1     -17.642   3.982 -21.427  1.00  0.00     0.000 C 
BRANCH  10  11
ATOM     11  C   UNL     1     -17.463   5.034 -20.320  1.00  0.00    -0.000 C 
BRANCH  11  12
ATOM     12  C   UNL     1     -16.608   6.230 -20.773  1.00  0.00    -0.000 C 
BRANCH  12  13
ATOM     13  C   UNL     1     -15.278   6.326 -20.007  1.00  0.00    -0.000 C 
BRANCH  13  14
ATOM     14  C   UNL     1     -14.065   5.930 -20.869  1.00  0.00    -0.000 C 
BRANCH  14  15
ATOM     15  C   UNL     1     -14.433   5.744 -22.349  1.00  0.00    -0.003 C 
ATOM     16  C   UNL     1     -13.767   4.520 -22.975  1.00  0.00     0.004 C 
ENDBRANCH  14  15
ENDBRANCH  13  14
ENDBRANCH  12  13
ENDBRANCH  11  12
ENDBRANCH  10  11
ENDBRANCH   1  10
TORSDOF 12
ENDMDL
MODEL 4
REMARK VINA RESULT:    -4.805      1.461      2.756
REMARK INTER + INTRA:          -9.985
REMARK INTER:                  -8.383
REMARK INTRA:                  -1.603
REMARK UNBOUND:                -1.810
REMARK SMILES CCCCCCCCCCCCCC(=O)[O-]
REMARK SMILES IDX 8 1 9 2 10 3 11 4 12 5 13 6 14 7 15 8 16 9 7 10 6 11 5 12
REMARK SMILES IDX 4 13 3 14 2 15 1 16
REMARK H PARENT
REMARK Flexibility Score: inf
ROOT
ATOM      1  C   UNL     1     -17.494   5.158 -21.039  1.00  0.00     0.000 C 
ENDROOT
BRANCH   1   2
ATOM      2  C   UNL     1     -17.553   3.903 -21.936  1.00  0.00     0.000 C 
BRANCH   2   3
ATOM      3  C   UNL     1     -16.748   2.711 -21.384  1.00  0.00     0.000 C 
BRANCH   3   4
ATOM      4  C   UNL     1     -16.104   2.942 -20.003  1.00  0.00     0.000 C 
BRANCH   4   5
ATOM      5  C   UNL     1     -15.031   1.909 -19.609  1.00  0.00     0.006 C 
BRANCH   5   6
ATOM      6  C   UNL     1     -14.327   1.287 -20.822  1.00  0.00     0.053 C 
BRANCH   6   7
ATOM      7  C   UNL     1     -14.444  -0.204 -20.786  1.00  0.00     0.041 C 
ATOM      8  O   UNL     1     -13.450  -0.909 -20.469  1.00  0.00    -0.550 OA
ATOM      9  O   UNL     1     -15.636  -0.818 -21.150  1.00  0.00    -0.550 OA
ENDBRANCH   6   7
ENDBRANCH   5   6
ENDBRANCH   4   5
ENDBRANCH   3   4
ENDBRANCH   2   3
ENDBRANCH   1   2
BRANCH   1  10
ATOM     10  C   UNL     1     -17.659   6.459 -21.844  1.00  0.00     0.000 C 
BRANCH  10  11
ATOM     11  C   UNL     1     -17.559   7.719 -20.968  1.00  0.00    -0.000 C 
BRANCH  11  12
ATOM     12  C   UNL     1     -16.171   8.379 -21.037  1.00  0.00    -0.000 C 
BRANCH  12  13
ATOM     13  C   UNL     1     -15.227   7.882 -19.929  1.00  0.00    -0.000 C 
BRANCH  13  14
ATOM     14  C   UNL     1     -13.876   7.389 -20.477  1.00  0.00    -0.000 C 
BRANCH  14  15
ATOM     15  C   UNL     1     -13.815   5.858 -20.599  1.00  0.00    -0.003 C 
ATOM     16  C   UNL     1     -13.956   5.374 -22.042  1.00  0.00     0.004 C 
ENDBRANCH  14  15
ENDBRANCH  13  14
ENDBRANCH  12  13
ENDBRANCH  11  12
ENDBRANCH  10  11
ENDBRANCH   1  10
TORSDOF 12
ENDMDL
MODEL 5
REMARK VINA RESULT:    -4.802      2.239      3.462
REMARK INTER + INTRA:          -9.981
REMARK INTER:                  -8.450
REMARK INTRA:                  -1.531
REMARK UNBOUND:                -1.810
REMARK SMILES CCCCCCCCCCCCCC(=O)[O-]
REMARK SMILES IDX 8 1 9 2 10 3 11 4 12 5 13 6 14 7 15 8 16 9 7 10 6 11 5 12
REMARK SMILES IDX 4 13 3 14 2 15 1 16
REMARK H PARENT
REMARK Flexibility Score: inf
ROOT
ATOM      1  C   UNL     1     -13.701   3.306 -23.152  1.00  0.00     0.000 C 
ENDROOT
BRANCH   1   2
ATOM      2  C   UNL     1     -14.377   1.999 -22.687  1.00  0.00     0.000 C 
BRANCH   2   3
ATOM      3  C   UNL     1     -13.787   1.428 -21.383  1.00  0.00     0.000 C 
BRANCH   3   4
ATOM      4  C   UNL     1     -14.820   1.110 -20.285  1.00  0.00     0.000 C 
BRANCH   4   5
ATOM      5  C   UNL     1     -14.824  -0.353 -19.804  1.00  0.00     0.006 C 
BRANCH   5   6
ATOM      6  C   UNL     1     -13.698  -1.188 -20.428  1.00  0.00     0.053 C 
BRANCH   6   7
ATOM      7  C   UNL     1     -14.253  -2.139 -21.441  1.00  0.00     0.041 C 
ATOM      8  O   UNL     1     -14.056  -3.377 -21.321  1.00  0.00    -0.550 OA
ATOM      9  O   UNL     1     -14.944  -1.656 -22.544  1.00  0.00    -0.550 OA
ENDBRANCH   6   7
ENDBRANCH   5   6
ENDBRANCH   4   5
ENDBRANCH   3   4
ENDBRANCH   2   3
ENDBRANCH   1   2
BRANCH   1  10
ATOM     10  C   UNL     1     -14.629   4.525 -23.015  1.00  0.00     0.000 C 
BRANCH  10  11
ATOM     11  C   UNL     1     -14.106   5.563 -22.009  1.00  0.00    -0.000 C 
BRANCH  11  12
ATOM     12  C   UNL     1     -14.511   5.239 -20.560  1.00  0.00    -0.000 C 
BRANCH  12  13
ATOM     13  C   UNL     1     -15.654   6.136 -20.055  1.00  0.00    -0.000 C 
BRANCH  13  14
ATOM     14  C   UNL     1     -17.045   5.589 -20.424  1.00  0.00    -0.000 C 
BRANCH  14  15
ATOM     15  C   UNL     1     -17.121   4.058 -20.320  1.00  0.00    -0.003 C 
ATOM     16  C   UNL     1     -17.731   3.410 -21.562  1.00  0.00     0.004 C 
ENDBRANCH  14  15
ENDBRANCH  13  14
ENDBRANCH  12  13
ENDBRANCH  11  12
ENDBRANCH  10  11
ENDBRANCH   1  10
TORSDOF 12
ENDMDL
MODEL 6
REMARK VINA RESULT:    -4.799      2.083      3.685
REMARK INTER + INTRA:          -9.975
REMARK INTER:                  -8.139
REMARK INTRA:                  -1.837
REMARK UNBOUND:                -1.810
REMARK SMILES CCCCCCCCCCCCCC(=O)[O-]
REMARK SMILES IDX 8 1 9 2 10 3 11 4 12 5 13 6 14 7 15 8 16 9 7 10 6 11 5 12
REMARK SMILES IDX 4 13 3 14 2 15 1 16
REMARK H PARENT
REMARK Flexibility Score: inf
ROOT
ATOM      1  C   UNL     1     -16.900   2.964 -21.144  1.00  0.00     0.000 C 
ENDROOT
BRANCH   1   2
ATOM      2  C   UNL     1     -15.885   3.115 -19.990  1.00  0.00     0.000 C 
BRANCH   2   3
ATOM      3  C   UNL     1     -14.914   1.926 -19.862  1.00  0.00     0.000 C 
BRANCH   3   4
ATOM      4  C   UNL     1     -14.138   1.577 -21.146  1.00  0.00     0.000 C 
BRANCH   4   5
ATOM      5  C   UNL     1     -14.487   0.208 -21.762  1.00  0.00     0.006 C 
BRANCH   5   6
ATOM      6  C   UNL     1     -15.184  -0.731 -20.769  1.00  0.00     0.053 C 
BRANCH   6   7
ATOM      7  C   UNL     1     -14.217  -1.742 -20.239  1.00  0.00     0.041 C 
ATOM      8  O   UNL     1     -13.776  -2.651 -20.991  1.00  0.00    -0.550 OA
ATOM      9  O   UNL     1     -13.840  -1.711 -18.902  1.00  0.00    -0.550 OA
ENDBRANCH   6   7
ENDBRANCH   5   6
ENDBRANCH   4   5
ENDBRANCH   3   4
ENDBRANCH   2   3
ENDBRANCH   1   2
BRANCH   1  10
ATOM     10  C   UNL     1     -17.011   4.241 -21.995  1.00  0.00     0.000 C 
BRANCH  10  11
ATOM     11  C   UNL     1     -16.092   4.218 -23.228  1.00  0.00    -0.000 C 
BRANCH  11  12
ATOM     12  C   UNL     1     -15.083   5.379 -23.235  1.00  0.00    -0.000 C 
BRANCH  12  13
ATOM     13  C   UNL     1     -13.802   5.051 -22.449  1.00  0.00    -0.000 C 
BRANCH  13  14
ATOM     14  C   UNL     1     -13.648   5.909 -21.180  1.00  0.00    -0.000 C 
BRANCH  14  15
ATOM     15  C   UNL     1     -14.677   7.048 -21.113  1.00  0.00    -0.003 C 
ATOM     16  C   UNL     1     -15.593   6.945 -19.895  1.00  0.00     0.004 C 
ENDBRANCH  14  15
ENDBRANCH  13  14
ENDBRANCH  12  13
ENDBRANCH  11  12
ENDBRANCH  10  11
ENDBRANCH   1  10
TORSDOF 12
ENDMDL
MODEL 7
REMARK VINA RESULT:    -4.788      3.122      6.062
REMARK INTER + INTRA:          -9.956
REMARK INTER:                  -8.248
REMARK INTRA:                  -1.709
REMARK UNBOUND:                -1.810
REMARK SMILES CCCCCCCCCCCCCC(=O)[O-]
REMARK SMILES IDX 8 1 9 2 10 3 11 4 12 5 13 6 14 7 15 8 16 9 7 10 6 11 5 12
REMARK SMILES IDX 4 13 3 14 2 15 1 16
REMARK H PARENT
REMARK Flexibility Score: inf
ROOT
ATOM      1  C   UNL     1     -15.070   5.728 -22.865  1.00  0.00     0.000 C 
ENDROOT
BRANCH   1   2
ATOM      2  C   UNL     1     -13.838   5.287 -22.046  1.00  0.00     0.000 C 
BRANCH   2   3
ATOM      3  C   UNL     1     -13.742   5.959 -20.663  1.00  0.00     0.000 C 
BRANCH   3   4
ATOM      4  C   UNL     1     -12.914   7.258 -20.625  1.00  0.00     0.000 C 
BRANCH   4   5
ATOM      5  C   UNL     1     -13.705   8.518 -20.227  1.00  0.00     0.006 C 
BRANCH   5   6
ATOM      6  C   UNL     1     -15.166   8.217 -19.868  1.00  0.00     0.053 C 
BRANCH   6   7
ATOM      7  C   UNL     1     -16.084   8.750 -20.922  1.00  0.00     0.041 C 
ATOM      8  O   UNL     1     -17.325   8.803 -20.712  1.00  0.00    -0.550 OA
ATOM      9  O   UNL     1     -15.576   9.143 -22.153  1.00  0.00    -0.550 OA
ENDBRANCH   6   7
ENDBRANCH   5   6
ENDBRANCH   4   5
ENDBRANCH   3   4
ENDBRANCH   2   3
ENDBRANCH   1   2
BRANCH   1  10
ATOM     10  C   UNL     1     -15.421   4.726 -23.979  1.00  0.00     0.000 C 
BRANCH  10  11
ATOM     11  C   UNL     1     -15.139   3.269 -23.580  1.00  0.00    -0.000 C 
BRANCH  11  12
ATOM     12  C   UNL     1     -16.404   2.394 -23.602  1.00  0.00    -0.000 C 
BRANCH  12  13
ATOM     13  C   UNL     1     -16.931   2.086 -22.191  1.00  0.00    -0.000 C 
BRANCH  13  14
ATOM     14  C   UNL     1     -15.802   1.936 -21.155  1.00  0.00    -0.000 C 
BRANCH  14  15
ATOM     15  C   UNL     1     -15.904   2.968 -20.021  1.00  0.00    -0.003 C 
ATOM     16  C   UNL     1     -17.088   3.918 -20.191  1.00  0.00     0.004 C 
ENDBRANCH  14  15
ENDBRANCH  13  14
ENDBRANCH  12  13
ENDBRANCH  11  12
ENDBRANCH  10  11
ENDBRANCH   1  10
TORSDOF 12
ENDMDL
MODEL 8
REMARK VINA RESULT:    -4.760      2.851      5.805
REMARK INTER + INTRA:          -9.909
REMARK INTER:                  -8.199
REMARK INTRA:                  -1.710
REMARK UNBOUND:                -1.810
REMARK SMILES CCCCCCCCCCCCCC(=O)[O-]
REMARK SMILES IDX 8 1 9 2 10 3 11 4 12 5 13 6 14 7 15 8 16 9 7 10 6 11 5 12
REMARK SMILES IDX 4 13 3 14 2 15 1 16
REMARK H PARENT
REMARK Flexibility Score: inf
ROOT
ATOM      1  C   UNL     1     -17.481   4.551 -23.040  1.00  0.00     0.000 C 
ENDROOT
BRANCH   1   2
ATOM      2  C   UNL     1     -17.762   3.673 -21.802  1.00  0.00     0.000 C 
BRANCH   2   3
ATOM      3  C   UNL     1     -17.502   4.389 -20.463  1.00  0.00     0.000 C 
BRANCH   3   4
ATOM      4  C   UNL     1     -17.060   5.861 -20.587  1.00  0.00     0.000 C 
BRANCH   4   5
ATOM      5  C   UNL     1     -15.602   6.136 -20.173  1.00  0.00     0.006 C 
BRANCH   5   6
ATOM      6  C   UNL     1     -15.323   7.624 -19.930  1.00  0.00     0.053 C 
BRANCH   6   7
ATOM      7  C   UNL     1     -13.891   7.942 -20.225  1.00  0.00     0.041 C 
ATOM      8  O   UNL     1     -13.103   7.031 -20.594  1.00  0.00    -0.550 OA
ATOM      9  O   UNL     1     -13.413   9.234 -20.046  1.00  0.00    -0.550 OA
ENDBRANCH   6   7
ENDBRANCH   5   6
ENDBRANCH   4   5
ENDBRANCH   3   4
ENDBRANCH   2   3
ENDBRANCH   1   2
BRANCH   1  10
ATOM     10  C   UNL     1     -16.310   4.016 -23.883  1.00  0.00     0.000 C 
BRANCH  10  11
ATOM     11  C   UNL     1     -14.961   4.644 -23.496  1.00  0.00    -0.000 C 
BRANCH  11  12
ATOM     12  C   UNL     1     -13.887   3.590 -23.181  1.00  0.00    -0.000 C 
BRANCH  12  13
ATOM     13  C   UNL     1     -14.451   2.159 -23.173  1.00  0.00    -0.000 C 
BRANCH  13  14
ATOM     14  C   UNL     1     -14.009   1.353 -21.937  1.00  0.00    -0.000 C 
BRANCH  14  15
ATOM     15  C   UNL     1     -15.083   1.330 -20.837  1.00  0.00    -0.003 C 
ATOM     16  C   UNL     1     -14.801   2.329 -19.716  1.00  0.00     0.004 C 
ENDBRANCH  14  15
ENDBRANCH  13  14
ENDBRANCH  12  13
ENDBRANCH  11  12
ENDBRANCH  10  11
ENDBRANCH   1  10
TORSDOF 12
ENDMDL
MODEL 9
REMARK VINA RESULT:    -4.686      2.732      6.383
REMARK INTER + INTRA:          -9.784
REMARK INTER:                  -7.954
REMARK INTRA:                  -1.831
REMARK UNBOUND:                -1.810
REMARK SMILES CCCCCCCCCCCCCC(=O)[O-]
REMARK SMILES IDX 8 1 9 2 10 3 11 4 12 5 13 6 14 7 15 8 16 9 7 10 6 11 5 12
REMARK SMILES IDX 4 13 3 14 2 15 1 16
REMARK H PARENT
REMARK Flexibility Score: inf
ROOT
ATOM      1  C   UNL     1     -16.426   3.227 -20.229  1.00  0.00     0.000 C 
ENDROOT
BRANCH   1   2
ATOM      2  C   UNL     1     -16.515   3.570 -21.731  1.00  0.00     0.000 C 
BRANCH   2   3
ATOM      3  C   UNL     1     -15.143   3.801 -22.395  1.00  0.00     0.000 C 
BRANCH   3   4
ATOM      4  C   UNL     1     -14.765   5.279 -22.611  1.00  0.00     0.000 C 
BRANCH   4   5
ATOM      5  C   UNL     1     -13.742   5.839 -21.605  1.00  0.00     0.006 C 
BRANCH   5   6
ATOM      6  C   UNL     1     -14.381   6.250 -20.272  1.00  0.00     0.053 C 
BRANCH   6   7
ATOM      7  C   UNL     1     -15.521   7.190 -20.508  1.00  0.00     0.041 C 
ATOM      8  O   UNL     1     -16.706   6.809 -20.312  1.00  0.00    -0.550 OA
ATOM      9  O   UNL     1     -15.281   8.469 -20.992  1.00  0.00    -0.550 OA
ENDBRANCH   6   7
ENDBRANCH   5   6
ENDBRANCH   4   5
ENDBRANCH   3   4
ENDBRANCH   2   3
ENDBRANCH   1   2
BRANCH   1  10
ATOM     10  C   UNL     1     -15.076   2.589 -19.854  1.00  0.00     0.000 C 
BRANCH  10  11
ATOM     11  C   UNL     1     -15.234   1.269 -19.082  1.00  0.00    -0.000 C 
BRANCH  11  12
ATOM     12  C   UNL     1     -14.645   0.067 -19.840  1.00  0.00    -0.000 C 
BRANCH  12  13
ATOM     13  C   UNL     1     -14.209   0.428 -21.270  1.00  0.00    -0.000 C 
BRANCH  13  14
ATOM     14  C   UNL     1     -14.911  -0.430 -22.339  1.00  0.00    -0.000 C 
BRANCH  14  15
ATOM     15  C   UNL     1     -16.416  -0.585 -22.072  1.00  0.00    -0.003 C 
ATOM     16  C   UNL     1     -17.276   0.203 -23.060  1.00  0.00     0.004 C 
ENDBRANCH  14  15
ENDBRANCH  13  14
ENDBRANCH  12  13
ENDBRANCH  11  12
ENDBRANCH  10  11
ENDBRANCH   1  10
TORSDOF 12
ENDMDL
