MODEL 1
REMARK VINA RESULT:    -3.941      0.000      0.000
REMARK INTER + INTRA:          -4.922
REMARK INTER:                  -4.632
REMARK INTRA:                  -0.289
REMARK UNBOUND:                -0.289
REMARK SMILES O=c1cc(-c2ccc(O)c(O)c2)oc2cc(O)cc(O)c12
REMARK SMILES IDX 4 1 3 2 2 3 1 4 21 5 19 6 18 7 16 8 15 9 14 10 13 11 5 12
REMARK SMILES IDX 6 13 7 14 8 15 12 16 10 17 9 18 11 20 20 22 17 24
REMARK H PARENT 9 19 11 21 20 23 17 25
REMARK Flexibility Score: inf
ROOT
ATOM      1  C   UNL     1      52.856  83.603  30.573  1.00  0.00     0.138 A 
ATOM      2  C   UNL     1      52.086  82.894  29.636  1.00  0.00     0.100 A 
ATOM      3  C   UNL     1      50.713  82.751  29.844  1.00  0.00     0.197 A 
ATOM      4  O   UNL     1      50.030  82.114  28.996  1.00  0.00    -0.289 OA
ATOM      5  C   UNL     1      50.119  83.323  30.986  1.00  0.00     0.107 A 
ATOM      6  C   UNL     1      48.736  83.225  31.271  1.00  0.00     0.134 A 
ATOM      7  C   UNL     1      48.221  83.828  32.427  1.00  0.00     0.093 A 
ATOM      8  C   UNL     1      49.058  84.526  33.301  1.00  0.00     0.123 A 
ATOM      9  C   UNL     1      50.425  84.627  33.024  1.00  0.00     0.094 A 
ATOM     10  C   UNL     1      50.959  84.032  31.877  1.00  0.00     0.146 A 
ATOM     11  O   UNL     1      52.263  84.140  31.637  1.00  0.00    -0.456 OA
ENDROOT
BRANCH   1  12
ATOM     12  C   UNL     1      54.320  83.788  30.404  1.00  0.00     0.021 A 
ATOM     13  C   UNL     1      54.946  84.908  30.978  1.00  0.00     0.016 A 
ATOM     14  C   UNL     1      56.323  85.101  30.840  1.00  0.00     0.051 A 
ATOM     15  C   UNL     1      57.100  84.174  30.136  1.00  0.00     0.157 A 
ATOM     16  C   UNL     1      55.109  82.851  29.709  1.00  0.00     0.062 A 
ATOM     17  C   UNL     1      56.489  83.041  29.572  1.00  0.00     0.158 A 
BRANCH  15  18
ATOM     18  O   UNL     1      58.473  84.370  29.999  1.00  0.00    -0.504 OA
ATOM     19  H   UNL     1      58.902  84.503  29.091  1.00  0.00     0.293 HD
ENDBRANCH  15  18
BRANCH  17  20
ATOM     20  O   UNL     1      57.238  82.093  28.875  1.00  0.00    -0.504 OA
ATOM     21  H   UNL     1      56.892  81.157  28.700  1.00  0.00     0.293 HD
ENDBRANCH  17  20
ENDBRANCH   1  12
BRANCH   6  22
ATOM     22  O   UNL     1      47.875  82.535  30.417  1.00  0.00    -0.507 OA
ATOM     23  H   UNL     1      47.418  82.994  29.636  1.00  0.00     0.293 HD
ENDBRANCH   6  22
BRANCH   8  24
ATOM     24  O   UNL     1      48.520  85.117  34.443  1.00  0.00    -0.508 OA
ATOM     25  H   UNL     1      48.480  84.622  35.326  1.00  0.00     0.293 HD
ENDBRANCH   8  24
TORSDOF 5
ENDMDL
MODEL 2
REMARK VINA RESULT:    -3.807      0.944      1.309
REMARK INTER + INTRA:          -4.764
REMARK INTER:                  -4.473
REMARK INTRA:                  -0.291
REMARK UNBOUND:                -0.289
REMARK SMILES O=c1cc(-c2ccc(O)c(O)c2)oc2cc(O)cc(O)c12
REMARK SMILES IDX 4 1 3 2 2 3 1 4 21 5 19 6 18 7 16 8 15 9 14 10 13 11 5 12
REMARK SMILES IDX 6 13 7 14 8 15 12 16 10 17 9 18 11 20 20 22 17 24
REMARK H PARENT 9 19 11 21 20 23 17 25
REMARK Flexibility Score: inf
ROOT
ATOM      1  C   UNL     1      52.818  83.685  30.824  1.00  0.00     0.138 A 
ATOM      2  C   UNL     1      52.123  82.968  29.837  1.00  0.00     0.100 A 
ATOM      3  C   UNL     1      50.742  82.804  29.951  1.00  0.00     0.197 A 
ATOM      4  O   UNL     1      50.126  82.160  29.059  1.00  0.00    -0.289 OA
ATOM      5  C   UNL     1      50.064  83.364  31.053  1.00  0.00     0.107 A 
ATOM      6  C   UNL     1      48.667  83.244  31.245  1.00  0.00     0.134 A 
ATOM      7  C   UNL     1      48.067  83.836  32.366  1.00  0.00     0.093 A 
ATOM      8  C   UNL     1      48.834  84.544  33.295  1.00  0.00     0.123 A 
ATOM      9  C   UNL     1      50.215  84.665  33.110  1.00  0.00     0.094 A 
ATOM     10  C   UNL     1      50.832  84.082  32.000  1.00  0.00     0.146 A 
ATOM     11  O   UNL     1      52.147  84.209  31.847  1.00  0.00    -0.456 OA
ENDROOT
BRANCH   1  12
ATOM     12  C   UNL     1      54.287  83.891  30.753  1.00  0.00     0.021 A 
ATOM     13  C   UNL     1      54.869  84.312  29.545  1.00  0.00     0.016 A 
ATOM     14  C   UNL     1      56.247  84.521  29.454  1.00  0.00     0.051 A 
ATOM     15  C   UNL     1      57.067  84.323  30.571  1.00  0.00     0.157 A 
ATOM     16  C   UNL     1      55.116  83.708  31.878  1.00  0.00     0.062 A 
ATOM     17  C   UNL     1      56.497  83.918  31.790  1.00  0.00     0.158 A 
BRANCH  15  18
ATOM     18  O   UNL     1      58.442  84.531  30.478  1.00  0.00    -0.504 OA
ATOM     19  H   UNL     1      58.923  85.185  31.085  1.00  0.00     0.293 HD
ENDBRANCH  15  18
BRANCH  17  20
ATOM     20  O   UNL     1      57.285  83.725  32.924  1.00  0.00    -0.504 OA
ATOM     21  H   UNL     1      56.987  83.135  33.692  1.00  0.00     0.293 HD
ENDBRANCH  17  20
ENDBRANCH   1  12
BRANCH   6  22
ATOM     22  O   UNL     1      47.875  82.545  30.334  1.00  0.00    -0.507 OA
ATOM     23  H   UNL     1      47.254  83.023  29.691  1.00  0.00     0.293 HD
ENDBRANCH   6  22
BRANCH   8  24
ATOM     24  O   UNL     1      48.213  85.122  34.400  1.00  0.00    -0.508 OA
ATOM     25  H   UNL     1      48.559  84.974  35.341  1.00  0.00     0.293 HD
ENDBRANCH   8  24
TORSDOF 5
ENDMDL
MODEL 3
REMARK VINA RESULT:    -3.329      1.266      2.742
REMARK INTER + INTRA:          -4.202
REMARK INTER:                  -3.922
REMARK INTRA:                  -0.280
REMARK UNBOUND:                -0.289
REMARK SMILES O=c1cc(-c2ccc(O)c(O)c2)oc2cc(O)cc(O)c12
REMARK SMILES IDX 4 1 3 2 2 3 1 4 21 5 19 6 18 7 16 8 15 9 14 10 13 11 5 12
REMARK SMILES IDX 6 13 7 14 8 15 12 16 10 17 9 18 11 20 20 22 17 24
REMARK H PARENT 9 19 11 21 20 23 17 25
REMARK Flexibility Score: inf
ROOT
ATOM      1  C   UNL     1      53.738  84.188  30.961  1.00  0.00     0.138 A 
ATOM      2  C   UNL     1      53.523  84.588  32.289  1.00  0.00     0.100 A 
ATOM      3  C   UNL     1      52.217  84.728  32.762  1.00  0.00     0.197 A 
ATOM      4  O   UNL     1      52.034  85.087  33.957  1.00  0.00    -0.289 OA
ATOM      5  C   UNL     1      51.134  84.460  31.901  1.00  0.00     0.107 A 
ATOM      6  C   UNL     1      49.781  84.576  32.299  1.00  0.00     0.134 A 
ATOM      7  C   UNL     1      48.760  84.286  31.383  1.00  0.00     0.093 A 
ATOM      8  C   UNL     1      49.064  83.881  30.081  1.00  0.00     0.123 A 
ATOM      9  C   UNL     1      50.400  83.764  29.682  1.00  0.00     0.094 A 
ATOM     10  C   UNL     1      51.432  84.050  30.580  1.00  0.00     0.146 A 
ATOM     11  O   UNL     1      52.694  83.933  30.176  1.00  0.00    -0.456 OA
ENDROOT
BRANCH   1  12
ATOM     12  C   UNL     1      55.105  84.023  30.405  1.00  0.00     0.021 A 
ATOM     13  C   UNL     1      55.994  85.111  30.419  1.00  0.00     0.016 A 
ATOM     14  C   UNL     1      57.288  84.980  29.908  1.00  0.00     0.051 A 
ATOM     15  C   UNL     1      57.720  83.756  29.385  1.00  0.00     0.157 A 
ATOM     16  C   UNL     1      55.551  82.790  29.889  1.00  0.00     0.062 A 
ATOM     17  C   UNL     1      56.848  82.655  29.379  1.00  0.00     0.158 A 
BRANCH  15  18
ATOM     18  O   UNL     1      59.011  83.628  28.875  1.00  0.00    -0.504 OA
ATOM     19  H   UNL     1      59.828  83.732  29.466  1.00  0.00     0.293 HD
ENDBRANCH  15  18
BRANCH  17  20
ATOM     20  O   UNL     1      57.252  81.419  28.875  1.00  0.00    -0.504 OA
ATOM     21  H   UNL     1      57.990  81.334  28.186  1.00  0.00     0.293 HD
ENDBRANCH  17  20
ENDBRANCH   1  12
BRANCH   6  22
ATOM     22  O   UNL     1      49.447  84.977  33.593  1.00  0.00    -0.507 OA
ATOM     23  H   UNL     1      49.539  85.941  33.893  1.00  0.00     0.293 HD
ENDBRANCH   6  22
BRANCH   8  24
ATOM     24  O   UNL     1      48.030  83.598  29.190  1.00  0.00    -0.508 OA
ATOM     25  H   UNL     1      47.203  83.092  29.483  1.00  0.00     0.293 HD
ENDBRANCH   8  24
TORSDOF 5
ENDMDL
MODEL 4
REMARK VINA RESULT:    -1.164      1.433      6.940
REMARK INTER + INTRA:          -1.657
REMARK INTER:                  -1.373
REMARK INTRA:                  -0.284
REMARK UNBOUND:                -0.289
REMARK SMILES O=c1cc(-c2ccc(O)c(O)c2)oc2cc(O)cc(O)c12
REMARK SMILES IDX 4 1 3 2 2 3 1 4 21 5 19 6 18 7 16 8 15 9 14 10 13 11 5 12
REMARK SMILES IDX 6 13 7 14 8 15 12 16 10 17 9 18 11 20 20 22 17 24
REMARK H PARENT 9 19 11 21 20 23 17 25
REMARK Flexibility Score: inf
ROOT
ATOM      1  C   UNL     1      52.820  82.942  31.178  1.00  0.00     0.138 A 
ATOM      2  C   UNL     1      52.996  81.588  30.851  1.00  0.00     0.100 A 
ATOM      3  C   UNL     1      54.168  81.183  30.210  1.00  0.00     0.197 A 
ATOM      4  O   UNL     1      54.317  79.964  29.922  1.00  0.00    -0.289 OA
ATOM      5  C   UNL     1      55.159  82.137  29.905  1.00  0.00     0.107 A 
ATOM      6  C   UNL     1      56.374  81.811  29.257  1.00  0.00     0.134 A 
ATOM      7  C   UNL     1      57.312  82.819  28.993  1.00  0.00     0.093 A 
ATOM      8  C   UNL     1      57.061  84.143  29.363  1.00  0.00     0.123 A 
ATOM      9  C   UNL     1      55.862  84.470  30.004  1.00  0.00     0.094 A 
ATOM     10  C   UNL     1      54.913  83.481  30.276  1.00  0.00     0.146 A 
ATOM     11  O   UNL     1      53.779  83.817  30.884  1.00  0.00    -0.456 OA
ENDROOT
BRANCH   1  12
ATOM     12  C   UNL     1      51.595  83.431  31.860  1.00  0.00     0.021 A 
ATOM     13  C   UNL     1      51.699  84.451  32.821  1.00  0.00     0.016 A 
ATOM     14  C   UNL     1      50.561  84.933  33.473  1.00  0.00     0.051 A 
ATOM     15  C   UNL     1      49.298  84.412  33.168  1.00  0.00     0.157 A 
ATOM     16  C   UNL     1      50.320  82.920  31.548  1.00  0.00     0.062 A 
ATOM     17  C   UNL     1      49.178  83.403  32.198  1.00  0.00     0.158 A 
BRANCH  15  18
ATOM     18  O   UNL     1      48.164  84.894  33.820  1.00  0.00    -0.504 OA
ATOM     19  H   UNL     1      48.096  84.901  34.831  1.00  0.00     0.293 HD
ENDBRANCH  15  18
BRANCH  17  20
ATOM     20  O   UNL     1      47.932  82.872  31.863  1.00  0.00    -0.504 OA
ATOM     21  H   UNL     1      47.432  83.156  31.029  1.00  0.00     0.293 HD
ENDBRANCH  17  20
ENDBRANCH   1  12
BRANCH   6  22
ATOM     22  O   UNL     1      56.654  80.498  28.876  1.00  0.00    -0.507 OA
ATOM     23  H   UNL     1      56.680  80.220  27.901  1.00  0.00     0.293 HD
ENDBRANCH   6  22
BRANCH   8  24
ATOM     24  O   UNL     1      58.011  85.125  29.090  1.00  0.00    -0.508 OA
ATOM     25  H   UNL     1      58.440  85.667  29.830  1.00  0.00     0.293 HD
ENDBRANCH   8  24
TORSDOF 5
ENDMDL
