MODEL 1
REMARK VINA RESULT:    -2.772      0.000      0.000
REMARK INTER + INTRA:         -12.158
REMARK INTER:                  -6.986
REMARK INTRA:                  -5.173
REMARK UNBOUND:                -5.173
REMARK SMILES CCCCCCCCCCCCCCCCCCCCCCCCCCCC(=O)[O-]
REMARK SMILES IDX 15 1 16 2 17 3 18 4 19 5 20 6 21 7 22 8 23 9 24 10 25 11
REMARK SMILES IDX 26 12 27 13 28 14 29 15 30 16 14 17 13 18 12 19 11 20 10 21
REMARK SMILES IDX 9 22 8 23 7 24 6 25 5 26 4 27 3 28 2 29 1 30
REMARK H PARENT
REMARK Flexibility Score: inf
ROOT
ATOM      1  C   UNL     1       8.891 -19.159  22.720  1.00  0.00     0.000 C 
ENDROOT
BRANCH   1   2
ATOM      2  C   UNL     1      10.312 -18.897  23.263  1.00  0.00     0.000 C 
BRANCH   2   3
ATOM      3  C   UNL     1      11.250 -20.115  23.166  1.00  0.00     0.000 C 
BRANCH   3   4
ATOM      4  C   UNL     1      12.507 -19.903  22.304  1.00  0.00     0.000 C 
BRANCH   4   5
ATOM      5  C   UNL     1      13.792 -19.569  23.085  1.00  0.00     0.000 C 
BRANCH   5   6
ATOM      6  C   UNL     1      14.470 -18.277  22.598  1.00  0.00     0.000 C 
BRANCH   6   7
ATOM      7  C   UNL     1      13.463 -17.203  22.145  1.00  0.00     0.000 C 
BRANCH   7   8
ATOM      8  C   UNL     1      13.918 -16.325  20.964  1.00  0.00     0.000 C 
BRANCH   8   9
ATOM      9  C   UNL     1      14.598 -15.019  21.411  1.00  0.00     0.000 C 
BRANCH   9  10
ATOM     10  C   UNL     1      13.719 -13.781  21.171  1.00  0.00     0.000 C 
BRANCH  10  11
ATOM     11  C   UNL     1      12.686 -13.986  20.054  1.00  0.00     0.000 C 
BRANCH  11  12
ATOM     12  C   UNL     1      12.350 -12.654  19.366  1.00  0.00     0.006 C 
BRANCH  12  13
ATOM     13  C   UNL     1      12.709 -11.443  20.236  1.00  0.00     0.053 C 
BRANCH  13  14
ATOM     14  C   UNL     1      11.494 -10.823  20.854  1.00  0.00     0.041 C 
ATOM     15  O   UNL     1      11.513  -9.618  21.219  1.00  0.00    -0.550 OA
ATOM     16  O   UNL     1      10.330 -11.568  20.998  1.00  0.00    -0.550 OA
ENDBRANCH  13  14
ENDBRANCH  12  13
ENDBRANCH  11  12
ENDBRANCH  10  11
ENDBRANCH   9  10
ENDBRANCH   8   9
ENDBRANCH   7   8
ENDBRANCH   6   7
ENDBRANCH   5   6
ENDBRANCH   4   5
ENDBRANCH   3   4
ENDBRANCH   2   3
ENDBRANCH   1   2
BRANCH   1  17
ATOM     17  C   UNL     1       8.759 -20.524  22.023  1.00  0.00     0.000 C 
BRANCH  17  18
ATOM     18  C   UNL     1       7.738 -20.520  20.872  1.00  0.00     0.000 C 
BRANCH  18  19
ATOM     19  C   UNL     1       7.042 -19.161  20.646  1.00  0.00     0.000 C 
BRANCH  19  20
ATOM     20  C   UNL     1       6.886 -18.817  19.153  1.00  0.00     0.000 C 
BRANCH  20  21
ATOM     21  C   UNL     1       7.916 -19.544  18.265  1.00  0.00     0.000 C 
BRANCH  21  22
ATOM     22  C   UNL     1       9.146 -18.697  17.891  1.00  0.00    -0.000 C 
BRANCH  22  23
ATOM     23  C   UNL     1      10.427 -19.165  18.605  1.00  0.00    -0.000 C 
BRANCH  23  24
ATOM     24  C   UNL     1      10.884 -18.190  19.699  1.00  0.00    -0.000 C 
BRANCH  24  25
ATOM     25  C   UNL     1      10.242 -16.797  19.560  1.00  0.00    -0.000 C 
BRANCH  25  26
ATOM     26  C   UNL     1      10.077 -16.096  20.924  1.00  0.00    -0.000 C 
BRANCH  26  27
ATOM     27  C   UNL     1       8.937 -15.062  20.947  1.00  0.00    -0.000 C 
BRANCH  27  28
ATOM     28  C   UNL     1       7.568 -15.683  21.261  1.00  0.00    -0.000 C 
BRANCH  28  29
ATOM     29  C   UNL     1       6.517 -15.250  20.233  1.00  0.00    -0.003 C 
ATOM     30  C   UNL     1       7.143 -15.051  18.856  1.00  0.00     0.004 C 
ENDBRANCH  28  29
ENDBRANCH  27  28
ENDBRANCH  26  27
ENDBRANCH  25  26
ENDBRANCH  24  25
ENDBRANCH  23  24
ENDBRANCH  22  23
ENDBRANCH  21  22
ENDBRANCH  20  21
ENDBRANCH  19  20
ENDBRANCH  18  19
ENDBRANCH  17  18
ENDBRANCH   1  17
TORSDOF 26
ENDMDL
MODEL 2
REMARK VINA RESULT:    -2.763      2.341      7.282
REMARK INTER + INTRA:         -12.135
REMARK INTER:                  -7.424
REMARK INTRA:                  -4.711
REMARK UNBOUND:                -5.173
REMARK SMILES CCCCCCCCCCCCCCCCCCCCCCCCCCCC(=O)[O-]
REMARK SMILES IDX 15 1 16 2 17 3 18 4 19 5 20 6 21 7 22 8 23 9 24 10 25 11
REMARK SMILES IDX 26 12 27 13 28 14 29 15 30 16 14 17 13 18 12 19 11 20 10 21
REMARK SMILES IDX 9 22 8 23 7 24 6 25 5 26 4 27 3 28 2 29 1 30
REMARK H PARENT
REMARK Flexibility Score: inf
ROOT
ATOM      1  C   UNL     1      10.844 -14.994  20.984  1.00  0.00     0.000 C 
ENDROOT
BRANCH   1   2
ATOM      2  C   UNL     1       9.354 -15.376  20.867  1.00  0.00     0.000 C 
BRANCH   2   3
ATOM      3  C   UNL     1       8.859 -15.515  19.414  1.00  0.00     0.000 C 
BRANCH   3   4
ATOM      4  C   UNL     1       7.373 -15.886  19.264  1.00  0.00     0.000 C 
BRANCH   4   5
ATOM      5  C   UNL     1       7.046 -17.380  19.453  1.00  0.00     0.000 C 
BRANCH   5   6
ATOM      6  C   UNL     1       7.209 -18.196  18.159  1.00  0.00     0.000 C 
BRANCH   6   7
ATOM      7  C   UNL     1       7.789 -19.602  18.404  1.00  0.00     0.000 C 
BRANCH   7   8
ATOM      8  C   UNL     1       9.091 -19.647  19.225  1.00  0.00     0.000 C 
BRANCH   8   9
ATOM      9  C   UNL     1      10.331 -19.238  18.412  1.00  0.00     0.000 C 
BRANCH   9  10
ATOM     10  C   UNL     1      11.508 -18.808  19.301  1.00  0.00     0.000 C 
BRANCH  10  11
ATOM     11  C   UNL     1      11.174 -18.848  20.800  1.00  0.00     0.000 C 
BRANCH  11  12
ATOM     12  C   UNL     1      12.434 -19.118  21.636  1.00  0.00     0.006 C 
BRANCH  12  13
ATOM     13  C   UNL     1      13.550 -18.106  21.352  1.00  0.00     0.053 C 
BRANCH  13  14
ATOM     14  C   UNL     1      13.570 -17.002  22.364  1.00  0.00     0.041 C 
ATOM     15  O   UNL     1      14.236 -15.955  22.148  1.00  0.00    -0.550 OA
ATOM     16  O   UNL     1      12.828 -17.117  23.533  1.00  0.00    -0.550 OA
ENDBRANCH  13  14
ENDBRANCH  12  13
ENDBRANCH  11  12
ENDBRANCH  10  11
ENDBRANCH   9  10
ENDBRANCH   8   9
ENDBRANCH   7   8
ENDBRANCH   6   7
ENDBRANCH   5   6
ENDBRANCH   4   5
ENDBRANCH   3   4
ENDBRANCH   2   3
ENDBRANCH   1   2
BRANCH   1  17
ATOM     17  C   UNL     1      11.634 -15.262  19.691  1.00  0.00     0.000 C 
BRANCH  17  18
ATOM     18  C   UNL     1      12.703 -14.192  19.404  1.00  0.00     0.000 C 
BRANCH  18  19
ATOM     19  C   UNL     1      12.407 -12.815  20.031  1.00  0.00     0.000 C 
BRANCH  19  20
ATOM     20  C   UNL     1      13.400 -12.448  21.150  1.00  0.00     0.000 C 
BRANCH  20  21
ATOM     21  C   UNL     1      13.462 -10.931  21.416  1.00  0.00     0.000 C 
BRANCH  21  22
ATOM     22  C   UNL     1      14.448 -10.165  20.515  1.00  0.00    -0.000 C 
BRANCH  22  23
ATOM     23  C   UNL     1      13.832  -8.888  19.914  1.00  0.00    -0.000 C 
BRANCH  23  24
ATOM     24  C   UNL     1      12.473  -9.144  19.250  1.00  0.00    -0.000 C 
BRANCH  24  25
ATOM     25  C   UNL     1      11.328  -8.359  19.918  1.00  0.00    -0.000 C 
BRANCH  25  26
ATOM     26  C   UNL     1      10.056  -9.216  20.082  1.00  0.00    -0.000 C 
BRANCH  26  27
ATOM     27  C   UNL     1       9.836  -9.716  21.521  1.00  0.00    -0.000 C 
BRANCH  27  28
ATOM     28  C   UNL     1       9.586 -11.228  21.601  1.00  0.00    -0.000 C 
BRANCH  28  29
ATOM     29  C   UNL     1       8.981 -11.757  20.295  1.00  0.00    -0.003 C 
ATOM     30  C   UNL     1       7.509 -12.116  20.477  1.00  0.00     0.004 C 
ENDBRANCH  28  29
ENDBRANCH  27  28
ENDBRANCH  26  27
ENDBRANCH  25  26
ENDBRANCH  24  25
ENDBRANCH  23  24
ENDBRANCH  22  23
ENDBRANCH  21  22
ENDBRANCH  20  21
ENDBRANCH  19  20
ENDBRANCH  18  19
ENDBRANCH  17  18
ENDBRANCH   1  17
TORSDOF 26
ENDMDL
MODEL 3
REMARK VINA RESULT:    -2.752      3.734      7.705
REMARK INTER + INTRA:         -12.107
REMARK INTER:                  -6.460
REMARK INTRA:                  -5.647
REMARK UNBOUND:                -5.173
REMARK SMILES CCCCCCCCCCCCCCCCCCCCCCCCCCCC(=O)[O-]
REMARK SMILES IDX 15 1 16 2 17 3 18 4 19 5 20 6 21 7 22 8 23 9 24 10 25 11
REMARK SMILES IDX 26 12 27 13 28 14 29 15 30 16 14 17 13 18 12 19 11 20 10 21
REMARK SMILES IDX 9 22 8 23 7 24 6 25 5 26 4 27 3 28 2 29 1 30
REMARK H PARENT
REMARK Flexibility Score: inf
ROOT
ATOM      1  C   UNL     1       8.431 -19.975  19.085  1.00  0.00     0.000 C 
ENDROOT
BRANCH   1   2
ATOM      2  C   UNL     1       9.764 -19.228  19.304  1.00  0.00     0.000 C 
BRANCH   2   3
ATOM      3  C   UNL     1       9.691 -17.721  18.992  1.00  0.00     0.000 C 
BRANCH   3   4
ATOM      4  C   UNL     1       9.688 -16.799  20.225  1.00  0.00     0.000 C 
BRANCH   4   5
ATOM      5  C   UNL     1       8.826 -15.529  20.096  1.00  0.00     0.000 C 
BRANCH   5   6
ATOM      6  C   UNL     1       7.868 -15.577  18.892  1.00  0.00     0.000 C 
BRANCH   6   7
ATOM      7  C   UNL     1       6.408 -15.266  19.272  1.00  0.00     0.000 C 
BRANCH   7   8
ATOM      8  C   UNL     1       5.414 -15.217  18.096  1.00  0.00     0.000 C 
BRANCH   8   9
ATOM      9  C   UNL     1       4.107 -15.976  18.380  1.00  0.00     0.000 C 
BRANCH   9  10
ATOM     10  C   UNL     1       3.825 -16.130  19.883  1.00  0.00     0.000 C 
BRANCH  10  11
ATOM     11  C   UNL     1       2.552 -16.937  20.176  1.00  0.00     0.000 C 
BRANCH  11  12
ATOM     12  C   UNL     1       2.751 -17.853  21.393  1.00  0.00     0.006 C 
BRANCH  12  13
ATOM     13  C   UNL     1       2.659 -19.339  21.025  1.00  0.00     0.053 C 
BRANCH  13  14
ATOM     14  C   UNL     1       2.021 -19.542  19.686  1.00  0.00     0.041 C 
ATOM     15  O   UNL     1       2.732 -19.635  18.651  1.00  0.00    -0.550 OA
ATOM     16  O   UNL     1       0.640 -19.657  19.584  1.00  0.00    -0.550 OA
ENDBRANCH  13  14
ENDBRANCH  12  13
ENDBRANCH  11  12
ENDBRANCH  10  11
ENDBRANCH   9  10
ENDBRANCH   8   9
ENDBRANCH   7   8
ENDBRANCH   6   7
ENDBRANCH   5   6
ENDBRANCH   4   5
ENDBRANCH   3   4
ENDBRANCH   2   3
ENDBRANCH   1   2
BRANCH   1  17
ATOM     17  C   UNL     1       7.372 -19.114  18.375  1.00  0.00     0.000 C 
BRANCH  17  18
ATOM     18  C   UNL     1       6.106 -18.891  19.222  1.00  0.00     0.000 C 
BRANCH  18  19
ATOM     19  C   UNL     1       6.238 -19.345  20.691  1.00  0.00     0.000 C 
BRANCH  19  20
ATOM     20  C   UNL     1       6.483 -18.169  21.654  1.00  0.00     0.000 C 
BRANCH  20  21
ATOM     21  C   UNL     1       7.619 -18.449  22.658  1.00  0.00     0.000 C 
BRANCH  21  22
ATOM     22  C   UNL     1       7.996 -19.935  22.796  1.00  0.00    -0.000 C 
BRANCH  22  23
ATOM     23  C   UNL     1       9.517 -20.156  22.877  1.00  0.00    -0.000 C 
BRANCH  23  24
ATOM     24  C   UNL     1      10.290 -18.856  23.138  1.00  0.00    -0.000 C 
BRANCH  24  25
ATOM     25  C   UNL     1      11.795 -19.094  23.361  1.00  0.00    -0.000 C 
BRANCH  25  26
ATOM     26  C   UNL     1      12.474 -19.717  22.123  1.00  0.00    -0.000 C 
BRANCH  26  27
ATOM     27  C   UNL     1      12.847 -18.684  21.045  1.00  0.00    -0.000 C 
BRANCH  27  28
ATOM     28  C   UNL     1      13.743 -17.557  21.576  1.00  0.00    -0.000 C 
BRANCH  28  29
ATOM     29  C   UNL     1      13.036 -16.200  21.482  1.00  0.00    -0.003 C 
ATOM     30  C   UNL     1      13.170 -15.606  20.083  1.00  0.00     0.004 C 
ENDBRANCH  28  29
ENDBRANCH  27  28
ENDBRANCH  26  27
ENDBRANCH  25  26
ENDBRANCH  24  25
ENDBRANCH  23  24
ENDBRANCH  22  23
ENDBRANCH  21  22
ENDBRANCH  20  21
ENDBRANCH  19  20
ENDBRANCH  18  19
ENDBRANCH  17  18
ENDBRANCH   1  17
TORSDOF 26
ENDMDL
MODEL 4
REMARK VINA RESULT:    -2.739      4.517      8.293
REMARK INTER + INTRA:         -12.076
REMARK INTER:                  -7.289
REMARK INTRA:                  -4.787
REMARK UNBOUND:                -5.173
REMARK SMILES CCCCCCCCCCCCCCCCCCCCCCCCCCCC(=O)[O-]
REMARK SMILES IDX 15 1 16 2 17 3 18 4 19 5 20 6 21 7 22 8 23 9 24 10 25 11
REMARK SMILES IDX 26 12 27 13 28 14 29 15 30 16 14 17 13 18 12 19 11 20 10 21
REMARK SMILES IDX 9 22 8 23 7 24 6 25 5 26 4 27 3 28 2 29 1 30
REMARK H PARENT
REMARK Flexibility Score: inf
ROOT
ATOM      1  C   UNL     1       7.618 -19.095  21.835  1.00  0.00     0.000 C 
ENDROOT
BRANCH   1   2
ATOM      2  C   UNL     1       7.071 -17.652  21.880  1.00  0.00     0.000 C 
BRANCH   2   3
ATOM      3  C   UNL     1       8.077 -16.590  21.395  1.00  0.00     0.000 C 
BRANCH   3   4
ATOM      4  C   UNL     1       7.519 -15.582  20.374  1.00  0.00     0.000 C 
BRANCH   4   5
ATOM      5  C   UNL     1       7.960 -15.809  18.916  1.00  0.00     0.000 C 
BRANCH   5   6
ATOM      6  C   UNL     1       6.775 -16.002  17.955  1.00  0.00     0.000 C 
BRANCH   6   7
ATOM      7  C   UNL     1       5.473 -16.400  18.677  1.00  0.00     0.000 C 
BRANCH   7   8
ATOM      8  C   UNL     1       5.034 -17.865  18.490  1.00  0.00     0.000 C 
BRANCH   8   9
ATOM      9  C   UNL     1       3.637 -18.153  19.064  1.00  0.00     0.000 C 
BRANCH   9  10
ATOM     10  C   UNL     1       3.574 -17.974  20.589  1.00  0.00     0.000 C 
BRANCH  10  11
ATOM     11  C   UNL     1       3.406 -19.302  21.343  1.00  0.00     0.000 C 
BRANCH  11  12
ATOM     12  C   UNL     1       2.127 -20.027  20.899  1.00  0.00     0.006 C 
BRANCH  12  13
ATOM     13  C   UNL     1       1.679 -21.089  21.910  1.00  0.00     0.053 C 
BRANCH  13  14
ATOM     14  C   UNL     1       0.192 -21.096  22.087  1.00  0.00     0.041 C 
ATOM     15  O   UNL     1      -0.567 -21.125  21.083  1.00  0.00    -0.550 OA
ATOM     16  O   UNL     1      -0.356 -21.102  23.364  1.00  0.00    -0.550 OA
ENDBRANCH  13  14
ENDBRANCH  12  13
ENDBRANCH  11  12
ENDBRANCH  10  11
ENDBRANCH   9  10
ENDBRANCH   8   9
ENDBRANCH   7   8
ENDBRANCH   6   7
ENDBRANCH   5   6
ENDBRANCH   4   5
ENDBRANCH   3   4
ENDBRANCH   2   3
ENDBRANCH   1   2
BRANCH   1  17
ATOM     17  C   UNL     1       6.978 -19.942  20.722  1.00  0.00     0.000 C 
BRANCH  17  18
ATOM     18  C   UNL     1       7.993 -20.422  19.669  1.00  0.00     0.000 C 
BRANCH  18  19
ATOM     19  C   UNL     1       8.162 -19.468  18.469  1.00  0.00     0.000 C 
BRANCH  19  20
ATOM     20  C   UNL     1       9.640 -19.204  18.126  1.00  0.00     0.000 C 
BRANCH  20  21
ATOM     21  C   UNL     1      10.406 -18.531  19.282  1.00  0.00     0.000 C 
BRANCH  21  22
ATOM     22  C   UNL     1      11.869 -18.987  19.429  1.00  0.00    -0.000 C 
BRANCH  22  23
ATOM     23  C   UNL     1      12.379 -18.887  20.878  1.00  0.00    -0.000 C 
BRANCH  23  24
ATOM     24  C   UNL     1      11.272 -18.501  21.869  1.00  0.00    -0.000 C 
BRANCH  24  25
ATOM     25  C   UNL     1      11.586 -17.203  22.635  1.00  0.00    -0.000 C 
BRANCH  25  26
ATOM     26  C   UNL     1      12.383 -16.200  21.774  1.00  0.00    -0.000 C 
BRANCH  26  27
ATOM     27  C   UNL     1      11.492 -15.311  20.888  1.00  0.00    -0.000 C 
BRANCH  27  28
ATOM     28  C   UNL     1      12.258 -14.659  19.728  1.00  0.00    -0.000 C 
BRANCH  28  29
ATOM     29  C   UNL     1      12.996 -13.399  20.193  1.00  0.00    -0.003 C 
ATOM     30  C   UNL     1      12.222 -12.139  19.820  1.00  0.00     0.004 C 
ENDBRANCH  28  29
ENDBRANCH  27  28
ENDBRANCH  26  27
ENDBRANCH  25  26
ENDBRANCH  24  25
ENDBRANCH  23  24
ENDBRANCH  22  23
ENDBRANCH  21  22
ENDBRANCH  20  21
ENDBRANCH  19  20
ENDBRANCH  18  19
ENDBRANCH  17  18
ENDBRANCH   1  17
TORSDOF 26
ENDMDL
MODEL 5
REMARK VINA RESULT:    -2.700      1.481      2.155
REMARK INTER + INTRA:         -11.977
REMARK INTER:                  -7.022
REMARK INTRA:                  -4.955
REMARK UNBOUND:                -5.173
REMARK SMILES CCCCCCCCCCCCCCCCCCCCCCCCCCCC(=O)[O-]
REMARK SMILES IDX 15 1 16 2 17 3 18 4 19 5 20 6 21 7 22 8 23 9 24 10 25 11
REMARK SMILES IDX 26 12 27 13 28 14 29 15 30 16 14 17 13 18 12 19 11 20 10 21
REMARK SMILES IDX 9 22 8 23 7 24 6 25 5 26 4 27 3 28 2 29 1 30
REMARK H PARENT
REMARK Flexibility Score: inf
ROOT
ATOM      1  C   UNL     1       8.843 -19.133  22.812  1.00  0.00     0.000 C 
ENDROOT
BRANCH   1   2
ATOM      2  C   UNL     1      10.274 -18.968  23.366  1.00  0.00     0.000 C 
BRANCH   2   3
ATOM      3  C   UNL     1      11.164 -20.210  23.170  1.00  0.00     0.000 C 
BRANCH   3   4
ATOM      4  C   UNL     1      12.468 -19.961  22.389  1.00  0.00     0.000 C 
BRANCH   4   5
ATOM      5  C   UNL     1      13.726 -19.766  23.255  1.00  0.00     0.000 C 
BRANCH   5   6
ATOM      6  C   UNL     1      14.595 -18.584  22.790  1.00  0.00     0.000 C 
BRANCH   6   7
ATOM      7  C   UNL     1      13.801 -17.530  21.994  1.00  0.00     0.000 C 
BRANCH   7   8
ATOM      8  C   UNL     1      14.644 -16.607  21.093  1.00  0.00     0.000 C 
BRANCH   8   9
ATOM      9  C   UNL     1      14.910 -15.230  21.724  1.00  0.00     0.000 C 
BRANCH   9  10
ATOM     10  C   UNL     1      13.974 -14.139  21.179  1.00  0.00     0.000 C 
BRANCH  10  11
ATOM     11  C   UNL     1      14.406 -12.722  21.583  1.00  0.00     0.000 C 
BRANCH  11  12
ATOM     12  C   UNL     1      13.213 -11.755  21.551  1.00  0.00     0.006 C 
BRANCH  12  13
ATOM     13  C   UNL     1      12.758 -11.439  20.121  1.00  0.00     0.053 C 
BRANCH  13  14
ATOM     14  C   UNL     1      13.063 -10.022  19.741  1.00  0.00     0.041 C 
ATOM     15  O   UNL     1      14.072  -9.440  20.217  1.00  0.00    -0.550 OA
ATOM     16  O   UNL     1      12.247  -9.355  18.835  1.00  0.00    -0.550 OA
ENDBRANCH  13  14
ENDBRANCH  12  13
ENDBRANCH  11  12
ENDBRANCH  10  11
ENDBRANCH   9  10
ENDBRANCH   8   9
ENDBRANCH   7   8
ENDBRANCH   6   7
ENDBRANCH   5   6
ENDBRANCH   4   5
ENDBRANCH   3   4
ENDBRANCH   2   3
ENDBRANCH   1   2
BRANCH   1  17
ATOM     17  C   UNL     1       8.621 -20.491  22.123  1.00  0.00     0.000 C 
BRANCH  17  18
ATOM     18  C   UNL     1       7.642 -20.415  20.938  1.00  0.00     0.000 C 
BRANCH  18  19
ATOM     19  C   UNL     1       7.011 -19.023  20.725  1.00  0.00     0.000 C 
BRANCH  19  20
ATOM     20  C   UNL     1       6.835 -18.675  19.235  1.00  0.00     0.000 C 
BRANCH  20  21
ATOM     21  C   UNL     1       7.797 -19.463  18.324  1.00  0.00     0.000 C 
BRANCH  21  22
ATOM     22  C   UNL     1       9.041 -18.675  17.875  1.00  0.00    -0.000 C 
BRANCH  22  23
ATOM     23  C   UNL     1      10.343 -19.223  18.488  1.00  0.00    -0.000 C 
BRANCH  23  24
ATOM     24  C   UNL     1      10.888 -18.333  19.613  1.00  0.00    -0.000 C 
BRANCH  24  25
ATOM     25  C   UNL     1      10.066 -17.045  19.802  1.00  0.00    -0.000 C 
BRANCH  25  26
ATOM     26  C   UNL     1      10.841 -15.975  20.600  1.00  0.00    -0.000 C 
BRANCH  26  27
ATOM     27  C   UNL     1      10.148 -15.570  21.914  1.00  0.00    -0.000 C 
BRANCH  27  28
ATOM     28  C   UNL     1      10.481 -14.137  22.353  1.00  0.00    -0.000 C 
BRANCH  28  29
ATOM     29  C   UNL     1      11.219 -14.129  23.696  1.00  0.00    -0.003 C 
ATOM     30  C   UNL     1      11.713 -15.525  24.061  1.00  0.00     0.004 C 
ENDBRANCH  28  29
ENDBRANCH  27  28
ENDBRANCH  26  27
ENDBRANCH  25  26
ENDBRANCH  24  25
ENDBRANCH  23  24
ENDBRANCH  22  23
ENDBRANCH  21  22
ENDBRANCH  20  21
ENDBRANCH  19  20
ENDBRANCH  18  19
ENDBRANCH  17  18
ENDBRANCH   1  17
TORSDOF 26
ENDMDL
MODEL 6
REMARK VINA RESULT:    -2.691      3.386      6.961
REMARK INTER + INTRA:         -11.955
REMARK INTER:                  -7.249
REMARK INTRA:                  -4.706
REMARK UNBOUND:                -5.173
REMARK SMILES CCCCCCCCCCCCCCCCCCCCCCCCCCCC(=O)[O-]
REMARK SMILES IDX 15 1 16 2 17 3 18 4 19 5 20 6 21 7 22 8 23 9 24 10 25 11
REMARK SMILES IDX 26 12 27 13 28 14 29 15 30 16 14 17 13 18 12 19 11 20 10 21
REMARK SMILES IDX 9 22 8 23 7 24 6 25 5 26 4 27 3 28 2 29 1 30
REMARK H PARENT
REMARK Flexibility Score: inf
ROOT
ATOM      1  C   UNL     1       7.228 -18.243  21.535  1.00  0.00     0.000 C 
ENDROOT
BRANCH   1   2
ATOM      2  C   UNL     1       6.849 -19.553  20.813  1.00  0.00     0.000 C 
BRANCH   2   3
ATOM      3  C   UNL     1       7.286 -19.599  19.336  1.00  0.00     0.000 C 
BRANCH   3   4
ATOM      4  C   UNL     1       8.725 -20.092  19.097  1.00  0.00     0.000 C 
BRANCH   4   5
ATOM      5  C   UNL     1       9.641 -19.108  18.346  1.00  0.00     0.000 C 
BRANCH   5   6
ATOM      6  C   UNL     1       8.958 -17.761  18.052  1.00  0.00     0.000 C 
BRANCH   6   7
ATOM      7  C   UNL     1       9.422 -16.633  18.994  1.00  0.00     0.000 C 
BRANCH   7   8
ATOM      8  C   UNL     1       8.347 -15.592  19.360  1.00  0.00     0.000 C 
BRANCH   8   9
ATOM      9  C   UNL     1       7.239 -15.472  18.299  1.00  0.00     0.000 C 
BRANCH   9  10
ATOM     10  C   UNL     1       5.866 -15.918  18.823  1.00  0.00     0.000 C 
BRANCH  10  11
ATOM     11  C   UNL     1       5.221 -17.013  17.961  1.00  0.00     0.000 C 
BRANCH  11  12
ATOM     12  C   UNL     1       3.805 -17.341  18.460  1.00  0.00     0.006 C 
BRANCH  12  13
ATOM     13  C   UNL     1       3.682 -18.789  18.950  1.00  0.00     0.053 C 
BRANCH  13  14
ATOM     14  C   UNL     1       2.789 -18.897  20.147  1.00  0.00     0.041 C 
ATOM     15  O   UNL     1       1.711 -18.249  20.195  1.00  0.00    -0.550 OA
ATOM     16  O   UNL     1       3.134 -19.738  21.198  1.00  0.00    -0.550 OA
ENDBRANCH  13  14
ENDBRANCH  12  13
ENDBRANCH  11  12
ENDBRANCH  10  11
ENDBRANCH   9  10
ENDBRANCH   8   9
ENDBRANCH   7   8
ENDBRANCH   6   7
ENDBRANCH   5   6
ENDBRANCH   4   5
ENDBRANCH   3   4
ENDBRANCH   2   3
ENDBRANCH   1   2
BRANCH   1  17
ATOM     17  C   UNL     1       8.254 -18.456  22.662  1.00  0.00     0.000 C 
BRANCH  17  18
ATOM     18  C   UNL     1       9.706 -18.504  22.156  1.00  0.00     0.000 C 
BRANCH  18  19
ATOM     19  C   UNL     1      10.464 -19.796  22.525  1.00  0.00     0.000 C 
BRANCH  19  20
ATOM     20  C   UNL     1      11.937 -19.767  22.076  1.00  0.00     0.000 C 
BRANCH  20  21
ATOM     21  C   UNL     1      12.197 -18.737  20.959  1.00  0.00     0.000 C 
BRANCH  21  22
ATOM     22  C   UNL     1      13.360 -17.768  21.242  1.00  0.00    -0.000 C 
BRANCH  22  23
ATOM     23  C   UNL     1      13.057 -16.330  20.784  1.00  0.00    -0.000 C 
BRANCH  23  24
ATOM     24  C   UNL     1      12.332 -15.507  21.858  1.00  0.00    -0.000 C 
BRANCH  24  25
ATOM     25  C   UNL     1      11.518 -14.342  21.266  1.00  0.00    -0.000 C 
BRANCH  25  26
ATOM     26  C   UNL     1      11.762 -14.174  19.752  1.00  0.00    -0.000 C 
BRANCH  26  27
ATOM     27  C   UNL     1      12.467 -12.856  19.387  1.00  0.00    -0.000 C 
BRANCH  27  28
ATOM     28  C   UNL     1      13.205 -12.221  20.574  1.00  0.00    -0.000 C 
BRANCH  28  29
ATOM     29  C   UNL     1      13.306 -10.700  20.412  1.00  0.00    -0.003 C 
ATOM     30  C   UNL     1      11.979 -10.108  19.946  1.00  0.00     0.004 C 
ENDBRANCH  28  29
ENDBRANCH  27  28
ENDBRANCH  26  27
ENDBRANCH  25  26
ENDBRANCH  24  25
ENDBRANCH  23  24
ENDBRANCH  22  23
ENDBRANCH  21  22
ENDBRANCH  20  21
ENDBRANCH  19  20
ENDBRANCH  18  19
ENDBRANCH  17  18
ENDBRANCH   1  17
TORSDOF 26
ENDMDL
MODEL 7
REMARK VINA RESULT:    -2.673      2.549      4.501
REMARK INTER + INTRA:         -11.908
REMARK INTER:                  -5.656
REMARK INTRA:                  -6.252
REMARK UNBOUND:                -5.173
REMARK SMILES CCCCCCCCCCCCCCCCCCCCCCCCCCCC(=O)[O-]
REMARK SMILES IDX 15 1 16 2 17 3 18 4 19 5 20 6 21 7 22 8 23 9 24 10 25 11
REMARK SMILES IDX 26 12 27 13 28 14 29 15 30 16 14 17 13 18 12 19 11 20 10 21
REMARK SMILES IDX 9 22 8 23 7 24 6 25 5 26 4 27 3 28 2 29 1 30
REMARK H PARENT
REMARK Flexibility Score: inf
ROOT
ATOM      1  C   UNL     1      11.423 -19.180  21.502  1.00  0.00     0.000 C 
ENDROOT
BRANCH   1   2
ATOM      2  C   UNL     1      12.150 -20.005  22.585  1.00  0.00     0.000 C 
BRANCH   2   3
ATOM      3  C   UNL     1      12.568 -19.182  23.818  1.00  0.00     0.000 C 
BRANCH   3   4
ATOM      4  C   UNL     1      13.287 -17.857  23.505  1.00  0.00     0.000 C 
BRANCH   4   5
ATOM      5  C   UNL     1      14.611 -17.994  22.730  1.00  0.00     0.000 C 
BRANCH   5   6
ATOM      6  C   UNL     1      14.729 -16.995  21.566  1.00  0.00     0.000 C 
BRANCH   6   7
ATOM      7  C   UNL     1      13.560 -15.993  21.512  1.00  0.00     0.000 C 
BRANCH   7   8
ATOM      8  C   UNL     1      13.149 -15.531  20.101  1.00  0.00     0.000 C 
BRANCH   8   9
ATOM      9  C   UNL     1      11.674 -15.104  20.013  1.00  0.00     0.000 C 
BRANCH   9  10
ATOM     10  C   UNL     1      10.882 -15.444  21.286  1.00  0.00     0.000 C 
BRANCH  10  11
ATOM     11  C   UNL     1       9.492 -16.027  20.990  1.00  0.00     0.000 C 
BRANCH  11  12
ATOM     12  C   UNL     1       9.056 -15.702  19.553  1.00  0.00     0.006 C 
BRANCH  12  13
ATOM     13  C   UNL     1       7.675 -15.037  19.500  1.00  0.00     0.053 C 
BRANCH  13  14
ATOM     14  C   UNL     1       6.570 -16.042  19.597  1.00  0.00     0.041 C 
ATOM     15  O   UNL     1       6.245 -16.728  18.593  1.00  0.00    -0.550 OA
ATOM     16  O   UNL     1       5.917 -16.243  20.808  1.00  0.00    -0.550 OA
ENDBRANCH  13  14
ENDBRANCH  12  13
ENDBRANCH  11  12
ENDBRANCH  10  11
ENDBRANCH   9  10
ENDBRANCH   8   9
ENDBRANCH   7   8
ENDBRANCH   6   7
ENDBRANCH   5   6
ENDBRANCH   4   5
ENDBRANCH   3   4
ENDBRANCH   2   3
ENDBRANCH   1   2
BRANCH   1  17
ATOM     17  C   UNL     1      12.141 -19.212  20.142  1.00  0.00     0.000 C 
BRANCH  17  18
ATOM     18  C   UNL     1      11.326 -18.557  19.012  1.00  0.00     0.000 C 
BRANCH  18  19
ATOM     19  C   UNL     1      10.395 -19.528  18.257  1.00  0.00     0.000 C 
BRANCH  19  20
ATOM     20  C   UNL     1       8.943 -19.019  18.184  1.00  0.00     0.000 C 
BRANCH  20  21
ATOM     21  C   UNL     1       7.982 -19.839  19.066  1.00  0.00     0.000 C 
BRANCH  21  22
ATOM     22  C   UNL     1       7.872 -19.346  20.520  1.00  0.00    -0.000 C 
BRANCH  22  23
ATOM     23  C   UNL     1       6.555 -19.774  21.193  1.00  0.00    -0.000 C 
BRANCH  23  24
ATOM     24  C   UNL     1       6.768 -20.339  22.604  1.00  0.00    -0.000 C 
BRANCH  24  25
ATOM     25  C   UNL     1       8.252 -20.606  22.920  1.00  0.00    -0.000 C 
BRANCH  25  26
ATOM     26  C   UNL     1       8.734 -19.815  24.154  1.00  0.00    -0.000 C 
BRANCH  26  27
ATOM     27  C   UNL     1       8.717 -18.289  23.949  1.00  0.00    -0.000 C 
BRANCH  27  28
ATOM     28  C   UNL     1       9.503 -17.529  25.026  1.00  0.00    -0.000 C 
BRANCH  28  29
ATOM     29  C   UNL     1       9.563 -16.030  24.711  1.00  0.00    -0.003 C 
ATOM     30  C   UNL     1      10.934 -15.452  25.048  1.00  0.00     0.004 C 
ENDBRANCH  28  29
ENDBRANCH  27  28
ENDBRANCH  26  27
ENDBRANCH  25  26
ENDBRANCH  24  25
ENDBRANCH  23  24
ENDBRANCH  22  23
ENDBRANCH  21  22
ENDBRANCH  20  21
ENDBRANCH  19  20
ENDBRANCH  18  19
ENDBRANCH  17  18
ENDBRANCH   1  17
TORSDOF 26
ENDMDL
MODEL 8
REMARK VINA RESULT:    -2.644      3.144      6.583
REMARK INTER + INTRA:         -11.835
REMARK INTER:                  -6.152
REMARK INTRA:                  -5.683
REMARK UNBOUND:                -5.173
REMARK SMILES CCCCCCCCCCCCCCCCCCCCCCCCCCCC(=O)[O-]
REMARK SMILES IDX 15 1 16 2 17 3 18 4 19 5 20 6 21 7 22 8 23 9 24 10 25 11
REMARK SMILES IDX 26 12 27 13 28 14 29 15 30 16 14 17 13 18 12 19 11 20 10 21
REMARK SMILES IDX 9 22 8 23 7 24 6 25 5 26 4 27 3 28 2 29 1 30
REMARK H PARENT
REMARK Flexibility Score: inf
ROOT
ATOM      1  C   UNL     1       9.915 -18.536  23.085  1.00  0.00     0.000 C 
ENDROOT
BRANCH   1   2
ATOM      2  C   UNL     1       8.829 -18.458  21.991  1.00  0.00     0.000 C 
BRANCH   2   3
ATOM      3  C   UNL     1       9.083 -19.393  20.793  1.00  0.00     0.000 C 
BRANCH   3   4
ATOM      4  C   UNL     1       7.831 -19.762  19.977  1.00  0.00     0.000 C 
BRANCH   4   5
ATOM      5  C   UNL     1       7.960 -19.576  18.454  1.00  0.00     0.000 C 
BRANCH   5   6
ATOM      6  C   UNL     1       9.071 -18.586  18.064  1.00  0.00     0.000 C 
BRANCH   6   7
ATOM      7  C   UNL     1       8.558 -17.144  17.885  1.00  0.00     0.000 C 
BRANCH   7   8
ATOM      8  C   UNL     1       8.693 -16.235  19.122  1.00  0.00     0.000 C 
BRANCH   8   9
ATOM      9  C   UNL     1       7.435 -15.390  19.388  1.00  0.00     0.000 C 
BRANCH   9  10
ATOM     10  C   UNL     1       6.139 -16.210  19.291  1.00  0.00     0.000 C 
BRANCH  10  11
ATOM     11  C   UNL     1       5.404 -16.331  20.633  1.00  0.00     0.000 C 
BRANCH  11  12
ATOM     12  C   UNL     1       5.075 -17.798  20.948  1.00  0.00     0.006 C 
BRANCH  12  13
ATOM     13  C   UNL     1       5.129 -18.099  22.451  1.00  0.00     0.053 C 
BRANCH  13  14
ATOM     14  C   UNL     1       4.947 -19.558  22.733  1.00  0.00     0.041 C 
ATOM     15  O   UNL     1       5.922 -20.258  23.113  1.00  0.00    -0.550 OA
ATOM     16  O   UNL     1       3.691 -20.139  22.605  1.00  0.00    -0.550 OA
ENDBRANCH  13  14
ENDBRANCH  12  13
ENDBRANCH  11  12
ENDBRANCH  10  11
ENDBRANCH   9  10
ENDBRANCH   8   9
ENDBRANCH   7   8
ENDBRANCH   6   7
ENDBRANCH   5   6
ENDBRANCH   4   5
ENDBRANCH   3   4
ENDBRANCH   2   3
ENDBRANCH   1   2
BRANCH   1  17
ATOM     17  C   UNL     1      10.740 -19.834  23.017  1.00  0.00     0.000 C 
BRANCH  17  18
ATOM     18  C   UNL     1      12.253 -19.583  22.896  1.00  0.00     0.000 C 
BRANCH  18  19
ATOM     19  C   UNL     1      12.733 -19.271  21.464  1.00  0.00     0.000 C 
BRANCH  19  20
ATOM     20  C   UNL     1      12.943 -17.764  21.225  1.00  0.00     0.000 C 
BRANCH  20  21
ATOM     21  C   UNL     1      12.042 -17.209  20.104  1.00  0.00     0.000 C 
BRANCH  21  22
ATOM     22  C   UNL     1      12.313 -15.739  19.735  1.00  0.00    -0.000 C 
BRANCH  22  23
ATOM     23  C   UNL     1      13.413 -15.103  20.604  1.00  0.00    -0.000 C 
BRANCH  23  24
ATOM     24  C   UNL     1      13.294 -13.575  20.685  1.00  0.00    -0.000 C 
BRANCH  24  25
ATOM     25  C   UNL     1      12.272 -13.005  19.684  1.00  0.00    -0.000 C 
BRANCH  25  26
ATOM     26  C   UNL     1      11.170 -12.183  20.384  1.00  0.00    -0.000 C 
BRANCH  26  27
ATOM     27  C   UNL     1      10.854 -12.671  21.809  1.00  0.00    -0.000 C 
BRANCH  27  28
ATOM     28  C   UNL     1       9.578 -13.521  21.885  1.00  0.00    -0.000 C 
BRANCH  28  29
ATOM     29  C   UNL     1       9.891 -14.945  22.357  1.00  0.00    -0.003 C 
ATOM     30  C   UNL     1      11.023 -14.949  23.380  1.00  0.00     0.004 C 
ENDBRANCH  28  29
ENDBRANCH  27  28
ENDBRANCH  26  27
ENDBRANCH  25  26
ENDBRANCH  24  25
ENDBRANCH  23  24
ENDBRANCH  22  23
ENDBRANCH  21  22
ENDBRANCH  20  21
ENDBRANCH  19  20
ENDBRANCH  18  19
ENDBRANCH  17  18
ENDBRANCH   1  17
TORSDOF 26
ENDMDL
MODEL 9
REMARK VINA RESULT:    -2.619      1.691      3.653
REMARK INTER + INTRA:         -11.773
REMARK INTER:                  -5.915
REMARK INTRA:                  -5.858
REMARK UNBOUND:                -5.173
REMARK SMILES CCCCCCCCCCCCCCCCCCCCCCCCCCCC(=O)[O-]
REMARK SMILES IDX 15 1 16 2 17 3 18 4 19 5 20 6 21 7 22 8 23 9 24 10 25 11
REMARK SMILES IDX 26 12 27 13 28 14 29 15 30 16 14 17 13 18 12 19 11 20 10 21
REMARK SMILES IDX 9 22 8 23 7 24 6 25 5 26 4 27 3 28 2 29 1 30
REMARK H PARENT
REMARK Flexibility Score: inf
ROOT
ATOM      1  C   UNL     1      10.612 -19.342  18.387  1.00  0.00     0.000 C 
ENDROOT
BRANCH   1   2
ATOM      2  C   UNL     1      11.685 -18.896  19.403  1.00  0.00     0.000 C 
BRANCH   2   3
ATOM      3  C   UNL     1      11.220 -18.967  20.871  1.00  0.00     0.000 C 
BRANCH   3   4
ATOM      4  C   UNL     1      12.326 -18.736  21.916  1.00  0.00     0.000 C 
BRANCH   4   5
ATOM      5  C   UNL     1      13.609 -18.072  21.382  1.00  0.00     0.000 C 
BRANCH   5   6
ATOM      6  C   UNL     1      13.850 -16.673  21.975  1.00  0.00     0.000 C 
BRANCH   6   7
ATOM      7  C   UNL     1      14.090 -16.697  23.496  1.00  0.00     0.000 C 
BRANCH   7   8
ATOM      8  C   UNL     1      13.000 -16.021  24.349  1.00  0.00     0.000 C 
BRANCH   8   9
ATOM      9  C   UNL     1      12.054 -15.133  23.524  1.00  0.00     0.000 C 
BRANCH   9  10
ATOM     10  C   UNL     1      10.597 -15.210  24.006  1.00  0.00     0.000 C 
BRANCH  10  11
ATOM     11  C   UNL     1       9.815 -13.911  23.765  1.00  0.00     0.000 C 
BRANCH  11  12
ATOM     12  C   UNL     1      10.771 -12.722  23.583  1.00  0.00     0.006 C 
BRANCH  12  13
ATOM     13  C   UNL     1      10.205 -11.660  22.632  1.00  0.00     0.053 C 
BRANCH  13  14
ATOM     14  C   UNL     1      11.180 -10.549  22.396  1.00  0.00     0.041 C 
ATOM     15  O   UNL     1      11.204  -9.949  21.289  1.00  0.00    -0.550 OA
ATOM     16  O   UNL     1      12.045 -10.155  23.410  1.00  0.00    -0.550 OA
ENDBRANCH  13  14
ENDBRANCH  12  13
ENDBRANCH  11  12
ENDBRANCH  10  11
ENDBRANCH   9  10
ENDBRANCH   8   9
ENDBRANCH   7   8
ENDBRANCH   6   7
ENDBRANCH   5   6
ENDBRANCH   4   5
ENDBRANCH   3   4
ENDBRANCH   2   3
ENDBRANCH   1   2
BRANCH   1  17
ATOM     17  C   UNL     1       9.424 -18.368  18.305  1.00  0.00     0.000 C 
BRANCH  17  18
ATOM     18  C   UNL     1       8.060 -19.062  18.470  1.00  0.00     0.000 C 
BRANCH  18  19
ATOM     19  C   UNL     1       8.143 -20.498  19.028  1.00  0.00     0.000 C 
BRANCH  19  20
ATOM     20  C   UNL     1       7.872 -20.560  20.543  1.00  0.00     0.000 C 
BRANCH  20  21
ATOM     21  C   UNL     1       6.992 -19.394  21.037  1.00  0.00     0.000 C 
BRANCH  21  22
ATOM     22  C   UNL     1       7.635 -18.530  22.137  1.00  0.00    -0.000 C 
BRANCH  22  23
ATOM     23  C   UNL     1       7.516 -17.022  21.852  1.00  0.00    -0.000 C 
BRANCH  23  24
ATOM     24  C   UNL     1       8.793 -16.435  21.234  1.00  0.00    -0.000 C 
BRANCH  24  25
ATOM     25  C   UNL     1       8.537 -15.115  20.483  1.00  0.00    -0.000 C 
BRANCH  25  26
ATOM     26  C   UNL     1       9.850 -14.415  20.077  1.00  0.00    -0.000 C 
BRANCH  26  27
ATOM     27  C   UNL     1      10.998 -15.394  19.771  1.00  0.00    -0.000 C 
BRANCH  27  28
ATOM     28  C   UNL     1      12.350 -14.694  19.579  1.00  0.00    -0.000 C 
BRANCH  28  29
ATOM     29  C   UNL     1      12.323 -13.274  20.157  1.00  0.00    -0.003 C 
ATOM     30  C   UNL     1      13.628 -12.949  20.877  1.00  0.00     0.004 C 
ENDBRANCH  28  29
ENDBRANCH  27  28
ENDBRANCH  26  27
ENDBRANCH  25  26
ENDBRANCH  24  25
ENDBRANCH  23  24
ENDBRANCH  22  23
ENDBRANCH  21  22
ENDBRANCH  20  21
ENDBRANCH  19  20
ENDBRANCH  18  19
ENDBRANCH  17  18
ENDBRANCH   1  17
TORSDOF 26
ENDMDL
