MODEL 1
REMARK VINA RESULT:    -7.712      0.000      0.000
REMARK INTER + INTRA:         -12.622
REMARK INTER:                 -10.642
REMARK INTRA:                  -1.980
REMARK UNBOUND:                -1.980
REMARK SMILES CC[C@H](CC[C@H](C)[C@H]1CC[C@@H]2[C@H]3CC=C4C[C@@H](O)CC[C@@]4(C)[C@@H]3CC[C@@]21C)C(C)C
REMARK SMILES IDX 5 1 4 2 3 3 2 4 1 5 28 6 29 7 30 8 6 9 7 10 8 11 9 12 26 13
REMARK SMILES IDX 10 14 11 15 25 16 27 17 12 18 24 19 23 20 13 21 21 22 14 23
REMARK SMILES IDX 15 24 20 25 22 26 16 27 19 28 17 29 18 30
REMARK H PARENT 18 31
REMARK Flexibility Score: inf
ROOT
ATOM      1  C   UNL     1     -19.677  53.018  -2.737  1.00  0.00     0.004 C 
ENDROOT
BRANCH   1   2
ATOM      2  C   UNL     1     -18.367  53.747  -3.104  1.00  0.00     0.004 C 
BRANCH   2   3
ATOM      3  C   UNL     1     -18.008  54.852  -2.053  1.00  0.00    -0.009 C 
BRANCH   3   4
ATOM      4  C   UNL     1     -16.719  54.460  -1.278  1.00  0.00     0.000 C 
ATOM      5  C   UNL     1     -16.922  54.435   0.243  1.00  0.00     0.004 C 
ENDBRANCH   3   4
BRANCH   3   6
ATOM      6  C   UNL     1     -17.908  56.329  -2.613  1.00  0.00    -0.014 C 
ATOM      7  C   UNL     1     -16.498  56.934  -2.692  1.00  0.00     0.007 C 
ATOM      8  C   UNL     1     -18.581  56.429  -3.997  1.00  0.00     0.007 C 
ENDBRANCH   3   6
ENDBRANCH   2   3
ENDBRANCH   1   2
BRANCH   1   9
ATOM      9  C   UNL     1     -20.011  53.117  -1.218  1.00  0.00    -0.011 C 
ATOM     10  C   UNL     1     -19.823  51.768  -0.517  1.00  0.00     0.008 C 
BRANCH   9  11
ATOM     11  C   UNL     1     -21.368  53.791  -0.835  1.00  0.00    -0.002 C 
ATOM     12  C   UNL     1     -21.990  53.216   0.434  1.00  0.00     0.005 C 
ATOM     13  C   UNL     1     -21.537  55.347  -0.708  1.00  0.00    -0.026 C 
ATOM     14  C   UNL     1     -23.208  54.076   0.658  1.00  0.00     0.005 C 
ATOM     15  C   UNL     1     -22.796  55.491   0.219  1.00  0.00    -0.001 C 
ATOM     16  C   UNL     1     -21.759  55.993  -2.111  1.00  0.00     0.007 C 
ATOM     17  C   UNL     1     -20.322  56.030  -0.033  1.00  0.00     0.012 C 
ATOM     18  C   UNL     1     -23.976  56.276  -0.420  1.00  0.00     0.000 C 
ATOM     19  C   UNL     1     -22.490  57.366  -2.130  1.00  0.00     0.005 C 
ATOM     20  C   UNL     1     -23.459  57.634  -0.944  1.00  0.00     0.003 C 
ATOM     21  C   UNL     1     -25.089  56.493   0.601  1.00  0.00     0.031 C 
ATOM     22  C   UNL     1     -24.590  58.763  -1.187  1.00  0.00    -0.008 C 
ATOM     23  C   UNL     1     -26.222  57.218  -0.039  1.00  0.00    -0.027 C 
ATOM     24  C   UNL     1     -26.011  58.297  -0.813  1.00  0.00    -0.065 C 
ATOM     25  C   UNL     1     -24.287  59.995  -0.264  1.00  0.00     0.014 C 
ATOM     26  C   UNL     1     -24.600  59.261  -2.664  1.00  0.00     0.016 C 
ATOM     27  C   UNL     1     -27.125  59.324  -0.868  1.00  0.00     0.063 C 
ATOM     28  C   UNL     1     -25.404  61.064  -0.238  1.00  0.00     0.033 C 
ATOM     29  C   UNL     1     -26.787  60.456   0.116  1.00  0.00     0.118 C 
BRANCH  29  30
ATOM     30  O   UNL     1     -26.815  59.965   1.435  1.00  0.00    -0.393 OA
ATOM     31  H   UNL     1     -25.887  59.958   1.785  1.00  0.00     0.210 HD
ENDBRANCH  29  30
ENDBRANCH   9  11
ENDBRANCH   1   9
TORSDOF 7
ENDMDL
MODEL 2
REMARK VINA RESULT:    -7.489      1.969      4.113
REMARK INTER + INTRA:         -12.315
REMARK INTER:                 -10.403
REMARK INTRA:                  -1.912
REMARK UNBOUND:                -1.980
REMARK SMILES CC[C@H](CC[C@H](C)[C@H]1CC[C@@H]2[C@H]3CC=C4C[C@@H](O)CC[C@@]4(C)[C@@H]3CC[C@@]21C)C(C)C
REMARK SMILES IDX 5 1 4 2 3 3 2 4 1 5 28 6 29 7 30 8 6 9 7 10 8 11 9 12 26 13
REMARK SMILES IDX 10 14 11 15 25 16 27 17 12 18 24 19 23 20 13 21 21 22 14 23
REMARK SMILES IDX 15 24 20 25 22 26 16 27 19 28 17 29 18 30
REMARK H PARENT 18 31
REMARK Flexibility Score: inf
ROOT
ATOM      1  C   UNL     1     -16.496  54.405  -0.343  1.00  0.00     0.004 C 
ENDROOT
BRANCH   1   2
ATOM      2  C   UNL     1     -17.241  55.296   0.673  1.00  0.00     0.004 C 
BRANCH   2   3
ATOM      3  C   UNL     1     -17.270  56.794   0.214  1.00  0.00    -0.009 C 
BRANCH   3   4
ATOM      4  C   UNL     1     -18.187  57.626   1.153  1.00  0.00     0.000 C 
ATOM      5  C   UNL     1     -19.681  57.385   0.896  1.00  0.00     0.004 C 
ENDBRANCH   3   4
BRANCH   3   6
ATOM      6  C   UNL     1     -15.858  57.487   0.036  1.00  0.00    -0.014 C 
ATOM      7  C   UNL     1     -15.578  58.120  -1.336  1.00  0.00     0.007 C 
ATOM      8  C   UNL     1     -15.632  58.542   1.138  1.00  0.00     0.007 C 
ENDBRANCH   3   6
ENDBRANCH   2   3
ENDBRANCH   1   2
BRANCH   1   9
ATOM      9  C   UNL     1     -17.200  54.367  -1.734  1.00  0.00    -0.011 C 
ATOM     10  C   UNL     1     -16.204  54.628  -2.869  1.00  0.00     0.008 C 
BRANCH   9  11
ATOM     11  C   UNL     1     -18.502  55.215  -1.890  1.00  0.00    -0.002 C 
ATOM     12  C   UNL     1     -18.485  56.126  -3.114  1.00  0.00     0.005 C 
ATOM     13  C   UNL     1     -19.937  54.579  -1.872  1.00  0.00    -0.026 C 
ATOM     14  C   UNL     1     -19.858  56.750  -3.117  1.00  0.00     0.005 C 
ATOM     15  C   UNL     1     -20.808  55.648  -2.621  1.00  0.00    -0.001 C 
ATOM     16  C   UNL     1     -20.418  54.347  -0.405  1.00  0.00     0.007 C 
ATOM     17  C   UNL     1     -20.008  53.233  -2.635  1.00  0.00     0.012 C 
ATOM     18  C   UNL     1     -21.984  56.221  -1.781  1.00  0.00     0.000 C 
ATOM     19  C   UNL     1     -21.956  54.277  -0.186  1.00  0.00     0.005 C 
ATOM     20  C   UNL     1     -22.823  55.052  -1.218  1.00  0.00     0.003 C 
ATOM     21  C   UNL     1     -22.858  57.134  -2.635  1.00  0.00     0.031 C 
ATOM     22  C   UNL     1     -24.322  55.434  -0.748  1.00  0.00    -0.008 C 
ATOM     23  C   UNL     1     -23.959  57.697  -1.804  1.00  0.00    -0.027 C 
ATOM     24  C   UNL     1     -24.678  56.916  -0.978  1.00  0.00    -0.065 C 
ATOM     25  C   UNL     1     -25.349  54.609  -1.600  1.00  0.00     0.014 C 
ATOM     26  C   UNL     1     -24.560  55.091   0.754  1.00  0.00     0.016 C 
ATOM     27  C   UNL     1     -26.105  57.347  -0.705  1.00  0.00     0.063 C 
ATOM     28  C   UNL     1     -26.824  55.027  -1.402  1.00  0.00     0.033 C 
ATOM     29  C   UNL     1     -27.037  56.547  -1.629  1.00  0.00     0.118 C 
BRANCH  29  30
ATOM     30  O   UNL     1     -26.803  56.908  -2.969  1.00  0.00    -0.393 OA
ATOM     31  H   UNL     1     -25.853  57.179  -3.059  1.00  0.00     0.210 HD
ENDBRANCH  29  30
ENDBRANCH   9  11
ENDBRANCH   1   9
TORSDOF 7
ENDMDL
MODEL 3
REMARK VINA RESULT:    -7.456      1.426      2.741
REMARK INTER + INTRA:         -12.270
REMARK INTER:                 -10.355
REMARK INTRA:                  -1.915
REMARK UNBOUND:                -1.980
REMARK SMILES CC[C@H](CC[C@H](C)[C@H]1CC[C@@H]2[C@H]3CC=C4C[C@@H](O)CC[C@@]4(C)[C@@H]3CC[C@@]21C)C(C)C
REMARK SMILES IDX 5 1 4 2 3 3 2 4 1 5 28 6 29 7 30 8 6 9 7 10 8 11 9 12 26 13
REMARK SMILES IDX 10 14 11 15 25 16 27 17 12 18 24 19 23 20 13 21 21 22 14 23
REMARK SMILES IDX 15 24 20 25 22 26 16 27 19 28 17 29 18 30
REMARK H PARENT 18 31
REMARK Flexibility Score: inf
ROOT
ATOM      1  C   UNL     1     -18.188  53.675  -0.316  1.00  0.00     0.004 C 
ENDROOT
BRANCH   1   2
ATOM      2  C   UNL     1     -17.502  54.190  -1.599  1.00  0.00     0.004 C 
BRANCH   2   3
ATOM      3  C   UNL     1     -17.007  55.668  -1.434  1.00  0.00    -0.009 C 
BRANCH   3   4
ATOM      4  C   UNL     1     -17.754  56.600  -2.428  1.00  0.00     0.000 C 
ATOM      5  C   UNL     1     -17.841  56.014  -3.844  1.00  0.00     0.004 C 
ENDBRANCH   3   4
BRANCH   3   6
ATOM      6  C   UNL     1     -17.054  56.250   0.037  1.00  0.00    -0.014 C 
ATOM      7  C   UNL     1     -15.816  57.034   0.500  1.00  0.00     0.007 C 
ATOM      8  C   UNL     1     -18.310  57.123   0.232  1.00  0.00     0.007 C 
ENDBRANCH   3   6
ENDBRANCH   2   3
ENDBRANCH   1   2
BRANCH   1   9
ATOM      9  C   UNL     1     -19.711  53.414  -0.516  1.00  0.00    -0.011 C 
ATOM     10  C   UNL     1     -19.956  52.130  -1.316  1.00  0.00     0.008 C 
BRANCH   9  11
ATOM     11  C   UNL     1     -20.569  54.606  -1.048  1.00  0.00    -0.002 C 
ATOM     12  C   UNL     1     -20.996  54.441  -2.503  1.00  0.00     0.005 C 
ATOM     13  C   UNL     1     -21.847  55.132  -0.302  1.00  0.00    -0.026 C 
ATOM     14  C   UNL     1     -21.884  55.634  -2.755  1.00  0.00     0.005 C 
ATOM     15  C   UNL     1     -22.646  55.861  -1.439  1.00  0.00    -0.001 C 
ATOM     16  C   UNL     1     -21.449  56.101   0.855  1.00  0.00     0.007 C 
ATOM     17  C   UNL     1     -22.713  53.990   0.284  1.00  0.00     0.012 C 
ATOM     18  C   UNL     1     -22.916  57.368  -1.169  1.00  0.00     0.000 C 
ATOM     19  C   UNL     1     -22.533  57.122   1.303  1.00  0.00     0.005 C 
ATOM     20  C   UNL     1     -23.573  57.525   0.220  1.00  0.00     0.003 C 
ATOM     21  C   UNL     1     -23.821  57.952  -2.250  1.00  0.00     0.031 C 
ATOM     22  C   UNL     1     -24.357  58.918   0.466  1.00  0.00    -0.008 C 
ATOM     23  C   UNL     1     -24.042  59.402  -1.990  1.00  0.00    -0.027 C 
ATOM     24  C   UNL     1     -24.347  59.852  -0.760  1.00  0.00    -0.065 C 
ATOM     25  C   UNL     1     -25.867  58.608   0.756  1.00  0.00     0.014 C 
ATOM     26  C   UNL     1     -23.783  59.695   1.690  1.00  0.00     0.016 C 
ATOM     27  C   UNL     1     -25.174  61.120  -0.685  1.00  0.00     0.063 C 
ATOM     28  C   UNL     1     -26.778  59.857   0.803  1.00  0.00     0.033 C 
ATOM     29  C   UNL     1     -26.645  60.726  -0.474  1.00  0.00     0.118 C 
BRANCH  29  30
ATOM     30  O   UNL     1     -27.125  60.052  -1.613  1.00  0.00    -0.393 OA
ATOM     31  H   UNL     1     -27.896  59.491  -1.341  1.00  0.00     0.210 HD
ENDBRANCH  29  30
ENDBRANCH   9  11
ENDBRANCH   1   9
TORSDOF 7
ENDMDL
MODEL 4
REMARK VINA RESULT:    -7.263      2.642      7.542
REMARK INTER + INTRA:         -12.003
REMARK INTER:                  -9.571
REMARK INTRA:                  -2.432
REMARK UNBOUND:                -1.980
REMARK SMILES CC[C@H](CC[C@H](C)[C@H]1CC[C@@H]2[C@H]3CC=C4C[C@@H](O)CC[C@@]4(C)[C@@H]3CC[C@@]21C)C(C)C
REMARK SMILES IDX 5 1 4 2 3 3 2 4 1 5 28 6 29 7 30 8 6 9 7 10 8 11 9 12 26 13
REMARK SMILES IDX 10 14 11 15 25 16 27 17 12 18 24 19 23 20 13 21 21 22 14 23
REMARK SMILES IDX 15 24 20 25 22 26 16 27 19 28 17 29 18 30
REMARK H PARENT 18 31
REMARK Flexibility Score: inf
ROOT
ATOM      1  C   UNL     1     -26.486  57.710  -2.262  1.00  0.00     0.004 C 
ENDROOT
BRANCH   1   2
ATOM      2  C   UNL     1     -26.975  58.934  -1.459  1.00  0.00     0.004 C 
BRANCH   2   3
ATOM      3  C   UNL     1     -25.837  59.998  -1.281  1.00  0.00    -0.009 C 
BRANCH   3   4
ATOM      4  C   UNL     1     -25.329  60.001   0.188  1.00  0.00     0.000 C 
ATOM      5  C   UNL     1     -26.389  59.519   1.187  1.00  0.00     0.004 C 
ENDBRANCH   3   4
BRANCH   3   6
ATOM      6  C   UNL     1     -24.631  59.894  -2.300  1.00  0.00    -0.014 C 
ATOM      7  C   UNL     1     -24.708  60.797  -3.541  1.00  0.00     0.007 C 
ATOM      8  C   UNL     1     -23.291  60.137  -1.578  1.00  0.00     0.007 C 
ENDBRANCH   3   6
ENDBRANCH   2   3
ENDBRANCH   1   2
BRANCH   1   9
ATOM      9  C   UNL     1     -26.060  56.524  -1.345  1.00  0.00    -0.011 C 
ATOM     10  C   UNL     1     -27.104  56.261  -0.254  1.00  0.00     0.008 C 
BRANCH   9  11
ATOM     11  C   UNL     1     -24.609  56.561  -0.769  1.00  0.00    -0.002 C 
ATOM     12  C   UNL     1     -24.539  56.208   0.714  1.00  0.00     0.005 C 
ATOM     13  C   UNL     1     -23.413  55.789  -1.432  1.00  0.00    -0.026 C 
ATOM     14  C   UNL     1     -23.061  56.204   1.012  1.00  0.00     0.005 C 
ATOM     15  C   UNL     1     -22.390  55.639  -0.250  1.00  0.00    -0.001 C 
ATOM     16  C   UNL     1     -22.823  56.607  -2.624  1.00  0.00     0.007 C 
ATOM     17  C   UNL     1     -23.814  54.384  -1.945  1.00  0.00     0.012 C 
ATOM     18  C   UNL     1     -21.002  56.286  -0.518  1.00  0.00     0.000 C 
ATOM     19  C   UNL     1     -21.347  56.300  -3.008  1.00  0.00     0.005 C 
ATOM     20  C   UNL     1     -20.447  55.761  -1.861  1.00  0.00     0.003 C 
ATOM     21  C   UNL     1     -20.033  55.962   0.616  1.00  0.00     0.031 C 
ATOM     22  C   UNL     1     -18.852  55.927  -2.067  1.00  0.00    -0.008 C 
ATOM     23  C   UNL     1     -18.720  56.616   0.356  1.00  0.00    -0.027 C 
ATOM     24  C   UNL     1     -18.139  56.557  -0.855  1.00  0.00    -0.065 C 
ATOM     25  C   UNL     1     -18.212  54.507  -2.251  1.00  0.00     0.014 C 
ATOM     26  C   UNL     1     -18.519  56.770  -3.336  1.00  0.00     0.016 C 
ATOM     27  C   UNL     1     -16.625  56.626  -0.887  1.00  0.00     0.063 C 
ATOM     28  C   UNL     1     -16.666  54.498  -2.250  1.00  0.00     0.033 C 
ATOM     29  C   UNL     1     -16.078  55.193  -0.994  1.00  0.00     0.118 C 
BRANCH  29  30
ATOM     30  O   UNL     1     -16.380  54.480   0.182  1.00  0.00    -0.393 OA
ATOM     31  H   UNL     1     -17.295  54.108   0.096  1.00  0.00     0.210 HD
ENDBRANCH  29  30
ENDBRANCH   9  11
ENDBRANCH   1   9
TORSDOF 7
ENDMDL
MODEL 5
REMARK VINA RESULT:    -6.778      2.900      7.976
REMARK INTER + INTRA:         -11.334
REMARK INTER:                  -9.596
REMARK INTRA:                  -1.738
REMARK UNBOUND:                -1.980
REMARK SMILES CC[C@H](CC[C@H](C)[C@H]1CC[C@@H]2[C@H]3CC=C4C[C@@H](O)CC[C@@]4(C)[C@@H]3CC[C@@]21C)C(C)C
REMARK SMILES IDX 5 1 4 2 3 3 2 4 1 5 28 6 29 7 30 8 6 9 7 10 8 11 9 12 26 13
REMARK SMILES IDX 10 14 11 15 25 16 27 17 12 18 24 19 23 20 13 21 21 22 14 23
REMARK SMILES IDX 15 24 20 25 22 26 16 27 19 28 17 29 18 30
REMARK H PARENT 18 31
REMARK Flexibility Score: inf
ROOT
ATOM      1  C   UNL     1     -25.733  59.264   0.692  1.00  0.00     0.004 C 
ENDROOT
BRANCH   1   2
ATOM      2  C   UNL     1     -26.910  58.285   0.499  1.00  0.00     0.004 C 
BRANCH   2   3
ATOM      3  C   UNL     1     -27.022  57.807  -0.990  1.00  0.00    -0.009 C 
BRANCH   3   4
ATOM      4  C   UNL     1     -26.068  58.635  -1.894  1.00  0.00     0.000 C 
ATOM      5  C   UNL     1     -26.779  59.254  -3.105  1.00  0.00     0.004 C 
ENDBRANCH   3   4
BRANCH   3   6
ATOM      6  C   UNL     1     -26.832  56.254  -1.231  1.00  0.00    -0.014 C 
ATOM      7  C   UNL     1     -25.658  55.845  -2.135  1.00  0.00     0.007 C 
ATOM      8  C   UNL     1     -26.722  55.509   0.113  1.00  0.00     0.007 C 
ENDBRANCH   3   6
ENDBRANCH   2   3
ENDBRANCH   1   2
BRANCH   1   9
ATOM      9  C   UNL     1     -24.845  58.897   1.919  1.00  0.00    -0.011 C 
ATOM     10  C   UNL     1     -25.006  59.920   3.050  1.00  0.00     0.008 C 
BRANCH   9  11
ATOM     11  C   UNL     1     -23.344  58.573   1.633  1.00  0.00    -0.002 C 
ATOM     12  C   UNL     1     -22.477  58.570   2.890  1.00  0.00     0.005 C 
ATOM     13  C   UNL     1     -22.888  57.312   0.817  1.00  0.00    -0.026 C 
ATOM     14  C   UNL     1     -21.122  58.136   2.390  1.00  0.00     0.005 C 
ATOM     15  C   UNL     1     -21.405  57.102   1.288  1.00  0.00    -0.001 C 
ATOM     16  C   UNL     1     -22.988  57.584  -0.717  1.00  0.00     0.007 C 
ATOM     17  C   UNL     1     -23.717  56.048   1.152  1.00  0.00     0.012 C 
ATOM     18  C   UNL     1     -20.354  57.162   0.143  1.00  0.00     0.000 C 
ATOM     19  C   UNL     1     -22.078  56.717  -1.632  1.00  0.00     0.005 C 
ATOM     20  C   UNL     1     -20.771  56.186  -0.980  1.00  0.00     0.003 C 
ATOM     21  C   UNL     1     -18.968  56.801   0.670  1.00  0.00     0.031 C 
ATOM     22  C   UNL     1     -19.591  55.751  -1.996  1.00  0.00    -0.008 C 
ATOM     23  C   UNL     1     -17.972  56.894  -0.434  1.00  0.00    -0.027 C 
ATOM     24  C   UNL     1     -18.221  56.364  -1.645  1.00  0.00    -0.065 C 
ATOM     25  C   UNL     1     -19.397  54.196  -1.915  1.00  0.00     0.014 C 
ATOM     26  C   UNL     1     -19.937  56.115  -3.472  1.00  0.00     0.016 C 
ATOM     27  C   UNL     1     -17.019  55.908  -2.448  1.00  0.00     0.063 C 
ATOM     28  C   UNL     1     -18.161  53.666  -2.679  1.00  0.00     0.033 C 
ATOM     29  C   UNL     1     -16.857  54.391  -2.256  1.00  0.00     0.118 C 
BRANCH  29  30
ATOM     30  O   UNL     1     -16.521  54.114  -0.918  1.00  0.00    -0.393 OA
ATOM     31  H   UNL     1     -17.337  53.804  -0.448  1.00  0.00     0.210 HD
ENDBRANCH  29  30
ENDBRANCH   9  11
ENDBRANCH   1   9
TORSDOF 7
ENDMDL
MODEL 6
REMARK VINA RESULT:    -6.566      2.892      7.796
REMARK INTER + INTRA:         -11.042
REMARK INTER:                  -9.317
REMARK INTRA:                  -1.725
REMARK UNBOUND:                -1.980
REMARK SMILES CC[C@H](CC[C@H](C)[C@H]1CC[C@@H]2[C@H]3CC=C4C[C@@H](O)CC[C@@]4(C)[C@@H]3CC[C@@]21C)C(C)C
REMARK SMILES IDX 5 1 4 2 3 3 2 4 1 5 28 6 29 7 30 8 6 9 7 10 8 11 9 12 26 13
REMARK SMILES IDX 10 14 11 15 25 16 27 17 12 18 24 19 23 20 13 21 21 22 14 23
REMARK SMILES IDX 15 24 20 25 22 26 16 27 19 28 17 29 18 30
REMARK H PARENT 18 31
REMARK Flexibility Score: inf
ROOT
ATOM      1  C   UNL     1     -25.681  59.588   0.843  1.00  0.00     0.004 C 
ENDROOT
BRANCH   1   2
ATOM      2  C   UNL     1     -26.582  58.571   0.110  1.00  0.00     0.004 C 
BRANCH   2   3
ATOM      3  C   UNL     1     -26.073  58.295  -1.346  1.00  0.00    -0.009 C 
BRANCH   3   4
ATOM      4  C   UNL     1     -26.817  57.073  -1.954  1.00  0.00     0.000 C 
ATOM      5  C   UNL     1     -26.140  55.737  -1.623  1.00  0.00     0.004 C 
ENDBRANCH   3   4
BRANCH   3   6
ATOM      6  C   UNL     1     -26.107  59.531  -2.334  1.00  0.00    -0.014 C 
ATOM      7  C   UNL     1     -24.745  60.053  -2.820  1.00  0.00     0.007 C 
ATOM      8  C   UNL     1     -26.997  59.223  -3.554  1.00  0.00     0.007 C 
ENDBRANCH   3   6
ENDBRANCH   2   3
ENDBRANCH   1   2
BRANCH   1   9
ATOM      9  C   UNL     1     -24.858  58.937   1.995  1.00  0.00    -0.011 C 
ATOM     10  C   UNL     1     -25.002  59.729   3.299  1.00  0.00     0.008 C 
BRANCH   9  11
ATOM     11  C   UNL     1     -23.368  58.584   1.687  1.00  0.00    -0.002 C 
ATOM     12  C   UNL     1     -22.491  58.526   2.934  1.00  0.00     0.005 C 
ATOM     13  C   UNL     1     -22.950  57.335   0.832  1.00  0.00    -0.026 C 
ATOM     14  C   UNL     1     -21.151  58.072   2.411  1.00  0.00     0.005 C 
ATOM     15  C   UNL     1     -21.469  57.076   1.284  1.00  0.00    -0.001 C 
ATOM     16  C   UNL     1     -23.057  57.651  -0.693  1.00  0.00     0.007 C 
ATOM     17  C   UNL     1     -23.807  56.082   1.141  1.00  0.00     0.012 C 
ATOM     18  C   UNL     1     -20.427  57.141   0.132  1.00  0.00     0.000 C 
ATOM     19  C   UNL     1     -22.176  56.786  -1.639  1.00  0.00     0.005 C 
ATOM     20  C   UNL     1     -20.877  56.206  -1.013  1.00  0.00     0.003 C 
ATOM     21  C   UNL     1     -19.046  56.732   0.636  1.00  0.00     0.031 C 
ATOM     22  C   UNL     1     -19.717  55.769  -2.051  1.00  0.00    -0.008 C 
ATOM     23  C   UNL     1     -18.057  56.830  -0.475  1.00  0.00    -0.027 C 
ATOM     24  C   UNL     1     -18.329  56.339  -1.697  1.00  0.00    -0.065 C 
ATOM     25  C   UNL     1     -19.560  54.209  -2.015  1.00  0.00     0.014 C 
ATOM     26  C   UNL     1     -20.067  56.182  -3.514  1.00  0.00     0.016 C 
ATOM     27  C   UNL     1     -17.146  55.876  -2.523  1.00  0.00     0.063 C 
ATOM     28  C   UNL     1     -18.345  53.670  -2.803  1.00  0.00     0.033 C 
ATOM     29  C   UNL     1     -17.020  54.351  -2.373  1.00  0.00     0.118 C 
BRANCH  29  30
ATOM     30  O   UNL     1     -16.679  54.030  -1.046  1.00  0.00    -0.393 OA
ATOM     31  H   UNL     1     -17.074  54.714  -0.447  1.00  0.00     0.210 HD
ENDBRANCH  29  30
ENDBRANCH   9  11
ENDBRANCH   1   9
TORSDOF 7
ENDMDL
MODEL 7
REMARK VINA RESULT:    -6.486      2.008      3.036
REMARK INTER + INTRA:         -10.931
REMARK INTER:                  -9.537
REMARK INTRA:                  -1.394
REMARK UNBOUND:                -1.980
REMARK SMILES CC[C@H](CC[C@H](C)[C@H]1CC[C@@H]2[C@H]3CC=C4C[C@@H](O)CC[C@@]4(C)[C@@H]3CC[C@@]21C)C(C)C
REMARK SMILES IDX 5 1 4 2 3 3 2 4 1 5 28 6 29 7 30 8 6 9 7 10 8 11 9 12 26 13
REMARK SMILES IDX 10 14 11 15 25 16 27 17 12 18 24 19 23 20 13 21 21 22 14 23
REMARK SMILES IDX 15 24 20 25 22 26 16 27 19 28 17 29 18 30
REMARK H PARENT 18 31
REMARK Flexibility Score: inf
ROOT
ATOM      1  C   UNL     1     -19.506  53.987  -2.829  1.00  0.00     0.004 C 
ENDROOT
BRANCH   1   2
ATOM      2  C   UNL     1     -18.080  53.897  -2.246  1.00  0.00     0.004 C 
BRANCH   2   3
ATOM      3  C   UNL     1     -17.594  55.282  -1.696  1.00  0.00    -0.009 C 
BRANCH   3   4
ATOM      4  C   UNL     1     -18.185  56.438  -2.550  1.00  0.00     0.000 C 
ATOM      5  C   UNL     1     -17.711  56.405  -4.009  1.00  0.00     0.004 C 
ENDBRANCH   3   4
BRANCH   3   6
ATOM      6  C   UNL     1     -17.837  55.534  -0.152  1.00  0.00    -0.014 C 
ATOM      7  C   UNL     1     -17.319  54.449   0.805  1.00  0.00     0.007 C 
ATOM      8  C   UNL     1     -17.261  56.900   0.269  1.00  0.00     0.007 C 
ENDBRANCH   3   6
ENDBRANCH   2   3
ENDBRANCH   1   2
BRANCH   1   9
ATOM      9  C   UNL     1     -20.606  53.668  -1.772  1.00  0.00    -0.011 C 
ATOM     10  C   UNL     1     -21.257  52.307  -2.039  1.00  0.00     0.008 C 
BRANCH   9  11
ATOM     11  C   UNL     1     -21.667  54.781  -1.498  1.00  0.00    -0.002 C 
ATOM     12  C   UNL     1     -23.028  54.483  -2.122  1.00  0.00     0.005 C 
ATOM     13  C   UNL     1     -21.984  55.316  -0.057  1.00  0.00    -0.026 C 
ATOM     14  C   UNL     1     -23.898  55.618  -1.643  1.00  0.00     0.005 C 
ATOM     15  C   UNL     1     -23.424  55.921  -0.212  1.00  0.00    -0.001 C 
ATOM     16  C   UNL     1     -20.935  56.389   0.374  1.00  0.00     0.007 C 
ATOM     17  C   UNL     1     -22.011  54.193   1.009  1.00  0.00     0.012 C 
ATOM     18  C   UNL     1     -23.525  57.434   0.132  1.00  0.00     0.000 C 
ATOM     19  C   UNL     1     -21.392  57.402   1.463  1.00  0.00     0.005 C 
ATOM     20  C   UNL     1     -22.921  57.677   1.533  1.00  0.00     0.003 C 
ATOM     21  C   UNL     1     -24.979  57.894   0.097  1.00  0.00     0.031 C 
ATOM     22  C   UNL     1     -23.366  59.054   2.253  1.00  0.00    -0.008 C 
ATOM     23  C   UNL     1     -25.051  59.352   0.399  1.00  0.00    -0.027 C 
ATOM     24  C   UNL     1     -24.362  59.887   1.423  1.00  0.00    -0.065 C 
ATOM     25  C   UNL     1     -24.107  58.713   3.593  1.00  0.00     0.014 C 
ATOM     26  C   UNL     1     -22.136  59.948   2.600  1.00  0.00     0.016 C 
ATOM     27  C   UNL     1     -24.953  61.125   2.067  1.00  0.00     0.063 C 
ATOM     28  C   UNL     1     -24.771  59.926   4.284  1.00  0.00     0.033 C 
ATOM     29  C   UNL     1     -25.721  60.695   3.328  1.00  0.00     0.118 C 
BRANCH  29  30
ATOM     30  O   UNL     1     -26.834  59.913   2.964  1.00  0.00    -0.393 OA
ATOM     31  H   UNL     1     -27.630  60.264   3.439  1.00  0.00     0.210 HD
ENDBRANCH  29  30
ENDBRANCH   9  11
ENDBRANCH   1   9
TORSDOF 7
ENDMDL
MODEL 8
REMARK VINA RESULT:    -6.337      1.333      2.488
REMARK INTER + INTRA:         -10.725
REMARK INTER:                 -10.010
REMARK INTRA:                  -0.715
REMARK UNBOUND:                -1.980
REMARK SMILES CC[C@H](CC[C@H](C)[C@H]1CC[C@@H]2[C@H]3CC=C4C[C@@H](O)CC[C@@]4(C)[C@@H]3CC[C@@]21C)C(C)C
REMARK SMILES IDX 5 1 4 2 3 3 2 4 1 5 28 6 29 7 30 8 6 9 7 10 8 11 9 12 26 13
REMARK SMILES IDX 10 14 11 15 25 16 27 17 12 18 24 19 23 20 13 21 21 22 14 23
REMARK SMILES IDX 15 24 20 25 22 26 16 27 19 28 17 29 18 30
REMARK H PARENT 18 31
REMARK Flexibility Score: inf
ROOT
ATOM      1  C   UNL     1     -18.644  53.127  -1.420  1.00  0.00     0.004 C 
ENDROOT
BRANCH   1   2
ATOM      2  C   UNL     1     -18.171  54.067  -2.548  1.00  0.00     0.004 C 
BRANCH   2   3
ATOM      3  C   UNL     1     -17.026  55.020  -2.061  1.00  0.00    -0.009 C 
BRANCH   3   4
ATOM      4  C   UNL     1     -17.331  56.486  -2.478  1.00  0.00     0.000 C 
ATOM      5  C   UNL     1     -18.313  56.579  -3.654  1.00  0.00     0.004 C 
ENDBRANCH   3   4
BRANCH   3   6
ATOM      6  C   UNL     1     -16.662  54.930  -0.523  1.00  0.00    -0.014 C 
ATOM      7  C   UNL     1     -15.494  54.003  -0.152  1.00  0.00     0.007 C 
ATOM      8  C   UNL     1     -16.397  56.336   0.052  1.00  0.00     0.007 C 
ENDBRANCH   3   6
ENDBRANCH   2   3
ENDBRANCH   1   2
BRANCH   1   9
ATOM      9  C   UNL     1     -20.196  52.991  -1.366  1.00  0.00    -0.011 C 
ATOM     10  C   UNL     1     -20.765  52.561  -2.722  1.00  0.00     0.008 C 
BRANCH   9  11
ATOM     11  C   UNL     1     -20.989  54.188  -0.751  1.00  0.00    -0.002 C 
ATOM     12  C   UNL     1     -20.099  55.194  -0.027  1.00  0.00     0.005 C 
ATOM     13  C   UNL     1     -21.997  55.057  -1.585  1.00  0.00    -0.026 C 
ATOM     14  C   UNL     1     -21.051  56.290   0.379  1.00  0.00     0.005 C 
ATOM     15  C   UNL     1     -22.064  56.398  -0.773  1.00  0.00    -0.001 C 
ATOM     16  C   UNL     1     -23.386  54.351  -1.679  1.00  0.00     0.007 C 
ATOM     17  C   UNL     1     -21.492  55.351  -3.019  1.00  0.00     0.012 C 
ATOM     18  C   UNL     1     -23.487  56.772  -0.270  1.00  0.00     0.000 C 
ATOM     19  C   UNL     1     -24.611  55.272  -1.946  1.00  0.00     0.005 C 
ATOM     20  C   UNL     1     -24.471  56.742  -1.461  1.00  0.00     0.003 C 
ATOM     21  C   UNL     1     -23.481  58.155   0.375  1.00  0.00     0.031 C 
ATOM     22  C   UNL     1     -25.851  57.557  -1.244  1.00  0.00    -0.008 C 
ATOM     23  C   UNL     1     -24.845  58.480   0.877  1.00  0.00    -0.027 C 
ATOM     24  C   UNL     1     -25.936  58.267   0.121  1.00  0.00    -0.065 C 
ATOM     25  C   UNL     1     -25.947  58.691  -2.323  1.00  0.00     0.014 C 
ATOM     26  C   UNL     1     -27.097  56.634  -1.406  1.00  0.00     0.016 C 
ATOM     27  C   UNL     1     -27.125  59.174   0.369  1.00  0.00     0.063 C 
ATOM     28  C   UNL     1     -27.115  59.681  -2.106  1.00  0.00     0.033 C 
ATOM     29  C   UNL     1     -27.104  60.296  -0.682  1.00  0.00     0.118 C 
BRANCH  29  30
ATOM     30  O   UNL     1     -25.977  61.116  -0.481  1.00  0.00    -0.393 OA
ATOM     31  H   UNL     1     -26.215  61.817   0.179  1.00  0.00     0.210 HD
ENDBRANCH  29  30
ENDBRANCH   9  11
ENDBRANCH   1   9
TORSDOF 7
ENDMDL
MODEL 9
REMARK VINA RESULT:    -6.291      2.653      8.204
REMARK INTER + INTRA:         -10.661
REMARK INTER:                  -9.474
REMARK INTRA:                  -1.188
REMARK UNBOUND:                -1.980
REMARK SMILES CC[C@H](CC[C@H](C)[C@H]1CC[C@@H]2[C@H]3CC=C4C[C@@H](O)CC[C@@]4(C)[C@@H]3CC[C@@]21C)C(C)C
REMARK SMILES IDX 5 1 4 2 3 3 2 4 1 5 28 6 29 7 30 8 6 9 7 10 8 11 9 12 26 13
REMARK SMILES IDX 10 14 11 15 25 16 27 17 12 18 24 19 23 20 13 21 21 22 14 23
REMARK SMILES IDX 15 24 20 25 22 26 16 27 19 28 17 29 18 30
REMARK H PARENT 18 31
REMARK Flexibility Score: inf
ROOT
ATOM      1  C   UNL     1     -26.931  58.913  -0.273  1.00  0.00     0.004 C 
ENDROOT
BRANCH   1   2
ATOM      2  C   UNL     1     -26.937  59.115   1.257  1.00  0.00     0.004 C 
BRANCH   2   3
ATOM      3  C   UNL     1     -25.669  59.901   1.739  1.00  0.00    -0.009 C 
BRANCH   3   4
ATOM      4  C   UNL     1     -25.294  61.001   0.707  1.00  0.00     0.000 C 
ATOM      5  C   UNL     1     -23.803  60.993   0.342  1.00  0.00     0.004 C 
ENDBRANCH   3   4
BRANCH   3   6
ATOM      6  C   UNL     1     -25.743  60.496   3.204  1.00  0.00    -0.014 C 
ATOM      7  C   UNL     1     -27.125  60.481   3.877  1.00  0.00     0.007 C 
ATOM      8  C   UNL     1     -24.722  59.796   4.123  1.00  0.00     0.007 C 
ENDBRANCH   3   6
ENDBRANCH   2   3
ENDBRANCH   1   2
BRANCH   1   9
ATOM      9  C   UNL     1     -26.545  57.459  -0.683  1.00  0.00    -0.011 C 
ATOM     10  C   UNL     1     -26.785  56.474   0.466  1.00  0.00     0.008 C 
BRANCH   9  11
ATOM     11  C   UNL     1     -25.143  57.259  -1.342  1.00  0.00    -0.002 C 
ATOM     12  C   UNL     1     -24.618  58.514  -2.034  1.00  0.00     0.005 C 
ATOM     13  C   UNL     1     -23.913  56.675  -0.561  1.00  0.00    -0.026 C 
ATOM     14  C   UNL     1     -23.236  58.119  -2.491  1.00  0.00     0.005 C 
ATOM     15  C   UNL     1     -22.686  57.202  -1.387  1.00  0.00    -0.001 C 
ATOM     16  C   UNL     1     -23.976  55.116  -0.523  1.00  0.00     0.007 C 
ATOM     17  C   UNL     1     -23.818  57.203   0.892  1.00  0.00     0.012 C 
ATOM     18  C   UNL     1     -21.769  56.083  -1.956  1.00  0.00     0.000 C 
ATOM     19  C   UNL     1     -22.622  54.376  -0.318  1.00  0.00     0.005 C 
ATOM     20  C   UNL     1     -21.356  55.133  -0.809  1.00  0.00     0.003 C 
ATOM     21  C   UNL     1     -20.531  56.688  -2.612  1.00  0.00     0.031 C 
ATOM     22  C   UNL     1     -20.048  54.226  -1.094  1.00  0.00    -0.008 C 
ATOM     23  C   UNL     1     -19.681  55.602  -3.177  1.00  0.00    -0.027 C 
ATOM     24  C   UNL     1     -19.403  54.494  -2.468  1.00  0.00    -0.065 C 
ATOM     25  C   UNL     1     -18.948  54.571  -0.030  1.00  0.00     0.014 C 
ATOM     26  C   UNL     1     -20.365  52.704  -0.979  1.00  0.00     0.016 C 
ATOM     27  C   UNL     1     -18.090  53.801  -2.775  1.00  0.00     0.063 C 
ATOM     28  C   UNL     1     -17.568  53.930  -0.307  1.00  0.00     0.033 C 
ATOM     29  C   UNL     1     -17.051  54.249  -1.734  1.00  0.00     0.118 C 
BRANCH  29  30
ATOM     30  O   UNL     1     -16.779  55.621  -1.893  1.00  0.00    -0.393 OA
ATOM     31  H   UNL     1     -16.297  55.746  -2.750  1.00  0.00     0.210 HD
ENDBRANCH  29  30
ENDBRANCH   9  11
ENDBRANCH   1   9
TORSDOF 7
ENDMDL
