MODEL 1
REMARK VINA RESULT:    -5.483      0.000      0.000
REMARK INTER + INTRA:         -14.579
REMARK INTER:                 -12.536
REMARK INTRA:                  -2.043
REMARK UNBOUND:                -2.043
REMARK SMILES CCCCCCCCCCCCCCCCCCCCCCCC(=O)[O-]
REMARK SMILES IDX 13 1 14 2 15 3 16 4 17 5 18 6 19 7 20 8 21 9 22 10 23 11
REMARK SMILES IDX 24 12 25 13 26 14 12 15 11 16 10 17 9 18 8 19 7 20 6 21 5 22
REMARK SMILES IDX 4 23 3 24 2 25 1 26
REMARK H PARENT
REMARK Flexibility Score: inf
ROOT
ATOM      1  C   UNL     1      26.079  -0.516  29.997  1.00  0.00     0.000 C 
ENDROOT
BRANCH   1   2
ATOM      2  C   UNL     1      26.897  -1.656  30.628  1.00  0.00     0.000 C 
BRANCH   2   3
ATOM      3  C   UNL     1      28.046  -1.136  31.508  1.00  0.00     0.000 C 
BRANCH   3   4
ATOM      4  C   UNL     1      29.416  -1.678  31.058  1.00  0.00     0.000 C 
BRANCH   4   5
ATOM      5  C   UNL     1      29.299  -2.784  29.996  1.00  0.00     0.000 C 
BRANCH   5   6
ATOM      6  C   UNL     1      30.458  -3.792  30.057  1.00  0.00     0.000 C 
BRANCH   6   7
ATOM      7  C   UNL     1      29.988  -5.208  30.433  1.00  0.00     0.000 C 
BRANCH   7   8
ATOM      8  C   UNL     1      28.463  -5.291  30.625  1.00  0.00     0.000 C 
BRANCH   8   9
ATOM      9  C   UNL     1      27.795  -6.251  29.625  1.00  0.00     0.000 C 
BRANCH   9  10
ATOM     10  C   UNL     1      28.632  -7.516  29.373  1.00  0.00     0.006 C 
BRANCH  10  11
ATOM     11  C   UNL     1      28.159  -8.704  30.222  1.00  0.00     0.053 C 
BRANCH  11  12
ATOM     12  C   UNL     1      29.231  -9.194  31.145  1.00  0.00     0.041 C 
ATOM     13  O   UNL     1      30.346  -9.556  30.686  1.00  0.00    -0.550 OA
ATOM     14  O   UNL     1      29.013  -9.213  32.517  1.00  0.00    -0.550 OA
ENDBRANCH  11  12
ENDBRANCH  10  11
ENDBRANCH   9  10
ENDBRANCH   8   9
ENDBRANCH   7   8
ENDBRANCH   6   7
ENDBRANCH   5   6
ENDBRANCH   4   5
ENDBRANCH   3   4
ENDBRANCH   2   3
ENDBRANCH   1   2
BRANCH   1  15
ATOM     15  C   UNL     1      26.777   0.112  28.777  1.00  0.00     0.000 C 
BRANCH  15  16
ATOM     16  C   UNL     1      26.993   1.638  28.861  1.00  0.00     0.000 C 
BRANCH  16  17
ATOM     17  C   UNL     1      28.306   2.081  29.532  1.00  0.00     0.000 C 
BRANCH  17  18
ATOM     18  C   UNL     1      28.121   2.470  31.009  1.00  0.00    -0.000 C 
BRANCH  18  19
ATOM     19  C   UNL     1      28.614   3.894  31.310  1.00  0.00    -0.000 C 
BRANCH  19  20
ATOM     20  C   UNL     1      28.046   4.937  30.330  1.00  0.00    -0.000 C 
BRANCH  20  21
ATOM     21  C   UNL     1      26.992   5.844  30.984  1.00  0.00    -0.000 C 
BRANCH  21  22
ATOM     22  C   UNL     1      27.081   7.301  30.503  1.00  0.00    -0.000 C 
BRANCH  22  23
ATOM     23  C   UNL     1      28.523   7.741  30.194  1.00  0.00    -0.000 C 
BRANCH  23  24
ATOM     24  C   UNL     1      28.774   9.246  30.435  1.00  0.00    -0.000 C 
BRANCH  24  25
ATOM     25  C   UNL     1      28.114  10.123  29.362  1.00  0.00    -0.003 C 
ATOM     26  C   UNL     1      28.432   9.612  27.960  1.00  0.00     0.004 C 
ENDBRANCH  24  25
ENDBRANCH  23  24
ENDBRANCH  22  23
ENDBRANCH  21  22
ENDBRANCH  20  21
ENDBRANCH  19  20
ENDBRANCH  18  19
ENDBRANCH  17  18
ENDBRANCH  16  17
ENDBRANCH  15  16
ENDBRANCH   1  15
TORSDOF 22
ENDMDL
MODEL 2
REMARK VINA RESULT:    -5.476      5.686     12.921
REMARK INTER + INTRA:         -14.561
REMARK INTER:                 -12.865
REMARK INTRA:                  -1.696
REMARK UNBOUND:                -2.043
REMARK SMILES CCCCCCCCCCCCCCCCCCCCCCCC(=O)[O-]
REMARK SMILES IDX 13 1 14 2 15 3 16 4 17 5 18 6 19 7 20 8 21 9 22 10 23 11
REMARK SMILES IDX 24 12 25 13 26 14 12 15 11 16 10 17 9 18 8 19 7 20 6 21 5 22
REMARK SMILES IDX 4 23 3 24 2 25 1 26
REMARK H PARENT
REMARK Flexibility Score: inf
ROOT
ATOM      1  C   UNL     1      29.515  -0.377  31.613  1.00  0.00     0.000 C 
ENDROOT
BRANCH   1   2
ATOM      2  C   UNL     1      29.501   1.019  30.967  1.00  0.00     0.000 C 
BRANCH   2   3
ATOM      3  C   UNL     1      28.123   1.695  31.060  1.00  0.00     0.000 C 
BRANCH   3   4
ATOM      4  C   UNL     1      27.269   1.454  29.801  1.00  0.00     0.000 C 
BRANCH   4   5
ATOM      5  C   UNL     1      27.321   2.631  28.813  1.00  0.00     0.000 C 
BRANCH   5   6
ATOM      6  C   UNL     1      27.854   3.923  29.454  1.00  0.00     0.000 C 
BRANCH   6   7
ATOM      7  C   UNL     1      26.727   4.889  29.855  1.00  0.00     0.000 C 
BRANCH   7   8
ATOM      8  C   UNL     1      27.253   6.143  30.577  1.00  0.00     0.000 C 
BRANCH   8   9
ATOM      9  C   UNL     1      28.563   6.668  29.966  1.00  0.00     0.000 C 
BRANCH   9  10
ATOM     10  C   UNL     1      28.503   8.172  29.646  1.00  0.00     0.006 C 
BRANCH  10  11
ATOM     11  C   UNL     1      27.634   8.944  30.648  1.00  0.00     0.053 C 
BRANCH  11  12
ATOM     12  C   UNL     1      26.555   9.728  29.966  1.00  0.00     0.041 C 
ATOM     13  O   UNL     1      26.704  10.104  28.774  1.00  0.00    -0.550 OA
ATOM     14  O   UNL     1      25.370  10.007  30.634  1.00  0.00    -0.550 OA
ENDBRANCH  11  12
ENDBRANCH  10  11
ENDBRANCH   9  10
ENDBRANCH   8   9
ENDBRANCH   7   8
ENDBRANCH   6   7
ENDBRANCH   5   6
ENDBRANCH   4   5
ENDBRANCH   3   4
ENDBRANCH   2   3
ENDBRANCH   1   2
BRANCH   1  15
ATOM     15  C   UNL     1      29.852  -1.493  30.609  1.00  0.00     0.000 C 
BRANCH  15  16
ATOM     16  C   UNL     1      28.746  -1.799  29.575  1.00  0.00     0.000 C 
BRANCH  16  17
ATOM     17  C   UNL     1      27.432  -2.348  30.160  1.00  0.00     0.000 C 
BRANCH  17  18
ATOM     18  C   UNL     1      27.624  -3.668  30.926  1.00  0.00    -0.000 C 
BRANCH  18  19
ATOM     19  C   UNL     1      26.742  -4.801  30.379  1.00  0.00    -0.000 C 
BRANCH  19  20
ATOM     20  C   UNL     1      27.564  -5.979  29.826  1.00  0.00    -0.000 C 
BRANCH  20  21
ATOM     21  C   UNL     1      28.713  -6.383  30.763  1.00  0.00    -0.000 C 
BRANCH  21  22
ATOM     22  C   UNL     1      28.581  -7.826  31.278  1.00  0.00    -0.000 C 
BRANCH  22  23
ATOM     23  C   UNL     1      29.845  -8.667  31.028  1.00  0.00    -0.000 C 
BRANCH  23  24
ATOM     24  C   UNL     1      29.563 -10.007  30.316  1.00  0.00    -0.000 C 
BRANCH  24  25
ATOM     25  C   UNL     1      28.643  -9.836  29.099  1.00  0.00    -0.003 C 
ATOM     26  C   UNL     1      29.279  -8.929  28.050  1.00  0.00     0.004 C 
ENDBRANCH  24  25
ENDBRANCH  23  24
ENDBRANCH  22  23
ENDBRANCH  21  22
ENDBRANCH  20  21
ENDBRANCH  19  20
ENDBRANCH  18  19
ENDBRANCH  17  18
ENDBRANCH  16  17
ENDBRANCH  15  16
ENDBRANCH   1  15
TORSDOF 22
ENDMDL
MODEL 3
REMARK VINA RESULT:    -5.474      5.578     12.911
REMARK INTER + INTRA:         -14.556
REMARK INTER:                 -12.677
REMARK INTRA:                  -1.879
REMARK UNBOUND:                -2.043
REMARK SMILES CCCCCCCCCCCCCCCCCCCCCCCC(=O)[O-]
REMARK SMILES IDX 13 1 14 2 15 3 16 4 17 5 18 6 19 7 20 8 21 9 22 10 23 11
REMARK SMILES IDX 24 12 25 13 26 14 12 15 11 16 10 17 9 18 8 19 7 20 6 21 5 22
REMARK SMILES IDX 4 23 3 24 2 25 1 26
REMARK H PARENT
REMARK Flexibility Score: inf
ROOT
ATOM      1  C   UNL     1      26.915  -1.345  30.593  1.00  0.00     0.000 C 
ENDROOT
BRANCH   1   2
ATOM      2  C   UNL     1      26.515   0.140  30.588  1.00  0.00     0.000 C 
BRANCH   2   3
ATOM      3  C   UNL     1      27.001   0.875  29.328  1.00  0.00     0.000 C 
BRANCH   3   4
ATOM      4  C   UNL     1      27.679   2.217  29.662  1.00  0.00     0.000 C 
BRANCH   4   5
ATOM      5  C   UNL     1      28.244   2.259  31.091  1.00  0.00     0.000 C 
BRANCH   5   6
ATOM      6  C   UNL     1      28.563   3.688  31.562  1.00  0.00     0.000 C 
BRANCH   6   7
ATOM      7  C   UNL     1      27.589   4.729  30.987  1.00  0.00     0.000 C 
BRANCH   7   8
ATOM      8  C   UNL     1      28.309   5.845  30.209  1.00  0.00     0.000 C 
BRANCH   8   9
ATOM      9  C   UNL     1      27.605   7.206  30.344  1.00  0.00     0.000 C 
BRANCH   9  10
ATOM     10  C   UNL     1      28.535   8.386  30.016  1.00  0.00     0.006 C 
BRANCH  10  11
ATOM     11  C   UNL     1      27.951   9.730  30.474  1.00  0.00     0.053 C 
BRANCH  11  12
ATOM     12  C   UNL     1      26.547   9.924  29.991  1.00  0.00     0.041 C 
ATOM     13  O   UNL     1      25.603  10.038  30.816  1.00  0.00    -0.550 OA
ATOM     14  O   UNL     1      26.287  10.018  28.629  1.00  0.00    -0.550 OA
ENDBRANCH  11  12
ENDBRANCH  10  11
ENDBRANCH   9  10
ENDBRANCH   8   9
ENDBRANCH   7   8
ENDBRANCH   6   7
ENDBRANCH   5   6
ENDBRANCH   4   5
ENDBRANCH   3   4
ENDBRANCH   2   3
ENDBRANCH   1   2
BRANCH   1  15
ATOM     15  C   UNL     1      27.435  -1.825  29.227  1.00  0.00     0.000 C 
BRANCH  15  16
ATOM     16  C   UNL     1      28.929  -2.216  29.196  1.00  0.00     0.000 C 
BRANCH  16  17
ATOM     17  C   UNL     1      29.472  -2.845  30.491  1.00  0.00     0.000 C 
BRANCH  17  18
ATOM     18  C   UNL     1      30.624  -3.833  30.238  1.00  0.00    -0.000 C 
BRANCH  18  19
ATOM     19  C   UNL     1      30.164  -5.299  30.282  1.00  0.00    -0.000 C 
BRANCH  19  20
ATOM     20  C   UNL     1      28.686  -5.445  30.686  1.00  0.00    -0.000 C 
BRANCH  20  21
ATOM     21  C   UNL     1      27.945  -6.488  29.835  1.00  0.00    -0.000 C 
BRANCH  21  22
ATOM     22  C   UNL     1      28.832  -7.096  28.736  1.00  0.00    -0.000 C 
BRANCH  22  23
ATOM     23  C   UNL     1      28.841  -8.635  28.760  1.00  0.00    -0.000 C 
BRANCH  23  24
ATOM     24  C   UNL     1      28.136  -9.236  29.994  1.00  0.00    -0.000 C 
BRANCH  24  25
ATOM     25  C   UNL     1      29.127  -9.605  31.107  1.00  0.00    -0.003 C 
ATOM     26  C   UNL     1      28.706  -9.001  32.443  1.00  0.00     0.004 C 
ENDBRANCH  24  25
ENDBRANCH  23  24
ENDBRANCH  22  23
ENDBRANCH  21  22
ENDBRANCH  20  21
ENDBRANCH  19  20
ENDBRANCH  18  19
ENDBRANCH  17  18
ENDBRANCH  16  17
ENDBRANCH  15  16
ENDBRANCH   1  15
TORSDOF 22
ENDMDL
MODEL 4
REMARK VINA RESULT:    -5.460      3.810      6.292
REMARK INTER + INTRA:         -14.525
REMARK INTER:                 -12.142
REMARK INTRA:                  -2.383
REMARK UNBOUND:                -2.043
REMARK SMILES CCCCCCCCCCCCCCCCCCCCCCCC(=O)[O-]
REMARK SMILES IDX 13 1 14 2 15 3 16 4 17 5 18 6 19 7 20 8 21 9 22 10 23 11
REMARK SMILES IDX 24 12 25 13 26 14 12 15 11 16 10 17 9 18 8 19 7 20 6 21 5 22
REMARK SMILES IDX 4 23 3 24 2 25 1 26
REMARK H PARENT
REMARK Flexibility Score: inf
ROOT
ATOM      1  C   UNL     1      28.306   1.333  29.633  1.00  0.00     0.000 C 
ENDROOT
BRANCH   1   2
ATOM      2  C   UNL     1      29.361   0.342  29.115  1.00  0.00     0.000 C 
BRANCH   2   3
ATOM      3  C   UNL     1      30.231  -0.234  30.245  1.00  0.00     0.000 C 
BRANCH   3   4
ATOM      4  C   UNL     1      29.543  -1.405  30.971  1.00  0.00     0.000 C 
BRANCH   4   5
ATOM      5  C   UNL     1      29.941  -2.776  30.400  1.00  0.00     0.000 C 
BRANCH   5   6
ATOM      6  C   UNL     1      28.798  -3.451  29.623  1.00  0.00     0.000 C 
BRANCH   6   7
ATOM      7  C   UNL     1      27.825  -4.206  30.544  1.00  0.00     0.000 C 
BRANCH   7   8
ATOM      8  C   UNL     1      27.890  -5.731  30.348  1.00  0.00     0.000 C 
BRANCH   8   9
ATOM      9  C   UNL     1      29.162  -6.349  30.953  1.00  0.00     0.000 C 
BRANCH   9  10
ATOM     10  C   UNL     1      28.933  -7.778  31.474  1.00  0.00     0.006 C 
BRANCH  10  11
ATOM     11  C   UNL     1      29.606  -8.834  30.587  1.00  0.00     0.053 C 
BRANCH  11  12
ATOM     12  C   UNL     1      28.741  -9.225  29.428  1.00  0.00     0.041 C 
ATOM     13  O   UNL     1      27.655  -9.831  29.625  1.00  0.00    -0.550 OA
ATOM     14  O   UNL     1      29.115  -8.884  28.134  1.00  0.00    -0.550 OA
ENDBRANCH  11  12
ENDBRANCH  10  11
ENDBRANCH   9  10
ENDBRANCH   8   9
ENDBRANCH   7   8
ENDBRANCH   6   7
ENDBRANCH   5   6
ENDBRANCH   4   5
ENDBRANCH   3   4
ENDBRANCH   2   3
ENDBRANCH   1   2
BRANCH   1  15
ATOM     15  C   UNL     1      26.877   0.958  29.204  1.00  0.00     0.000 C 
BRANCH  15  16
ATOM     16  C   UNL     1      26.614  -0.557  29.056  1.00  0.00     0.000 C 
BRANCH  16  17
ATOM     17  C   UNL     1      25.912  -1.223  30.253  1.00  0.00     0.000 C 
BRANCH  17  18
ATOM     18  C   UNL     1      24.438  -0.802  30.392  1.00  0.00    -0.000 C 
BRANCH  18  19
ATOM     19  C   UNL     1      23.478  -2.001  30.373  1.00  0.00    -0.000 C 
BRANCH  19  20
ATOM     20  C   UNL     1      21.999  -1.578  30.437  1.00  0.00    -0.000 C 
BRANCH  20  21
ATOM     21  C   UNL     1      21.188  -2.096  29.240  1.00  0.00    -0.000 C 
BRANCH  21  22
ATOM     22  C   UNL     1      20.913  -1.005  28.192  1.00  0.00    -0.000 C 
BRANCH  22  23
ATOM     23  C   UNL     1      21.246  -1.456  26.759  1.00  0.00    -0.000 C 
BRANCH  23  24
ATOM     24  C   UNL     1      22.119  -0.447  25.982  1.00  0.00    -0.000 C 
BRANCH  24  25
ATOM     25  C   UNL     1      23.417  -0.107  26.728  1.00  0.00    -0.003 C 
ATOM     26  C   UNL     1      24.539   0.238  25.754  1.00  0.00     0.004 C 
ENDBRANCH  24  25
ENDBRANCH  23  24
ENDBRANCH  22  23
ENDBRANCH  21  22
ENDBRANCH  20  21
ENDBRANCH  19  20
ENDBRANCH  18  19
ENDBRANCH  17  18
ENDBRANCH  16  17
ENDBRANCH  15  16
ENDBRANCH   1  15
TORSDOF 22
ENDMDL
MODEL 5
REMARK VINA RESULT:    -5.451      5.420     12.697
REMARK INTER + INTRA:         -14.505
REMARK INTER:                 -12.569
REMARK INTRA:                  -1.936
REMARK UNBOUND:                -2.043
REMARK SMILES CCCCCCCCCCCCCCCCCCCCCCCC(=O)[O-]
REMARK SMILES IDX 13 1 14 2 15 3 16 4 17 5 18 6 19 7 20 8 21 9 22 10 23 11
REMARK SMILES IDX 24 12 25 13 26 14 12 15 11 16 10 17 9 18 8 19 7 20 6 21 5 22
REMARK SMILES IDX 4 23 3 24 2 25 1 26
REMARK H PARENT
REMARK Flexibility Score: inf
ROOT
ATOM      1  C   UNL     1      27.195  -1.101  29.163  1.00  0.00     0.000 C 
ENDROOT
BRANCH   1   2
ATOM      2  C   UNL     1      28.724  -1.240  29.068  1.00  0.00     0.000 C 
BRANCH   2   3
ATOM      3  C   UNL     1      29.442   0.118  29.133  1.00  0.00     0.000 C 
BRANCH   3   4
ATOM      4  C   UNL     1      30.086   0.371  30.509  1.00  0.00     0.000 C 
BRANCH   4   5
ATOM      5  C   UNL     1      29.124   1.044  31.502  1.00  0.00     0.000 C 
BRANCH   5   6
ATOM      6  C   UNL     1      28.230   2.104  30.836  1.00  0.00     0.000 C 
BRANCH   6   7
ATOM      7  C   UNL     1      28.401   3.497  31.466  1.00  0.00     0.000 C 
BRANCH   7   8
ATOM      8  C   UNL     1      28.288   4.631  30.430  1.00  0.00     0.000 C 
BRANCH   8   9
ATOM      9  C   UNL     1      26.890   5.273  30.410  1.00  0.00     0.000 C 
BRANCH   9  10
ATOM     10  C   UNL     1      26.939   6.796  30.617  1.00  0.00     0.006 C 
BRANCH  10  11
ATOM     11  C   UNL     1      28.325   7.380  30.309  1.00  0.00     0.053 C 
BRANCH  11  12
ATOM     12  C   UNL     1      28.255   8.835  29.962  1.00  0.00     0.041 C 
ATOM     13  O   UNL     1      29.067   9.329  29.137  1.00  0.00    -0.550 OA
ATOM     14  O   UNL     1      27.266   9.636  30.519  1.00  0.00    -0.550 OA
ENDBRANCH  11  12
ENDBRANCH  10  11
ENDBRANCH   9  10
ENDBRANCH   8   9
ENDBRANCH   7   8
ENDBRANCH   6   7
ENDBRANCH   5   6
ENDBRANCH   4   5
ENDBRANCH   3   4
ENDBRANCH   2   3
ENDBRANCH   1   2
BRANCH   1  15
ATOM     15  C   UNL     1      26.607  -1.828  30.385  1.00  0.00     0.000 C 
BRANCH  15  16
ATOM     16  C   UNL     1      27.295  -3.163  30.747  1.00  0.00     0.000 C 
BRANCH  16  17
ATOM     17  C   UNL     1      26.484  -4.430  30.425  1.00  0.00     0.000 C 
BRANCH  17  18
ATOM     18  C   UNL     1      27.355  -5.696  30.355  1.00  0.00    -0.000 C 
BRANCH  18  19
ATOM     19  C   UNL     1      28.825  -5.383  30.030  1.00  0.00    -0.000 C 
BRANCH  19  20
ATOM     20  C   UNL     1      29.417  -6.345  28.985  1.00  0.00    -0.000 C 
BRANCH  20  21
ATOM     21  C   UNL     1      28.607  -7.645  28.857  1.00  0.00    -0.000 C 
BRANCH  21  22
ATOM     22  C   UNL     1      29.367  -8.747  28.102  1.00  0.00    -0.000 C 
BRANCH  22  23
ATOM     23  C   UNL     1      29.524 -10.037  28.927  1.00  0.00    -0.000 C 
BRANCH  23  24
ATOM     24  C   UNL     1      28.597 -10.096  30.160  1.00  0.00    -0.000 C 
BRANCH  24  25
ATOM     25  C   UNL     1      29.367  -9.898  31.474  1.00  0.00    -0.003 C 
ATOM     26  C   UNL     1      28.740  -8.794  32.320  1.00  0.00     0.004 C 
ENDBRANCH  24  25
ENDBRANCH  23  24
ENDBRANCH  22  23
ENDBRANCH  21  22
ENDBRANCH  20  21
ENDBRANCH  19  20
ENDBRANCH  18  19
ENDBRANCH  17  18
ENDBRANCH  16  17
ENDBRANCH  15  16
ENDBRANCH   1  15
TORSDOF 22
ENDMDL
MODEL 6
REMARK VINA RESULT:    -5.359      3.774      6.349
REMARK INTER + INTRA:         -14.293
REMARK INTER:                 -12.080
REMARK INTRA:                  -2.213
REMARK UNBOUND:                -2.043
REMARK SMILES CCCCCCCCCCCCCCCCCCCCCCCC(=O)[O-]
REMARK SMILES IDX 13 1 14 2 15 3 16 4 17 5 18 6 19 7 20 8 21 9 22 10 23 11
REMARK SMILES IDX 24 12 25 13 26 14 12 15 11 16 10 17 9 18 8 19 7 20 6 21 5 22
REMARK SMILES IDX 4 23 3 24 2 25 1 26
REMARK H PARENT
REMARK Flexibility Score: inf
ROOT
ATOM      1  C   UNL     1      29.357   0.731  30.410  1.00  0.00     0.000 C 
ENDROOT
BRANCH   1   2
ATOM      2  C   UNL     1      29.501  -0.056  31.723  1.00  0.00     0.000 C 
BRANCH   2   3
ATOM      3  C   UNL     1      29.105  -1.534  31.570  1.00  0.00     0.000 C 
BRANCH   3   4
ATOM      4  C   UNL     1      29.423  -2.080  30.166  1.00  0.00     0.000 C 
BRANCH   4   5
ATOM      5  C   UNL     1      29.043  -3.561  30.003  1.00  0.00     0.000 C 
BRANCH   5   6
ATOM      6  C   UNL     1      27.611  -3.862  30.475  1.00  0.00     0.000 C 
BRANCH   6   7
ATOM      7  C   UNL     1      27.160  -5.288  30.115  1.00  0.00     0.000 C 
BRANCH   7   8
ATOM      8  C   UNL     1      28.325  -6.293  30.116  1.00  0.00     0.000 C 
BRANCH   8   9
ATOM      9  C   UNL     1      28.691  -6.768  31.532  1.00  0.00     0.000 C 
BRANCH   9  10
ATOM     10  C   UNL     1      29.038  -8.266  31.580  1.00  0.00     0.006 C 
BRANCH  10  11
ATOM     11  C   UNL     1      28.146  -9.099  30.649  1.00  0.00     0.053 C 
BRANCH  11  12
ATOM     12  C   UNL     1      28.922  -9.693  29.515  1.00  0.00     0.041 C 
ATOM     13  O   UNL     1      30.126 -10.022  29.675  1.00  0.00    -0.550 OA
ATOM     14  O   UNL     1      28.303  -9.920  28.292  1.00  0.00    -0.550 OA
ENDBRANCH  11  12
ENDBRANCH  10  11
ENDBRANCH   9  10
ENDBRANCH   8   9
ENDBRANCH   7   8
ENDBRANCH   6   7
ENDBRANCH   5   6
ENDBRANCH   4   5
ENDBRANCH   3   4
ENDBRANCH   2   3
ENDBRANCH   1   2
BRANCH   1  15
ATOM     15  C   UNL     1      27.945   1.309  30.215  1.00  0.00     0.000 C 
BRANCH  15  16
ATOM     16  C   UNL     1      27.249   0.907  28.896  1.00  0.00     0.000 C 
BRANCH  16  17
ATOM     17  C   UNL     1      26.348  -0.338  28.980  1.00  0.00     0.000 C 
BRANCH  17  18
ATOM     18  C   UNL     1      25.713  -0.523  30.369  1.00  0.00    -0.000 C 
BRANCH  18  19
ATOM     19  C   UNL     1      24.768  -1.735  30.428  1.00  0.00    -0.000 C 
BRANCH  19  20
ATOM     20  C   UNL     1      23.283  -1.330  30.389  1.00  0.00    -0.000 C 
BRANCH  20  21
ATOM     21  C   UNL     1      22.344  -2.546  30.388  1.00  0.00    -0.000 C 
BRANCH  21  22
ATOM     22  C   UNL     1      21.273  -2.468  29.287  1.00  0.00    -0.000 C 
BRANCH  22  23
ATOM     23  C   UNL     1      21.057  -1.037  28.764  1.00  0.00    -0.000 C 
BRANCH  23  24
ATOM     24  C   UNL     1      20.749  -0.973  27.253  1.00  0.00    -0.000 C 
BRANCH  24  25
ATOM     25  C   UNL     1      22.025  -0.961  26.400  1.00  0.00    -0.003 C 
ATOM     26  C   UNL     1      22.344   0.446  25.904  1.00  0.00     0.004 C 
ENDBRANCH  24  25
ENDBRANCH  23  24
ENDBRANCH  22  23
ENDBRANCH  21  22
ENDBRANCH  20  21
ENDBRANCH  19  20
ENDBRANCH  18  19
ENDBRANCH  17  18
ENDBRANCH  16  17
ENDBRANCH  15  16
ENDBRANCH   1  15
TORSDOF 22
ENDMDL
MODEL 7
REMARK VINA RESULT:    -5.355      6.027     10.780
REMARK INTER + INTRA:         -14.285
REMARK INTER:                 -12.463
REMARK INTRA:                  -1.821
REMARK UNBOUND:                -2.043
REMARK SMILES CCCCCCCCCCCCCCCCCCCCCCCC(=O)[O-]
REMARK SMILES IDX 13 1 14 2 15 3 16 4 17 5 18 6 19 7 20 8 21 9 22 10 23 11
REMARK SMILES IDX 24 12 25 13 26 14 12 15 11 16 10 17 9 18 8 19 7 20 6 21 5 22
REMARK SMILES IDX 4 23 3 24 2 25 1 26
REMARK H PARENT
REMARK Flexibility Score: inf
ROOT
ATOM      1  C   UNL     1      28.681  -1.735  29.775  1.00  0.00     0.000 C 
ENDROOT
BRANCH   1   2
ATOM      2  C   UNL     1      29.616  -1.168  30.855  1.00  0.00     0.000 C 
BRANCH   2   3
ATOM      3  C   UNL     1      30.002   0.297  30.588  1.00  0.00     0.000 C 
BRANCH   3   4
ATOM      4  C   UNL     1      29.459   1.249  31.670  1.00  0.00     0.000 C 
BRANCH   4   5
ATOM      5  C   UNL     1      28.302   2.126  31.164  1.00  0.00     0.000 C 
BRANCH   5   6
ATOM      6  C   UNL     1      28.360   2.370  29.647  1.00  0.00     0.000 C 
BRANCH   6   7
ATOM      7  C   UNL     1      27.467   3.542  29.205  1.00  0.00     0.000 C 
BRANCH   7   8
ATOM      8  C   UNL     1      28.035   4.909  29.627  1.00  0.00     0.000 C 
BRANCH   8   9
ATOM      9  C   UNL     1      27.145   5.624  30.656  1.00  0.00     0.000 C 
BRANCH   9  10
ATOM     10  C   UNL     1      27.018   7.132  30.380  1.00  0.00     0.006 C 
BRANCH  10  11
ATOM     11  C   UNL     1      28.380   7.840  30.385  1.00  0.00     0.053 C 
BRANCH  11  12
ATOM     12  C   UNL     1      28.252   9.301  30.085  1.00  0.00     0.041 C 
ATOM     13  O   UNL     1      29.281  10.003  29.904  1.00  0.00    -0.550 OA
ATOM     14  O   UNL     1      26.994   9.880  29.966  1.00  0.00    -0.550 OA
ENDBRANCH  11  12
ENDBRANCH  10  11
ENDBRANCH   9  10
ENDBRANCH   8   9
ENDBRANCH   7   8
ENDBRANCH   6   7
ENDBRANCH   5   6
ENDBRANCH   4   5
ENDBRANCH   3   4
ENDBRANCH   2   3
ENDBRANCH   1   2
BRANCH   1  15
ATOM     15  C   UNL     1      27.436  -2.419  30.366  1.00  0.00     0.000 C 
BRANCH  15  16
ATOM     16  C   UNL     1      26.143  -1.576  30.324  1.00  0.00     0.000 C 
BRANCH  16  17
ATOM     17  C   UNL     1      26.258  -0.231  29.583  1.00  0.00     0.000 C 
BRANCH  17  18
ATOM     18  C   UNL     1      26.302  -0.394  28.054  1.00  0.00    -0.000 C 
BRANCH  18  19
ATOM     19  C   UNL     1      25.380   0.599  27.328  1.00  0.00    -0.000 C 
BRANCH  19  20
ATOM     20  C   UNL     1      24.645  -0.039  26.135  1.00  0.00    -0.000 C 
BRANCH  20  21
ATOM     21  C   UNL     1      23.224   0.518  25.955  1.00  0.00    -0.000 C 
BRANCH  21  22
ATOM     22  C   UNL     1      22.156  -0.587  25.897  1.00  0.00    -0.000 C 
BRANCH  22  23
ATOM     23  C   UNL     1      21.189  -0.545  27.093  1.00  0.00    -0.000 C 
BRANCH  23  24
ATOM     24  C   UNL     1      21.248  -1.809  27.978  1.00  0.00    -0.000 C 
BRANCH  24  25
ATOM     25  C   UNL     1      21.150  -1.476  29.473  1.00  0.00    -0.003 C 
ATOM     26  C   UNL     1      22.411  -1.905  30.217  1.00  0.00     0.004 C 
ENDBRANCH  24  25
ENDBRANCH  23  24
ENDBRANCH  22  23
ENDBRANCH  21  22
ENDBRANCH  20  21
ENDBRANCH  19  20
ENDBRANCH  18  19
ENDBRANCH  17  18
ENDBRANCH  16  17
ENDBRANCH  15  16
ENDBRANCH   1  15
TORSDOF 22
ENDMDL
MODEL 8
REMARK VINA RESULT:    -5.325      3.860      6.376
REMARK INTER + INTRA:         -14.217
REMARK INTER:                 -12.328
REMARK INTRA:                  -1.889
REMARK UNBOUND:                -2.043
REMARK SMILES CCCCCCCCCCCCCCCCCCCCCCCC(=O)[O-]
REMARK SMILES IDX 13 1 14 2 15 3 16 4 17 5 18 6 19 7 20 8 21 9 22 10 23 11
REMARK SMILES IDX 24 12 25 13 26 14 12 15 11 16 10 17 9 18 8 19 7 20 6 21 5 22
REMARK SMILES IDX 4 23 3 24 2 25 1 26
REMARK H PARENT
REMARK Flexibility Score: inf
ROOT
ATOM      1  C   UNL     1      28.674   1.190  30.869  1.00  0.00     0.000 C 
ENDROOT
BRANCH   1   2
ATOM      2  C   UNL     1      29.827   0.247  30.488  1.00  0.00     0.000 C 
BRANCH   2   3
ATOM      3  C   UNL     1      29.773  -1.086  31.253  1.00  0.00     0.000 C 
BRANCH   3   4
ATOM      4  C   UNL     1      30.150  -2.285  30.363  1.00  0.00     0.000 C 
BRANCH   4   5
ATOM      5  C   UNL     1      28.943  -2.870  29.610  1.00  0.00     0.000 C 
BRANCH   5   6
ATOM      6  C   UNL     1      27.761  -3.190  30.540  1.00  0.00     0.000 C 
BRANCH   6   7
ATOM      7  C   UNL     1      27.624  -4.696  30.822  1.00  0.00     0.000 C 
BRANCH   7   8
ATOM      8  C   UNL     1      28.917  -5.473  30.518  1.00  0.00     0.000 C 
BRANCH   8   9
ATOM      9  C   UNL     1      28.781  -6.978  30.805  1.00  0.00     0.000 C 
BRANCH   9  10
ATOM     10  C   UNL     1      27.970  -7.713  29.724  1.00  0.00     0.006 C 
BRANCH  10  11
ATOM     11  C   UNL     1      28.127  -9.237  29.817  1.00  0.00     0.053 C 
BRANCH  11  12
ATOM     12  C   UNL     1      29.523  -9.676  29.499  1.00  0.00     0.041 C 
ATOM     13  O   UNL     1      29.875  -9.849  28.302  1.00  0.00    -0.550 OA
ATOM     14  O   UNL     1      30.447  -9.854  30.521  1.00  0.00    -0.550 OA
ENDBRANCH  11  12
ENDBRANCH  10  11
ENDBRANCH   9  10
ENDBRANCH   8   9
ENDBRANCH   7   8
ENDBRANCH   6   7
ENDBRANCH   5   6
ENDBRANCH   4   5
ENDBRANCH   3   4
ENDBRANCH   2   3
ENDBRANCH   1   2
BRANCH   1  15
ATOM     15  C   UNL     1      27.433   0.437  31.381  1.00  0.00     0.000 C 
BRANCH  15  16
ATOM     16  C   UNL     1      26.413   0.040  30.292  1.00  0.00     0.000 C 
BRANCH  16  17
ATOM     17  C   UNL     1      26.820   0.390  28.849  1.00  0.00     0.000 C 
BRANCH  17  18
ATOM     18  C   UNL     1      25.941  -0.304  27.795  1.00  0.00    -0.000 C 
BRANCH  18  19
ATOM     19  C   UNL     1      25.121   0.694  26.961  1.00  0.00    -0.000 C 
BRANCH  19  20
ATOM     20  C   UNL     1      24.367   0.018  25.802  1.00  0.00    -0.000 C 
BRANCH  20  21
ATOM     21  C   UNL     1      22.861   0.322  25.824  1.00  0.00    -0.000 C 
BRANCH  21  22
ATOM     22  C   UNL     1      22.012  -0.904  26.197  1.00  0.00    -0.000 C 
BRANCH  22  23
ATOM     23  C   UNL     1      21.152  -0.676  27.452  1.00  0.00    -0.000 C 
BRANCH  23  24
ATOM     24  C   UNL     1      21.055  -1.916  28.367  1.00  0.00    -0.000 C 
BRANCH  24  25
ATOM     25  C   UNL     1      21.276  -1.566  29.845  1.00  0.00    -0.003 C 
ATOM     26  C   UNL     1      22.747  -1.696  30.229  1.00  0.00     0.004 C 
ENDBRANCH  24  25
ENDBRANCH  23  24
ENDBRANCH  22  23
ENDBRANCH  21  22
ENDBRANCH  20  21
ENDBRANCH  19  20
ENDBRANCH  18  19
ENDBRANCH  17  18
ENDBRANCH  16  17
ENDBRANCH  15  16
ENDBRANCH   1  15
TORSDOF 22
ENDMDL
MODEL 9
REMARK VINA RESULT:    -5.311      1.519      2.124
REMARK INTER + INTRA:         -14.185
REMARK INTER:                 -12.552
REMARK INTRA:                  -1.633
REMARK UNBOUND:                -2.043
REMARK SMILES CCCCCCCCCCCCCCCCCCCCCCCC(=O)[O-]
REMARK SMILES IDX 13 1 14 2 15 3 16 4 17 5 18 6 19 7 20 8 21 9 22 10 23 11
REMARK SMILES IDX 24 12 25 13 26 14 12 15 11 16 10 17 9 18 8 19 7 20 6 21 5 22
REMARK SMILES IDX 4 23 3 24 2 25 1 26
REMARK H PARENT
REMARK Flexibility Score: inf
ROOT
ATOM      1  C   UNL     1      27.115  -1.288  29.789  1.00  0.00     0.000 C 
ENDROOT
BRANCH   1   2
ATOM      2  C   UNL     1      27.635  -1.771  31.153  1.00  0.00     0.000 C 
BRANCH   2   3
ATOM      3  C   UNL     1      29.158  -1.614  31.291  1.00  0.00     0.000 C 
BRANCH   3   4
ATOM      4  C   UNL     1      29.912  -2.132  30.052  1.00  0.00     0.000 C 
BRANCH   4   5
ATOM      5  C   UNL     1      30.209  -3.639  30.124  1.00  0.00     0.000 C 
BRANCH   5   6
ATOM      6  C   UNL     1      29.498  -4.439  29.019  1.00  0.00     0.000 C 
BRANCH   6   7
ATOM      7  C   UNL     1      28.788  -5.691  29.562  1.00  0.00     0.000 C 
BRANCH   7   8
ATOM      8  C   UNL     1      29.526  -6.314  30.761  1.00  0.00     0.000 C 
BRANCH   8   9
ATOM      9  C   UNL     1      28.577  -7.063  31.711  1.00  0.00     0.000 C 
BRANCH   9  10
ATOM     10  C   UNL     1      28.776  -8.588  31.662  1.00  0.00     0.006 C 
BRANCH  10  11
ATOM     11  C   UNL     1      29.829  -9.002  30.624  1.00  0.00     0.053 C 
BRANCH  11  12
ATOM     12  C   UNL     1      29.225  -9.776  29.494  1.00  0.00     0.041 C 
ATOM     13  O   UNL     1      28.005 -10.086  29.518  1.00  0.00    -0.550 OA
ATOM     14  O   UNL     1      30.000 -10.121  28.394  1.00  0.00    -0.550 OA
ENDBRANCH  11  12
ENDBRANCH  10  11
ENDBRANCH   9  10
ENDBRANCH   8   9
ENDBRANCH   7   8
ENDBRANCH   6   7
ENDBRANCH   5   6
ENDBRANCH   4   5
ENDBRANCH   3   4
ENDBRANCH   2   3
ENDBRANCH   1   2
BRANCH   1  15
ATOM     15  C   UNL     1      26.588   0.157  29.831  1.00  0.00     0.000 C 
BRANCH  15  16
ATOM     16  C   UNL     1      27.651   1.249  29.579  1.00  0.00     0.000 C 
BRANCH  16  17
ATOM     17  C   UNL     1      28.369   1.771  30.836  1.00  0.00     0.000 C 
BRANCH  17  18
ATOM     18  C   UNL     1      28.104   3.264  31.099  1.00  0.00    -0.000 C 
BRANCH  18  19
ATOM     19  C   UNL     1      27.576   3.997  29.855  1.00  0.00    -0.000 C 
BRANCH  19  20
ATOM     20  C   UNL     1      27.231   5.470  30.138  1.00  0.00    -0.000 C 
BRANCH  20  21
ATOM     21  C   UNL     1      28.480   6.364  30.197  1.00  0.00    -0.000 C 
BRANCH  21  22
ATOM     22  C   UNL     1      28.138   7.849  30.400  1.00  0.00    -0.000 C 
BRANCH  22  23
ATOM     23  C   UNL     1      26.693   8.189  29.996  1.00  0.00    -0.000 C 
BRANCH  23  24
ATOM     24  C   UNL     1      26.138   9.449  30.695  1.00  0.00    -0.000 C 
BRANCH  24  25
ATOM     25  C   UNL     1      27.182  10.119  31.599  1.00  0.00    -0.003 C 
ATOM     26  C   UNL     1      26.728  10.124  33.055  1.00  0.00     0.004 C 
ENDBRANCH  24  25
ENDBRANCH  23  24
ENDBRANCH  22  23
ENDBRANCH  21  22
ENDBRANCH  20  21
ENDBRANCH  19  20
ENDBRANCH  18  19
ENDBRANCH  17  18
ENDBRANCH  16  17
ENDBRANCH  15  16
ENDBRANCH   1  15
TORSDOF 22
ENDMDL
