MODEL 1
REMARK VINA RESULT:    10.086      0.000      0.000
REMARK INTER + INTRA:          12.803
REMARK INTER:                  12.444
REMARK INTRA:                   0.359
REMARK UNBOUND:                 0.359
REMARK SMILES Oc1cc(O)c2cc(O)c(-c3cc(O)c(O)c(O)c3)[o+]c2c1
REMARK SMILES IDX 10 1 20 2 21 3 22 4 2 5 3 6 4 7 6 8 7 9 8 10 11 11 12 12
REMARK SMILES IDX 13 13 19 14 15 15 17 16 14 17 16 19 18 21 9 23 1 25 5 27
REMARK H PARENT 14 18 16 20 18 22 9 24 1 26 5 28
REMARK Flexibility Score: inf
ROOT
ATOM      1  C   UNL     1       3.231 135.198 155.416  1.00  0.00     0.402 A 
ATOM      2  O   UNL     1       2.875 133.927 155.246  1.00  0.00    -0.202 OA
ATOM      3  C   UNL     1       3.306 133.178 154.236  1.00  0.00     0.368 A 
ATOM      4  C   UNL     1       2.879 131.851 154.144  1.00  0.00     0.162 A 
ATOM      5  C   UNL     1       3.318 131.039 153.098  1.00  0.00     0.128 A 
ATOM      6  C   UNL     1       4.191 131.557 152.134  1.00  0.00     0.093 A 
ATOM      7  C   UNL     1       4.634 132.884 152.204  1.00  0.00     0.136 A 
ATOM      8  C   UNL     1       4.187 133.712 153.267  1.00  0.00     0.125 A 
ATOM      9  C   UNL     1       4.568 135.056 153.409  1.00  0.00     0.078 A 
ATOM     10  C   UNL     1       4.083 135.813 154.481  1.00  0.00     0.223 A 
ENDROOT
BRANCH   1  11
ATOM     11  C   UNL     1       2.691 135.925 156.587  1.00  0.00     0.091 A 
ATOM     12  C   UNL     1       2.791 137.323 156.692  1.00  0.00     0.068 A 
ATOM     13  C   UNL     1       2.293 137.991 157.819  1.00  0.00     0.162 A 
ATOM     14  C   UNL     1       2.115 135.202 157.644  1.00  0.00     0.068 A 
ATOM     15  C   UNL     1       1.698 137.260 158.862  1.00  0.00     0.200 A 
ATOM     16  C   UNL     1       1.614 135.861 158.771  1.00  0.00     0.162 A 
BRANCH  13  17
ATOM     17  O   UNL     1       2.394 139.379 157.909  1.00  0.00    -0.504 OA
ATOM     18  H   UNL     1       3.261 139.834 158.168  1.00  0.00     0.293 HD
ENDBRANCH  13  17
BRANCH  15  19
ATOM     19  O   UNL     1       1.193 137.910 159.989  1.00  0.00    -0.502 OA
ATOM     20  H   UNL     1       0.726 138.806 159.931  1.00  0.00     0.293 HD
ENDBRANCH  15  19
BRANCH  16  21
ATOM     21  O   UNL     1       1.037 135.106 159.793  1.00  0.00    -0.504 OA
ATOM     22  H   UNL     1       0.616 135.535 160.608  1.00  0.00     0.293 HD
ENDBRANCH  16  21
ENDBRANCH   1  11
BRANCH  10  23
ATOM     23  O   UNL     1       4.421 137.162 154.596  1.00  0.00    -0.500 OA
ATOM     24  H   UNL     1       3.715 137.888 154.601  1.00  0.00     0.294 HD
ENDBRANCH  10  23
BRANCH   5  25
ATOM     25  O   UNL     1       2.881 129.719 153.023  1.00  0.00    -0.507 OA
ATOM     26  H   UNL     1       1.926 129.490 152.772  1.00  0.00     0.293 HD
ENDBRANCH   5  25
BRANCH   7  27
ATOM     27  O   UNL     1       5.507 133.325 151.206  1.00  0.00    -0.507 OA
ATOM     28  H   UNL     1       5.815 132.761 150.428  1.00  0.00     0.293 HD
ENDBRANCH   7  27
TORSDOF 7
ENDMDL
MODEL 2
REMARK VINA RESULT:    10.643      0.118      1.798
REMARK INTER + INTRA:          13.491
REMARK INTER:                  13.095
REMARK INTRA:                   0.396
REMARK UNBOUND:                 0.359
REMARK SMILES Oc1cc(O)c2cc(O)c(-c3cc(O)c(O)c(O)c3)[o+]c2c1
REMARK SMILES IDX 10 1 20 2 21 3 22 4 2 5 3 6 4 7 6 8 7 9 8 10 11 11 12 12
REMARK SMILES IDX 13 13 19 14 15 15 17 16 14 17 16 19 18 21 9 23 1 25 5 27
REMARK H PARENT 14 18 16 20 18 22 9 24 1 26 5 28
REMARK Flexibility Score: inf
ROOT
ATOM      1  C   UNL     1       3.218 135.226 155.512  1.00  0.00     0.402 A 
ATOM      2  O   UNL     1       2.837 133.967 155.315  1.00  0.00    -0.202 OA
ATOM      3  C   UNL     1       3.247 133.234 154.284  1.00  0.00     0.368 A 
ATOM      4  C   UNL     1       2.794 131.918 154.164  1.00  0.00     0.162 A 
ATOM      5  C   UNL     1       3.209 131.124 153.095  1.00  0.00     0.128 A 
ATOM      6  C   UNL     1       4.086 131.648 152.138  1.00  0.00     0.093 A 
ATOM      7  C   UNL     1       4.555 132.964 152.236  1.00  0.00     0.136 A 
ATOM      8  C   UNL     1       4.132 133.775 153.322  1.00  0.00     0.125 A 
ATOM      9  C   UNL     1       4.540 135.107 153.493  1.00  0.00     0.078 A 
ATOM     10  C   UNL     1       4.077 135.847 154.586  1.00  0.00     0.223 A 
ENDROOT
BRANCH   1  11
ATOM     11  C   UNL     1       2.700 135.935 156.705  1.00  0.00     0.091 A 
ATOM     12  C   UNL     1       2.097 135.239 157.766  1.00  0.00     0.068 A 
ATOM     13  C   UNL     1       1.594 135.930 158.877  1.00  0.00     0.162 A 
ATOM     14  C   UNL     1       2.760 137.336 156.756  1.00  0.00     0.068 A 
ATOM     15  C   UNL     1       1.679 137.331 158.929  1.00  0.00     0.200 A 
ATOM     16  C   UNL     1       2.262 138.033 157.861  1.00  0.00     0.162 A 
BRANCH  13  17
ATOM     17  O   UNL     1       1.003 135.227 159.927  1.00  0.00    -0.504 OA
ATOM     18  H   UNL     1       1.063 134.217 159.991  1.00  0.00     0.293 HD
ENDBRANCH  13  17
BRANCH  15  19
ATOM     19  O   UNL     1       1.186 138.034 160.030  1.00  0.00    -0.502 OA
ATOM     20  H   UNL     1       0.284 138.493 160.016  1.00  0.00     0.293 HD
ENDBRANCH  15  19
BRANCH  16  21
ATOM     21  O   UNL     1       2.354 139.425 157.878  1.00  0.00    -0.504 OA
ATOM     22  H   UNL     1       2.739 139.930 158.668  1.00  0.00     0.293 HD
ENDBRANCH  16  21
ENDBRANCH   1  11
BRANCH  10  23
ATOM     23  O   UNL     1       4.441 137.186 154.731  1.00  0.00    -0.500 OA
ATOM     24  H   UNL     1       4.446 137.641 155.636  1.00  0.00     0.294 HD
ENDBRANCH  10  23
BRANCH   5  25
ATOM     25  O   UNL     1       2.746 129.814 152.991  1.00  0.00    -0.507 OA
ATOM     26  H   UNL     1       2.053 129.550 152.301  1.00  0.00     0.293 HD
ENDBRANCH   5  25
BRANCH   7  27
ATOM     27  O   UNL     1       5.430 133.411 151.243  1.00  0.00    -0.507 OA
ATOM     28  H   UNL     1       5.281 134.236 150.680  1.00  0.00     0.293 HD
ENDBRANCH   7  27
TORSDOF 7
ENDMDL
MODEL 3
REMARK VINA RESULT:    12.041      1.218      6.897
REMARK INTER + INTRA:          15.216
REMARK INTER:                  15.201
REMARK INTRA:                   0.015
REMARK UNBOUND:                 0.359
REMARK SMILES Oc1cc(O)c2cc(O)c(-c3cc(O)c(O)c(O)c3)[o+]c2c1
REMARK SMILES IDX 10 1 20 2 21 3 22 4 2 5 3 6 4 7 6 8 7 9 8 10 11 11 12 12
REMARK SMILES IDX 13 13 19 14 15 15 17 16 14 17 16 19 18 21 9 23 1 25 5 27
REMARK H PARENT 14 18 16 20 18 22 9 24 1 26 5 28
REMARK Flexibility Score: inf
ROOT
ATOM      1  C   UNL     1       3.471 134.896 154.529  1.00  0.00     0.402 A 
ATOM      2  O   UNL     1       2.846 134.429 155.607  1.00  0.00    -0.202 OA
ATOM      3  C   UNL     1       2.536 135.185 156.655  1.00  0.00     0.368 A 
ATOM      4  C   UNL     1       1.875 134.604 157.741  1.00  0.00     0.162 A 
ATOM      5  C   UNL     1       1.534 135.373 158.853  1.00  0.00     0.128 A 
ATOM      6  C   UNL     1       1.853 136.735 158.882  1.00  0.00     0.093 A 
ATOM      7  C   UNL     1       2.514 137.343 157.807  1.00  0.00     0.136 A 
ATOM      8  C   UNL     1       2.864 136.561 156.674  1.00  0.00     0.125 A 
ATOM      9  C   UNL     1       3.539 137.081 155.558  1.00  0.00     0.078 A 
ATOM     10  C   UNL     1       3.856 136.248 154.480  1.00  0.00     0.223 A 
ENDROOT
BRANCH   1  11
ATOM     11  C   UNL     1       3.752 133.955 153.421  1.00  0.00     0.091 A 
ATOM     12  C   UNL     1       5.008 133.921 152.790  1.00  0.00     0.068 A 
ATOM     13  C   UNL     1       5.248 133.038 151.729  1.00  0.00     0.162 A 
ATOM     14  C   UNL     1       2.730 133.116 152.951  1.00  0.00     0.068 A 
ATOM     15  C   UNL     1       4.226 132.186 151.280  1.00  0.00     0.200 A 
ATOM     16  C   UNL     1       2.963 132.231 151.894  1.00  0.00     0.162 A 
BRANCH  13  17
ATOM     17  O   UNL     1       6.500 133.010 151.115  1.00  0.00    -0.504 OA
ATOM     18  H   UNL     1       7.285 133.537 151.481  1.00  0.00     0.293 HD
ENDBRANCH  13  17
BRANCH  15  19
ATOM     19  O   UNL     1       4.450 131.297 150.227  1.00  0.00    -0.502 OA
ATOM     20  H   UNL     1       3.752 131.117 149.516  1.00  0.00     0.293 HD
ENDBRANCH  15  19
BRANCH  16  21
ATOM     21  O   UNL     1       1.923 131.404 151.465  1.00  0.00    -0.504 OA
ATOM     22  H   UNL     1       1.997 130.394 151.482  1.00  0.00     0.293 HD
ENDBRANCH  16  21
ENDBRANCH   1  11
BRANCH  10  23
ATOM     23  O   UNL     1       4.570 136.752 153.392  1.00  0.00    -0.500 OA
ATOM     24  H   UNL     1       5.512 137.110 153.494  1.00  0.00     0.294 HD
ENDBRANCH  10  23
BRANCH   5  25
ATOM     25  O   UNL     1       0.876 134.775 159.926  1.00  0.00    -0.507 OA
ATOM     26  H   UNL     1       0.938 133.779 160.097  1.00  0.00     0.293 HD
ENDBRANCH   5  25
BRANCH   7  27
ATOM     27  O   UNL     1       2.794 138.707 157.910  1.00  0.00    -0.507 OA
ATOM     28  H   UNL     1       2.402 139.417 157.309  1.00  0.00     0.293 HD
ENDBRANCH   7  27
TORSDOF 7
ENDMDL
