MODEL 1
REMARK VINA RESULT:    -4.986      0.000      0.000
REMARK INTER + INTRA:         -11.496
REMARK INTER:                  -9.067
REMARK INTRA:                  -2.429
REMARK UNBOUND:                -2.429
REMARK SMILES CCCCCCCCCCCCCCCC(=O)[O-]
REMARK SMILES IDX 9 1 10 2 11 3 12 4 13 5 14 6 15 7 16 8 17 9 18 10 8 11 7 12
REMARK SMILES IDX 6 13 5 14 4 15 3 16 2 17 1 18
REMARK H PARENT
REMARK Flexibility Score: inf
ROOT
ATOM      1  C   UNL     1       3.638   5.741   7.045  1.00  0.00     0.000 C 
ENDROOT
BRANCH   1   2
ATOM      2  C   UNL     1       3.369   7.254   7.068  1.00  0.00     0.000 C 
BRANCH   2   3
ATOM      3  C   UNL     1       3.595   7.875   8.455  1.00  0.00     0.000 C 
BRANCH   3   4
ATOM      4  C   UNL     1       2.547   8.955   8.749  1.00  0.00     0.000 C 
BRANCH   4   5
ATOM      5  C   UNL     1       1.888   8.725  10.118  1.00  0.00     0.000 C 
BRANCH   5   6
ATOM      6  C   UNL     1       2.026   7.273  10.604  1.00  0.00     0.006 C 
BRANCH   6   7
ATOM      7  C   UNL     1       0.700   6.503  10.549  1.00  0.00     0.053 C 
BRANCH   7   8
ATOM      8  C   UNL     1       0.622   5.686   9.299  1.00  0.00     0.041 C 
ATOM      9  O   UNL     1       0.160   6.189   8.240  1.00  0.00    -0.550 OA
ATOM     10  O   UNL     1       1.018   4.355   9.312  1.00  0.00    -0.550 OA
ENDBRANCH   7   8
ENDBRANCH   6   7
ENDBRANCH   5   6
ENDBRANCH   4   5
ENDBRANCH   3   4
ENDBRANCH   2   3
ENDBRANCH   1   2
BRANCH   1  11
ATOM     11  C   UNL     1       4.344   5.243   8.316  1.00  0.00     0.000 C 
BRANCH  11  12
ATOM     12  C   UNL     1       5.225   4.026   8.013  1.00  0.00    -0.000 C 
BRANCH  12  13
ATOM     13  C   UNL     1       6.536   4.449   7.333  1.00  0.00    -0.000 C 
BRANCH  13  14
ATOM     14  C   UNL     1       7.448   5.280   8.254  1.00  0.00    -0.000 C 
BRANCH  14  15
ATOM     15  C   UNL     1       8.056   6.538   7.606  1.00  0.00    -0.000 C 
BRANCH  15  16
ATOM     16  C   UNL     1       7.038   7.497   6.959  1.00  0.00    -0.000 C 
BRANCH  16  17
ATOM     17  C   UNL     1       7.233   7.680   5.439  1.00  0.00    -0.003 C 
ATOM     18  C   UNL     1       6.183   6.936   4.616  1.00  0.00     0.004 C 
ENDBRANCH  16  17
ENDBRANCH  15  16
ENDBRANCH  14  15
ENDBRANCH  13  14
ENDBRANCH  12  13
ENDBRANCH  11  12
ENDBRANCH   1  11
TORSDOF 14
ENDMDL
MODEL 2
REMARK VINA RESULT:    -4.971      2.489      6.137
REMARK INTER + INTRA:         -11.469
REMARK INTER:                  -9.342
REMARK INTRA:                  -2.127
REMARK UNBOUND:                -2.429
REMARK SMILES CCCCCCCCCCCCCCCC(=O)[O-]
REMARK SMILES IDX 9 1 10 2 11 3 12 4 13 5 14 6 15 7 16 8 17 9 18 10 8 11 7 12
REMARK SMILES IDX 6 13 5 14 4 15 3 16 2 17 1 18
REMARK H PARENT
REMARK Flexibility Score: inf
ROOT
ATOM      1  C   UNL     1       0.829   5.864   8.315  1.00  0.00     0.000 C 
ENDROOT
BRANCH   1   2
ATOM      2  C   UNL     1       1.595   4.672   8.910  1.00  0.00     0.000 C 
BRANCH   2   3
ATOM      3  C   UNL     1       3.021   5.042   9.346  1.00  0.00     0.000 C 
BRANCH   3   4
ATOM      4  C   UNL     1       4.038   4.692   8.251  1.00  0.00     0.000 C 
BRANCH   4   5
ATOM      5  C   UNL     1       4.937   5.896   7.930  1.00  0.00     0.000 C 
BRANCH   5   6
ATOM      6  C   UNL     1       4.583   7.138   8.762  1.00  0.00     0.006 C 
BRANCH   6   7
ATOM      7  C   UNL     1       4.962   8.448   8.060  1.00  0.00     0.053 C 
BRANCH   7   8
ATOM      8  C   UNL     1       3.793   8.990   7.300  1.00  0.00     0.041 C 
ATOM      9  O   UNL     1       3.584  10.231   7.259  1.00  0.00    -0.550 OA
ATOM     10  O   UNL     1       2.907   8.121   6.674  1.00  0.00    -0.550 OA
ENDBRANCH   7   8
ENDBRANCH   6   7
ENDBRANCH   5   6
ENDBRANCH   4   5
ENDBRANCH   3   4
ENDBRANCH   2   3
ENDBRANCH   1   2
BRANCH   1  11
ATOM     11  C   UNL     1      -0.562   6.047   8.941  1.00  0.00     0.000 C 
BRANCH  11  12
ATOM     12  C   UNL     1      -0.861   4.932   9.950  1.00  0.00    -0.000 C 
BRANCH  12  13
ATOM     13  C   UNL     1      -1.051   5.505  11.363  1.00  0.00    -0.000 C 
BRANCH  13  14
ATOM     14  C   UNL     1       0.279   5.876  12.044  1.00  0.00    -0.000 C 
BRANCH  14  15
ATOM     15  C   UNL     1       0.213   7.097  12.981  1.00  0.00    -0.000 C 
BRANCH  15  16
ATOM     16  C   UNL     1       1.215   8.223  12.660  1.00  0.00    -0.000 C 
BRANCH  16  17
ATOM     17  C   UNL     1       1.938   8.047  11.308  1.00  0.00    -0.003 C 
ATOM     18  C   UNL     1       1.447   9.027  10.243  1.00  0.00     0.004 C 
ENDBRANCH  16  17
ENDBRANCH  15  16
ENDBRANCH  14  15
ENDBRANCH  13  14
ENDBRANCH  12  13
ENDBRANCH  11  12
ENDBRANCH   1  11
TORSDOF 14
ENDMDL
MODEL 3
REMARK VINA RESULT:    -4.916      1.092      2.030
REMARK INTER + INTRA:         -11.369
REMARK INTER:                  -9.319
REMARK INTRA:                  -2.050
REMARK UNBOUND:                -2.429
REMARK SMILES CCCCCCCCCCCCCCCC(=O)[O-]
REMARK SMILES IDX 9 1 10 2 11 3 12 4 13 5 14 6 15 7 16 8 17 9 18 10 8 11 7 12
REMARK SMILES IDX 6 13 5 14 4 15 3 16 2 17 1 18
REMARK H PARENT
REMARK Flexibility Score: inf
ROOT
ATOM      1  C   UNL     1       5.462   4.141   8.061  1.00  0.00     0.000 C 
ENDROOT
BRANCH   1   2
ATOM      2  C   UNL     1       4.440   5.237   7.716  1.00  0.00     0.000 C 
BRANCH   2   3
ATOM      3  C   UNL     1       4.551   6.461   8.637  1.00  0.00     0.000 C 
BRANCH   3   4
ATOM      4  C   UNL     1       3.578   7.564   8.201  1.00  0.00     0.000 C 
BRANCH   4   5
ATOM      5  C   UNL     1       2.672   7.991   9.366  1.00  0.00     0.000 C 
BRANCH   5   6
ATOM      6  C   UNL     1       1.182   7.746   9.077  1.00  0.00     0.006 C 
BRANCH   6   7
ATOM      7  C   UNL     1       0.923   6.381   8.426  1.00  0.00     0.053 C 
BRANCH   7   8
ATOM      8  C   UNL     1       0.881   5.307   9.466  1.00  0.00     0.041 C 
ATOM      9  O   UNL     1       0.322   5.519  10.575  1.00  0.00    -0.550 OA
ATOM     10  O   UNL     1       1.498   4.085   9.229  1.00  0.00    -0.550 OA
ENDBRANCH   7   8
ENDBRANCH   6   7
ENDBRANCH   5   6
ENDBRANCH   4   5
ENDBRANCH   3   4
ENDBRANCH   2   3
ENDBRANCH   1   2
BRANCH   1  11
ATOM     11  C   UNL     1       6.821   4.361   7.380  1.00  0.00     0.000 C 
BRANCH  11  12
ATOM     12  C   UNL     1       7.832   4.972   8.357  1.00  0.00    -0.000 C 
BRANCH  12  13
ATOM     13  C   UNL     1       8.695   6.036   7.663  1.00  0.00    -0.000 C 
BRANCH  13  14
ATOM     14  C   UNL     1       7.935   7.351   7.407  1.00  0.00    -0.000 C 
BRANCH  14  15
ATOM     15  C   UNL     1       8.044   7.896   5.970  1.00  0.00    -0.000 C 
BRANCH  15  16
ATOM     16  C   UNL     1       6.756   8.535   5.414  1.00  0.00    -0.000 C 
BRANCH  16  17
ATOM     17  C   UNL     1       5.636   7.518   5.111  1.00  0.00    -0.003 C 
ATOM     18  C   UNL     1       6.123   6.335   4.275  1.00  0.00     0.004 C 
ENDBRANCH  16  17
ENDBRANCH  15  16
ENDBRANCH  14  15
ENDBRANCH  13  14
ENDBRANCH  12  13
ENDBRANCH  11  12
ENDBRANCH   1  11
TORSDOF 14
ENDMDL
MODEL 4
REMARK VINA RESULT:    -4.913      2.631      6.490
REMARK INTER + INTRA:         -11.364
REMARK INTER:                  -8.931
REMARK INTRA:                  -2.433
REMARK UNBOUND:                -2.429
REMARK SMILES CCCCCCCCCCCCCCCC(=O)[O-]
REMARK SMILES IDX 9 1 10 2 11 3 12 4 13 5 14 6 15 7 16 8 17 9 18 10 8 11 7 12
REMARK SMILES IDX 6 13 5 14 4 15 3 16 2 17 1 18
REMARK H PARENT
REMARK Flexibility Score: inf
ROOT
ATOM      1  C   UNL     1       2.753   7.981   8.939  1.00  0.00     0.000 C 
ENDROOT
BRANCH   1   2
ATOM      2  C   UNL     1       2.293   7.436   7.578  1.00  0.00     0.000 C 
BRANCH   2   3
ATOM      3  C   UNL     1       2.402   5.906   7.485  1.00  0.00     0.000 C 
BRANCH   3   4
ATOM      4  C   UNL     1       3.496   5.376   8.421  1.00  0.00     0.000 C 
BRANCH   4   5
ATOM      5  C   UNL     1       4.450   4.432   7.674  1.00  0.00     0.000 C 
BRANCH   5   6
ATOM      6  C   UNL     1       5.694   5.155   7.133  1.00  0.00     0.006 C 
BRANCH   6   7
ATOM      7  C   UNL     1       6.030   6.426   7.925  1.00  0.00     0.053 C 
BRANCH   7   8
ATOM      8  C   UNL     1       6.378   7.544   6.994  1.00  0.00     0.041 C 
ATOM      9  O   UNL     1       5.626   8.551   6.904  1.00  0.00    -0.550 OA
ATOM     10  O   UNL     1       7.508   7.454   6.191  1.00  0.00    -0.550 OA
ENDBRANCH   7   8
ENDBRANCH   6   7
ENDBRANCH   5   6
ENDBRANCH   4   5
ENDBRANCH   3   4
ENDBRANCH   2   3
ENDBRANCH   1   2
BRANCH   1  11
ATOM     11  C   UNL     1       1.959   9.221   9.381  1.00  0.00     0.000 C 
BRANCH  11  12
ATOM     12  C   UNL     1       1.587   9.132  10.866  1.00  0.00    -0.000 C 
BRANCH  12  13
ATOM     13  C   UNL     1       1.876   7.731  11.424  1.00  0.00    -0.000 C 
BRANCH  13  14
ATOM     14  C   UNL     1       0.801   7.246  12.415  1.00  0.00    -0.000 C 
BRANCH  14  15
ATOM     15  C   UNL     1      -0.088   6.098  11.901  1.00  0.00    -0.000 C 
BRANCH  15  16
ATOM     16  C   UNL     1       0.363   5.469  10.568  1.00  0.00    -0.000 C 
BRANCH  16  17
ATOM     17  C   UNL     1      -0.731   5.469   9.479  1.00  0.00    -0.003 C 
ATOM     18  C   UNL     1      -1.185   6.878   9.098  1.00  0.00     0.004 C 
ENDBRANCH  16  17
ENDBRANCH  15  16
ENDBRANCH  14  15
ENDBRANCH  13  14
ENDBRANCH  12  13
ENDBRANCH  11  12
ENDBRANCH   1  11
TORSDOF 14
ENDMDL
MODEL 5
REMARK VINA RESULT:    -4.912      3.150      6.142
REMARK INTER + INTRA:         -11.361
REMARK INTER:                  -9.201
REMARK INTRA:                  -2.160
REMARK UNBOUND:                -2.429
REMARK SMILES CCCCCCCCCCCCCCCC(=O)[O-]
REMARK SMILES IDX 9 1 10 2 11 3 12 4 13 5 14 6 15 7 16 8 17 9 18 10 8 11 7 12
REMARK SMILES IDX 6 13 5 14 4 15 3 16 2 17 1 18
REMARK H PARENT
REMARK Flexibility Score: inf
ROOT
ATOM      1  C   UNL     1       3.270   4.971   7.540  1.00  0.00     0.000 C 
ENDROOT
BRANCH   1   2
ATOM      2  C   UNL     1       2.091   5.600   6.781  1.00  0.00     0.000 C 
BRANCH   2   3
ATOM      3  C   UNL     1       2.333   7.075   6.426  1.00  0.00     0.000 C 
BRANCH   3   4
ATOM      4  C   UNL     1       3.832   7.365   6.279  1.00  0.00     0.000 C 
BRANCH   4   5
ATOM      5  C   UNL     1       4.230   8.618   7.074  1.00  0.00     0.000 C 
BRANCH   5   6
ATOM      6  C   UNL     1       5.598   8.474   7.760  1.00  0.00     0.006 C 
BRANCH   6   7
ATOM      7  C   UNL     1       6.290   7.145   7.425  1.00  0.00     0.053 C 
BRANCH   7   8
ATOM      8  C   UNL     1       7.605   7.396   6.758  1.00  0.00     0.041 C 
ATOM      9  O   UNL     1       8.666   6.929   7.252  1.00  0.00    -0.550 OA
ATOM     10  O   UNL     1       7.667   8.185   5.616  1.00  0.00    -0.550 OA
ENDBRANCH   7   8
ENDBRANCH   6   7
ENDBRANCH   5   6
ENDBRANCH   4   5
ENDBRANCH   3   4
ENDBRANCH   2   3
ENDBRANCH   1   2
BRANCH   1  11
ATOM     11  C   UNL     1       3.054   4.951   9.061  1.00  0.00     0.000 C 
BRANCH  11  12
ATOM     12  C   UNL     1       1.629   4.501   9.406  1.00  0.00    -0.000 C 
BRANCH  12  13
ATOM     13  C   UNL     1       0.959   5.487  10.374  1.00  0.00    -0.000 C 
BRANCH  13  14
ATOM     14  C   UNL     1      -0.148   6.325   9.707  1.00  0.00    -0.000 C 
BRANCH  14  15
ATOM     15  C   UNL     1       0.181   7.820   9.536  1.00  0.00    -0.000 C 
BRANCH  15  16
ATOM     16  C   UNL     1       1.628   8.216   9.893  1.00  0.00    -0.000 C 
BRANCH  16  17
ATOM     17  C   UNL     1       1.724   9.290  10.998  1.00  0.00    -0.003 C 
ATOM     18  C   UNL     1       1.619   8.701  12.404  1.00  0.00     0.004 C 
ENDBRANCH  16  17
ENDBRANCH  15  16
ENDBRANCH  14  15
ENDBRANCH  13  14
ENDBRANCH  12  13
ENDBRANCH  11  12
ENDBRANCH   1  11
TORSDOF 14
ENDMDL
MODEL 6
REMARK VINA RESULT:    -4.911      1.457      3.063
REMARK INTER + INTRA:         -11.359
REMARK INTER:                  -9.147
REMARK INTRA:                  -2.212
REMARK UNBOUND:                -2.429
REMARK SMILES CCCCCCCCCCCCCCCC(=O)[O-]
REMARK SMILES IDX 9 1 10 2 11 3 12 4 13 5 14 6 15 7 16 8 17 9 18 10 8 11 7 12
REMARK SMILES IDX 6 13 5 14 4 15 3 16 2 17 1 18
REMARK H PARENT
REMARK Flexibility Score: inf
ROOT
ATOM      1  C   UNL     1       5.137   8.806   7.927  1.00  0.00     0.000 C 
ENDROOT
BRANCH   1   2
ATOM      2  C   UNL     1       3.933   8.165   8.633  1.00  0.00     0.000 C 
BRANCH   2   3
ATOM      3  C   UNL     1       2.893   7.611   7.647  1.00  0.00     0.000 C 
BRANCH   3   4
ATOM      4  C   UNL     1       2.760   6.089   7.787  1.00  0.00     0.000 C 
BRANCH   4   5
ATOM      5  C   UNL     1       3.170   5.628   9.194  1.00  0.00     0.000 C 
BRANCH   5   6
ATOM      6  C   UNL     1       1.988   5.063   9.998  1.00  0.00     0.006 C 
BRANCH   6   7
ATOM      7  C   UNL     1       1.118   6.163  10.620  1.00  0.00     0.053 C 
BRANCH   7   8
ATOM      8  C   UNL     1      -0.332   5.865  10.404  1.00  0.00     0.041 C 
ATOM      9  O   UNL     1      -0.839   5.979   9.256  1.00  0.00    -0.550 OA
ATOM     10  O   UNL     1      -1.136   5.505  11.479  1.00  0.00    -0.550 OA
ENDBRANCH   7   8
ENDBRANCH   6   7
ENDBRANCH   5   6
ENDBRANCH   4   5
ENDBRANCH   3   4
ENDBRANCH   2   3
ENDBRANCH   1   2
BRANCH   1  11
ATOM     11  C   UNL     1       5.072   8.669   6.398  1.00  0.00     0.000 C 
BRANCH  11  12
ATOM     12  C   UNL     1       6.478   8.560   5.797  1.00  0.00    -0.000 C 
BRANCH  12  13
ATOM     13  C   UNL     1       6.685   7.193   5.126  1.00  0.00    -0.000 C 
BRANCH  13  14
ATOM     14  C   UNL     1       5.683   6.129   5.611  1.00  0.00    -0.000 C 
BRANCH  14  15
ATOM     15  C   UNL     1       6.274   5.058   6.548  1.00  0.00    -0.000 C 
BRANCH  15  16
ATOM     16  C   UNL     1       6.729   5.575   7.927  1.00  0.00    -0.000 C 
BRANCH  16  17
ATOM     17  C   UNL     1       8.243   5.420   8.182  1.00  0.00    -0.003 C 
ATOM     18  C   UNL     1       9.026   6.697   7.878  1.00  0.00     0.004 C 
ENDBRANCH  16  17
ENDBRANCH  15  16
ENDBRANCH  14  15
ENDBRANCH  13  14
ENDBRANCH  12  13
ENDBRANCH  11  12
ENDBRANCH   1  11
TORSDOF 14
ENDMDL
MODEL 7
REMARK VINA RESULT:    -4.904      2.156      3.628
REMARK INTER + INTRA:         -11.347
REMARK INTER:                  -9.071
REMARK INTRA:                  -2.276
REMARK UNBOUND:                -2.429
REMARK SMILES CCCCCCCCCCCCCCCC(=O)[O-]
REMARK SMILES IDX 9 1 10 2 11 3 12 4 13 5 14 6 15 7 16 8 17 9 18 10 8 11 7 12
REMARK SMILES IDX 6 13 5 14 4 15 3 16 2 17 1 18
REMARK H PARENT
REMARK Flexibility Score: inf
ROOT
ATOM      1  C   UNL     1       3.594   5.352   7.269  1.00  0.00     0.000 C 
ENDROOT
BRANCH   1   2
ATOM      2  C   UNL     1       3.309   4.738   8.649  1.00  0.00     0.000 C 
BRANCH   2   3
ATOM      3  C   UNL     1       1.927   4.073   8.728  1.00  0.00     0.000 C 
BRANCH   3   4
ATOM      4  C   UNL     1       1.118   4.627   9.909  1.00  0.00     0.000 C 
BRANCH   4   5
ATOM      5  C   UNL     1       0.019   5.583   9.423  1.00  0.00     0.000 C 
BRANCH   5   6
ATOM      6  C   UNL     1       0.251   7.032   9.879  1.00  0.00     0.006 C 
BRANCH   6   7
ATOM      7  C   UNL     1       1.452   7.169  10.825  1.00  0.00     0.053 C 
BRANCH   7   8
ATOM      8  C   UNL     1       0.993   7.520  12.204  1.00  0.00     0.041 C 
ATOM      9  O   UNL     1       0.410   6.661  12.917  1.00  0.00    -0.550 OA
ATOM     10  O   UNL     1       1.167   8.812  12.687  1.00  0.00    -0.550 OA
ENDBRANCH   7   8
ENDBRANCH   6   7
ENDBRANCH   5   6
ENDBRANCH   4   5
ENDBRANCH   3   4
ENDBRANCH   2   3
ENDBRANCH   1   2
BRANCH   1  11
ATOM     11  C   UNL     1       2.340   5.954   6.616  1.00  0.00     0.000 C 
BRANCH  11  12
ATOM     12  C   UNL     1       2.584   7.410   6.201  1.00  0.00    -0.000 C 
BRANCH  12  13
ATOM     13  C   UNL     1       2.691   8.323   7.431  1.00  0.00    -0.000 C 
BRANCH  13  14
ATOM     14  C   UNL     1       3.876   9.303   7.349  1.00  0.00    -0.000 C 
BRANCH  14  15
ATOM     15  C   UNL     1       5.260   8.675   7.602  1.00  0.00    -0.000 C 
BRANCH  15  16
ATOM     16  C   UNL     1       6.181   8.602   6.369  1.00  0.00    -0.000 C 
BRANCH  16  17
ATOM     17  C   UNL     1       6.591   7.165   5.982  1.00  0.00    -0.003 C 
ATOM     18  C   UNL     1       6.044   6.743   4.618  1.00  0.00     0.004 C 
ENDBRANCH  16  17
ENDBRANCH  15  16
ENDBRANCH  14  15
ENDBRANCH  13  14
ENDBRANCH  12  13
ENDBRANCH  11  12
ENDBRANCH   1  11
TORSDOF 14
ENDMDL
MODEL 8
REMARK VINA RESULT:    -4.887      1.418      3.368
REMARK INTER + INTRA:         -11.315
REMARK INTER:                  -9.017
REMARK INTRA:                  -2.299
REMARK UNBOUND:                -2.429
REMARK SMILES CCCCCCCCCCCCCCCC(=O)[O-]
REMARK SMILES IDX 9 1 10 2 11 3 12 4 13 5 14 6 15 7 16 8 17 9 18 10 8 11 7 12
REMARK SMILES IDX 6 13 5 14 4 15 3 16 2 17 1 18
REMARK H PARENT
REMARK Flexibility Score: inf
ROOT
ATOM      1  C   UNL     1       6.796   4.366   7.558  1.00  0.00     0.000 C 
ENDROOT
BRANCH   1   2
ATOM      2  C   UNL     1       5.440   4.847   8.099  1.00  0.00     0.000 C 
BRANCH   2   3
ATOM      3  C   UNL     1       4.253   4.312   7.283  1.00  0.00     0.000 C 
BRANCH   3   4
ATOM      4  C   UNL     1       2.968   4.312   8.121  1.00  0.00     0.000 C 
BRANCH   4   5
ATOM      5  C   UNL     1       3.130   5.181   9.377  1.00  0.00     0.000 C 
BRANCH   5   6
ATOM      6  C   UNL     1       1.827   5.892   9.777  1.00  0.00     0.006 C 
BRANCH   6   7
ATOM      7  C   UNL     1       0.870   6.081   8.592  1.00  0.00     0.053 C 
BRANCH   7   8
ATOM      8  C   UNL     1      -0.548   5.909   9.035  1.00  0.00     0.041 C 
ATOM      9  O   UNL     1      -0.980   4.768   9.351  1.00  0.00    -0.550 OA
ATOM     10  O   UNL     1      -1.408   7.000   9.055  1.00  0.00    -0.550 OA
ENDBRANCH   7   8
ENDBRANCH   6   7
ENDBRANCH   5   6
ENDBRANCH   4   5
ENDBRANCH   3   4
ENDBRANCH   2   3
ENDBRANCH   1   2
BRANCH   1  11
ATOM     11  C   UNL     1       7.963   5.264   7.997  1.00  0.00     0.000 C 
BRANCH  11  12
ATOM     12  C   UNL     1       7.594   6.747   7.863  1.00  0.00    -0.000 C 
BRANCH  12  13
ATOM     13  C   UNL     1       8.227   7.360   6.605  1.00  0.00    -0.000 C 
BRANCH  13  14
ATOM     14  C   UNL     1       7.203   7.624   5.485  1.00  0.00    -0.000 C 
BRANCH  14  15
ATOM     15  C   UNL     1       5.964   8.433   5.914  1.00  0.00    -0.000 C 
BRANCH  15  16
ATOM     16  C   UNL     1       4.635   7.652   5.895  1.00  0.00    -0.000 C 
BRANCH  16  17
ATOM     17  C   UNL     1       3.638   8.094   6.987  1.00  0.00    -0.003 C 
ATOM     18  C   UNL     1       4.327   8.464   8.300  1.00  0.00     0.004 C 
ENDBRANCH  16  17
ENDBRANCH  15  16
ENDBRANCH  14  15
ENDBRANCH  13  14
ENDBRANCH  12  13
ENDBRANCH  11  12
ENDBRANCH   1  11
TORSDOF 14
ENDMDL
MODEL 9
REMARK VINA RESULT:    -4.871      2.939      6.465
REMARK INTER + INTRA:         -11.287
REMARK INTER:                  -9.016
REMARK INTRA:                  -2.270
REMARK UNBOUND:                -2.429
REMARK SMILES CCCCCCCCCCCCCCCC(=O)[O-]
REMARK SMILES IDX 9 1 10 2 11 3 12 4 13 5 14 6 15 7 16 8 17 9 18 10 8 11 7 12
REMARK SMILES IDX 6 13 5 14 4 15 3 16 2 17 1 18
REMARK H PARENT
REMARK Flexibility Score: inf
ROOT
ATOM      1  C   UNL     1       2.279   4.725   9.638  1.00  0.00     0.000 C 
ENDROOT
BRANCH   1   2
ATOM      2  C   UNL     1       2.594   4.590   8.140  1.00  0.00     0.000 C 
BRANCH   2   3
ATOM      3  C   UNL     1       3.489   5.724   7.617  1.00  0.00     0.000 C 
BRANCH   3   4
ATOM      4  C   UNL     1       4.192   6.445   8.775  1.00  0.00     0.000 C 
BRANCH   4   5
ATOM      5  C   UNL     1       4.482   7.911   8.416  1.00  0.00     0.000 C 
BRANCH   5   6
ATOM      6  C   UNL     1       4.681   8.121   6.906  1.00  0.00     0.006 C 
BRANCH   6   7
ATOM      7  C   UNL     1       6.075   8.663   6.564  1.00  0.00     0.053 C 
BRANCH   7   8
ATOM      8  C   UNL     1       6.719   7.817   5.511  1.00  0.00     0.041 C 
ATOM      9  O   UNL     1       7.942   7.958   5.244  1.00  0.00    -0.550 OA
ATOM     10  O   UNL     1       5.958   6.904   4.791  1.00  0.00    -0.550 OA
ENDBRANCH   7   8
ENDBRANCH   6   7
ENDBRANCH   5   6
ENDBRANCH   4   5
ENDBRANCH   3   4
ENDBRANCH   2   3
ENDBRANCH   1   2
BRANCH   1  11
ATOM     11  C   UNL     1       0.771   4.804   9.923  1.00  0.00     0.000 C 
BRANCH  11  12
ATOM     12  C   UNL     1       0.059   5.668   8.876  1.00  0.00    -0.000 C 
BRANCH  12  13
ATOM     13  C   UNL     1      -0.267   7.059   9.439  1.00  0.00    -0.000 C 
BRANCH  13  14
ATOM     14  C   UNL     1       0.829   8.100   9.139  1.00  0.00    -0.000 C 
BRANCH  14  15
ATOM     15  C   UNL     1       1.345   8.874  10.366  1.00  0.00    -0.000 C 
BRANCH  15  16
ATOM     16  C   UNL     1       1.930   7.999  11.493  1.00  0.00    -0.000 C 
BRANCH  16  17
ATOM     17  C   UNL     1       1.132   8.068  12.812  1.00  0.00    -0.003 C 
ATOM     18  C   UNL     1       0.412   6.758  13.135  1.00  0.00     0.004 C 
ENDBRANCH  16  17
ENDBRANCH  15  16
ENDBRANCH  14  15
ENDBRANCH  13  14
ENDBRANCH  12  13
ENDBRANCH  11  12
ENDBRANCH   1  11
TORSDOF 14
ENDMDL
