MODEL 1
REMARK VINA RESULT:    -5.082      0.000      0.000
REMARK INTER + INTRA:          -8.409
REMARK INTER:                  -8.053
REMARK INTRA:                  -0.356
REMARK UNBOUND:                -0.356
REMARK SMILES CCCCCCCCCCCC(=O)[O-]
REMARK SMILES IDX 7 1 8 2 9 3 10 4 11 5 12 6 13 7 14 8 6 9 5 10 4 11 3 12 2 13
REMARK SMILES IDX 1 14
REMARK H PARENT
REMARK Flexibility Score: inf
ROOT
ATOM      1  C   UNL     1      59.006 143.703 -31.002  1.00  0.00     0.000 C 
ENDROOT
BRANCH   1   2
ATOM      2  C   UNL     1      58.099 144.252 -29.889  1.00  0.00     0.000 C 
BRANCH   2   3
ATOM      3  C   UNL     1      56.697 143.620 -29.907  1.00  0.00     0.000 C 
BRANCH   3   4
ATOM      4  C   UNL     1      55.796 144.137 -28.771  1.00  0.00     0.006 C 
BRANCH   4   5
ATOM      5  C   UNL     1      56.415 144.022 -27.368  1.00  0.00     0.053 C 
BRANCH   5   6
ATOM      6  C   UNL     1      55.401 144.244 -26.289  1.00  0.00     0.041 C 
ATOM      7  O   UNL     1      55.578 143.755 -25.142  1.00  0.00    -0.550 OA
ATOM      8  O   UNL     1      54.245 144.965 -26.558  1.00  0.00    -0.550 OA
ENDBRANCH   5   6
ENDBRANCH   4   5
ENDBRANCH   3   4
ENDBRANCH   2   3
ENDBRANCH   1   2
BRANCH   1   9
ATOM      9  C   UNL     1      58.904 144.514 -32.306  1.00  0.00     0.000 C 
BRANCH   9  10
ATOM     10  C   UNL     1      60.046 144.206 -33.291  1.00  0.00    -0.000 C 
BRANCH  10  11
ATOM     11  C   UNL     1      60.192 145.214 -34.446  1.00  0.00    -0.000 C 
BRANCH  11  12
ATOM     12  C   UNL     1      59.372 146.496 -34.227  1.00  0.00    -0.000 C 
BRANCH  12  13
ATOM     13  C   UNL     1      60.215 147.642 -33.646  1.00  0.00    -0.003 C 
ATOM     14  C   UNL     1      60.494 148.744 -34.669  1.00  0.00     0.004 C 
ENDBRANCH  12  13
ENDBRANCH  11  12
ENDBRANCH  10  11
ENDBRANCH   9  10
ENDBRANCH   1   9
TORSDOF 10
ENDMDL
MODEL 2
REMARK VINA RESULT:    -4.714      1.592      2.863
REMARK INTER + INTRA:          -7.825
REMARK INTER:                  -7.441
REMARK INTRA:                  -0.384
REMARK UNBOUND:                -0.356
REMARK SMILES CCCCCCCCCCCC(=O)[O-]
REMARK SMILES IDX 7 1 8 2 9 3 10 4 11 5 12 6 13 7 14 8 6 9 5 10 4 11 3 12 2 13
REMARK SMILES IDX 1 14
REMARK H PARENT
REMARK Flexibility Score: inf
ROOT
ATOM      1  C   UNL     1      56.886 143.994 -28.924  1.00  0.00     0.000 C 
ENDROOT
BRANCH   1   2
ATOM      2  C   UNL     1      55.414 143.628 -28.675  1.00  0.00     0.000 C 
BRANCH   2   3
ATOM      3  C   UNL     1      55.158 143.163 -27.231  1.00  0.00     0.000 C 
BRANCH   3   4
ATOM      4  C   UNL     1      55.479 144.251 -26.191  1.00  0.00     0.006 C 
BRANCH   4   5
ATOM      5  C   UNL     1      55.636 143.728 -24.753  1.00  0.00     0.053 C 
BRANCH   5   6
ATOM      6  C   UNL     1      54.490 144.135 -23.880  1.00  0.00     0.041 C 
ATOM      7  O   UNL     1      54.385 145.325 -23.485  1.00  0.00    -0.550 OA
ATOM      8  O   UNL     1      53.554 143.191 -23.477  1.00  0.00    -0.550 OA
ENDBRANCH   5   6
ENDBRANCH   4   5
ENDBRANCH   3   4
ENDBRANCH   2   3
ENDBRANCH   1   2
BRANCH   1   9
ATOM      9  C   UNL     1      57.353 143.644 -30.349  1.00  0.00     0.000 C 
BRANCH   9  10
ATOM     10  C   UNL     1      58.761 144.182 -30.664  1.00  0.00    -0.000 C 
BRANCH  10  11
ATOM     11  C   UNL     1      59.538 143.376 -31.720  1.00  0.00    -0.000 C 
BRANCH  11  12
ATOM     12  C   UNL     1      59.898 144.210 -32.962  1.00  0.00    -0.000 C 
BRANCH  12  13
ATOM     13  C   UNL     1      59.153 145.553 -33.005  1.00  0.00    -0.003 C 
ATOM     14  C   UNL     1      60.100 146.748 -33.108  1.00  0.00     0.004 C 
ENDBRANCH  12  13
ENDBRANCH  11  12
ENDBRANCH  10  11
ENDBRANCH   9  10
ENDBRANCH   1   9
TORSDOF 10
ENDMDL
MODEL 3
REMARK VINA RESULT:    -4.410      4.102      8.057
REMARK INTER + INTRA:          -7.344
REMARK INTER:                  -6.888
REMARK INTRA:                  -0.456
REMARK UNBOUND:                -0.356
REMARK SMILES CCCCCCCCCCCC(=O)[O-]
REMARK SMILES IDX 7 1 8 2 9 3 10 4 11 5 12 6 13 7 14 8 6 9 5 10 4 11 3 12 2 13
REMARK SMILES IDX 1 14
REMARK H PARENT
REMARK Flexibility Score: inf
ROOT
ATOM      1  C   UNL     1      56.916 143.775 -30.506  1.00  0.00     0.000 C 
ENDROOT
BRANCH   1   2
ATOM      2  C   UNL     1      58.433 143.953 -30.332  1.00  0.00     0.000 C 
BRANCH   2   3
ATOM      3  C   UNL     1      59.205 143.731 -31.643  1.00  0.00     0.000 C 
BRANCH   3   4
ATOM      4  C   UNL     1      59.085 144.920 -32.614  1.00  0.00     0.006 C 
BRANCH   4   5
ATOM      5  C   UNL     1      60.099 144.901 -33.769  1.00  0.00     0.053 C 
BRANCH   5   6
ATOM      6  C   UNL     1      61.088 146.020 -33.664  1.00  0.00     0.041 C 
ATOM      7  O   UNL     1      62.290 145.779 -33.375  1.00  0.00    -0.550 OA
ATOM      8  O   UNL     1      60.676 147.333 -33.854  1.00  0.00    -0.550 OA
ENDBRANCH   5   6
ENDBRANCH   4   5
ENDBRANCH   3   4
ENDBRANCH   2   3
ENDBRANCH   1   2
BRANCH   1   9
ATOM      9  C   UNL     1      56.169 143.692 -29.162  1.00  0.00     0.000 C 
BRANCH   9  10
ATOM     10  C   UNL     1      56.873 144.475 -28.039  1.00  0.00    -0.000 C 
BRANCH  10  11
ATOM     11  C   UNL     1      56.491 144.041 -26.612  1.00  0.00    -0.000 C 
BRANCH  11  12
ATOM     12  C   UNL     1      55.580 142.801 -26.588  1.00  0.00    -0.000 C 
BRANCH  12  13
ATOM     13  C   UNL     1      55.654 142.042 -25.255  1.00  0.00    -0.003 C 
ATOM     14  C   UNL     1      56.107 142.930 -24.096  1.00  0.00     0.004 C 
ENDBRANCH  12  13
ENDBRANCH  11  12
ENDBRANCH  10  11
ENDBRANCH   9  10
ENDBRANCH   1   9
TORSDOF 10
ENDMDL
MODEL 4
REMARK VINA RESULT:    -4.354      4.031      8.417
REMARK INTER + INTRA:          -7.256
REMARK INTER:                  -6.889
REMARK INTRA:                  -0.367
REMARK UNBOUND:                -0.356
REMARK SMILES CCCCCCCCCCCC(=O)[O-]
REMARK SMILES IDX 7 1 8 2 9 3 10 4 11 5 12 6 13 7 14 8 6 9 5 10 4 11 3 12 2 13
REMARK SMILES IDX 1 14
REMARK H PARENT
REMARK Flexibility Score: inf
ROOT
ATOM      1  C   UNL     1      56.138 144.255 -28.382  1.00  0.00     0.000 C 
ENDROOT
BRANCH   1   2
ATOM      2  C   UNL     1      56.747 143.740 -29.697  1.00  0.00     0.000 C 
BRANCH   2   3
ATOM      3  C   UNL     1      58.200 144.208 -29.896  1.00  0.00     0.000 C 
BRANCH   3   4
ATOM      4  C   UNL     1      58.825 143.670 -31.195  1.00  0.00     0.006 C 
BRANCH   4   5
ATOM      5  C   UNL     1      59.042 144.734 -32.283  1.00  0.00     0.053 C 
BRANCH   5   6
ATOM      6  C   UNL     1      60.120 144.340 -33.245  1.00  0.00     0.041 C 
ATOM      7  O   UNL     1      60.203 143.151 -33.652  1.00  0.00    -0.550 OA
ATOM      8  O   UNL     1      61.052 145.278 -33.668  1.00  0.00    -0.550 OA
ENDBRANCH   5   6
ENDBRANCH   4   5
ENDBRANCH   3   4
ENDBRANCH   2   3
ENDBRANCH   1   2
BRANCH   1   9
ATOM      9  C   UNL     1      55.110 143.280 -27.782  1.00  0.00     0.000 C 
BRANCH   9  10
ATOM     10  C   UNL     1      55.562 142.693 -26.432  1.00  0.00    -0.000 C 
BRANCH  10  11
ATOM     11  C   UNL     1      56.044 143.734 -25.405  1.00  0.00    -0.000 C 
BRANCH  11  12
ATOM     12  C   UNL     1      55.111 143.850 -24.188  1.00  0.00    -0.000 C 
BRANCH  12  13
ATOM     13  C   UNL     1      54.224 145.104 -24.245  1.00  0.00    -0.003 C 
ATOM     14  C   UNL     1      53.303 145.228 -23.031  1.00  0.00     0.004 C 
ENDBRANCH  12  13
ENDBRANCH  11  12
ENDBRANCH  10  11
ENDBRANCH   9  10
ENDBRANCH   1   9
TORSDOF 10
ENDMDL
MODEL 5
REMARK VINA RESULT:    -4.145     11.750     12.467
REMARK INTER + INTRA:          -6.924
REMARK INTER:                  -6.433
REMARK INTRA:                  -0.492
REMARK UNBOUND:                -0.356
REMARK SMILES CCCCCCCCCCCC(=O)[O-]
REMARK SMILES IDX 7 1 8 2 9 3 10 4 11 5 12 6 13 7 14 8 6 9 5 10 4 11 3 12 2 13
REMARK SMILES IDX 1 14
REMARK H PARENT
REMARK Flexibility Score: inf
ROOT
ATOM      1  C   UNL     1      49.338 154.853 -28.672  1.00  0.00     0.000 C 
ENDROOT
BRANCH   1   2
ATOM      2  C   UNL     1      50.025 155.371 -27.398  1.00  0.00     0.000 C 
BRANCH   2   3
ATOM      3  C   UNL     1      51.087 154.395 -26.863  1.00  0.00     0.000 C 
BRANCH   3   4
ATOM      4  C   UNL     1      51.387 154.604 -25.368  1.00  0.00     0.006 C 
BRANCH   4   5
ATOM      5  C   UNL     1      51.632 153.305 -24.583  1.00  0.00     0.053 C 
BRANCH   5   6
ATOM      6  C   UNL     1      50.491 152.977 -23.671  1.00  0.00     0.041 C 
ATOM      7  O   UNL     1      49.309 153.242 -24.014  1.00  0.00    -0.550 OA
ATOM      8  O   UNL     1      50.735 152.407 -22.428  1.00  0.00    -0.550 OA
ENDBRANCH   5   6
ENDBRANCH   4   5
ENDBRANCH   3   4
ENDBRANCH   2   3
ENDBRANCH   1   2
BRANCH   1   9
ATOM      9  C   UNL     1      50.037 153.615 -29.262  1.00  0.00     0.000 C 
BRANCH   9  10
ATOM     10  C   UNL     1      49.101 152.763 -30.139  1.00  0.00    -0.000 C 
BRANCH  10  11
ATOM     11  C   UNL     1      48.791 153.363 -31.523  1.00  0.00    -0.000 C 
BRANCH  11  12
ATOM     12  C   UNL     1      49.998 154.085 -32.145  1.00  0.00    -0.000 C 
BRANCH  12  13
ATOM     13  C   UNL     1      50.181 153.749 -33.634  1.00  0.00    -0.003 C 
ATOM     14  C   UNL     1      48.900 153.224 -34.280  1.00  0.00     0.004 C 
ENDBRANCH  12  13
ENDBRANCH  11  12
ENDBRANCH  10  11
ENDBRANCH   9  10
ENDBRANCH   1   9
TORSDOF 10
ENDMDL
MODEL 6
REMARK VINA RESULT:    -4.124      2.017      3.699
REMARK INTER + INTRA:          -6.891
REMARK INTER:                  -6.548
REMARK INTRA:                  -0.343
REMARK UNBOUND:                -0.356
REMARK SMILES CCCCCCCCCCCC(=O)[O-]
REMARK SMILES IDX 7 1 8 2 9 3 10 4 11 5 12 6 13 7 14 8 6 9 5 10 4 11 3 12 2 13
REMARK SMILES IDX 1 14
REMARK H PARENT
REMARK Flexibility Score: inf
ROOT
ATOM      1  C   UNL     1      56.614 144.364 -28.258  1.00  0.00     0.000 C 
ENDROOT
BRANCH   1   2
ATOM      2  C   UNL     1      55.623 143.614 -27.354  1.00  0.00     0.000 C 
BRANCH   2   3
ATOM      3  C   UNL     1      55.328 144.372 -26.048  1.00  0.00     0.000 C 
BRANCH   3   4
ATOM      4  C   UNL     1      55.305 143.450 -24.816  1.00  0.00     0.006 C 
BRANCH   4   5
ATOM      5  C   UNL     1      55.646 141.981 -25.117  1.00  0.00     0.053 C 
BRANCH   5   6
ATOM      6  C   UNL     1      54.637 141.041 -24.535  1.00  0.00     0.041 C 
ATOM      7  O   UNL     1      53.431 141.106 -24.889  1.00  0.00    -0.550 OA
ATOM      8  O   UNL     1      55.023 140.112 -23.577  1.00  0.00    -0.550 OA
ENDBRANCH   5   6
ENDBRANCH   4   5
ENDBRANCH   3   4
ENDBRANCH   2   3
ENDBRANCH   1   2
BRANCH   1   9
ATOM      9  C   UNL     1      56.768 143.708 -29.643  1.00  0.00     0.000 C 
BRANCH   9  10
ATOM     10  C   UNL     1      58.192 143.844 -30.212  1.00  0.00    -0.000 C 
BRANCH  10  11
ATOM     11  C   UNL     1      58.259 144.268 -31.690  1.00  0.00    -0.000 C 
BRANCH  11  12
ATOM     12  C   UNL     1      59.643 144.033 -32.318  1.00  0.00    -0.000 C 
BRANCH  12  13
ATOM     13  C   UNL     1      59.929 144.986 -33.488  1.00  0.00    -0.003 C 
ATOM     14  C   UNL     1      59.808 146.457 -33.092  1.00  0.00     0.004 C 
ENDBRANCH  12  13
ENDBRANCH  11  12
ENDBRANCH  10  11
ENDBRANCH   9  10
ENDBRANCH   1   9
TORSDOF 10
ENDMDL
MODEL 7
REMARK VINA RESULT:    -4.007     12.439     13.665
REMARK INTER + INTRA:          -6.705
REMARK INTER:                  -5.344
REMARK INTRA:                  -1.361
REMARK UNBOUND:                -0.356
REMARK SMILES CCCCCCCCCCCC(=O)[O-]
REMARK SMILES IDX 7 1 8 2 9 3 10 4 11 5 12 6 13 7 14 8 6 9 5 10 4 11 3 12 2 13
REMARK SMILES IDX 1 14
REMARK H PARENT
REMARK Flexibility Score: inf
ROOT
ATOM      1  C   UNL     1      50.924 156.645 -26.861  1.00  0.00     0.000 C 
ENDROOT
BRANCH   1   2
ATOM      2  C   UNL     1      50.587 155.259 -26.287  1.00  0.00     0.000 C 
BRANCH   2   3
ATOM      3  C   UNL     1      51.805 154.318 -26.268  1.00  0.00     0.000 C 
BRANCH   3   4
ATOM      4  C   UNL     1      52.025 153.659 -24.895  1.00  0.00     0.006 C 
BRANCH   4   5
ATOM      5  C   UNL     1      51.018 154.088 -23.815  1.00  0.00     0.053 C 
BRANCH   5   6
ATOM      6  C   UNL     1      50.308 152.915 -23.213  1.00  0.00     0.041 C 
ATOM      7  O   UNL     1      49.319 152.403 -23.799  1.00  0.00    -0.550 OA
ATOM      8  O   UNL     1      50.721 152.407 -21.987  1.00  0.00    -0.550 OA
ENDBRANCH   5   6
ENDBRANCH   4   5
ENDBRANCH   3   4
ENDBRANCH   2   3
ENDBRANCH   1   2
BRANCH   1   9
ATOM      9  C   UNL     1      51.081 157.718 -25.769  1.00  0.00     0.000 C 
BRANCH   9  10
ATOM     10  C   UNL     1      52.546 157.926 -25.344  1.00  0.00    -0.000 C 
BRANCH  10  11
ATOM     11  C   UNL     1      53.581 157.687 -26.458  1.00  0.00    -0.000 C 
BRANCH  11  12
ATOM     12  C   UNL     1      54.758 156.808 -26.001  1.00  0.00    -0.000 C 
BRANCH  12  13
ATOM     13  C   UNL     1      54.606 156.330 -24.548  1.00  0.00    -0.003 C 
ATOM     14  C   UNL     1      55.725 156.842 -23.641  1.00  0.00     0.004 C 
ENDBRANCH  12  13
ENDBRANCH  11  12
ENDBRANCH  10  11
ENDBRANCH   9  10
ENDBRANCH   1   9
TORSDOF 10
ENDMDL
MODEL 8
REMARK VINA RESULT:    -4.001      5.874      8.780
REMARK INTER + INTRA:          -6.697
REMARK INTER:                  -5.562
REMARK INTRA:                  -1.135
REMARK UNBOUND:                -0.356
REMARK SMILES CCCCCCCCCCCC(=O)[O-]
REMARK SMILES IDX 7 1 8 2 9 3 10 4 11 5 12 6 13 7 14 8 6 9 5 10 4 11 3 12 2 13
REMARK SMILES IDX 1 14
REMARK H PARENT
REMARK Flexibility Score: inf
ROOT
ATOM      1  C   UNL     1      55.534 140.671 -23.519  1.00  0.00     0.000 C 
ENDROOT
BRANCH   1   2
ATOM      2  C   UNL     1      54.719 141.594 -24.440  1.00  0.00     0.000 C 
BRANCH   2   3
ATOM      3  C   UNL     1      54.701 143.051 -23.946  1.00  0.00     0.000 C 
BRANCH   3   4
ATOM      4  C   UNL     1      55.489 144.001 -24.866  1.00  0.00     0.006 C 
BRANCH   4   5
ATOM      5  C   UNL     1      55.978 143.358 -26.174  1.00  0.00     0.053 C 
BRANCH   5   6
ATOM      6  C   UNL     1      55.346 143.986 -27.377  1.00  0.00     0.041 C 
ATOM      7  O   UNL     1      55.973 144.851 -28.044  1.00  0.00    -0.550 OA
ATOM      8  O   UNL     1      54.052 143.640 -27.744  1.00  0.00    -0.550 OA
ENDBRANCH   5   6
ENDBRANCH   4   5
ENDBRANCH   3   4
ENDBRANCH   2   3
ENDBRANCH   1   2
BRANCH   1   9
ATOM      9  C   UNL     1      56.940 140.371 -24.071  1.00  0.00     0.000 C 
BRANCH   9  10
ATOM     10  C   UNL     1      58.060 140.754 -23.087  1.00  0.00    -0.000 C 
BRANCH  10  11
ATOM     11  C   UNL     1      57.646 141.759 -21.996  1.00  0.00    -0.000 C 
BRANCH  11  12
ATOM     12  C   UNL     1      58.017 143.210 -22.348  1.00  0.00    -0.000 C 
BRANCH  12  13
ATOM     13  C   UNL     1      59.080 143.791 -21.403  1.00  0.00    -0.003 C 
ATOM     14  C   UNL     1      60.420 144.027 -22.099  1.00  0.00     0.004 C 
ENDBRANCH  12  13
ENDBRANCH  11  12
ENDBRANCH  10  11
ENDBRANCH   9  10
ENDBRANCH   1   9
TORSDOF 10
ENDMDL
MODEL 9
REMARK VINA RESULT:    -3.954      5.679      7.980
REMARK INTER + INTRA:          -6.621
REMARK INTER:                  -5.559
REMARK INTRA:                  -1.062
REMARK UNBOUND:                -0.356
REMARK SMILES CCCCCCCCCCCC(=O)[O-]
REMARK SMILES IDX 7 1 8 2 9 3 10 4 11 5 12 6 13 7 14 8 6 9 5 10 4 11 3 12 2 13
REMARK SMILES IDX 1 14
REMARK H PARENT
REMARK Flexibility Score: inf
ROOT
ATOM      1  C   UNL     1      56.217 140.384 -24.964  1.00  0.00     0.000 C 
ENDROOT
BRANCH   1   2
ATOM      2  C   UNL     1      56.307 140.413 -23.429  1.00  0.00     0.000 C 
BRANCH   2   3
ATOM      3  C   UNL     1      57.729 140.719 -22.928  1.00  0.00     0.000 C 
BRANCH   3   4
ATOM      4  C   UNL     1      57.770 141.898 -21.939  1.00  0.00     0.006 C 
BRANCH   4   5
ATOM      5  C   UNL     1      58.172 143.242 -22.568  1.00  0.00     0.053 C 
BRANCH   5   6
ATOM      6  C   UNL     1      59.275 143.909 -21.808  1.00  0.00     0.041 C 
ATOM      7  O   UNL     1      60.465 143.524 -21.947  1.00  0.00    -0.550 OA
ATOM      8  O   UNL     1      58.984 144.937 -20.919  1.00  0.00    -0.550 OA
ENDBRANCH   5   6
ENDBRANCH   4   5
ENDBRANCH   3   4
ENDBRANCH   2   3
ENDBRANCH   1   2
BRANCH   1   9
ATOM      9  C   UNL     1      55.227 141.423 -25.521  1.00  0.00     0.000 C 
BRANCH   9  10
ATOM     10  C   UNL     1      55.058 142.642 -24.596  1.00  0.00    -0.000 C 
BRANCH  10  11
ATOM     11  C   UNL     1      55.459 143.989 -25.226  1.00  0.00    -0.000 C 
BRANCH  11  12
ATOM     12  C   UNL     1      56.353 143.826 -26.467  1.00  0.00    -0.000 C 
BRANCH  12  13
ATOM     13  C   UNL     1      55.704 144.394 -27.738  1.00  0.00    -0.003 C 
ATOM     14  C   UNL     1      55.457 143.323 -28.801  1.00  0.00     0.004 C 
ENDBRANCH  12  13
ENDBRANCH  11  12
ENDBRANCH  10  11
ENDBRANCH   9  10
ENDBRANCH   1   9
TORSDOF 10
ENDMDL
