MODEL 1
REMARK VINA RESULT:    -1.372      0.000      0.000
REMARK INTER + INTRA:          -3.679
REMARK INTER:                  -3.136
REMARK INTRA:                  -0.543
REMARK UNBOUND:                -0.543
REMARK SMILES CCCCCCCCCCCCCCCCCCCCCCCC(=O)[O-]
REMARK SMILES IDX 13 1 14 2 15 3 16 4 17 5 18 6 19 7 20 8 21 9 22 10 23 11
REMARK SMILES IDX 24 12 25 13 26 14 12 15 11 16 10 17 9 18 8 19 7 20 6 21 5 22
REMARK SMILES IDX 4 23 3 24 2 25 1 26
REMARK H PARENT
REMARK Flexibility Score: inf
ROOT
ATOM      1  C   UNL     1      34.429  29.553  19.336  1.00  0.00     0.000 C 
ENDROOT
BRANCH   1   2
ATOM      2  C   UNL     1      34.646  28.845  17.987  1.00  0.00     0.000 C 
BRANCH   2   3
ATOM      3  C   UNL     1      35.890  27.944  17.979  1.00  0.00     0.000 C 
BRANCH   3   4
ATOM      4  C   UNL     1      36.892  28.332  16.878  1.00  0.00     0.000 C 
BRANCH   4   5
ATOM      5  C   UNL     1      36.999  27.272  15.767  1.00  0.00     0.000 C 
BRANCH   5   6
ATOM      6  C   UNL     1      35.693  27.004  14.991  1.00  0.00     0.000 C 
BRANCH   6   7
ATOM      7  C   UNL     1      35.738  27.458  13.516  1.00  0.00     0.000 C 
BRANCH   7   8
ATOM      8  C   UNL     1      34.555  26.910  12.700  1.00  0.00     0.000 C 
BRANCH   8   9
ATOM      9  C   UNL     1      34.363  27.709  11.404  1.00  0.00     0.000 C 
BRANCH   9  10
ATOM     10  C   UNL     1      34.014  29.174  11.707  1.00  0.00     0.006 C 
BRANCH  10  11
ATOM     11  C   UNL     1      32.597  29.326  12.280  1.00  0.00     0.053 C 
BRANCH  11  12
ATOM     12  C   UNL     1      32.607  29.985  13.626  1.00  0.00     0.041 C 
ATOM     13  O   UNL     1      32.502  31.236  13.720  1.00  0.00    -0.550 OA
ATOM     14  O   UNL     1      32.757  29.216  14.775  1.00  0.00    -0.550 OA
ENDBRANCH  11  12
ENDBRANCH  10  11
ENDBRANCH   9  10
ENDBRANCH   8   9
ENDBRANCH   7   8
ENDBRANCH   6   7
ENDBRANCH   5   6
ENDBRANCH   4   5
ENDBRANCH   3   4
ENDBRANCH   2   3
ENDBRANCH   1   2
BRANCH   1  15
ATOM     15  C   UNL     1      34.231  28.559  20.500  1.00  0.00     0.000 C 
BRANCH  15  16
ATOM     16  C   UNL     1      35.281  27.433  20.547  1.00  0.00     0.000 C 
BRANCH  16  17
ATOM     17  C   UNL     1      36.606  27.801  21.242  1.00  0.00     0.000 C 
BRANCH  17  18
ATOM     18  C   UNL     1      37.021  26.875  22.405  1.00  0.00    -0.000 C 
BRANCH  18  19
ATOM     19  C   UNL     1      36.746  27.430  23.813  1.00  0.00    -0.000 C 
BRANCH  19  20
ATOM     20  C   UNL     1      35.539  28.378  23.859  1.00  0.00    -0.000 C 
BRANCH  20  21
ATOM     21  C   UNL     1      35.766  29.496  24.884  1.00  0.00    -0.000 C 
BRANCH  21  22
ATOM     22  C   UNL     1      37.115  30.190  24.656  1.00  0.00    -0.000 C 
BRANCH  22  23
ATOM     23  C   UNL     1      36.982  31.711  24.815  1.00  0.00    -0.000 C 
BRANCH  23  24
ATOM     24  C   UNL     1      36.642  32.420  23.494  1.00  0.00    -0.000 C 
BRANCH  24  25
ATOM     25  C   UNL     1      36.957  33.924  23.531  1.00  0.00    -0.003 C 
ATOM     26  C   UNL     1      36.757  34.493  24.934  1.00  0.00     0.004 C 
ENDBRANCH  24  25
ENDBRANCH  23  24
ENDBRANCH  22  23
ENDBRANCH  21  22
ENDBRANCH  20  21
ENDBRANCH  19  20
ENDBRANCH  18  19
ENDBRANCH  17  18
ENDBRANCH  16  17
ENDBRANCH  15  16
ENDBRANCH   1  15
TORSDOF 22
ENDMDL
MODEL 2
REMARK VINA RESULT:    -0.919      1.605      3.064
REMARK INTER + INTRA:          -2.644
REMARK INTER:                  -2.012
REMARK INTRA:                  -0.632
REMARK UNBOUND:                -0.543
REMARK SMILES CCCCCCCCCCCCCCCCCCCCCCCC(=O)[O-]
REMARK SMILES IDX 13 1 14 2 15 3 16 4 17 5 18 6 19 7 20 8 21 9 22 10 23 11
REMARK SMILES IDX 24 12 25 13 26 14 12 15 11 16 10 17 9 18 8 19 7 20 6 21 5 22
REMARK SMILES IDX 4 23 3 24 2 25 1 26
REMARK H PARENT
REMARK Flexibility Score: inf
ROOT
ATOM      1  C   UNL     1      34.480  28.369  16.812  1.00  0.00     0.000 C 
ENDROOT
BRANCH   1   2
ATOM      2  C   UNL     1      35.566  28.932  15.878  1.00  0.00     0.000 C 
BRANCH   2   3
ATOM      3  C   UNL     1      36.791  28.011  15.765  1.00  0.00     0.000 C 
BRANCH   3   4
ATOM      4  C   UNL     1      36.642  26.968  14.643  1.00  0.00     0.000 C 
BRANCH   4   5
ATOM      5  C   UNL     1      35.432  27.240  13.731  1.00  0.00     0.000 C 
BRANCH   5   6
ATOM      6  C   UNL     1      35.637  26.875  12.246  1.00  0.00     0.000 C 
BRANCH   6   7
ATOM      7  C   UNL     1      34.398  27.132  11.362  1.00  0.00     0.000 C 
BRANCH   7   8
ATOM      8  C   UNL     1      33.829  28.548  11.550  1.00  0.00     0.000 C 
BRANCH   8   9
ATOM      9  C   UNL     1      33.070  28.666  12.877  1.00  0.00     0.000 C 
BRANCH   9  10
ATOM     10  C   UNL     1      32.687  30.126  13.165  1.00  0.00     0.006 C 
BRANCH  10  11
ATOM     11  C   UNL     1      31.198  30.397  12.903  1.00  0.00     0.053 C 
BRANCH  11  12
ATOM     12  C   UNL     1      30.896  31.864  12.870  1.00  0.00     0.041 C 
ATOM     13  O   UNL     1      29.860  32.286  12.292  1.00  0.00    -0.550 OA
ATOM     14  O   UNL     1      31.773  32.768  13.460  1.00  0.00    -0.550 OA
ENDBRANCH  11  12
ENDBRANCH  10  11
ENDBRANCH   9  10
ENDBRANCH   8   9
ENDBRANCH   7   8
ENDBRANCH   6   7
ENDBRANCH   5   6
ENDBRANCH   4   5
ENDBRANCH   3   4
ENDBRANCH   2   3
ENDBRANCH   1   2
BRANCH   1  15
ATOM     15  C   UNL     1      35.068  27.521  17.959  1.00  0.00     0.000 C 
BRANCH  15  16
ATOM     16  C   UNL     1      36.309  28.144  18.626  1.00  0.00     0.000 C 
BRANCH  16  17
ATOM     17  C   UNL     1      36.681  27.555  20.000  1.00  0.00     0.000 C 
BRANCH  17  18
ATOM     18  C   UNL     1      36.518  28.517  21.196  1.00  0.00    -0.000 C 
BRANCH  18  19
ATOM     19  C   UNL     1      36.643  30.012  20.855  1.00  0.00    -0.000 C 
BRANCH  19  20
ATOM     20  C   UNL     1      36.066  30.926  21.945  1.00  0.00    -0.000 C 
BRANCH  20  21
ATOM     21  C   UNL     1      37.117  31.213  23.024  1.00  0.00    -0.000 C 
BRANCH  21  22
ATOM     22  C   UNL     1      36.470  31.805  24.283  1.00  0.00    -0.000 C 
BRANCH  22  23
ATOM     23  C   UNL     1      35.807  30.706  25.125  1.00  0.00    -0.000 C 
BRANCH  23  24
ATOM     24  C   UNL     1      36.359  29.305  24.817  1.00  0.00    -0.000 C 
BRANCH  24  25
ATOM     25  C   UNL     1      35.255  28.239  24.731  1.00  0.00    -0.003 C 
ATOM     26  C   UNL     1      33.932  28.852  24.279  1.00  0.00     0.004 C 
ENDBRANCH  24  25
ENDBRANCH  23  24
ENDBRANCH  22  23
ENDBRANCH  21  22
ENDBRANCH  20  21
ENDBRANCH  19  20
ENDBRANCH  18  19
ENDBRANCH  17  18
ENDBRANCH  16  17
ENDBRANCH  15  16
ENDBRANCH   1  15
TORSDOF 22
ENDMDL
MODEL 3
REMARK VINA RESULT:    -0.147      3.380      6.052
REMARK INTER + INTRA:          -0.879
REMARK INTER:                  -0.913
REMARK INTRA:                   0.034
REMARK UNBOUND:                -0.543
REMARK SMILES CCCCCCCCCCCCCCCCCCCCCCCC(=O)[O-]
REMARK SMILES IDX 13 1 14 2 15 3 16 4 17 5 18 6 19 7 20 8 21 9 22 10 23 11
REMARK SMILES IDX 24 12 25 13 26 14 12 15 11 16 10 17 9 18 8 19 7 20 6 21 5 22
REMARK SMILES IDX 4 23 3 24 2 25 1 26
REMARK H PARENT
REMARK Flexibility Score: inf
ROOT
ATOM      1  C   UNL     1      35.385  29.194  23.833  1.00  0.00     0.000 C 
ENDROOT
BRANCH   1   2
ATOM      2  C   UNL     1      35.494  28.930  22.321  1.00  0.00     0.000 C 
BRANCH   2   3
ATOM      3  C   UNL     1      36.806  28.233  21.931  1.00  0.00     0.000 C 
BRANCH   3   4
ATOM      4  C   UNL     1      36.731  27.568  20.545  1.00  0.00     0.000 C 
BRANCH   4   5
ATOM      5  C   UNL     1      35.299  27.156  20.158  1.00  0.00     0.000 C 
BRANCH   5   6
ATOM      6  C   UNL     1      34.375  28.319  19.739  1.00  0.00     0.000 C 
BRANCH   6   7
ATOM      7  C   UNL     1      34.512  28.723  18.255  1.00  0.00     0.000 C 
BRANCH   7   8
ATOM      8  C   UNL     1      35.908  28.410  17.691  1.00  0.00     0.000 C 
BRANCH   8   9
ATOM      9  C   UNL     1      35.915  28.501  16.159  1.00  0.00     0.000 C 
BRANCH   9  10
ATOM     10  C   UNL     1      34.799  27.639  15.551  1.00  0.00     0.006 C 
BRANCH  10  11
ATOM     11  C   UNL     1      33.881  28.449  14.623  1.00  0.00     0.053 C 
BRANCH  11  12
ATOM     12  C   UNL     1      34.188  28.199  13.178  1.00  0.00     0.041 C 
ATOM     13  O   UNL     1      33.303  28.386  12.301  1.00  0.00    -0.550 OA
ATOM     14  O   UNL     1      35.445  27.738  12.804  1.00  0.00    -0.550 OA
ENDBRANCH  11  12
ENDBRANCH  10  11
ENDBRANCH   9  10
ENDBRANCH   8   9
ENDBRANCH   7   8
ENDBRANCH   6   7
ENDBRANCH   5   6
ENDBRANCH   4   5
ENDBRANCH   3   4
ENDBRANCH   2   3
ENDBRANCH   1   2
BRANCH   1  15
ATOM     15  C   UNL     1      35.577  30.683  24.190  1.00  0.00     0.000 C 
BRANCH  15  16
ATOM     16  C   UNL     1      36.452  31.458  23.187  1.00  0.00     0.000 C 
BRANCH  16  17
ATOM     17  C   UNL     1      37.125  32.726  23.746  1.00  0.00     0.000 C 
BRANCH  17  18
ATOM     18  C   UNL     1      36.158  33.847  24.184  1.00  0.00    -0.000 C 
BRANCH  18  19
ATOM     19  C   UNL     1      36.763  34.904  25.124  1.00  0.00    -0.000 C 
BRANCH  19  20
ATOM     20  C   UNL     1      37.125  36.210  24.404  1.00  0.00    -0.000 C 
BRANCH  20  21
ATOM     21  C   UNL     1      36.469  37.411  25.097  1.00  0.00    -0.000 C 
BRANCH  21  22
ATOM     22  C   UNL     1      37.062  38.733  24.592  1.00  0.00    -0.000 C 
BRANCH  22  23
ATOM     23  C   UNL     1      36.261  39.930  25.123  1.00  0.00    -0.000 C 
BRANCH  23  24
ATOM     24  C   UNL     1      37.033  41.255  25.021  1.00  0.00    -0.000 C 
BRANCH  24  25
ATOM     25  C   UNL     1      36.114  42.484  25.112  1.00  0.00    -0.003 C 
ATOM     26  C   UNL     1      36.862  43.760  24.733  1.00  0.00     0.004 C 
ENDBRANCH  24  25
ENDBRANCH  23  24
ENDBRANCH  22  23
ENDBRANCH  21  22
ENDBRANCH  20  21
ENDBRANCH  19  20
ENDBRANCH  18  19
ENDBRANCH  17  18
ENDBRANCH  16  17
ENDBRANCH  15  16
ENDBRANCH   1  15
TORSDOF 22
ENDMDL
MODEL 4
REMARK VINA RESULT:     0.460      3.124     10.237
REMARK INTER + INTRA:           0.509
REMARK INTER:                   0.129
REMARK INTRA:                   0.381
REMARK UNBOUND:                -0.543
REMARK SMILES CCCCCCCCCCCCCCCCCCCCCCCC(=O)[O-]
REMARK SMILES IDX 13 1 14 2 15 3 16 4 17 5 18 6 19 7 20 8 21 9 22 10 23 11
REMARK SMILES IDX 24 12 25 13 26 14 12 15 11 16 10 17 9 18 8 19 7 20 6 21 5 22
REMARK SMILES IDX 4 23 3 24 2 25 1 26
REMARK H PARENT
REMARK Flexibility Score: inf
ROOT
ATOM      1  C   UNL     1      34.838  28.332  16.433  1.00  0.00     0.000 C 
ENDROOT
BRANCH   1   2
ATOM      2  C   UNL     1      35.803  28.597  17.601  1.00  0.00     0.000 C 
BRANCH   2   3
ATOM      3  C   UNL     1      35.718  27.527  18.700  1.00  0.00     0.000 C 
BRANCH   3   4
ATOM      4  C   UNL     1      35.082  28.062  19.996  1.00  0.00     0.000 C 
BRANCH   4   5
ATOM      5  C   UNL     1      35.377  27.172  21.217  1.00  0.00     0.000 C 
BRANCH   5   6
ATOM      6  C   UNL     1      36.858  27.121  21.646  1.00  0.00     0.000 C 
BRANCH   6   7
ATOM      7  C   UNL     1      37.125  27.720  23.043  1.00  0.00     0.000 C 
BRANCH   7   8
ATOM      8  C   UNL     1      36.030  27.349  24.057  1.00  0.00     0.000 C 
BRANCH   8   9
ATOM      9  C   UNL     1      35.446  28.602  24.721  1.00  0.00     0.000 C 
BRANCH   9  10
ATOM     10  C   UNL     1      36.432  29.779  24.639  1.00  0.00     0.006 C 
BRANCH  10  11
ATOM     11  C   UNL     1      36.443  30.429  23.247  1.00  0.00     0.053 C 
BRANCH  11  12
ATOM     12  C   UNL     1      36.846  31.871  23.309  1.00  0.00     0.041 C 
ATOM     13  O   UNL     1      36.967  32.448  24.422  1.00  0.00    -0.550 OA
ATOM     14  O   UNL     1      37.064  32.583  22.135  1.00  0.00    -0.550 OA
ENDBRANCH  11  12
ENDBRANCH  10  11
ENDBRANCH   9  10
ENDBRANCH   8   9
ENDBRANCH   7   8
ENDBRANCH   6   7
ENDBRANCH   5   6
ENDBRANCH   4   5
ENDBRANCH   3   4
ENDBRANCH   2   3
ENDBRANCH   1   2
BRANCH   1  15
ATOM     15  C   UNL     1      34.994  26.913  15.846  1.00  0.00     0.000 C 
BRANCH  15  16
ATOM     16  C   UNL     1      35.660  26.881  14.457  1.00  0.00     0.000 C 
BRANCH  16  17
ATOM     17  C   UNL     1      34.691  26.980  13.263  1.00  0.00     0.000 C 
BRANCH  17  18
ATOM     18  C   UNL     1      35.361  27.127  11.881  1.00  0.00    -0.000 C 
BRANCH  18  19
ATOM     19  C   UNL     1      34.467  27.722  10.779  1.00  0.00    -0.000 C 
BRANCH  19  20
ATOM     20  C   UNL     1      33.363  28.635  11.332  1.00  0.00    -0.000 C 
BRANCH  20  21
ATOM     21  C   UNL     1      33.918  29.555  12.427  1.00  0.00    -0.000 C 
BRANCH  21  22
ATOM     22  C   UNL     1      33.064  30.822  12.570  1.00  0.00    -0.000 C 
BRANCH  22  23
ATOM     23  C   UNL     1      31.933  30.607  13.586  1.00  0.00    -0.000 C 
BRANCH  23  24
ATOM     24  C   UNL     1      30.569  30.369  12.917  1.00  0.00    -0.000 C 
BRANCH  24  25
ATOM     25  C   UNL     1      29.875  31.678  12.508  1.00  0.00    -0.003 C 
ATOM     26  C   UNL     1      30.801  32.876  12.701  1.00  0.00     0.004 C 
ENDBRANCH  24  25
ENDBRANCH  23  24
ENDBRANCH  22  23
ENDBRANCH  21  22
ENDBRANCH  20  21
ENDBRANCH  19  20
ENDBRANCH  18  19
ENDBRANCH  17  18
ENDBRANCH  16  17
ENDBRANCH  15  16
ENDBRANCH   1  15
TORSDOF 22
ENDMDL
MODEL 5
REMARK VINA RESULT:     0.466      1.632      3.037
REMARK INTER + INTRA:           0.523
REMARK INTER:                   1.724
REMARK INTRA:                  -1.201
REMARK UNBOUND:                -0.543
REMARK SMILES CCCCCCCCCCCCCCCCCCCCCCCC(=O)[O-]
REMARK SMILES IDX 13 1 14 2 15 3 16 4 17 5 18 6 19 7 20 8 21 9 22 10 23 11
REMARK SMILES IDX 24 12 25 13 26 14 12 15 11 16 10 17 9 18 8 19 7 20 6 21 5 22
REMARK SMILES IDX 4 23 3 24 2 25 1 26
REMARK H PARENT
REMARK Flexibility Score: inf
ROOT
ATOM      1  C   UNL     1      34.416  27.672  16.282  1.00  0.00     0.000 C 
ENDROOT
BRANCH   1   2
ATOM      2  C   UNL     1      35.614  28.053  15.395  1.00  0.00     0.000 C 
BRANCH   2   3
ATOM      3  C   UNL     1      36.127  26.876  14.551  1.00  0.00     0.000 C 
BRANCH   3   4
ATOM      4  C   UNL     1      35.630  26.935  13.095  1.00  0.00     0.000 C 
BRANCH   4   5
ATOM      5  C   UNL     1      34.095  26.959  12.988  1.00  0.00     0.000 C 
BRANCH   5   6
ATOM      6  C   UNL     1      33.538  27.630  11.715  1.00  0.00     0.000 C 
BRANCH   6   7
ATOM      7  C   UNL     1      34.310  28.897  11.287  1.00  0.00     0.000 C 
BRANCH   7   8
ATOM      8  C   UNL     1      33.714  30.178  11.894  1.00  0.00     0.000 C 
BRANCH   8   9
ATOM      9  C   UNL     1      32.966  29.873  13.198  1.00  0.00     0.000 C 
BRANCH   9  10
ATOM     10  C   UNL     1      31.990  31.006  13.551  1.00  0.00     0.006 C 
BRANCH  10  11
ATOM     11  C   UNL     1      30.559  30.705  13.083  1.00  0.00     0.053 C 
BRANCH  11  12
ATOM     12  C   UNL     1      29.974  31.847  12.310  1.00  0.00     0.041 C 
ATOM     13  O   UNL     1      30.566  32.958  12.274  1.00  0.00    -0.550 OA
ATOM     14  O   UNL     1      28.761  31.690  11.648  1.00  0.00    -0.550 OA
ENDBRANCH  11  12
ENDBRANCH  10  11
ENDBRANCH   9  10
ENDBRANCH   8   9
ENDBRANCH   7   8
ENDBRANCH   6   7
ENDBRANCH   5   6
ENDBRANCH   4   5
ENDBRANCH   3   4
ENDBRANCH   2   3
ENDBRANCH   1   2
BRANCH   1  15
ATOM     15  C   UNL     1      34.842  26.928  17.565  1.00  0.00     0.000 C 
BRANCH  15  16
ATOM     16  C   UNL     1      35.615  27.805  18.569  1.00  0.00     0.000 C 
BRANCH  16  17
ATOM     17  C   UNL     1      36.939  27.206  19.080  1.00  0.00     0.000 C 
BRANCH  17  18
ATOM     18  C   UNL     1      37.044  27.048  20.612  1.00  0.00    -0.000 C 
BRANCH  18  19
ATOM     19  C   UNL     1      35.799  27.488  21.402  1.00  0.00    -0.000 C 
BRANCH  19  20
ATOM     20  C   UNL     1      36.144  28.171  22.733  1.00  0.00    -0.000 C 
BRANCH  20  21
ATOM     21  C   UNL     1      34.966  28.080  23.711  1.00  0.00    -0.000 C 
BRANCH  21  22
ATOM     22  C   UNL     1      34.610  29.459  24.279  1.00  0.00    -0.000 C 
BRANCH  22  23
ATOM     23  C   UNL     1      35.841  30.125  24.911  1.00  0.00    -0.000 C 
BRANCH  23  24
ATOM     24  C   UNL     1      35.769  31.660  24.882  1.00  0.00    -0.000 C 
BRANCH  24  25
ATOM     25  C   UNL     1      36.971  32.296  24.166  1.00  0.00    -0.003 C 
ATOM     26  C   UNL     1      37.109  33.772  24.530  1.00  0.00     0.004 C 
ENDBRANCH  24  25
ENDBRANCH  23  24
ENDBRANCH  22  23
ENDBRANCH  21  22
ENDBRANCH  20  21
ENDBRANCH  19  20
ENDBRANCH  18  19
ENDBRANCH  17  18
ENDBRANCH  16  17
ENDBRANCH  15  16
ENDBRANCH   1  15
TORSDOF 22
ENDMDL
MODEL 6
REMARK VINA RESULT:     0.491      1.300      2.385
REMARK INTER + INTRA:           0.579
REMARK INTER:                   0.150
REMARK INTRA:                   0.429
REMARK UNBOUND:                -0.543
REMARK SMILES CCCCCCCCCCCCCCCCCCCCCCCC(=O)[O-]
REMARK SMILES IDX 13 1 14 2 15 3 16 4 17 5 18 6 19 7 20 8 21 9 22 10 23 11
REMARK SMILES IDX 24 12 25 13 26 14 12 15 11 16 10 17 9 18 8 19 7 20 6 21 5 22
REMARK SMILES IDX 4 23 3 24 2 25 1 26
REMARK H PARENT
REMARK Flexibility Score: inf
ROOT
ATOM      1  C   UNL     1      34.824  28.951  16.472  1.00  0.00     0.000 C 
ENDROOT
BRANCH   1   2
ATOM      2  C   UNL     1      34.381  27.494  16.257  1.00  0.00     0.000 C 
BRANCH   2   3
ATOM      3  C   UNL     1      34.919  26.895  14.949  1.00  0.00     0.000 C 
BRANCH   3   4
ATOM      4  C   UNL     1      36.458  26.875  14.898  1.00  0.00     0.000 C 
BRANCH   4   5
ATOM      5  C   UNL     1      37.017  27.353  13.547  1.00  0.00     0.000 C 
BRANCH   5   6
ATOM      6  C   UNL     1      36.046  27.224  12.355  1.00  0.00     0.000 C 
BRANCH   6   7
ATOM      7  C   UNL     1      34.586  26.934  12.766  1.00  0.00     0.000 C 
BRANCH   7   8
ATOM      8  C   UNL     1      33.575  27.430  11.720  1.00  0.00     0.000 C 
BRANCH   8   9
ATOM      9  C   UNL     1      33.552  28.963  11.659  1.00  0.00     0.000 C 
BRANCH   9  10
ATOM     10  C   UNL     1      33.662  29.571  13.066  1.00  0.00     0.006 C 
BRANCH  10  11
ATOM     11  C   UNL     1      32.898  30.899  13.185  1.00  0.00     0.053 C 
BRANCH  11  12
ATOM     12  C   UNL     1      31.418  30.704  13.054  1.00  0.00     0.041 C 
ATOM     13  O   UNL     1      30.710  31.583  12.496  1.00  0.00    -0.550 OA
ATOM     14  O   UNL     1      30.819  29.560  13.571  1.00  0.00    -0.550 OA
ENDBRANCH  11  12
ENDBRANCH  10  11
ENDBRANCH   9  10
ENDBRANCH   8   9
ENDBRANCH   7   8
ENDBRANCH   6   7
ENDBRANCH   5   6
ENDBRANCH   4   5
ENDBRANCH   3   4
ENDBRANCH   2   3
ENDBRANCH   1   2
BRANCH   1  15
ATOM     15  C   UNL     1      35.871  29.092  17.598  1.00  0.00     0.000 C 
BRANCH  15  16
ATOM     16  C   UNL     1      35.353  29.835  18.845  1.00  0.00     0.000 C 
BRANCH  16  17
ATOM     17  C   UNL     1      34.424  29.012  19.759  1.00  0.00     0.000 C 
BRANCH  17  18
ATOM     18  C   UNL     1      34.985  27.647  20.211  1.00  0.00    -0.000 C 
BRANCH  18  19
ATOM     19  C   UNL     1      36.347  27.702  20.923  1.00  0.00    -0.000 C 
BRANCH  19  20
ATOM     20  C   UNL     1      36.265  27.312  22.406  1.00  0.00    -0.000 C 
BRANCH  20  21
ATOM     21  C   UNL     1      36.764  28.457  23.296  1.00  0.00    -0.000 C 
BRANCH  21  22
ATOM     22  C   UNL     1      35.767  28.755  24.423  1.00  0.00    -0.000 C 
BRANCH  22  23
ATOM     23  C   UNL     1      36.092  30.094  25.101  1.00  0.00    -0.000 C 
BRANCH  23  24
ATOM     24  C   UNL     1      35.864  31.300  24.176  1.00  0.00    -0.000 C 
BRANCH  24  25
ATOM     25  C   UNL     1      37.067  31.582  23.262  1.00  0.00    -0.003 C 
ATOM     26  C   UNL     1      36.781  32.750  22.321  1.00  0.00     0.004 C 
ENDBRANCH  24  25
ENDBRANCH  23  24
ENDBRANCH  22  23
ENDBRANCH  21  22
ENDBRANCH  20  21
ENDBRANCH  19  20
ENDBRANCH  18  19
ENDBRANCH  17  18
ENDBRANCH  16  17
ENDBRANCH  15  16
ENDBRANCH   1  15
TORSDOF 22
ENDMDL
MODEL 7
REMARK VINA RESULT:     0.770      1.819      3.743
REMARK INTER + INTRA:           1.218
REMARK INTER:                   1.403
REMARK INTRA:                  -0.185
REMARK UNBOUND:                -0.543
REMARK SMILES CCCCCCCCCCCCCCCCCCCCCCCC(=O)[O-]
REMARK SMILES IDX 13 1 14 2 15 3 16 4 17 5 18 6 19 7 20 8 21 9 22 10 23 11
REMARK SMILES IDX 24 12 25 13 26 14 12 15 11 16 10 17 9 18 8 19 7 20 6 21 5 22
REMARK SMILES IDX 4 23 3 24 2 25 1 26
REMARK H PARENT
REMARK Flexibility Score: inf
ROOT
ATOM      1  C   UNL     1      36.060  27.676  16.145  1.00  0.00     0.000 C 
ENDROOT
BRANCH   1   2
ATOM      2  C   UNL     1      36.534  27.769  14.684  1.00  0.00     0.000 C 
BRANCH   2   3
ATOM      3  C   UNL     1      35.719  26.877  13.735  1.00  0.00     0.000 C 
BRANCH   3   4
ATOM      4  C   UNL     1      34.201  27.065  13.909  1.00  0.00     0.000 C 
BRANCH   4   5
ATOM      5  C   UNL     1      33.423  26.900  12.591  1.00  0.00     0.000 C 
BRANCH   5   6
ATOM      6  C   UNL     1      34.172  27.373  11.327  1.00  0.00     0.000 C 
BRANCH   6   7
ATOM      7  C   UNL     1      34.075  28.893  11.075  1.00  0.00     0.000 C 
BRANCH   7   8
ATOM      8  C   UNL     1      33.882  29.689  12.376  1.00  0.00     0.000 C 
BRANCH   8   9
ATOM      9  C   UNL     1      32.421  30.128  12.542  1.00  0.00     0.000 C 
BRANCH   9  10
ATOM     10  C   UNL     1      32.335  31.560  13.091  1.00  0.00     0.006 C 
BRANCH  10  11
ATOM     11  C   UNL     1      31.153  32.339  12.496  1.00  0.00     0.053 C 
BRANCH  11  12
ATOM     12  C   UNL     1      29.886  31.540  12.529  1.00  0.00     0.041 C 
ATOM     13  O   UNL     1      29.810  30.501  13.238  1.00  0.00    -0.550 OA
ATOM     14  O   UNL     1      28.796  31.931  11.759  1.00  0.00    -0.550 OA
ENDBRANCH  11  12
ENDBRANCH  10  11
ENDBRANCH   9  10
ENDBRANCH   8   9
ENDBRANCH   7   8
ENDBRANCH   6   7
ENDBRANCH   5   6
ENDBRANCH   4   5
ENDBRANCH   3   4
ENDBRANCH   2   3
ENDBRANCH   1   2
BRANCH   1  15
ATOM     15  C   UNL     1      37.080  26.958  17.054  1.00  0.00     0.000 C 
BRANCH  15  16
ATOM     16  C   UNL     1      37.017  27.394  18.530  1.00  0.00     0.000 C 
BRANCH  16  17
ATOM     17  C   UNL     1      36.055  28.559  18.830  1.00  0.00     0.000 C 
BRANCH  17  18
ATOM     18  C   UNL     1      35.382  28.519  20.218  1.00  0.00    -0.000 C 
BRANCH  18  19
ATOM     19  C   UNL     1      35.621  27.230  21.024  1.00  0.00    -0.000 C 
BRANCH  19  20
ATOM     20  C   UNL     1      36.934  27.254  21.820  1.00  0.00    -0.000 C 
BRANCH  20  21
ATOM     21  C   UNL     1      36.754  28.017  23.138  1.00  0.00    -0.000 C 
BRANCH  21  22
ATOM     22  C   UNL     1      37.124  29.497  22.976  1.00  0.00    -0.000 C 
BRANCH  22  23
ATOM     23  C   UNL     1      35.962  30.401  23.411  1.00  0.00    -0.000 C 
BRANCH  23  24
ATOM     24  C   UNL     1      35.614  30.248  24.901  1.00  0.00    -0.000 C 
BRANCH  24  25
ATOM     25  C   UNL     1      34.261  29.554  25.124  1.00  0.00    -0.003 C 
ATOM     26  C   UNL     1      33.646  29.110  23.800  1.00  0.00     0.004 C 
ENDBRANCH  24  25
ENDBRANCH  23  24
ENDBRANCH  22  23
ENDBRANCH  21  22
ENDBRANCH  20  21
ENDBRANCH  19  20
ENDBRANCH  18  19
ENDBRANCH  17  18
ENDBRANCH  16  17
ENDBRANCH  15  16
ENDBRANCH   1  15
TORSDOF 22
ENDMDL
