MODEL 1
REMARK VINA RESULT:     7.128      0.000      0.000
REMARK INTER + INTRA:          16.745
REMARK INTER:                  17.963
REMARK INTRA:                  -1.218
REMARK UNBOUND:                -1.218
REMARK SMILES CCCCCCCCCCCCCCCCCCCCCCCCCCCC(=O)[O-]
REMARK SMILES IDX 15 1 16 2 17 3 18 4 19 5 20 6 21 7 22 8 23 9 24 10 25 11
REMARK SMILES IDX 26 12 27 13 28 14 29 15 30 16 14 17 13 18 12 19 11 20 10 21
REMARK SMILES IDX 9 22 8 23 7 24 6 25 5 26 4 27 3 28 2 29 1 30
REMARK H PARENT
REMARK Flexibility Score: inf
ROOT
ATOM      1  C   UNL     1      14.875  26.137   9.076  1.00  0.00     0.000 C 
ENDROOT
BRANCH   1   2
ATOM      2  C   UNL     1      15.031  26.753   7.669  1.00  0.00     0.000 C 
BRANCH   2   3
ATOM      3  C   UNL     1      15.496  25.751   6.594  1.00  0.00     0.000 C 
BRANCH   3   4
ATOM      4  C   UNL     1      16.558  26.285   5.618  1.00  0.00     0.000 C 
BRANCH   4   5
ATOM      5  C   UNL     1      16.617  25.564   4.257  1.00  0.00     0.000 C 
BRANCH   5   6
ATOM      6  C   UNL     1      17.931  25.793   3.480  1.00  0.00     0.000 C 
BRANCH   6   7
ATOM      7  C   UNL     1      19.055  26.332   4.381  1.00  0.00     0.000 C 
BRANCH   7   8
ATOM      8  C   UNL     1      20.347  25.506   4.281  1.00  0.00     0.000 C 
BRANCH   8   9
ATOM      9  C   UNL     1      21.331  25.804   5.428  1.00  0.00     0.000 C 
BRANCH   9  10
ATOM     10  C   UNL     1      22.711  25.171   5.196  1.00  0.00     0.000 C 
BRANCH  10  11
ATOM     11  C   UNL     1      23.702  26.144   4.532  1.00  0.00     0.000 C 
BRANCH  11  12
ATOM     12  C   UNL     1      25.073  25.503   4.246  1.00  0.00     0.006 C 
BRANCH  12  13
ATOM     13  C   UNL     1      25.586  25.741   2.815  1.00  0.00     0.053 C 
BRANCH  13  14
ATOM     14  C   UNL     1      26.898  25.064   2.553  1.00  0.00     0.041 C 
ATOM     15  O   UNL     1      27.650  25.477   1.629  1.00  0.00    -0.550 OA
ATOM     16  O   UNL     1      27.274  23.955   3.300  1.00  0.00    -0.550 OA
ENDBRANCH  13  14
ENDBRANCH  12  13
ENDBRANCH  11  12
ENDBRANCH  10  11
ENDBRANCH   9  10
ENDBRANCH   8   9
ENDBRANCH   7   8
ENDBRANCH   6   7
ENDBRANCH   5   6
ENDBRANCH   4   5
ENDBRANCH   3   4
ENDBRANCH   2   3
ENDBRANCH   1   2
BRANCH   1  17
ATOM     17  C   UNL     1      15.766  26.826  10.120  1.00  0.00     0.000 C 
BRANCH  17  18
ATOM     18  C   UNL     1      14.975  27.157  11.391  1.00  0.00     0.000 C 
BRANCH  18  19
ATOM     19  C   UNL     1      15.092  26.021  12.420  1.00  0.00     0.000 C 
BRANCH  19  20
ATOM     20  C   UNL     1      16.546  25.734  12.825  1.00  0.00     0.000 C 
BRANCH  20  21
ATOM     21  C   UNL     1      17.193  26.901  13.594  1.00  0.00     0.000 C 
BRANCH  21  22
ATOM     22  C   UNL     1      18.383  27.513  12.841  1.00  0.00    -0.000 C 
BRANCH  22  23
ATOM     23  C   UNL     1      18.571  26.906  11.439  1.00  0.00    -0.000 C 
BRANCH  23  24
ATOM     24  C   UNL     1      19.973  27.161  10.864  1.00  0.00    -0.000 C 
BRANCH  24  25
ATOM     25  C   UNL     1      20.757  28.213  11.667  1.00  0.00    -0.000 C 
BRANCH  25  26
ATOM     26  C   UNL     1      22.030  27.639  12.308  1.00  0.00    -0.000 C 
BRANCH  26  27
ATOM     27  C   UNL     1      23.314  28.242  11.717  1.00  0.00    -0.000 C 
BRANCH  27  28
ATOM     28  C   UNL     1      23.705  29.531  12.456  1.00  0.00    -0.000 C 
BRANCH  28  29
ATOM     29  C   UNL     1      24.823  30.306  11.743  1.00  0.00    -0.003 C 
ATOM     30  C   UNL     1      25.407  29.541  10.555  1.00  0.00     0.004 C 
ENDBRANCH  28  29
ENDBRANCH  27  28
ENDBRANCH  26  27
ENDBRANCH  25  26
ENDBRANCH  24  25
ENDBRANCH  23  24
ENDBRANCH  22  23
ENDBRANCH  21  22
ENDBRANCH  20  21
ENDBRANCH  19  20
ENDBRANCH  18  19
ENDBRANCH  17  18
ENDBRANCH   1  17
TORSDOF 26
ENDMDL
MODEL 2
REMARK VINA RESULT:     8.646      3.414      7.972
REMARK INTER + INTRA:          20.570
REMARK INTER:                  22.048
REMARK INTRA:                  -1.478
REMARK UNBOUND:                -1.218
REMARK SMILES CCCCCCCCCCCCCCCCCCCCCCCCCCCC(=O)[O-]
REMARK SMILES IDX 15 1 16 2 17 3 18 4 19 5 20 6 21 7 22 8 23 9 24 10 25 11
REMARK SMILES IDX 26 12 27 13 28 14 29 15 30 16 14 17 13 18 12 19 11 20 10 21
REMARK SMILES IDX 9 22 8 23 7 24 6 25 5 26 4 27 3 28 2 29 1 30
REMARK H PARENT
REMARK Flexibility Score: inf
ROOT
ATOM      1  C   UNL     1      15.062  27.265  11.235  1.00  0.00     0.000 C 
ENDROOT
BRANCH   1   2
ATOM      2  C   UNL     1      14.975  25.786  11.669  1.00  0.00     0.000 C 
BRANCH   2   3
ATOM      3  C   UNL     1      14.924  25.583  13.196  1.00  0.00     0.000 C 
BRANCH   3   4
ATOM      4  C   UNL     1      16.292  25.402  13.877  1.00  0.00     0.000 C 
BRANCH   4   5
ATOM      5  C   UNL     1      16.844  26.660  14.577  1.00  0.00     0.000 C 
BRANCH   5   6
ATOM      6  C   UNL     1      17.035  27.869  13.637  1.00  0.00     0.000 C 
BRANCH   6   7
ATOM      7  C   UNL     1      18.405  27.855  12.938  1.00  0.00     0.000 C 
BRANCH   7   8
ATOM      8  C   UNL     1      18.445  26.915  11.723  1.00  0.00     0.000 C 
BRANCH   8   9
ATOM      9  C   UNL     1      19.755  27.036  10.923  1.00  0.00     0.000 C 
BRANCH   9  10
ATOM     10  C   UNL     1      20.781  27.949  11.611  1.00  0.00     0.000 C 
BRANCH  10  11
ATOM     11  C   UNL     1      22.125  27.997  10.861  1.00  0.00     0.000 C 
BRANCH  11  12
ATOM     12  C   UNL     1      23.338  28.071  11.806  1.00  0.00     0.006 C 
BRANCH  12  13
ATOM     13  C   UNL     1      24.473  28.975  11.293  1.00  0.00     0.053 C 
BRANCH  13  14
ATOM     14  C   UNL     1      24.689  30.178  12.161  1.00  0.00     0.041 C 
ATOM     15  O   UNL     1      24.289  30.177  13.356  1.00  0.00    -0.550 OA
ATOM     16  O   UNL     1      25.297  31.314  11.642  1.00  0.00    -0.550 OA
ENDBRANCH  13  14
ENDBRANCH  12  13
ENDBRANCH  11  12
ENDBRANCH  10  11
ENDBRANCH   9  10
ENDBRANCH   8   9
ENDBRANCH   7   8
ENDBRANCH   6   7
ENDBRANCH   5   6
ENDBRANCH   4   5
ENDBRANCH   3   4
ENDBRANCH   2   3
ENDBRANCH   1   2
BRANCH   1  17
ATOM     17  C   UNL     1      15.064  27.429   9.708  1.00  0.00     0.000 C 
BRANCH  17  18
ATOM     18  C   UNL     1      15.063  26.067   9.004  1.00  0.00     0.000 C 
BRANCH  18  19
ATOM     19  C   UNL     1      14.883  26.235   7.487  1.00  0.00     0.000 C 
BRANCH  19  20
ATOM     20  C   UNL     1      14.875  24.893   6.738  1.00  0.00     0.000 C 
BRANCH  20  21
ATOM     21  C   UNL     1      15.185  25.045   5.238  1.00  0.00     0.000 C 
BRANCH  21  22
ATOM     22  C   UNL     1      16.386  25.966   4.975  1.00  0.00    -0.000 C 
BRANCH  22  23
ATOM     23  C   UNL     1      17.404  25.345   4.002  1.00  0.00    -0.000 C 
BRANCH  23  24
ATOM     24  C   UNL     1      18.334  26.391   3.368  1.00  0.00    -0.000 C 
BRANCH  24  25
ATOM     25  C   UNL     1      19.606  26.630   4.201  1.00  0.00    -0.000 C 
BRANCH  25  26
ATOM     26  C   UNL     1      20.742  25.662   3.833  1.00  0.00    -0.000 C 
BRANCH  26  27
ATOM     27  C   UNL     1      21.791  25.530   4.949  1.00  0.00    -0.000 C 
BRANCH  27  28
ATOM     28  C   UNL     1      21.408  24.413   5.932  1.00  0.00    -0.000 C 
BRANCH  28  29
ATOM     29  C   UNL     1      22.629  23.792   6.626  1.00  0.00    -0.003 C 
ATOM     30  C   UNL     1      23.326  24.764   7.578  1.00  0.00     0.004 C 
ENDBRANCH  28  29
ENDBRANCH  27  28
ENDBRANCH  26  27
ENDBRANCH  25  26
ENDBRANCH  24  25
ENDBRANCH  23  24
ENDBRANCH  22  23
ENDBRANCH  21  22
ENDBRANCH  20  21
ENDBRANCH  19  20
ENDBRANCH  18  19
ENDBRANCH  17  18
ENDBRANCH   1  17
TORSDOF 26
ENDMDL
MODEL 3
REMARK VINA RESULT:     9.227      3.007      7.933
REMARK INTER + INTRA:          22.034
REMARK INTER:                  23.741
REMARK INTRA:                  -1.707
REMARK UNBOUND:                -1.218
REMARK SMILES CCCCCCCCCCCCCCCCCCCCCCCCCCCC(=O)[O-]
REMARK SMILES IDX 15 1 16 2 17 3 18 4 19 5 20 6 21 7 22 8 23 9 24 10 25 11
REMARK SMILES IDX 26 12 27 13 28 14 29 15 30 16 14 17 13 18 12 19 11 20 10 21
REMARK SMILES IDX 9 22 8 23 7 24 6 25 5 26 4 27 3 28 2 29 1 30
REMARK H PARENT
REMARK Flexibility Score: inf
ROOT
ATOM      1  C   UNL     1      15.697  26.597   9.780  1.00  0.00     0.000 C 
ENDROOT
BRANCH   1   2
ATOM      2  C   UNL     1      14.895  25.809  10.837  1.00  0.00     0.000 C 
BRANCH   2   3
ATOM      3  C   UNL     1      14.875  26.469  12.230  1.00  0.00     0.000 C 
BRANCH   3   4
ATOM      4  C   UNL     1      15.295  25.553  13.393  1.00  0.00     0.000 C 
BRANCH   4   5
ATOM      5  C   UNL     1      16.617  25.940  14.084  1.00  0.00     0.000 C 
BRANCH   5   6
ATOM      6  C   UNL     1      16.995  27.429  13.929  1.00  0.00     0.000 C 
BRANCH   6   7
ATOM      7  C   UNL     1      18.348  27.617  13.222  1.00  0.00     0.000 C 
BRANCH   7   8
ATOM      8  C   UNL     1      18.486  26.751  11.960  1.00  0.00     0.000 C 
BRANCH   8   9
ATOM      9  C   UNL     1      19.608  27.240  11.026  1.00  0.00     0.000 C 
BRANCH   9  10
ATOM     10  C   UNL     1      20.813  27.801  11.797  1.00  0.00     0.000 C 
BRANCH  10  11
ATOM     11  C   UNL     1      22.094  27.836  10.946  1.00  0.00     0.000 C 
BRANCH  11  12
ATOM     12  C   UNL     1      22.941  29.100  11.185  1.00  0.00     0.006 C 
BRANCH  12  13
ATOM     13  C   UNL     1      24.458  28.846  11.173  1.00  0.00     0.053 C 
BRANCH  13  14
ATOM     14  C   UNL     1      25.221  29.869  11.961  1.00  0.00     0.041 C 
ATOM     15  O   UNL     1      24.856  30.169  13.129  1.00  0.00    -0.550 OA
ATOM     16  O   UNL     1      26.310  30.518  11.393  1.00  0.00    -0.550 OA
ENDBRANCH  13  14
ENDBRANCH  12  13
ENDBRANCH  11  12
ENDBRANCH  10  11
ENDBRANCH   9  10
ENDBRANCH   8   9
ENDBRANCH   7   8
ENDBRANCH   6   7
ENDBRANCH   5   6
ENDBRANCH   4   5
ENDBRANCH   3   4
ENDBRANCH   2   3
ENDBRANCH   1   2
BRANCH   1  17
ATOM     17  C   UNL     1      14.876  26.883   8.514  1.00  0.00     0.000 C 
BRANCH  17  18
ATOM     18  C   UNL     1      14.897  25.684   7.557  1.00  0.00     0.000 C 
BRANCH  18  19
ATOM     19  C   UNL     1      15.156  26.140   6.113  1.00  0.00     0.000 C 
BRANCH  19  20
ATOM     20  C   UNL     1      16.270  25.336   5.427  1.00  0.00     0.000 C 
BRANCH  20  21
ATOM     21  C   UNL     1      16.822  26.033   4.170  1.00  0.00     0.000 C 
BRANCH  21  22
ATOM     22  C   UNL     1      18.286  26.470   4.334  1.00  0.00    -0.000 C 
BRANCH  22  23
ATOM     23  C   UNL     1      19.254  25.276   4.407  1.00  0.00    -0.000 C 
BRANCH  23  24
ATOM     24  C   UNL     1      20.686  25.646   3.990  1.00  0.00    -0.000 C 
BRANCH  24  25
ATOM     25  C   UNL     1      21.589  25.959   5.196  1.00  0.00    -0.000 C 
BRANCH  25  26
ATOM     26  C   UNL     1      22.307  24.712   5.735  1.00  0.00    -0.000 C 
BRANCH  26  27
ATOM     27  C   UNL     1      23.837  24.852   5.706  1.00  0.00    -0.000 C 
BRANCH  27  28
ATOM     28  C   UNL     1      24.263  26.019   4.802  1.00  0.00    -0.000 C 
BRANCH  28  29
ATOM     29  C   UNL     1      25.616  25.773   4.116  1.00  0.00    -0.003 C 
ATOM     30  C   UNL     1      25.494  25.645   2.598  1.00  0.00     0.004 C 
ENDBRANCH  28  29
ENDBRANCH  27  28
ENDBRANCH  26  27
ENDBRANCH  25  26
ENDBRANCH  24  25
ENDBRANCH  23  24
ENDBRANCH  22  23
ENDBRANCH  21  22
ENDBRANCH  20  21
ENDBRANCH  19  20
ENDBRANCH  18  19
ENDBRANCH  17  18
ENDBRANCH   1  17
TORSDOF 26
ENDMDL
MODEL 4
REMARK VINA RESULT:     9.316      2.082      2.743
REMARK INTER + INTRA:          22.258
REMARK INTER:                  22.682
REMARK INTRA:                  -0.424
REMARK UNBOUND:                -1.218
REMARK SMILES CCCCCCCCCCCCCCCCCCCCCCCCCCCC(=O)[O-]
REMARK SMILES IDX 15 1 16 2 17 3 18 4 19 5 20 6 21 7 22 8 23 9 24 10 25 11
REMARK SMILES IDX 26 12 27 13 28 14 29 15 30 16 14 17 13 18 12 19 11 20 10 21
REMARK SMILES IDX 9 22 8 23 7 24 6 25 5 26 4 27 3 28 2 29 1 30
REMARK H PARENT
REMARK Flexibility Score: inf
ROOT
ATOM      1  C   UNL     1      16.059  27.190  10.400  1.00  0.00     0.000 C 
ENDROOT
BRANCH   1   2
ATOM      2  C   UNL     1      15.370  26.067   9.596  1.00  0.00     0.000 C 
BRANCH   2   3
ATOM      3  C   UNL     1      14.877  26.506   8.203  1.00  0.00     0.000 C 
BRANCH   3   4
ATOM      4  C   UNL     1      15.270  25.570   7.046  1.00  0.00     0.000 C 
BRANCH   4   5
ATOM      5  C   UNL     1      15.058  26.152   5.635  1.00  0.00     0.000 C 
BRANCH   5   6
ATOM      6  C   UNL     1      16.075  25.649   4.588  1.00  0.00     0.000 C 
BRANCH   6   7
ATOM      7  C   UNL     1      17.424  26.380   4.686  1.00  0.00     0.000 C 
BRANCH   7   8
ATOM      8  C   UNL     1      18.458  25.863   3.674  1.00  0.00     0.000 C 
BRANCH   8   9
ATOM      9  C   UNL     1      19.845  25.640   4.305  1.00  0.00     0.000 C 
BRANCH   9  10
ATOM     10  C   UNL     1      20.293  26.825   5.172  1.00  0.00     0.000 C 
BRANCH  10  11
ATOM     11  C   UNL     1      21.825  26.959   5.244  1.00  0.00     0.000 C 
BRANCH  11  12
ATOM     12  C   UNL     1      22.562  25.697   4.758  1.00  0.00     0.006 C 
BRANCH  12  13
ATOM     13  C   UNL     1      22.164  24.415   5.508  1.00  0.00     0.053 C 
BRANCH  13  14
ATOM     14  C   UNL     1      22.775  24.332   6.875  1.00  0.00     0.041 C 
ATOM     15  O   UNL     1      22.061  24.043   7.872  1.00  0.00    -0.550 OA
ATOM     16  O   UNL     1      24.124  24.612   7.054  1.00  0.00    -0.550 OA
ENDBRANCH  13  14
ENDBRANCH  12  13
ENDBRANCH  11  12
ENDBRANCH  10  11
ENDBRANCH   9  10
ENDBRANCH   8   9
ENDBRANCH   7   8
ENDBRANCH   6   7
ENDBRANCH   5   6
ENDBRANCH   4   5
ENDBRANCH   3   4
ENDBRANCH   2   3
ENDBRANCH   1   2
BRANCH   1  17
ATOM     17  C   UNL     1      15.060  28.029  11.211  1.00  0.00     0.000 C 
BRANCH  17  18
ATOM     18  C   UNL     1      14.876  27.461  12.623  1.00  0.00     0.000 C 
BRANCH  18  19
ATOM     19  C   UNL     1      15.648  26.142  12.787  1.00  0.00     0.000 C 
BRANCH  19  20
ATOM     20  C   UNL     1      16.554  26.134  14.028  1.00  0.00     0.000 C 
BRANCH  20  21
ATOM     21  C   UNL     1      17.906  26.828  13.784  1.00  0.00     0.000 C 
BRANCH  21  22
ATOM     22  C   UNL     1      18.259  26.921  12.292  1.00  0.00    -0.000 C 
BRANCH  22  23
ATOM     23  C   UNL     1      19.776  26.854  12.039  1.00  0.00    -0.000 C 
BRANCH  23  24
ATOM     24  C   UNL     1      20.222  27.736  10.861  1.00  0.00    -0.000 C 
BRANCH  24  25
ATOM     25  C   UNL     1      21.618  28.345  11.077  1.00  0.00    -0.000 C 
BRANCH  25  26
ATOM     26  C   UNL     1      22.391  27.661  12.216  1.00  0.00    -0.000 C 
BRANCH  26  27
ATOM     27  C   UNL     1      23.869  28.082  12.263  1.00  0.00    -0.000 C 
BRANCH  27  28
ATOM     28  C   UNL     1      24.182  29.107  11.162  1.00  0.00    -0.000 C 
BRANCH  28  29
ATOM     29  C   UNL     1      25.024  30.286  11.674  1.00  0.00    -0.003 C 
ATOM     30  C   UNL     1      26.444  30.287  11.108  1.00  0.00     0.004 C 
ENDBRANCH  28  29
ENDBRANCH  27  28
ENDBRANCH  26  27
ENDBRANCH  25  26
ENDBRANCH  24  25
ENDBRANCH  23  24
ENDBRANCH  22  23
ENDBRANCH  21  22
ENDBRANCH  20  21
ENDBRANCH  19  20
ENDBRANCH  18  19
ENDBRANCH  17  18
ENDBRANCH   1  17
TORSDOF 26
ENDMDL
MODEL 5
REMARK VINA RESULT:     9.948      1.318      2.790
REMARK INTER + INTRA:          23.849
REMARK INTER:                  24.384
REMARK INTRA:                  -0.535
REMARK UNBOUND:                -1.218
REMARK SMILES CCCCCCCCCCCCCCCCCCCCCCCCCCCC(=O)[O-]
REMARK SMILES IDX 15 1 16 2 17 3 18 4 19 5 20 6 21 7 22 8 23 9 24 10 25 11
REMARK SMILES IDX 26 12 27 13 28 14 29 15 30 16 14 17 13 18 12 19 11 20 10 21
REMARK SMILES IDX 9 22 8 23 7 24 6 25 5 26 4 27 3 28 2 29 1 30
REMARK H PARENT
REMARK Flexibility Score: inf
ROOT
ATOM      1  C   UNL     1      16.007  25.996  10.463  1.00  0.00     0.000 C 
ENDROOT
BRANCH   1   2
ATOM      2  C   UNL     1      14.875  26.597   9.603  1.00  0.00     0.000 C 
BRANCH   2   3
ATOM      3  C   UNL     1      15.233  26.747   8.111  1.00  0.00     0.000 C 
BRANCH   3   4
ATOM      4  C   UNL     1      14.892  25.532   7.232  1.00  0.00     0.000 C 
BRANCH   4   5
ATOM      5  C   UNL     1      15.197  25.706   5.731  1.00  0.00     0.000 C 
BRANCH   5   6
ATOM      6  C   UNL     1      16.589  26.307   5.439  1.00  0.00     0.000 C 
BRANCH   6   7
ATOM      7  C   UNL     1      17.176  25.803   4.110  1.00  0.00     0.000 C 
BRANCH   7   8
ATOM      8  C   UNL     1      18.695  26.011   4.013  1.00  0.00     0.000 C 
BRANCH   8   9
ATOM      9  C   UNL     1      19.440  24.742   3.557  1.00  0.00     0.000 C 
BRANCH   9  10
ATOM     10  C   UNL     1      20.921  24.753   3.961  1.00  0.00     0.000 C 
BRANCH  10  11
ATOM     11  C   UNL     1      21.204  25.701   5.141  1.00  0.00     0.000 C 
BRANCH  11  12
ATOM     12  C   UNL     1      22.700  26.025   5.308  1.00  0.00     0.006 C 
BRANCH  12  13
ATOM     13  C   UNL     1      23.410  26.385   3.991  1.00  0.00     0.053 C 
BRANCH  13  14
ATOM     14  C   UNL     1      24.859  26.001   3.994  1.00  0.00     0.041 C 
ATOM     15  O   UNL     1      25.477  25.866   5.084  1.00  0.00    -0.550 OA
ATOM     16  O   UNL     1      25.539  25.831   2.794  1.00  0.00    -0.550 OA
ENDBRANCH  13  14
ENDBRANCH  12  13
ENDBRANCH  11  12
ENDBRANCH  10  11
ENDBRANCH   9  10
ENDBRANCH   8   9
ENDBRANCH   7   8
ENDBRANCH   6   7
ENDBRANCH   5   6
ENDBRANCH   4   5
ENDBRANCH   3   4
ENDBRANCH   2   3
ENDBRANCH   1   2
BRANCH   1  17
ATOM     17  C   UNL     1      15.658  25.971  11.959  1.00  0.00     0.000 C 
BRANCH  17  18
ATOM     18  C   UNL     1      16.219  27.203  12.679  1.00  0.00     0.000 C 
BRANCH  18  19
ATOM     19  C   UNL     1      17.748  27.113  12.809  1.00  0.00     0.000 C 
BRANCH  19  20
ATOM     20  C   UNL     1      18.415  26.512  11.562  1.00  0.00     0.000 C 
BRANCH  20  21
ATOM     21  C   UNL     1      19.595  27.358  11.050  1.00  0.00     0.000 C 
BRANCH  21  22
ATOM     22  C   UNL     1      20.729  27.471  12.080  1.00  0.00    -0.000 C 
BRANCH  22  23
ATOM     23  C   UNL     1      21.745  28.570  11.721  1.00  0.00    -0.000 C 
BRANCH  23  24
ATOM     24  C   UNL     1      23.185  28.196  12.105  1.00  0.00    -0.000 C 
BRANCH  24  25
ATOM     25  C   UNL     1      24.154  28.276  10.912  1.00  0.00    -0.000 C 
BRANCH  25  26
ATOM     26  C   UNL     1      24.718  29.691  10.705  1.00  0.00    -0.000 C 
BRANCH  26  27
ATOM     27  C   UNL     1      25.672  30.118  11.831  1.00  0.00    -0.000 C 
BRANCH  27  28
ATOM     28  C   UNL     1      27.101  30.302  11.299  1.00  0.00    -0.000 C 
BRANCH  28  29
ATOM     29  C   UNL     1      27.411  29.383  10.107  1.00  0.00    -0.003 C 
ATOM     30  C   UNL     1      28.407  30.004   9.127  1.00  0.00     0.004 C 
ENDBRANCH  28  29
ENDBRANCH  27  28
ENDBRANCH  26  27
ENDBRANCH  25  26
ENDBRANCH  24  25
ENDBRANCH  23  24
ENDBRANCH  22  23
ENDBRANCH  21  22
ENDBRANCH  20  21
ENDBRANCH  19  20
ENDBRANCH  18  19
ENDBRANCH  17  18
ENDBRANCH   1  17
TORSDOF 26
ENDMDL
MODEL 6
REMARK VINA RESULT:    10.030      4.250     10.919
REMARK INTER + INTRA:          24.056
REMARK INTER:                  25.731
REMARK INTRA:                  -1.676
REMARK UNBOUND:                -1.218
REMARK SMILES CCCCCCCCCCCCCCCCCCCCCCCCCCCC(=O)[O-]
REMARK SMILES IDX 15 1 16 2 17 3 18 4 19 5 20 6 21 7 22 8 23 9 24 10 25 11
REMARK SMILES IDX 26 12 27 13 28 14 29 15 30 16 14 17 13 18 12 19 11 20 10 21
REMARK SMILES IDX 9 22 8 23 7 24 6 25 5 26 4 27 3 28 2 29 1 30
REMARK H PARENT
REMARK Flexibility Score: inf
ROOT
ATOM      1  C   UNL     1      27.323  30.161  11.173  1.00  0.00     0.000 C 
ENDROOT
BRANCH   1   2
ATOM      2  C   UNL     1      25.954  30.110  11.883  1.00  0.00     0.000 C 
BRANCH   2   3
ATOM      3  C   UNL     1      24.855  29.390  11.075  1.00  0.00     0.000 C 
BRANCH   3   4
ATOM      4  C   UNL     1      23.585  29.039  11.868  1.00  0.00     0.000 C 
BRANCH   4   5
ATOM      5  C   UNL     1      22.643  28.031  11.181  1.00  0.00     0.000 C 
BRANCH   5   6
ATOM      6  C   UNL     1      21.336  27.763  11.956  1.00  0.00     0.000 C 
BRANCH   6   7
ATOM      7  C   UNL     1      20.241  27.156  11.063  1.00  0.00     0.000 C 
BRANCH   7   8
ATOM      8  C   UNL     1      18.824  27.414  11.598  1.00  0.00     0.000 C 
BRANCH   8   9
ATOM      9  C   UNL     1      18.788  27.565  13.131  1.00  0.00     0.000 C 
BRANCH   9  10
ATOM     10  C   UNL     1      17.368  27.428  13.701  1.00  0.00     0.000 C 
BRANCH  10  11
ATOM     11  C   UNL     1      16.905  25.962  13.787  1.00  0.00     0.000 C 
BRANCH  11  12
ATOM     12  C   UNL     1      15.541  25.723  13.115  1.00  0.00     0.006 C 
BRANCH  12  13
ATOM     13  C   UNL     1      14.883  27.001  12.567  1.00  0.00     0.053 C 
BRANCH  13  14
ATOM     14  C   UNL     1      15.123  27.189  11.098  1.00  0.00     0.041 C 
ATOM     15  O   UNL     1      15.294  28.346  10.628  1.00  0.00    -0.550 OA
ATOM     16  O   UNL     1      15.119  26.094  10.244  1.00  0.00    -0.550 OA
ENDBRANCH  13  14
ENDBRANCH  12  13
ENDBRANCH  11  12
ENDBRANCH  10  11
ENDBRANCH   9  10
ENDBRANCH   8   9
ENDBRANCH   7   8
ENDBRANCH   6   7
ENDBRANCH   5   6
ENDBRANCH   4   5
ENDBRANCH   3   4
ENDBRANCH   2   3
ENDBRANCH   1   2
BRANCH   1  17
ATOM     17  C   UNL     1      27.237  29.736   9.700  1.00  0.00     0.000 C 
BRANCH  17  18
ATOM     18  C   UNL     1      28.576  29.174   9.206  1.00  0.00     0.000 C 
BRANCH  18  19
ATOM     19  C   UNL     1      28.747  27.709   9.639  1.00  0.00     0.000 C 
BRANCH  19  20
ATOM     20  C   UNL     1      27.895  26.740   8.806  1.00  0.00     0.000 C 
BRANCH  20  21
ATOM     21  C   UNL     1      26.540  26.421   9.463  1.00  0.00     0.000 C 
BRANCH  21  22
ATOM     22  C   UNL     1      25.963  25.076   8.997  1.00  0.00    -0.000 C 
BRANCH  22  23
ATOM     23  C   UNL     1      24.467  25.166   8.642  1.00  0.00    -0.000 C 
BRANCH  23  24
ATOM     24  C   UNL     1      24.045  24.135   7.584  1.00  0.00    -0.000 C 
BRANCH  24  25
ATOM     25  C   UNL     1      22.690  24.474   6.939  1.00  0.00    -0.000 C 
BRANCH  25  26
ATOM     26  C   UNL     1      22.826  24.895   5.466  1.00  0.00    -0.000 C 
BRANCH  26  27
ATOM     27  C   UNL     1      21.705  25.846   5.018  1.00  0.00    -0.000 C 
BRANCH  27  28
ATOM     28  C   UNL     1      20.560  25.069   4.351  1.00  0.00    -0.000 C 
BRANCH  28  29
ATOM     29  C   UNL     1      19.582  25.985   3.600  1.00  0.00    -0.003 C 
ATOM     30  C   UNL     1      18.145  25.855   4.106  1.00  0.00     0.004 C 
ENDBRANCH  28  29
ENDBRANCH  27  28
ENDBRANCH  26  27
ENDBRANCH  25  26
ENDBRANCH  24  25
ENDBRANCH  23  24
ENDBRANCH  22  23
ENDBRANCH  21  22
ENDBRANCH  20  21
ENDBRANCH  19  20
ENDBRANCH  18  19
ENDBRANCH  17  18
ENDBRANCH   1  17
TORSDOF 26
ENDMDL
