MODEL 1
REMARK VINA RESULT:    -1.401      0.000      0.000
REMARK INTER + INTRA:          -2.010
REMARK INTER:                  -1.687
REMARK INTRA:                  -0.323
REMARK UNBOUND:                -0.323
REMARK SMILES O=c1c(O)c(-c2ccc(O)cc2O)oc2cc(O)cc(O)c12
REMARK SMILES IDX 5 1 3 2 2 3 1 4 22 5 20 6 19 7 17 8 16 9 15 10 14 11 6 12
REMARK SMILES IDX 8 13 7 14 9 15 11 16 12 17 10 18 13 20 4 22 21 24 18 26
REMARK H PARENT 10 19 13 21 4 23 21 25 18 27
REMARK Flexibility Score: inf
ROOT
ATOM      1  C   UNL     1      27.695  39.142  20.392  1.00  0.00     0.184 A 
ATOM      2  C   UNL     1      27.165  39.948  19.372  1.00  0.00     0.208 A 
ATOM      3  C   UNL     1      26.933  41.308  19.631  1.00  0.00     0.238 A 
ATOM      4  O   UNL     1      26.508  42.037  18.697  1.00  0.00    -0.285 OA
ATOM      5  C   UNL     1      27.221  41.840  20.912  1.00  0.00     0.111 A 
ATOM      6  C   UNL     1      26.988  43.194  21.297  1.00  0.00     0.134 A 
ATOM      7  C   UNL     1      27.431  43.642  22.548  1.00  0.00     0.093 A 
ATOM      8  C   UNL     1      28.038  42.770  23.451  1.00  0.00     0.123 A 
ATOM      9  C   UNL     1      28.217  41.430  23.108  1.00  0.00     0.094 A 
ATOM     10  C   UNL     1      27.818  40.961  21.853  1.00  0.00     0.146 A 
ATOM     11  O   UNL     1      28.017  39.682  21.562  1.00  0.00    -0.451 OA
ENDROOT
BRANCH   1  12
ATOM     12  C   UNL     1      27.946  37.699  20.191  1.00  0.00     0.063 A 
ATOM     13  C   UNL     1      29.125  35.944  18.989  1.00  0.00     0.047 A 
ATOM     14  C   UNL     1      28.860  37.299  19.202  1.00  0.00     0.020 A 
ATOM     15  C   UNL     1      28.493  34.973  19.769  1.00  0.00     0.119 A 
ATOM     16  C   UNL     1      27.597  35.363  20.774  1.00  0.00     0.093 A 
ATOM     17  C   UNL     1      27.330  36.721  20.999  1.00  0.00     0.130 A 
BRANCH  15  18
ATOM     18  O   UNL     1      28.763  33.626  19.543  1.00  0.00    -0.508 OA
ATOM     19  H   UNL     1      28.982  33.278  18.617  1.00  0.00     0.293 HD
ENDBRANCH  15  18
BRANCH  17  20
ATOM     20  O   UNL     1      26.475  37.099  22.033  1.00  0.00    -0.507 OA
ATOM     21  H   UNL     1      26.649  37.926  22.592  1.00  0.00     0.293 HD
ENDBRANCH  17  20
ENDBRANCH   1  12
BRANCH   2  22
ATOM     22  O   UNL     1      26.907  39.401  18.112  1.00  0.00    -0.502 OA
ATOM     23  H   UNL     1      26.919  39.958  17.266  1.00  0.00     0.293 HD
ENDBRANCH   2  22
BRANCH   6  24
ATOM     24  O   UNL     1      26.309  44.125  20.507  1.00  0.00    -0.507 OA
ATOM     25  H   UNL     1      26.187  44.051  19.508  1.00  0.00     0.293 HD
ENDBRANCH   6  24
BRANCH   8  26
ATOM     26  O   UNL     1      28.452  43.247  24.693  1.00  0.00    -0.508 OA
ATOM     27  H   UNL     1      29.325  43.750  24.804  1.00  0.00     0.293 HD
ENDBRANCH   8  26
TORSDOF 6
ENDMDL
MODEL 2
REMARK VINA RESULT:    -0.359      1.603      6.305
REMARK INTER + INTRA:          -0.755
REMARK INTER:                  -0.417
REMARK INTRA:                  -0.339
REMARK UNBOUND:                -0.323
REMARK SMILES O=c1c(O)c(-c2ccc(O)cc2O)oc2cc(O)cc(O)c12
REMARK SMILES IDX 5 1 3 2 2 3 1 4 22 5 20 6 19 7 17 8 16 9 15 10 14 11 6 12
REMARK SMILES IDX 8 13 7 14 9 15 11 16 12 17 10 18 13 20 4 22 21 24 18 26
REMARK H PARENT 10 19 13 21 4 23 21 25 18 27
REMARK Flexibility Score: inf
ROOT
ATOM      1  C   UNL     1      27.861  41.369  21.466  1.00  0.00     0.184 A 
ATOM      2  C   UNL     1      27.500  42.000  20.266  1.00  0.00     0.208 A 
ATOM      3  C   UNL     1      27.583  41.278  19.065  1.00  0.00     0.238 A 
ATOM      4  O   UNL     1      27.208  41.832  17.999  1.00  0.00    -0.285 OA
ATOM      5  C   UNL     1      28.040  39.937  19.081  1.00  0.00     0.111 A 
ATOM      6  C   UNL     1      28.201  39.123  17.920  1.00  0.00     0.134 A 
ATOM      7  C   UNL     1      28.535  37.771  18.065  1.00  0.00     0.093 A 
ATOM      8  C   UNL     1      28.778  37.221  19.323  1.00  0.00     0.123 A 
ATOM      9  C   UNL     1      28.681  38.023  20.461  1.00  0.00     0.094 A 
ATOM     10  C   UNL     1      28.314  39.366  20.351  1.00  0.00     0.146 A 
ATOM     11  O   UNL     1      28.223  40.091  21.459  1.00  0.00    -0.451 OA
ENDROOT
BRANCH   1  12
ATOM     12  C   UNL     1      27.814  42.078  22.762  1.00  0.00     0.063 A 
ATOM     13  C   UNL     1      29.011  43.140  24.593  1.00  0.00     0.047 A 
ATOM     14  C   UNL     1      29.019  42.463  23.371  1.00  0.00     0.020 A 
ATOM     15  C   UNL     1      27.800  43.453  25.215  1.00  0.00     0.119 A 
ATOM     16  C   UNL     1      26.591  43.094  24.605  1.00  0.00     0.093 A 
ATOM     17  C   UNL     1      26.590  42.420  23.374  1.00  0.00     0.130 A 
BRANCH  15  18
ATOM     18  O   UNL     1      27.807  44.124  26.436  1.00  0.00    -0.508 OA
ATOM     19  H   UNL     1      27.586  45.111  26.499  1.00  0.00     0.293 HD
ENDBRANCH  15  18
BRANCH  17  20
ATOM     20  O   UNL     1      25.381  42.112  22.753  1.00  0.00    -0.507 OA
ATOM     21  H   UNL     1      24.586  42.739  22.795  1.00  0.00     0.293 HD
ENDBRANCH  17  20
ENDBRANCH   1  12
BRANCH   2  22
ATOM     22  O   UNL     1      27.036  43.319  20.281  1.00  0.00    -0.502 OA
ATOM     23  H   UNL     1      27.033  43.883  21.122  1.00  0.00     0.293 HD
ENDBRANCH   2  22
BRANCH   6  24
ATOM     24  O   UNL     1      28.072  39.596  16.610  1.00  0.00    -0.507 OA
ATOM     25  H   UNL     1      28.717  40.228  16.162  1.00  0.00     0.293 HD
ENDBRANCH   6  24
BRANCH   8  26
ATOM     26  O   UNL     1      29.124  35.875  19.429  1.00  0.00    -0.508 OA
ATOM     27  H   UNL     1      28.491  35.140  19.134  1.00  0.00     0.293 HD
ENDBRANCH   8  26
TORSDOF 6
ENDMDL
MODEL 3
REMARK VINA RESULT:    -0.344      2.529      6.478
REMARK INTER + INTRA:          -0.737
REMARK INTER:                  -0.453
REMARK INTRA:                  -0.284
REMARK UNBOUND:                -0.323
REMARK SMILES O=c1c(O)c(-c2ccc(O)cc2O)oc2cc(O)cc(O)c12
REMARK SMILES IDX 5 1 3 2 2 3 1 4 22 5 20 6 19 7 17 8 16 9 15 10 14 11 6 12
REMARK SMILES IDX 8 13 7 14 9 15 11 16 12 17 10 18 13 20 4 22 21 24 18 26
REMARK H PARENT 10 19 13 21 4 23 21 25 18 27
REMARK Flexibility Score: inf
ROOT
ATOM      1  C   UNL     1      27.334  41.291  21.466  1.00  0.00     0.184 A 
ATOM      2  C   UNL     1      28.032  41.606  20.290  1.00  0.00     0.208 A 
ATOM      3  C   UNL     1      27.811  40.834  19.139  1.00  0.00     0.238 A 
ATOM      4  O   UNL     1      28.399  41.153  18.074  1.00  0.00    -0.285 OA
ATOM      5  C   UNL     1      26.903  39.747  19.185  1.00  0.00     0.111 A 
ATOM      6  C   UNL     1      26.630  38.873  18.090  1.00  0.00     0.134 A 
ATOM      7  C   UNL     1      25.619  37.912  18.209  1.00  0.00     0.093 A 
ATOM      8  C   UNL     1      24.916  37.751  19.402  1.00  0.00     0.123 A 
ATOM      9  C   UNL     1      25.215  38.561  20.498  1.00  0.00     0.094 A 
ATOM     10  C   UNL     1      26.194  39.552  20.399  1.00  0.00     0.146 A 
ATOM     11  O   UNL     1      26.440  40.309  21.462  1.00  0.00    -0.451 OA
ENDROOT
BRANCH   1  12
ATOM     12  C   UNL     1      27.534  42.053  22.717  1.00  0.00     0.063 A 
ATOM     13  C   UNL     1      28.371  42.115  24.999  1.00  0.00     0.047 A 
ATOM     14  C   UNL     1      28.161  41.423  23.804  1.00  0.00     0.020 A 
ATOM     15  C   UNL     1      27.972  43.448  25.119  1.00  0.00     0.119 A 
ATOM     16  C   UNL     1      27.366  44.094  24.032  1.00  0.00     0.093 A 
ATOM     17  C   UNL     1      27.157  43.408  22.826  1.00  0.00     0.130 A 
BRANCH  15  18
ATOM     18  O   UNL     1      28.184  44.125  26.318  1.00  0.00    -0.508 OA
ATOM     19  H   UNL     1      29.057  44.042  26.826  1.00  0.00     0.293 HD
ENDBRANCH  15  18
BRANCH  17  20
ATOM     20  O   UNL     1      26.599  44.074  21.736  1.00  0.00    -0.507 OA
ATOM     21  H   UNL     1      26.147  43.572  20.981  1.00  0.00     0.293 HD
ENDBRANCH  17  20
ENDBRANCH   1  12
BRANCH   2  22
ATOM     22  O   UNL     1      28.909  42.695  20.268  1.00  0.00    -0.502 OA
ATOM     23  H   UNL     1      29.408  42.973  19.432  1.00  0.00     0.293 HD
ENDBRANCH   2  22
BRANCH   6  24
ATOM     24  O   UNL     1      27.337  38.889  16.884  1.00  0.00    -0.507 OA
ATOM     25  H   UNL     1      28.342  38.854  16.807  1.00  0.00     0.293 HD
ENDBRANCH   6  24
BRANCH   8  26
ATOM     26  O   UNL     1      23.926  36.774  19.490  1.00  0.00    -0.508 OA
ATOM     27  H   UNL     1      23.659  36.369  20.380  1.00  0.00     0.293 HD
ENDBRANCH   8  26
TORSDOF 6
ENDMDL
MODEL 4
REMARK VINA RESULT:     0.296      2.325      3.004
REMARK INTER + INTRA:           0.034
REMARK INTER:                   0.249
REMARK INTRA:                  -0.215
REMARK UNBOUND:                -0.323
REMARK SMILES O=c1c(O)c(-c2ccc(O)cc2O)oc2cc(O)cc(O)c12
REMARK SMILES IDX 5 1 3 2 2 3 1 4 22 5 20 6 19 7 17 8 16 9 15 10 14 11 6 12
REMARK SMILES IDX 8 13 7 14 9 15 11 16 12 17 10 18 13 20 4 22 21 24 18 26
REMARK H PARENT 10 19 13 21 4 23 21 25 18 27
REMARK Flexibility Score: inf
ROOT
ATOM      1  C   UNL     1      26.103  39.964  20.477  1.00  0.00     0.184 A 
ATOM      2  C   UNL     1      26.889  40.358  19.383  1.00  0.00     0.208 A 
ATOM      3  C   UNL     1      27.688  41.506  19.497  1.00  0.00     0.238 A 
ATOM      4  O   UNL     1      28.431  41.824  18.532  1.00  0.00    -0.285 OA
ATOM      5  C   UNL     1      27.677  42.254  20.699  1.00  0.00     0.111 A 
ATOM      6  C   UNL     1      28.417  43.456  20.912  1.00  0.00     0.134 A 
ATOM      7  C   UNL     1      28.433  44.041  22.184  1.00  0.00     0.093 A 
ATOM      8  C   UNL     1      27.686  43.506  23.233  1.00  0.00     0.123 A 
ATOM      9  C   UNL     1      26.912  42.364  23.020  1.00  0.00     0.094 A 
ATOM     10  C   UNL     1      26.904  41.737  21.772  1.00  0.00     0.146 A 
ATOM     11  O   UNL     1      26.163  40.647  21.614  1.00  0.00    -0.451 OA
ENDROOT
BRANCH   1  12
ATOM     12  C   UNL     1      25.226  38.776  20.416  1.00  0.00     0.063 A 
ATOM     13  C   UNL     1      22.979  37.849  20.450  1.00  0.00     0.047 A 
ATOM     14  C   UNL     1      23.836  38.950  20.509  1.00  0.00     0.020 A 
ATOM     15  C   UNL     1      23.496  36.563  20.283  1.00  0.00     0.119 A 
ATOM     16  C   UNL     1      24.880  36.379  20.166  1.00  0.00     0.093 A 
ATOM     17  C   UNL     1      25.749  37.480  20.218  1.00  0.00     0.130 A 
BRANCH  15  18
ATOM     18  O   UNL     1      22.629  35.474  20.231  1.00  0.00    -0.508 OA
ATOM     19  H   UNL     1      21.982  35.275  20.985  1.00  0.00     0.293 HD
ENDBRANCH  15  18
BRANCH  17  20
ATOM     20  O   UNL     1      27.120  37.291  20.051  1.00  0.00    -0.507 OA
ATOM     21  H   UNL     1      27.735  38.056  19.797  1.00  0.00     0.293 HD
ENDBRANCH  17  20
ENDBRANCH   1  12
BRANCH   2  22
ATOM     22  O   UNL     1      26.894  39.591  18.214  1.00  0.00    -0.502 OA
ATOM     23  H   UNL     1      26.715  38.594  18.217  1.00  0.00     0.293 HD
ENDBRANCH   2  22
BRANCH   6  24
ATOM     24  O   UNL     1      29.125  44.125  19.910  1.00  0.00    -0.507 OA
ATOM     25  H   UNL     1      28.717  44.477  19.056  1.00  0.00     0.293 HD
ENDBRANCH   6  24
BRANCH   8  26
ATOM     26  O   UNL     1      27.713  44.123  24.482  1.00  0.00    -0.508 OA
ATOM     27  H   UNL     1      28.176  43.694  25.275  1.00  0.00     0.293 HD
ENDBRANCH   8  26
TORSDOF 6
ENDMDL
