MODEL 1
REMARK VINA RESULT:    -5.351      0.000      0.000
REMARK INTER + INTRA:         -13.345
REMARK INTER:                 -11.608
REMARK INTRA:                  -1.738
REMARK UNBOUND:                -1.738
REMARK SMILES CCCCCCCCCCCCCCCCCCCCCC(=O)[O-]
REMARK SMILES IDX 12 1 11 2 10 3 9 4 8 5 7 6 6 7 5 8 4 9 3 10 2 11 1 12 13 13
REMARK SMILES IDX 14 14 15 15 16 16 17 17 18 18 19 19 20 20 21 21 22 22 23 23
REMARK SMILES IDX 24 24
REMARK H PARENT
REMARK Flexibility Score: inf
ROOT
ATOM      1  C   UNL     1      13.269 -18.809 -16.607  1.00  0.00     0.000 C 
ENDROOT
BRANCH   1   2
ATOM      2  C   UNL     1      12.189 -19.703 -15.969  1.00  0.00     0.000 C 
BRANCH   2   3
ATOM      3  C   UNL     1      12.720 -20.975 -15.280  1.00  0.00     0.000 C 
BRANCH   3   4
ATOM      4  C   UNL     1      11.642 -21.868 -14.638  1.00  0.00    -0.000 C 
BRANCH   4   5
ATOM      5  C   UNL     1      12.187 -23.201 -14.081  1.00  0.00    -0.000 C 
BRANCH   5   6
ATOM      6  C   UNL     1      11.093 -24.271 -13.942  1.00  0.00    -0.000 C 
BRANCH   6   7
ATOM      7  C   UNL     1      11.625 -25.655 -14.333  1.00  0.00    -0.000 C 
BRANCH   7   8
ATOM      8  C   UNL     1      13.141 -25.745 -14.113  1.00  0.00    -0.000 C 
BRANCH   8   9
ATOM      9  C   UNL     1      13.656 -27.163 -14.400  1.00  0.00    -0.000 C 
BRANCH   9  10
ATOM     10  C   UNL     1      15.173 -27.210 -14.654  1.00  0.00    -0.000 C 
BRANCH  10  11
ATOM     11  C   UNL     1      15.621 -28.243 -15.704  1.00  0.00    -0.003 C 
ATOM     12  C   UNL     1      14.838 -28.143 -17.013  1.00  0.00     0.004 C 
ENDBRANCH  10  11
ENDBRANCH   9  10
ENDBRANCH   8   9
ENDBRANCH   7   8
ENDBRANCH   6   7
ENDBRANCH   5   6
ENDBRANCH   4   5
ENDBRANCH   3   4
ENDBRANCH   2   3
ENDBRANCH   1   2
BRANCH   1  13
ATOM     13  C   UNL     1      14.324 -18.332 -15.599  1.00  0.00     0.000 C 
BRANCH  13  14
ATOM     14  C   UNL     1      14.093 -16.861 -15.221  1.00  0.00     0.000 C 
BRANCH  14  15
ATOM     15  C   UNL     1      13.832 -16.672 -13.718  1.00  0.00     0.000 C 
BRANCH  15  16
ATOM     16  C   UNL     1      12.448 -17.191 -13.289  1.00  0.00     0.000 C 
BRANCH  16  17
ATOM     17  C   UNL     1      12.534 -18.440 -12.397  1.00  0.00     0.000 C 
BRANCH  17  18
ATOM     18  C   UNL     1      11.170 -19.127 -12.212  1.00  0.00     0.000 C 
BRANCH  18  19
ATOM     19  C   UNL     1      10.425 -18.632 -10.961  1.00  0.00     0.000 C 
BRANCH  19  20
ATOM     20  C   UNL     1      11.153 -18.987  -9.656  1.00  0.00     0.006 C 
BRANCH  20  21
ATOM     21  C   UNL     1      11.334 -17.746  -8.775  1.00  0.00     0.053 C 
BRANCH  21  22
ATOM     22  C   UNL     1      10.850 -18.015  -7.386  1.00  0.00     0.041 C 
ATOM     23  O   UNL     1       9.633 -17.864  -7.098  1.00  0.00    -0.550 OA
ATOM     24  O   UNL     1      11.751 -18.385  -6.395  1.00  0.00    -0.550 OA
ENDBRANCH  21  22
ENDBRANCH  20  21
ENDBRANCH  19  20
ENDBRANCH  18  19
ENDBRANCH  17  18
ENDBRANCH  16  17
ENDBRANCH  15  16
ENDBRANCH  14  15
ENDBRANCH  13  14
ENDBRANCH   1  13
TORSDOF 20
ENDMDL
MODEL 2
REMARK VINA RESULT:    -5.344      1.835      3.871
REMARK INTER + INTRA:         -13.329
REMARK INTER:                 -10.312
REMARK INTRA:                  -3.017
REMARK UNBOUND:                -1.738
REMARK SMILES CCCCCCCCCCCCCCCCCCCCCC(=O)[O-]
REMARK SMILES IDX 12 1 11 2 10 3 9 4 8 5 7 6 6 7 5 8 4 9 3 10 2 11 1 12 13 13
REMARK SMILES IDX 14 14 15 15 16 16 17 17 18 18 19 19 20 20 21 21 22 22 23 23
REMARK SMILES IDX 24 24
REMARK H PARENT
REMARK Flexibility Score: inf
ROOT
ATOM      1  C   UNL     1      12.652 -20.904 -15.481  1.00  0.00     0.000 C 
ENDROOT
BRANCH   1   2
ATOM      2  C   UNL     1      11.548 -21.815 -14.913  1.00  0.00     0.000 C 
BRANCH   2   3
ATOM      3  C   UNL     1      12.045 -22.934 -13.976  1.00  0.00     0.000 C 
BRANCH   3   4
ATOM      4  C   UNL     1      11.249 -24.251 -14.052  1.00  0.00    -0.000 C 
BRANCH   4   5
ATOM      5  C   UNL     1      12.133 -25.516 -14.027  1.00  0.00    -0.000 C 
BRANCH   5   6
ATOM      6  C   UNL     1      13.612 -25.207 -14.303  1.00  0.00    -0.000 C 
BRANCH   6   7
ATOM      7  C   UNL     1      14.442 -25.292 -13.016  1.00  0.00    -0.000 C 
BRANCH   7   8
ATOM      8  C   UNL     1      15.858 -24.745 -13.237  1.00  0.00    -0.000 C 
BRANCH   8   9
ATOM      9  C   UNL     1      15.817 -23.285 -13.711  1.00  0.00    -0.000 C 
BRANCH   9  10
ATOM     10  C   UNL     1      15.437 -22.301 -12.591  1.00  0.00    -0.000 C 
BRANCH  10  11
ATOM     11  C   UNL     1      15.338 -20.828 -13.029  1.00  0.00    -0.003 C 
ATOM     12  C   UNL     1      15.090 -19.872 -11.863  1.00  0.00     0.004 C 
ENDBRANCH  10  11
ENDBRANCH   9  10
ENDBRANCH   8   9
ENDBRANCH   7   8
ENDBRANCH   6   7
ENDBRANCH   5   6
ENDBRANCH   4   5
ENDBRANCH   3   4
ENDBRANCH   2   3
ENDBRANCH   1   2
BRANCH   1  13
ATOM     13  C   UNL     1      12.120 -19.876 -16.490  1.00  0.00     0.000 C 
BRANCH  13  14
ATOM     14  C   UNL     1      13.245 -18.943 -16.964  1.00  0.00     0.000 C 
BRANCH  14  15
ATOM     15  C   UNL     1      14.181 -18.519 -15.821  1.00  0.00     0.000 C 
BRANCH  15  16
ATOM     16  C   UNL     1      13.878 -17.102 -15.304  1.00  0.00     0.000 C 
BRANCH  16  17
ATOM     17  C   UNL     1      14.036 -16.981 -13.780  1.00  0.00     0.000 C 
BRANCH  17  18
ATOM     18  C   UNL     1      12.683 -16.892 -13.053  1.00  0.00     0.000 C 
BRANCH  18  19
ATOM     19  C   UNL     1      11.708 -18.001 -13.481  1.00  0.00     0.000 C 
BRANCH  19  20
ATOM     20  C   UNL     1      11.417 -19.004 -12.354  1.00  0.00     0.006 C 
BRANCH  20  21
ATOM     21  C   UNL     1      10.629 -18.339 -11.220  1.00  0.00     0.053 C 
BRANCH  21  22
ATOM     22  C   UNL     1      11.358 -18.481  -9.923  1.00  0.00     0.041 C 
ATOM     23  O   UNL     1      12.616 -18.543  -9.906  1.00  0.00    -0.550 OA
ATOM     24  O   UNL     1      10.648 -18.594  -8.734  1.00  0.00    -0.550 OA
ENDBRANCH  21  22
ENDBRANCH  20  21
ENDBRANCH  19  20
ENDBRANCH  18  19
ENDBRANCH  17  18
ENDBRANCH  16  17
ENDBRANCH  15  16
ENDBRANCH  14  15
ENDBRANCH  13  14
ENDBRANCH   1  13
TORSDOF 20
ENDMDL
MODEL 3
REMARK VINA RESULT:    -5.330      3.986      6.686
REMARK INTER + INTRA:         -13.299
REMARK INTER:                 -10.592
REMARK INTRA:                  -2.707
REMARK UNBOUND:                -1.738
REMARK SMILES CCCCCCCCCCCCCCCCCCCCCC(=O)[O-]
REMARK SMILES IDX 12 1 11 2 10 3 9 4 8 5 7 6 6 7 5 8 4 9 3 10 2 11 1 12 13 13
REMARK SMILES IDX 14 14 15 15 16 16 17 17 18 18 19 19 20 20 21 21 22 22 23 23
REMARK SMILES IDX 24 24
REMARK H PARENT
REMARK Flexibility Score: inf
ROOT
ATOM      1  C   UNL     1      11.276 -18.991 -12.034  1.00  0.00     0.000 C 
ENDROOT
BRANCH   1   2
ATOM      2  C   UNL     1      11.308 -18.136 -13.314  1.00  0.00     0.000 C 
BRANCH   2   3
ATOM      3  C   UNL     1      11.022 -18.905 -14.618  1.00  0.00     0.000 C 
BRANCH   3   4
ATOM      4  C   UNL     1      11.942 -20.112 -14.880  1.00  0.00    -0.000 C 
BRANCH   4   5
ATOM      5  C   UNL     1      12.573 -20.123 -16.288  1.00  0.00    -0.000 C 
BRANCH   5   6
ATOM      6  C   UNL     1      13.134 -18.751 -16.693  1.00  0.00    -0.000 C 
BRANCH   6   7
ATOM      7  C   UNL     1      14.336 -18.369 -15.820  1.00  0.00    -0.000 C 
BRANCH   7   8
ATOM      8  C   UNL     1      14.186 -16.945 -15.270  1.00  0.00    -0.000 C 
BRANCH   8   9
ATOM      9  C   UNL     1      14.862 -16.812 -13.897  1.00  0.00    -0.000 C 
BRANCH   9  10
ATOM     10  C   UNL     1      15.007 -18.158 -13.166  1.00  0.00    -0.000 C 
BRANCH  10  11
ATOM     11  C   UNL     1      14.918 -18.074 -11.632  1.00  0.00    -0.003 C 
ATOM     12  C   UNL     1      14.262 -16.784 -11.140  1.00  0.00     0.004 C 
ENDBRANCH  10  11
ENDBRANCH   9  10
ENDBRANCH   8   9
ENDBRANCH   7   8
ENDBRANCH   6   7
ENDBRANCH   5   6
ENDBRANCH   4   5
ENDBRANCH   3   4
ENDBRANCH   2   3
ENDBRANCH   1   2
BRANCH   1  13
ATOM     13  C   UNL     1      10.959 -18.174 -10.773  1.00  0.00     0.000 C 
BRANCH  13  14
ATOM     14  C   UNL     1      10.698 -19.097  -9.574  1.00  0.00     0.000 C 
BRANCH  14  15
ATOM     15  C   UNL     1      11.290 -18.547  -8.266  1.00  0.00     0.000 C 
BRANCH  15  16
ATOM     16  C   UNL     1      11.264 -17.010  -8.207  1.00  0.00     0.000 C 
BRANCH  16  17
ATOM     17  C   UNL     1      10.248 -16.475  -7.184  1.00  0.00     0.000 C 
BRANCH  17  18
ATOM     18  C   UNL     1       9.284 -17.566  -6.686  1.00  0.00     0.000 C 
BRANCH  18  19
ATOM     19  C   UNL     1       8.836 -17.340  -5.232  1.00  0.00     0.000 C 
BRANCH  19  20
ATOM     20  C   UNL     1       8.836 -18.633  -4.403  1.00  0.00     0.006 C 
BRANCH  20  21
ATOM     21  C   UNL     1      10.133 -19.420  -4.616  1.00  0.00     0.053 C 
BRANCH  21  22
ATOM     22  C   UNL     1      11.295 -18.683  -4.031  1.00  0.00     0.041 C 
ATOM     23  O   UNL     1      11.281 -18.334  -2.820  1.00  0.00    -0.550 OA
ATOM     24  O   UNL     1      12.375 -18.336  -4.833  1.00  0.00    -0.550 OA
ENDBRANCH  21  22
ENDBRANCH  20  21
ENDBRANCH  19  20
ENDBRANCH  18  19
ENDBRANCH  17  18
ENDBRANCH  16  17
ENDBRANCH  15  16
ENDBRANCH  14  15
ENDBRANCH  13  14
ENDBRANCH   1  13
TORSDOF 20
ENDMDL
MODEL 4
REMARK VINA RESULT:    -5.322      2.961      8.669
REMARK INTER + INTRA:         -13.281
REMARK INTER:                 -10.942
REMARK INTRA:                  -2.340
REMARK UNBOUND:                -1.738
REMARK SMILES CCCCCCCCCCCCCCCCCCCCCC(=O)[O-]
REMARK SMILES IDX 12 1 11 2 10 3 9 4 8 5 7 6 6 7 5 8 4 9 3 10 2 11 1 12 13 13
REMARK SMILES IDX 14 14 15 15 16 16 17 17 18 18 19 19 20 20 21 21 22 22 23 23
REMARK SMILES IDX 24 24
REMARK H PARENT
REMARK Flexibility Score: inf
ROOT
ATOM      1  C   UNL     1      12.920 -23.016 -14.069  1.00  0.00     0.000 C 
ENDROOT
BRANCH   1   2
ATOM      2  C   UNL     1      12.962 -21.477 -14.091  1.00  0.00     0.000 C 
BRANCH   2   3
ATOM      3  C   UNL     1      11.603 -20.792 -14.336  1.00  0.00     0.000 C 
BRANCH   3   4
ATOM      4  C   UNL     1      11.660 -19.522 -15.206  1.00  0.00    -0.000 C 
BRANCH   4   5
ATOM      5  C   UNL     1      12.488 -19.688 -16.499  1.00  0.00    -0.000 C 
BRANCH   5   6
ATOM      6  C   UNL     1      13.530 -18.573 -16.677  1.00  0.00    -0.000 C 
BRANCH   6   7
ATOM      7  C   UNL     1      14.288 -18.314 -15.370  1.00  0.00    -0.000 C 
BRANCH   7   8
ATOM      8  C   UNL     1      14.316 -16.818 -15.036  1.00  0.00    -0.000 C 
BRANCH   8   9
ATOM      9  C   UNL     1      13.287 -16.477 -13.948  1.00  0.00    -0.000 C 
BRANCH   9  10
ATOM     10  C   UNL     1      13.749 -16.880 -12.537  1.00  0.00    -0.000 C 
BRANCH  10  11
ATOM     11  C   UNL     1      13.080 -18.147 -11.974  1.00  0.00    -0.003 C 
ATOM     12  C   UNL     1      11.566 -18.008 -11.824  1.00  0.00     0.004 C 
ENDBRANCH  10  11
ENDBRANCH   9  10
ENDBRANCH   8   9
ENDBRANCH   7   8
ENDBRANCH   6   7
ENDBRANCH   5   6
ENDBRANCH   4   5
ENDBRANCH   3   4
ENDBRANCH   2   3
ENDBRANCH   1   2
BRANCH   1  13
ATOM     13  C   UNL     1      11.491 -23.577 -14.102  1.00  0.00     0.000 C 
BRANCH  13  14
ATOM     14  C   UNL     1      11.507 -25.113 -14.099  1.00  0.00     0.000 C 
BRANCH  14  15
ATOM     15  C   UNL     1      12.932 -25.689 -14.068  1.00  0.00     0.000 C 
BRANCH  15  16
ATOM     16  C   UNL     1      12.974 -27.183 -14.434  1.00  0.00     0.000 C 
BRANCH  16  17
ATOM     17  C   UNL     1      14.292 -27.588 -15.115  1.00  0.00     0.000 C 
BRANCH  17  18
ATOM     18  C   UNL     1      15.518 -26.923 -14.467  1.00  0.00     0.000 C 
BRANCH  18  19
ATOM     19  C   UNL     1      16.031 -27.696 -13.241  1.00  0.00     0.000 C 
BRANCH  19  20
ATOM     20  C   UNL     1      17.001 -26.872 -12.382  1.00  0.00     0.006 C 
BRANCH  20  21
ATOM     21  C   UNL     1      16.827 -25.372 -12.645  1.00  0.00     0.053 C 
BRANCH  21  22
ATOM     22  C   UNL     1      16.009 -24.741 -11.564  1.00  0.00     0.041 C 
ATOM     23  O   UNL     1      15.769 -25.372 -10.501  1.00  0.00    -0.550 OA
ATOM     24  O   UNL     1      15.470 -23.475 -11.749  1.00  0.00    -0.550 OA
ENDBRANCH  21  22
ENDBRANCH  20  21
ENDBRANCH  19  20
ENDBRANCH  18  19
ENDBRANCH  17  18
ENDBRANCH  16  17
ENDBRANCH  15  16
ENDBRANCH  14  15
ENDBRANCH  13  14
ENDBRANCH   1  13
TORSDOF 20
ENDMDL
MODEL 5
REMARK VINA RESULT:    -5.317      3.009      4.811
REMARK INTER + INTRA:         -13.271
REMARK INTER:                 -11.059
REMARK INTRA:                  -2.213
REMARK UNBOUND:                -1.738
REMARK SMILES CCCCCCCCCCCCCCCCCCCCCC(=O)[O-]
REMARK SMILES IDX 12 1 11 2 10 3 9 4 8 5 7 6 6 7 5 8 4 9 3 10 2 11 1 12 13 13
REMARK SMILES IDX 14 14 15 15 16 16 17 17 18 18 19 19 20 20 21 21 22 22 23 23
REMARK SMILES IDX 24 24
REMARK H PARENT
REMARK Flexibility Score: inf
ROOT
ATOM      1  C   UNL     1      11.011 -19.367 -12.303  1.00  0.00     0.000 C 
ENDROOT
BRANCH   1   2
ATOM      2  C   UNL     1      11.619 -18.634 -13.514  1.00  0.00     0.000 C 
BRANCH   2   3
ATOM      3  C   UNL     1      11.038 -19.044 -14.881  1.00  0.00     0.000 C 
BRANCH   3   4
ATOM      4  C   UNL     1      11.508 -20.415 -15.405  1.00  0.00    -0.000 C 
BRANCH   4   5
ATOM      5  C   UNL     1      12.937 -20.796 -14.962  1.00  0.00    -0.000 C 
BRANCH   5   6
ATOM      6  C   UNL     1      12.951 -21.960 -13.960  1.00  0.00    -0.000 C 
BRANCH   6   7
ATOM      7  C   UNL     1      11.776 -22.913 -14.206  1.00  0.00    -0.000 C 
BRANCH   7   8
ATOM      8  C   UNL     1      12.209 -24.375 -14.038  1.00  0.00    -0.000 C 
BRANCH   8   9
ATOM      9  C   UNL     1      13.701 -24.471 -13.686  1.00  0.00    -0.000 C 
BRANCH   9  10
ATOM     10  C   UNL     1      14.195 -25.923 -13.554  1.00  0.00    -0.000 C 
BRANCH  10  11
ATOM     11  C   UNL     1      13.467 -26.938 -14.454  1.00  0.00    -0.003 C 
ATOM     12  C   UNL     1      14.418 -27.733 -15.348  1.00  0.00     0.004 C 
ENDBRANCH  10  11
ENDBRANCH   9  10
ENDBRANCH   8   9
ENDBRANCH   7   8
ENDBRANCH   6   7
ENDBRANCH   5   6
ENDBRANCH   4   5
ENDBRANCH   3   4
ENDBRANCH   2   3
ENDBRANCH   1   2
BRANCH   1  13
ATOM     13  C   UNL     1      10.584 -18.414 -11.177  1.00  0.00     0.000 C 
BRANCH  13  14
ATOM     14  C   UNL     1      10.570 -19.139  -9.823  1.00  0.00     0.000 C 
BRANCH  14  15
ATOM     15  C   UNL     1      11.463 -18.451  -8.777  1.00  0.00     0.000 C 
BRANCH  15  16
ATOM     16  C   UNL     1      11.598 -16.937  -9.020  1.00  0.00     0.000 C 
BRANCH  16  17
ATOM     17  C   UNL     1      13.033 -16.429  -8.801  1.00  0.00     0.000 C 
BRANCH  17  18
ATOM     18  C   UNL     1      13.840 -16.362 -10.109  1.00  0.00     0.000 C 
BRANCH  18  19
ATOM     19  C   UNL     1      14.477 -17.712 -10.480  1.00  0.00     0.000 C 
BRANCH  19  20
ATOM     20  C   UNL     1      14.630 -17.899 -11.997  1.00  0.00     0.006 C 
BRANCH  20  21
ATOM     21  C   UNL     1      14.336 -16.593 -12.742  1.00  0.00     0.053 C 
BRANCH  21  22
ATOM     22  C   UNL     1      14.833 -16.670 -14.151  1.00  0.00     0.041 C 
ATOM     23  O   UNL     1      14.029 -16.555 -15.114  1.00  0.00    -0.550 OA
ATOM     24  O   UNL     1      16.176 -16.918 -14.402  1.00  0.00    -0.550 OA
ENDBRANCH  21  22
ENDBRANCH  20  21
ENDBRANCH  19  20
ENDBRANCH  18  19
ENDBRANCH  17  18
ENDBRANCH  16  17
ENDBRANCH  15  16
ENDBRANCH  14  15
ENDBRANCH  13  14
ENDBRANCH   1  13
TORSDOF 20
ENDMDL
MODEL 6
REMARK VINA RESULT:    -5.292      4.548      9.161
REMARK INTER + INTRA:         -13.217
REMARK INTER:                 -11.052
REMARK INTRA:                  -2.165
REMARK UNBOUND:                -1.738
REMARK SMILES CCCCCCCCCCCCCCCCCCCCCC(=O)[O-]
REMARK SMILES IDX 12 1 11 2 10 3 9 4 8 5 7 6 6 7 5 8 4 9 3 10 2 11 1 12 13 13
REMARK SMILES IDX 14 14 15 15 16 16 17 17 18 18 19 19 20 20 21 21 22 22 23 23
REMARK SMILES IDX 24 24
REMARK H PARENT
REMARK Flexibility Score: inf
ROOT
ATOM      1  C   UNL     1      11.649 -19.386 -15.293  1.00  0.00     0.000 C 
ENDROOT
BRANCH   1   2
ATOM      2  C   UNL     1      12.696 -19.497 -16.417  1.00  0.00     0.000 C 
BRANCH   2   3
ATOM      3  C   UNL     1      13.707 -18.335 -16.483  1.00  0.00     0.000 C 
BRANCH   3   4
ATOM      4  C   UNL     1      13.616 -17.325 -15.324  1.00  0.00    -0.000 C 
BRANCH   4   5
ATOM      5  C   UNL     1      14.951 -16.620 -15.004  1.00  0.00    -0.000 C 
BRANCH   5   6
ATOM      6  C   UNL     1      15.469 -16.951 -13.596  1.00  0.00    -0.000 C 
BRANCH   6   7
ATOM      7  C   UNL     1      15.265 -18.435 -13.270  1.00  0.00    -0.000 C 
BRANCH   7   8
ATOM      8  C   UNL     1      14.601 -18.611 -11.898  1.00  0.00    -0.000 C 
BRANCH   8   9
ATOM      9  C   UNL     1      13.177 -18.035 -11.898  1.00  0.00    -0.000 C 
BRANCH   9  10
ATOM     10  C   UNL     1      12.675 -17.675 -10.489  1.00  0.00    -0.000 C 
BRANCH  10  11
ATOM     11  C   UNL     1      11.204 -18.035 -10.214  1.00  0.00    -0.003 C 
ATOM     12  C   UNL     1      10.539 -18.765 -11.381  1.00  0.00     0.004 C 
ENDBRANCH  10  11
ENDBRANCH   9  10
ENDBRANCH   8   9
ENDBRANCH   7   8
ENDBRANCH   6   7
ENDBRANCH   5   6
ENDBRANCH   4   5
ENDBRANCH   3   4
ENDBRANCH   2   3
ENDBRANCH   1   2
BRANCH   1  13
ATOM     13  C   UNL     1      11.735 -20.535 -14.278  1.00  0.00     0.000 C 
BRANCH  13  14
ATOM     14  C   UNL     1      12.993 -21.384 -14.518  1.00  0.00     0.000 C 
BRANCH  14  15
ATOM     15  C   UNL     1      12.853 -22.814 -13.970  1.00  0.00     0.000 C 
BRANCH  15  16
ATOM     16  C   UNL     1      11.414 -23.348 -14.076  1.00  0.00     0.000 C 
BRANCH  16  17
ATOM     17  C   UNL     1      11.355 -24.884 -14.115  1.00  0.00     0.000 C 
BRANCH  17  18
ATOM     18  C   UNL     1      12.751 -25.528 -14.064  1.00  0.00     0.000 C 
BRANCH  18  19
ATOM     19  C   UNL     1      12.727 -27.021 -14.431  1.00  0.00     0.000 C 
BRANCH  19  20
ATOM     20  C   UNL     1      14.119 -27.669 -14.380  1.00  0.00     0.006 C 
BRANCH  20  21
ATOM     21  C   UNL     1      15.040 -27.074 -15.451  1.00  0.00     0.053 C 
BRANCH  21  22
ATOM     22  C   UNL     1      15.702 -28.161 -16.236  1.00  0.00     0.041 C 
ATOM     23  O   UNL     1      15.955 -29.269 -15.694  1.00  0.00    -0.550 OA
ATOM     24  O   UNL     1      16.084 -27.935 -17.552  1.00  0.00    -0.550 OA
ENDBRANCH  21  22
ENDBRANCH  20  21
ENDBRANCH  19  20
ENDBRANCH  18  19
ENDBRANCH  17  18
ENDBRANCH  16  17
ENDBRANCH  15  16
ENDBRANCH  14  15
ENDBRANCH  13  14
ENDBRANCH   1  13
TORSDOF 20
ENDMDL
MODEL 7
REMARK VINA RESULT:    -5.289      2.528      4.394
REMARK INTER + INTRA:         -13.210
REMARK INTER:                 -10.103
REMARK INTRA:                  -3.107
REMARK UNBOUND:                -1.738
REMARK SMILES CCCCCCCCCCCCCCCCCCCCCC(=O)[O-]
REMARK SMILES IDX 12 1 11 2 10 3 9 4 8 5 7 6 6 7 5 8 4 9 3 10 2 11 1 12 13 13
REMARK SMILES IDX 14 14 15 15 16 16 17 17 18 18 19 19 20 20 21 21 22 22 23 23
REMARK SMILES IDX 24 24
REMARK H PARENT
REMARK Flexibility Score: inf
ROOT
ATOM      1  C   UNL     1      14.234 -18.494 -15.337  1.00  0.00     0.000 C 
ENDROOT
BRANCH   1   2
ATOM      2  C   UNL     1      14.668 -17.018 -15.277  1.00  0.00     0.000 C 
BRANCH   2   3
ATOM      3  C   UNL     1      14.968 -16.484 -13.862  1.00  0.00     0.000 C 
BRANCH   3   4
ATOM      4  C   UNL     1      14.107 -17.093 -12.739  1.00  0.00    -0.000 C 
BRANCH   4   5
ATOM      5  C   UNL     1      14.924 -17.840 -11.662  1.00  0.00    -0.000 C 
BRANCH   5   6
ATOM      6  C   UNL     1      14.768 -19.366 -11.759  1.00  0.00    -0.000 C 
BRANCH   6   7
ATOM      7  C   UNL     1      15.976 -19.998 -12.460  1.00  0.00    -0.000 C 
BRANCH   7   8
ATOM      8  C   UNL     1      15.664 -21.431 -12.909  1.00  0.00    -0.000 C 
BRANCH   8   9
ATOM      9  C   UNL     1      14.284 -21.510 -13.578  1.00  0.00    -0.000 C 
BRANCH   9  10
ATOM     10  C   UNL     1      13.627 -22.895 -13.438  1.00  0.00    -0.000 C 
BRANCH  10  11
ATOM     11  C   UNL     1      12.150 -22.957 -13.867  1.00  0.00    -0.003 C 
ATOM     12  C   UNL     1      11.681 -24.374 -14.194  1.00  0.00     0.004 C 
ENDBRANCH  10  11
ENDBRANCH   9  10
ENDBRANCH   8   9
ENDBRANCH   7   8
ENDBRANCH   6   7
ENDBRANCH   5   6
ENDBRANCH   4   5
ENDBRANCH   3   4
ENDBRANCH   2   3
ENDBRANCH   1   2
BRANCH   1  13
ATOM     13  C   UNL     1      12.998 -18.720 -16.220  1.00  0.00     0.000 C 
BRANCH  13  14
ATOM     14  C   UNL     1      11.992 -19.650 -15.526  1.00  0.00     0.000 C 
BRANCH  14  15
ATOM     15  C   UNL     1      11.113 -18.909 -14.504  1.00  0.00     0.000 C 
BRANCH  15  16
ATOM     16  C   UNL     1      11.415 -19.326 -13.054  1.00  0.00     0.000 C 
BRANCH  16  17
ATOM     17  C   UNL     1      10.751 -18.399 -12.022  1.00  0.00     0.000 C 
BRANCH  17  18
ATOM     18  C   UNL     1      10.512 -19.097 -10.672  1.00  0.00     0.000 C 
BRANCH  18  19
ATOM     19  C   UNL     1      11.603 -18.773  -9.638  1.00  0.00     0.000 C 
BRANCH  19  20
ATOM     20  C   UNL     1      11.401 -17.405  -8.970  1.00  0.00     0.006 C 
BRANCH  20  21
ATOM     21  C   UNL     1      12.319 -17.250  -7.753  1.00  0.00     0.053 C 
BRANCH  21  22
ATOM     22  C   UNL     1      13.072 -15.960  -7.826  1.00  0.00     0.041 C 
ATOM     23  O   UNL     1      12.928 -15.197  -8.818  1.00  0.00    -0.550 OA
ATOM     24  O   UNL     1      13.971 -15.621  -6.823  1.00  0.00    -0.550 OA
ENDBRANCH  21  22
ENDBRANCH  20  21
ENDBRANCH  19  20
ENDBRANCH  18  19
ENDBRANCH  17  18
ENDBRANCH  16  17
ENDBRANCH  15  16
ENDBRANCH  14  15
ENDBRANCH  13  14
ENDBRANCH   1  13
TORSDOF 20
ENDMDL
MODEL 8
REMARK VINA RESULT:    -5.259      3.969      6.187
REMARK INTER + INTRA:         -13.144
REMARK INTER:                 -10.157
REMARK INTRA:                  -2.987
REMARK UNBOUND:                -1.738
REMARK SMILES CCCCCCCCCCCCCCCCCCCCCC(=O)[O-]
REMARK SMILES IDX 12 1 11 2 10 3 9 4 8 5 7 6 6 7 5 8 4 9 3 10 2 11 1 12 13 13
REMARK SMILES IDX 14 14 15 15 16 16 17 17 18 18 19 19 20 20 21 21 22 22 23 23
REMARK SMILES IDX 24 24
REMARK H PARENT
REMARK Flexibility Score: inf
ROOT
ATOM      1  C   UNL     1      11.501 -20.506 -14.354  1.00  0.00     0.000 C 
ENDROOT
BRANCH   1   2
ATOM      2  C   UNL     1      11.383 -19.461 -15.479  1.00  0.00     0.000 C 
BRANCH   2   3
ATOM      3  C   UNL     1      12.312 -19.696 -16.686  1.00  0.00     0.000 C 
BRANCH   3   4
ATOM      4  C   UNL     1      13.479 -18.699 -16.816  1.00  0.00    -0.000 C 
BRANCH   4   5
ATOM      5  C   UNL     1      14.384 -18.631 -15.567  1.00  0.00    -0.000 C 
BRANCH   5   6
ATOM      6  C   UNL     1      14.680 -17.188 -15.133  1.00  0.00    -0.000 C 
BRANCH   6   7
ATOM      7  C   UNL     1      13.436 -16.529 -14.525  1.00  0.00    -0.000 C 
BRANCH   7   8
ATOM      8  C   UNL     1      13.562 -16.413 -13.001  1.00  0.00    -0.000 C 
BRANCH   8   9
ATOM      9  C   UNL     1      14.914 -16.959 -12.518  1.00  0.00    -0.000 C 
BRANCH   9  10
ATOM     10  C   UNL     1      14.873 -17.465 -11.065  1.00  0.00    -0.000 C 
BRANCH  10  11
ATOM     11  C   UNL     1      14.957 -18.995 -10.910  1.00  0.00    -0.003 C 
ATOM     12  C   UNL     1      15.548 -19.689 -12.137  1.00  0.00     0.004 C 
ENDBRANCH  10  11
ENDBRANCH   9  10
ENDBRANCH   8   9
ENDBRANCH   7   8
ENDBRANCH   6   7
ENDBRANCH   5   6
ENDBRANCH   4   5
ENDBRANCH   3   4
ENDBRANCH   2   3
ENDBRANCH   1   2
BRANCH   1  13
ATOM     13  C   UNL     1      11.989 -19.907 -13.028  1.00  0.00     0.000 C 
BRANCH  13  14
ATOM     14  C   UNL     1      11.026 -18.819 -12.531  1.00  0.00     0.000 C 
BRANCH  14  15
ATOM     15  C   UNL     1      10.649 -18.995 -11.051  1.00  0.00     0.000 C 
BRANCH  15  16
ATOM     16  C   UNL     1      11.299 -17.934 -10.146  1.00  0.00     0.000 C 
BRANCH  16  17
ATOM     17  C   UNL     1      11.788 -18.516  -8.810  1.00  0.00     0.000 C 
BRANCH  17  18
ATOM     18  C   UNL     1      11.917 -17.444  -7.713  1.00  0.00     0.000 C 
BRANCH  18  19
ATOM     19  C   UNL     1      10.607 -16.673  -7.483  1.00  0.00     0.000 C 
BRANCH  19  20
ATOM     20  C   UNL     1       9.633 -17.419  -6.558  1.00  0.00     0.006 C 
BRANCH  20  21
ATOM     21  C   UNL     1       9.992 -17.189  -5.086  1.00  0.00     0.053 C 
BRANCH  21  22
ATOM     22  C   UNL     1       9.297 -18.186  -4.215  1.00  0.00     0.041 C 
ATOM     23  O   UNL     1       9.366 -18.089  -2.961  1.00  0.00    -0.550 OA
ATOM     24  O   UNL     1       8.613 -19.252  -4.786  1.00  0.00    -0.550 OA
ENDBRANCH  21  22
ENDBRANCH  20  21
ENDBRANCH  19  20
ENDBRANCH  18  19
ENDBRANCH  17  18
ENDBRANCH  16  17
ENDBRANCH  15  16
ENDBRANCH  14  15
ENDBRANCH  13  14
ENDBRANCH   1  13
TORSDOF 20
ENDMDL
MODEL 9
REMARK VINA RESULT:    -5.233      2.767      4.817
REMARK INTER + INTRA:         -13.089
REMARK INTER:                 -10.118
REMARK INTRA:                  -2.971
REMARK UNBOUND:                -1.738
REMARK SMILES CCCCCCCCCCCCCCCCCCCCCC(=O)[O-]
REMARK SMILES IDX 12 1 11 2 10 3 9 4 8 5 7 6 6 7 5 8 4 9 3 10 2 11 1 12 13 13
REMARK SMILES IDX 14 14 15 15 16 16 17 17 18 18 19 19 20 20 21 21 22 22 23 23
REMARK SMILES IDX 24 24
REMARK H PARENT
REMARK Flexibility Score: inf
ROOT
ATOM      1  C   UNL     1      13.422 -19.220 -15.188  1.00  0.00     0.000 C 
ENDROOT
BRANCH   1   2
ATOM      2  C   UNL     1      13.950 -17.907 -15.795  1.00  0.00     0.000 C 
BRANCH   2   3
ATOM      3  C   UNL     1      13.993 -16.711 -14.823  1.00  0.00     0.000 C 
BRANCH   3   4
ATOM      4  C   UNL     1      14.951 -16.875 -13.628  1.00  0.00    -0.000 C 
BRANCH   4   5
ATOM      5  C   UNL     1      14.244 -16.875 -12.256  1.00  0.00    -0.000 C 
BRANCH   5   6
ATOM      6  C   UNL     1      14.989 -17.718 -11.209  1.00  0.00    -0.000 C 
BRANCH   6   7
ATOM      7  C   UNL     1      14.701 -19.212 -11.400  1.00  0.00    -0.000 C 
BRANCH   7   8
ATOM      8  C   UNL     1      15.979 -19.975 -11.771  1.00  0.00    -0.000 C 
BRANCH   8   9
ATOM      9  C   UNL     1      15.660 -21.425 -12.162  1.00  0.00    -0.000 C 
BRANCH   9  10
ATOM     10  C   UNL     1      14.671 -21.526 -13.338  1.00  0.00    -0.000 C 
BRANCH  10  11
ATOM     11  C   UNL     1      14.025 -22.911 -13.522  1.00  0.00    -0.003 C 
ATOM     12  C   UNL     1      12.527 -22.838 -13.818  1.00  0.00     0.004 C 
ENDBRANCH  10  11
ENDBRANCH   9  10
ENDBRANCH   8   9
ENDBRANCH   7   8
ENDBRANCH   6   7
ENDBRANCH   5   6
ENDBRANCH   4   5
ENDBRANCH   3   4
ENDBRANCH   2   3
ENDBRANCH   1   2
BRANCH   1  13
ATOM     13  C   UNL     1      11.954 -19.497 -15.545  1.00  0.00     0.000 C 
BRANCH  13  14
ATOM     14  C   UNL     1      11.015 -18.945 -14.462  1.00  0.00     0.000 C 
BRANCH  14  15
ATOM     15  C   UNL     1      11.466 -19.321 -13.041  1.00  0.00     0.000 C 
BRANCH  15  16
ATOM     16  C   UNL     1      10.883 -18.384 -11.969  1.00  0.00     0.000 C 
BRANCH  16  17
ATOM     17  C   UNL     1      11.017 -18.955 -10.548  1.00  0.00     0.000 C 
BRANCH  17  18
ATOM     18  C   UNL     1      11.569 -17.924  -9.549  1.00  0.00     0.000 C 
BRANCH  18  19
ATOM     19  C   UNL     1      11.481 -18.407  -8.092  1.00  0.00     0.000 C 
BRANCH  19  20
ATOM     20  C   UNL     1      10.181 -17.972  -7.399  1.00  0.00     0.006 C 
BRANCH  20  21
ATOM     21  C   UNL     1      10.430 -16.781  -6.467  1.00  0.00     0.053 C 
BRANCH  21  22
ATOM     22  C   UNL     1       9.786 -15.546  -7.011  1.00  0.00     0.041 C 
ATOM     23  O   UNL     1      10.262 -14.978  -8.030  1.00  0.00    -0.550 OA
ATOM     24  O   UNL     1       8.687 -14.992  -6.367  1.00  0.00    -0.550 OA
ENDBRANCH  21  22
ENDBRANCH  20  21
ENDBRANCH  19  20
ENDBRANCH  18  19
ENDBRANCH  17  18
ENDBRANCH  16  17
ENDBRANCH  15  16
ENDBRANCH  14  15
ENDBRANCH  13  14
ENDBRANCH   1  13
TORSDOF 20
ENDMDL
