MODEL 1
REMARK VINA RESULT:    -3.009      0.000      0.000
REMARK INTER + INTRA:          -7.004
REMARK INTER:                  -5.120
REMARK INTRA:                  -1.883
REMARK UNBOUND:                -1.883
REMARK SMILES CCCCCCCCCCCCCC(=O)[O-]
REMARK SMILES IDX 8 1 9 2 10 3 11 4 12 5 13 6 14 7 15 8 16 9 7 10 6 11 5 12
REMARK SMILES IDX 4 13 3 14 2 15 1 16
REMARK H PARENT
REMARK Flexibility Score: inf
ROOT
ATOM      1  C   UNL     1      45.678  19.650  75.359  1.00  0.00     0.000 C 
ENDROOT
BRANCH   1   2
ATOM      2  C   UNL     1      45.968  18.613  76.459  1.00  0.00     0.000 C 
BRANCH   2   3
ATOM      3  C   UNL     1      45.364  19.002  77.819  1.00  0.00     0.000 C 
BRANCH   3   4
ATOM      4  C   UNL     1      44.579  20.330  77.827  1.00  0.00     0.000 C 
BRANCH   4   5
ATOM      5  C   UNL     1      43.875  20.666  79.154  1.00  0.00     0.006 C 
BRANCH   5   6
ATOM      6  C   UNL     1      42.392  20.275  79.158  1.00  0.00     0.053 C 
BRANCH   6   7
ATOM      7  C   UNL     1      41.577  21.319  78.464  1.00  0.00     0.041 C 
ATOM      8  O   UNL     1      41.660  22.526  78.816  1.00  0.00    -0.550 OA
ATOM      9  O   UNL     1      40.686  20.954  77.462  1.00  0.00    -0.550 OA
ENDBRANCH   6   7
ENDBRANCH   5   6
ENDBRANCH   4   5
ENDBRANCH   3   4
ENDBRANCH   2   3
ENDBRANCH   1   2
BRANCH   1  10
ATOM     10  C   UNL     1      46.880  19.885  74.428  1.00  0.00     0.000 C 
BRANCH  10  11
ATOM     11  C   UNL     1      47.977  20.799  75.007  1.00  0.00    -0.000 C 
BRANCH  11  12
ATOM     12  C   UNL     1      47.408  21.975  75.820  1.00  0.00    -0.000 C 
BRANCH  12  13
ATOM     13  C   UNL     1      47.880  21.952  77.289  1.00  0.00    -0.000 C 
BRANCH  13  14
ATOM     14  C   UNL     1      48.895  20.837  77.605  1.00  0.00    -0.000 C 
BRANCH  14  15
ATOM     15  C   UNL     1      48.696  20.174  78.982  1.00  0.00    -0.003 C 
ATOM     16  C   UNL     1      47.820  21.008  79.917  1.00  0.00     0.004 C 
ENDBRANCH  14  15
ENDBRANCH  13  14
ENDBRANCH  12  13
ENDBRANCH  11  12
ENDBRANCH  10  11
ENDBRANCH   1  10
TORSDOF 12
ENDMDL
MODEL 2
REMARK VINA RESULT:    -2.975     16.051     17.849
REMARK INTER + INTRA:          -6.945
REMARK INTER:                  -5.016
REMARK INTRA:                  -1.929
REMARK UNBOUND:                -1.883
REMARK SMILES CCCCCCCCCCCCCC(=O)[O-]
REMARK SMILES IDX 8 1 9 2 10 3 11 4 12 5 13 6 14 7 15 8 16 9 7 10 6 11 5 12
REMARK SMILES IDX 4 13 3 14 2 15 1 16
REMARK H PARENT
REMARK Flexibility Score: inf
ROOT
ATOM      1  C   UNL     1      48.470  31.037  88.053  1.00  0.00     0.000 C 
ENDROOT
BRANCH   1   2
ATOM      2  C   UNL     1      49.855  31.016  87.382  1.00  0.00     0.000 C 
BRANCH   2   3
ATOM      3  C   UNL     1      50.973  30.563  88.337  1.00  0.00     0.000 C 
BRANCH   3   4
ATOM      4  C   UNL     1      51.978  31.664  88.732  1.00  0.00     0.000 C 
BRANCH   4   5
ATOM      5  C   UNL     1      51.633  32.433  90.020  1.00  0.00     0.006 C 
BRANCH   5   6
ATOM      6  C   UNL     1      50.755  31.622  90.982  1.00  0.00     0.053 C 
BRANCH   6   7
ATOM      7  C   UNL     1      51.338  31.642  92.360  1.00  0.00     0.041 C 
ATOM      8  O   UNL     1      50.679  32.125  93.319  1.00  0.00    -0.550 OA
ATOM      9  O   UNL     1      52.627  31.174  92.577  1.00  0.00    -0.550 OA
ENDBRANCH   6   7
ENDBRANCH   5   6
ENDBRANCH   4   5
ENDBRANCH   3   4
ENDBRANCH   2   3
ENDBRANCH   1   2
BRANCH   1  10
ATOM     10  C   UNL     1      47.912  32.460  88.223  1.00  0.00     0.000 C 
BRANCH  10  11
ATOM     11  C   UNL     1      48.402  33.477  87.175  1.00  0.00    -0.000 C 
BRANCH  11  12
ATOM     12  C   UNL     1      48.782  34.836  87.790  1.00  0.00    -0.000 C 
BRANCH  12  13
ATOM     13  C   UNL     1      50.298  35.111  87.708  1.00  0.00    -0.000 C 
BRANCH  13  14
ATOM     14  C   UNL     1      50.987  34.472  86.486  1.00  0.00    -0.000 C 
BRANCH  14  15
ATOM     15  C   UNL     1      52.524  34.583  86.498  1.00  0.00    -0.003 C 
ATOM     16  C   UNL     1      53.196  33.577  85.564  1.00  0.00     0.004 C 
ENDBRANCH  14  15
ENDBRANCH  13  14
ENDBRANCH  12  13
ENDBRANCH  11  12
ENDBRANCH  10  11
ENDBRANCH   1  10
TORSDOF 12
ENDMDL
MODEL 3
REMARK VINA RESULT:    -2.961     15.876     17.141
REMARK INTER + INTRA:          -6.922
REMARK INTER:                  -5.709
REMARK INTRA:                  -1.213
REMARK UNBOUND:                -1.883
REMARK SMILES CCCCCCCCCCCCCC(=O)[O-]
REMARK SMILES IDX 8 1 9 2 10 3 11 4 12 5 13 6 14 7 15 8 16 9 7 10 6 11 5 12
REMARK SMILES IDX 4 13 3 14 2 15 1 16
REMARK H PARENT
REMARK Flexibility Score: inf
ROOT
ATOM      1  C   UNL     1      49.468  30.844  90.617  1.00  0.00     0.000 C 
ENDROOT
BRANCH   1   2
ATOM      2  C   UNL     1      48.070  30.202  90.591  1.00  0.00     0.000 C 
BRANCH   2   3
ATOM      3  C   UNL     1      46.979  31.126  91.161  1.00  0.00     0.000 C 
BRANCH   3   4
ATOM      4  C   UNL     1      45.814  31.428  90.196  1.00  0.00     0.000 C 
BRANCH   4   5
ATOM      5  C   UNL     1      44.408  31.204  90.779  1.00  0.00     0.006 C 
BRANCH   5   6
ATOM      6  C   UNL     1      44.289  29.891  91.563  1.00  0.00     0.053 C 
BRANCH   6   7
ATOM      7  C   UNL     1      43.775  30.154  92.943  1.00  0.00     0.041 C 
ATOM      8  O   UNL     1      43.922  31.289  93.468  1.00  0.00    -0.550 OA
ATOM      9  O   UNL     1      43.179  29.131  93.670  1.00  0.00    -0.550 OA
ENDBRANCH   6   7
ENDBRANCH   5   6
ENDBRANCH   4   5
ENDBRANCH   3   4
ENDBRANCH   2   3
ENDBRANCH   1   2
BRANCH   1  10
ATOM     10  C   UNL     1      49.850  31.495  89.276  1.00  0.00     0.000 C 
BRANCH  10  11
ATOM     11  C   UNL     1      48.941  31.117  88.092  1.00  0.00    -0.000 C 
BRANCH  11  12
ATOM     12  C   UNL     1      48.716  32.283  87.113  1.00  0.00    -0.000 C 
BRANCH  12  13
ATOM     13  C   UNL     1      48.291  33.579  87.836  1.00  0.00    -0.000 C 
BRANCH  13  14
ATOM     14  C   UNL     1      49.053  34.835  87.372  1.00  0.00    -0.000 C 
BRANCH  14  15
ATOM     15  C   UNL     1      50.496  34.932  87.908  1.00  0.00    -0.003 C 
ATOM     16  C   UNL     1      51.543  34.600  86.846  1.00  0.00     0.004 C 
ENDBRANCH  14  15
ENDBRANCH  13  14
ENDBRANCH  12  13
ENDBRANCH  11  12
ENDBRANCH  10  11
ENDBRANCH   1  10
TORSDOF 12
ENDMDL
MODEL 4
REMARK VINA RESULT:    -2.950     15.503     16.816
REMARK INTER + INTRA:          -6.903
REMARK INTER:                  -5.384
REMARK INTRA:                  -1.519
REMARK UNBOUND:                -1.883
REMARK SMILES CCCCCCCCCCCCCC(=O)[O-]
REMARK SMILES IDX 8 1 9 2 10 3 11 4 12 5 13 6 14 7 15 8 16 9 7 10 6 11 5 12
REMARK SMILES IDX 4 13 3 14 2 15 1 16
REMARK H PARENT
REMARK Flexibility Score: inf
ROOT
ATOM      1  C   UNL     1      49.265  31.128  87.656  1.00  0.00     0.000 C 
ENDROOT
BRANCH   1   2
ATOM      2  C   UNL     1      49.956  31.488  88.983  1.00  0.00     0.000 C 
BRANCH   2   3
ATOM      3  C   UNL     1      49.684  30.459  90.095  1.00  0.00     0.000 C 
BRANCH   3   4
ATOM      4  C   UNL     1      48.547  30.838  91.067  1.00  0.00     0.000 C 
BRANCH   4   5
ATOM      5  C   UNL     1      47.147  30.346  90.658  1.00  0.00     0.006 C 
BRANCH   5   6
ATOM      6  C   UNL     1      46.067  31.425  90.813  1.00  0.00     0.053 C 
BRANCH   6   7
ATOM      7  C   UNL     1      44.981  30.946  91.723  1.00  0.00     0.041 C 
ATOM      8  O   UNL     1      44.499  31.718  92.594  1.00  0.00    -0.550 OA
ATOM      9  O   UNL     1      44.535  29.633  91.643  1.00  0.00    -0.550 OA
ENDBRANCH   6   7
ENDBRANCH   5   6
ENDBRANCH   4   5
ENDBRANCH   3   4
ENDBRANCH   2   3
ENDBRANCH   1   2
BRANCH   1  10
ATOM     10  C   UNL     1      48.098  32.072  87.317  1.00  0.00     0.000 C 
BRANCH  10  11
ATOM     11  C   UNL     1      48.112  33.414  88.072  1.00  0.00    -0.000 C 
BRANCH  11  12
ATOM     12  C   UNL     1      48.583  34.589  87.197  1.00  0.00    -0.000 C 
BRANCH  12  13
ATOM     13  C   UNL     1      50.011  35.049  87.555  1.00  0.00    -0.000 C 
BRANCH  13  14
ATOM     14  C   UNL     1      51.110  34.434  86.667  1.00  0.00    -0.000 C 
BRANCH  14  15
ATOM     15  C   UNL     1      50.610  33.937  85.296  1.00  0.00    -0.003 C 
ATOM     16  C   UNL     1      51.696  33.978  84.221  1.00  0.00     0.004 C 
ENDBRANCH  14  15
ENDBRANCH  13  14
ENDBRANCH  12  13
ENDBRANCH  11  12
ENDBRANCH  10  11
ENDBRANCH   1  10
TORSDOF 12
ENDMDL
MODEL 5
REMARK VINA RESULT:    -2.937     16.652     17.984
REMARK INTER + INTRA:          -6.881
REMARK INTER:                  -5.168
REMARK INTRA:                  -1.713
REMARK UNBOUND:                -1.883
REMARK SMILES CCCCCCCCCCCCCC(=O)[O-]
REMARK SMILES IDX 8 1 9 2 10 3 11 4 12 5 13 6 14 7 15 8 16 9 7 10 6 11 5 12
REMARK SMILES IDX 4 13 3 14 2 15 1 16
REMARK H PARENT
REMARK Flexibility Score: inf
ROOT
ATOM      1  C   UNL     1      52.923  32.510  86.090  1.00  0.00     0.000 C 
ENDROOT
BRANCH   1   2
ATOM      2  C   UNL     1      52.805  31.351  87.095  1.00  0.00     0.000 C 
BRANCH   2   3
ATOM      3  C   UNL     1      51.380  31.189  87.654  1.00  0.00     0.000 C 
BRANCH   3   4
ATOM      4  C   UNL     1      51.306  30.700  89.115  1.00  0.00     0.000 C 
BRANCH   4   5
ATOM      5  C   UNL     1      50.782  31.736  90.126  1.00  0.00     0.006 C 
BRANCH   5   6
ATOM      6  C   UNL     1      50.288  31.099  91.430  1.00  0.00     0.053 C 
BRANCH   6   7
ATOM      7  C   UNL     1      51.092  31.596  92.590  1.00  0.00     0.041 C 
ATOM      8  O   UNL     1      50.552  32.313  93.474  1.00  0.00    -0.550 OA
ATOM      9  O   UNL     1      52.449  31.310  92.668  1.00  0.00    -0.550 OA
ENDBRANCH   6   7
ENDBRANCH   5   6
ENDBRANCH   4   5
ENDBRANCH   3   4
ENDBRANCH   2   3
ENDBRANCH   1   2
BRANCH   1  10
ATOM     10  C   UNL     1      53.492  33.792  86.722  1.00  0.00     0.000 C 
BRANCH  10  11
ATOM     11  C   UNL     1      52.494  34.961  86.822  1.00  0.00    -0.000 C 
BRANCH  11  12
ATOM     12  C   UNL     1      51.569  34.856  88.047  1.00  0.00    -0.000 C 
BRANCH  12  13
ATOM     13  C   UNL     1      50.094  35.137  87.691  1.00  0.00    -0.000 C 
BRANCH  13  14
ATOM     14  C   UNL     1      49.637  34.503  86.363  1.00  0.00    -0.000 C 
BRANCH  14  15
ATOM     15  C   UNL     1      48.680  33.307  86.530  1.00  0.00    -0.003 C 
ATOM     16  C   UNL     1      48.136  33.181  87.953  1.00  0.00     0.004 C 
ENDBRANCH  14  15
ENDBRANCH  13  14
ENDBRANCH  12  13
ENDBRANCH  11  12
ENDBRANCH  10  11
ENDBRANCH   1  10
TORSDOF 12
ENDMDL
MODEL 6
REMARK VINA RESULT:    -2.930     15.707     16.986
REMARK INTER + INTRA:          -6.869
REMARK INTER:                  -5.338
REMARK INTRA:                  -1.530
REMARK UNBOUND:                -1.883
REMARK SMILES CCCCCCCCCCCCCC(=O)[O-]
REMARK SMILES IDX 8 1 9 2 10 3 11 4 12 5 13 6 14 7 15 8 16 9 7 10 6 11 5 12
REMARK SMILES IDX 4 13 3 14 2 15 1 16
REMARK H PARENT
REMARK Flexibility Score: inf
ROOT
ATOM      1  C   UNL     1      49.634  35.077  87.729  1.00  0.00     0.000 C 
ENDROOT
BRANCH   1   2
ATOM      2  C   UNL     1      49.032  34.391  86.491  1.00  0.00     0.000 C 
BRANCH   2   3
ATOM      3  C   UNL     1      48.407  33.022  86.813  1.00  0.00     0.000 C 
BRANCH   3   4
ATOM      4  C   UNL     1      47.857  32.879  88.246  1.00  0.00     0.000 C 
BRANCH   4   5
ATOM      5  C   UNL     1      47.769  31.435  88.772  1.00  0.00     0.006 C 
BRANCH   5   6
ATOM      6  C   UNL     1      46.335  30.890  88.782  1.00  0.00     0.053 C 
BRANCH   6   7
ATOM      7  C   UNL     1      45.639  31.281  90.048  1.00  0.00     0.041 C 
ATOM      8  O   UNL     1      46.295  31.420  91.114  1.00  0.00    -0.550 OA
ATOM      9  O   UNL     1      44.260  31.442  90.061  1.00  0.00    -0.550 OA
ENDBRANCH   6   7
ENDBRANCH   5   6
ENDBRANCH   4   5
ENDBRANCH   3   4
ENDBRANCH   2   3
ENDBRANCH   1   2
BRANCH   1  10
ATOM     10  C   UNL     1      51.171  35.138  87.690  1.00  0.00     0.000 C 
BRANCH  10  11
ATOM     11  C   UNL     1      51.805  34.625  86.383  1.00  0.00    -0.000 C 
BRANCH  11  12
ATOM     12  C   UNL     1      53.108  33.841  86.617  1.00  0.00    -0.000 C 
BRANCH  12  13
ATOM     13  C   UNL     1      53.308  33.468  88.101  1.00  0.00    -0.000 C 
BRANCH  13  14
ATOM     14  C   UNL     1      53.029  31.987  88.420  1.00  0.00    -0.000 C 
BRANCH  14  15
ATOM     15  C   UNL     1      51.547  31.670  88.702  1.00  0.00    -0.003 C 
ATOM     16  C   UNL     1      51.153  31.933  90.155  1.00  0.00     0.004 C 
ENDBRANCH  14  15
ENDBRANCH  13  14
ENDBRANCH  12  13
ENDBRANCH  11  12
ENDBRANCH  10  11
ENDBRANCH   1  10
TORSDOF 12
ENDMDL
MODEL 7
REMARK VINA RESULT:    -2.873     16.351     17.931
REMARK INTER + INTRA:          -6.771
REMARK INTER:                  -4.732
REMARK INTRA:                  -2.040
REMARK UNBOUND:                -1.883
REMARK SMILES CCCCCCCCCCCCCC(=O)[O-]
REMARK SMILES IDX 8 1 9 2 10 3 11 4 12 5 13 6 14 7 15 8 16 9 7 10 6 11 5 12
REMARK SMILES IDX 4 13 3 14 2 15 1 16
REMARK H PARENT
REMARK Flexibility Score: inf
ROOT
ATOM      1  C   UNL     1      48.184  32.721  87.639  1.00  0.00     0.000 C 
ENDROOT
BRANCH   1   2
ATOM      2  C   UNL     1      49.051  31.861  88.575  1.00  0.00     0.000 C 
BRANCH   2   3
ATOM      3  C   UNL     1      50.224  31.184  87.846  1.00  0.00     0.000 C 
BRANCH   3   4
ATOM      4  C   UNL     1      51.625  31.612  88.330  1.00  0.00     0.000 C 
BRANCH   4   5
ATOM      5  C   UNL     1      51.646  32.815  89.289  1.00  0.00     0.006 C 
BRANCH   5   6
ATOM      6  C   UNL     1      52.998  33.539  89.309  1.00  0.00     0.053 C 
BRANCH   6   7
ATOM      7  C   UNL     1      53.690  33.314  90.616  1.00  0.00     0.041 C 
ATOM      8  O   UNL     1      54.139  34.291  91.271  1.00  0.00    -0.550 OA
ATOM      9  O   UNL     1      53.884  32.021  91.086  1.00  0.00    -0.550 OA
ENDBRANCH   6   7
ENDBRANCH   5   6
ENDBRANCH   4   5
ENDBRANCH   3   4
ENDBRANCH   2   3
ENDBRANCH   1   2
BRANCH   1  10
ATOM     10  C   UNL     1      48.487  34.225  87.759  1.00  0.00     0.000 C 
BRANCH  10  11
ATOM     11  C   UNL     1      49.623  34.729  86.850  1.00  0.00    -0.000 C 
BRANCH  11  12
ATOM     12  C   UNL     1      49.541  34.167  85.419  1.00  0.00    -0.000 C 
BRANCH  12  13
ATOM     13  C   UNL     1      50.923  33.750  84.875  1.00  0.00    -0.000 C 
BRANCH  13  14
ATOM     14  C   UNL     1      52.111  34.348  85.653  1.00  0.00    -0.000 C 
BRANCH  14  15
ATOM     15  C   UNL     1      53.360  33.446  85.690  1.00  0.00    -0.003 C 
ATOM     16  C   UNL     1      53.193  32.172  84.861  1.00  0.00     0.004 C 
ENDBRANCH  14  15
ENDBRANCH  13  14
ENDBRANCH  12  13
ENDBRANCH  11  12
ENDBRANCH  10  11
ENDBRANCH   1  10
TORSDOF 12
ENDMDL
MODEL 8
REMARK VINA RESULT:    -2.837     15.854     17.531
REMARK INTER + INTRA:          -6.710
REMARK INTER:                  -5.250
REMARK INTRA:                  -1.460
REMARK UNBOUND:                -1.883
REMARK SMILES CCCCCCCCCCCCCC(=O)[O-]
REMARK SMILES IDX 8 1 9 2 10 3 11 4 12 5 13 6 14 7 15 8 16 9 7 10 6 11 5 12
REMARK SMILES IDX 4 13 3 14 2 15 1 16
REMARK H PARENT
REMARK Flexibility Score: inf
ROOT
ATOM      1  C   UNL     1      48.715  31.519  87.676  1.00  0.00     0.000 C 
ENDROOT
BRANCH   1   2
ATOM      2  C   UNL     1      47.943  32.786  88.086  1.00  0.00     0.000 C 
BRANCH   2   3
ATOM      3  C   UNL     1      48.633  34.081  87.621  1.00  0.00     0.000 C 
BRANCH   3   4
ATOM      4  C   UNL     1      48.854  34.189  86.098  1.00  0.00     0.000 C 
BRANCH   4   5
ATOM      5  C   UNL     1      50.327  34.217  85.652  1.00  0.00     0.006 C 
BRANCH   5   6
ATOM      6  C   UNL     1      51.290  34.567  86.793  1.00  0.00     0.053 C 
BRANCH   6   7
ATOM      7  C   UNL     1      52.708  34.419  86.341  1.00  0.00     0.041 C 
ATOM      8  O   UNL     1      52.999  34.529  85.120  1.00  0.00    -0.550 OA
ATOM      9  O   UNL     1      53.702  34.109  87.260  1.00  0.00    -0.550 OA
ENDBRANCH   6   7
ENDBRANCH   5   6
ENDBRANCH   4   5
ENDBRANCH   3   4
ENDBRANCH   2   3
ENDBRANCH   1   2
BRANCH   1  10
ATOM     10  C   UNL     1      49.728  31.068  88.743  1.00  0.00     0.000 C 
BRANCH  10  11
ATOM     11  C   UNL     1      49.196  31.084  90.188  1.00  0.00    -0.000 C 
BRANCH  11  12
ATOM     12  C   UNL     1      48.671  29.712  90.648  1.00  0.00    -0.000 C 
BRANCH  12  13
ATOM     13  C   UNL     1      47.187  29.765  91.067  1.00  0.00    -0.000 C 
BRANCH  13  14
ATOM     14  C   UNL     1      46.584  31.183  91.065  1.00  0.00    -0.000 C 
BRANCH  14  15
ATOM     15  C   UNL     1      45.249  31.300  90.303  1.00  0.00    -0.003 C 
ATOM     16  C   UNL     1      45.231  30.481  89.013  1.00  0.00     0.004 C 
ENDBRANCH  14  15
ENDBRANCH  13  14
ENDBRANCH  12  13
ENDBRANCH  11  12
ENDBRANCH  10  11
ENDBRANCH   1  10
TORSDOF 12
ENDMDL
MODEL 9
REMARK VINA RESULT:    -2.829      2.861      4.633
REMARK INTER + INTRA:          -6.698
REMARK INTER:                  -5.615
REMARK INTRA:                  -1.082
REMARK UNBOUND:                -1.883
REMARK SMILES CCCCCCCCCCCCCC(=O)[O-]
REMARK SMILES IDX 8 1 9 2 10 3 11 4 12 5 13 6 14 7 15 8 16 9 7 10 6 11 5 12
REMARK SMILES IDX 4 13 3 14 2 15 1 16
REMARK H PARENT
REMARK Flexibility Score: inf
ROOT
ATOM      1  C   UNL     1      44.704  20.720  79.013  1.00  0.00     0.000 C 
ENDROOT
BRANCH   1   2
ATOM      2  C   UNL     1      43.371  19.983  78.796  1.00  0.00     0.000 C 
BRANCH   2   3
ATOM      3  C   UNL     1      42.151  20.823  79.211  1.00  0.00     0.000 C 
BRANCH   3   4
ATOM      4  C   UNL     1      40.788  20.123  79.033  1.00  0.00     0.000 C 
BRANCH   4   5
ATOM      5  C   UNL     1      39.680  20.595  79.991  1.00  0.00     0.006 C 
BRANCH   5   6
ATOM      6  C   UNL     1      38.720  19.469  80.395  1.00  0.00     0.053 C 
BRANCH   6   7
ATOM      7  C   UNL     1      37.505  20.034  81.059  1.00  0.00     0.041 C 
ATOM      8  O   UNL     1      36.765  20.846  80.442  1.00  0.00    -0.550 OA
ATOM      9  O   UNL     1      37.216  19.705  82.377  1.00  0.00    -0.550 OA
ENDBRANCH   6   7
ENDBRANCH   5   6
ENDBRANCH   4   5
ENDBRANCH   3   4
ENDBRANCH   2   3
ENDBRANCH   1   2
BRANCH   1  10
ATOM     10  C   UNL     1      45.873  20.078  78.245  1.00  0.00     0.000 C 
BRANCH  10  11
ATOM     11  C   UNL     1      45.577  18.681  77.668  1.00  0.00    -0.000 C 
BRANCH  11  12
ATOM     12  C   UNL     1      45.965  18.551  76.184  1.00  0.00    -0.000 C 
BRANCH  12  13
ATOM     13  C   UNL     1      46.317  19.913  75.551  1.00  0.00    -0.000 C 
BRANCH  13  14
ATOM     14  C   UNL     1      45.349  20.356  74.437  1.00  0.00    -0.000 C 
BRANCH  14  15
ATOM     15  C   UNL     1      44.638  21.695  74.714  1.00  0.00    -0.003 C 
ATOM     16  C   UNL     1      43.334  21.520  75.493  1.00  0.00     0.004 C 
ENDBRANCH  14  15
ENDBRANCH  13  14
ENDBRANCH  12  13
ENDBRANCH  11  12
ENDBRANCH  10  11
ENDBRANCH   1  10
TORSDOF 12
ENDMDL
