MODEL 1
REMARK VINA RESULT:    -7.849      0.000      0.000
REMARK INTER + INTRA:          -9.502
REMARK INTER:                  -9.226
REMARK INTRA:                  -0.276
REMARK UNBOUND:                -0.276
REMARK SMILES O=c1cc(-c2ccc(O)c(O)c2)oc2cc(O)cc(O)c12
REMARK SMILES IDX 4 1 3 2 2 3 1 4 21 5 19 6 18 7 16 8 15 9 14 10 13 11 5 12
REMARK SMILES IDX 6 13 7 14 8 15 12 16 10 17 9 18 11 20 20 22 17 24
REMARK H PARENT 9 19 11 21 20 23 17 25
REMARK Flexibility Score: inf
ROOT
ATOM      1  C   UNL     1      -4.250  38.760  43.128  1.00  0.00     0.138 A 
ATOM      2  C   UNL     1      -3.176  38.269  42.374  1.00  0.00     0.100 A 
ATOM      3  C   UNL     1      -2.754  36.950  42.551  1.00  0.00     0.197 A 
ATOM      4  O   UNL     1      -1.752  36.556  41.900  1.00  0.00    -0.289 OA
ATOM      5  C   UNL     1      -3.436  36.108  43.462  1.00  0.00     0.107 A 
ATOM      6  C   UNL     1      -3.116  34.738  43.700  1.00  0.00     0.134 A 
ATOM      7  C   UNL     1      -3.801  34.033  44.699  1.00  0.00     0.093 A 
ATOM      8  C   UNL     1      -4.828  34.630  45.428  1.00  0.00     0.123 A 
ATOM      9  C   UNL     1      -5.183  35.955  45.169  1.00  0.00     0.094 A 
ATOM     10  C   UNL     1      -4.497  36.695  44.203  1.00  0.00     0.146 A 
ATOM     11  O   UNL     1      -4.855  37.958  44.000  1.00  0.00    -0.456 OA
ENDROOT
BRANCH   1  12
ATOM     12  C   UNL     1      -4.743  40.152  42.979  1.00  0.00     0.021 A 
ATOM     13  C   UNL     1      -4.961  40.934  44.126  1.00  0.00     0.016 A 
ATOM     14  C   UNL     1      -5.418  42.250  44.014  1.00  0.00     0.051 A 
ATOM     15  C   UNL     1      -5.656  42.811  42.756  1.00  0.00     0.157 A 
ATOM     16  C   UNL     1      -4.972  40.726  41.713  1.00  0.00     0.062 A 
ATOM     17  C   UNL     1      -5.429  42.047  41.599  1.00  0.00     0.158 A 
BRANCH  15  18
ATOM     18  O   UNL     1      -6.113  44.125  42.675  1.00  0.00    -0.504 OA
ATOM     19  H   UNL     1      -6.711  44.531  43.385  1.00  0.00     0.293 HD
ENDBRANCH  15  18
BRANCH  17  20
ATOM     20  O   UNL     1      -5.654  42.605  40.341  1.00  0.00    -0.504 OA
ATOM     21  H   UNL     1      -5.902  42.032  39.543  1.00  0.00     0.293 HD
ENDBRANCH  17  20
ENDBRANCH   1  12
BRANCH   6  22
ATOM     22  O   UNL     1      -2.161  34.018  42.977  1.00  0.00    -0.507 OA
ATOM     23  H   UNL     1      -1.318  33.623  43.364  1.00  0.00     0.293 HD
ENDBRANCH   6  22
BRANCH   8  24
ATOM     24  O   UNL     1      -5.498  33.894  46.403  1.00  0.00    -0.508 OA
ATOM     25  H   UNL     1      -5.966  33.023  46.182  1.00  0.00     0.293 HD
ENDBRANCH   8  24
TORSDOF 5
ENDMDL
MODEL 2
REMARK VINA RESULT:    -7.575      1.942      2.993
REMARK INTER + INTRA:          -9.179
REMARK INTER:                  -8.913
REMARK INTRA:                  -0.266
REMARK UNBOUND:                -0.276
REMARK SMILES O=c1cc(-c2ccc(O)c(O)c2)oc2cc(O)cc(O)c12
REMARK SMILES IDX 4 1 3 2 2 3 1 4 21 5 19 6 18 7 16 8 15 9 14 10 13 11 5 12
REMARK SMILES IDX 6 13 7 14 8 15 12 16 10 17 9 18 11 20 20 22 17 24
REMARK H PARENT 9 19 11 21 20 23 17 25
REMARK Flexibility Score: inf
ROOT
ATOM      1  C   UNL     1      -3.987  38.594  42.428  1.00  0.00     0.138 A 
ATOM      2  C   UNL     1      -4.794  37.462  42.261  1.00  0.00     0.100 A 
ATOM      3  C   UNL     1      -4.205  36.197  42.191  1.00  0.00     0.197 A 
ATOM      4  O   UNL     1      -4.952  35.207  41.984  1.00  0.00    -0.289 OA
ATOM      5  C   UNL     1      -2.802  36.066  42.326  1.00  0.00     0.107 A 
ATOM      6  C   UNL     1      -2.095  34.827  42.306  1.00  0.00     0.134 A 
ATOM      7  C   UNL     1      -0.695  34.831  42.352  1.00  0.00     0.093 A 
ATOM      8  C   UNL     1       0.020  36.021  42.474  1.00  0.00     0.123 A 
ATOM      9  C   UNL     1      -0.664  37.236  42.545  1.00  0.00     0.094 A 
ATOM     10  C   UNL     1      -2.058  37.268  42.468  1.00  0.00     0.146 A 
ATOM     11  O   UNL     1      -2.669  38.447  42.522  1.00  0.00    -0.456 OA
ENDROOT
BRANCH   1  12
ATOM     12  C   UNL     1      -4.559  39.961  42.512  1.00  0.00     0.021 A 
ATOM     13  C   UNL     1      -4.727  40.564  43.770  1.00  0.00     0.016 A 
ATOM     14  C   UNL     1      -5.257  41.852  43.877  1.00  0.00     0.051 A 
ATOM     15  C   UNL     1      -5.620  42.565  42.730  1.00  0.00     0.157 A 
ATOM     16  C   UNL     1      -4.913  40.688  41.359  1.00  0.00     0.062 A 
ATOM     17  C   UNL     1      -5.444  41.983  41.465  1.00  0.00     0.158 A 
BRANCH  15  18
ATOM     18  O   UNL     1      -6.147  43.848  42.869  1.00  0.00    -0.504 OA
ATOM     19  H   UNL     1      -7.132  44.042  42.735  1.00  0.00     0.293 HD
ENDBRANCH  15  18
BRANCH  17  20
ATOM     20  O   UNL     1      -5.793  42.693  40.317  1.00  0.00    -0.504 OA
ATOM     21  H   UNL     1      -5.132  42.843  39.563  1.00  0.00     0.293 HD
ENDBRANCH  17  20
ENDBRANCH   1  12
BRANCH   6  22
ATOM     22  O   UNL     1      -2.712  33.572  42.266  1.00  0.00    -0.507 OA
ATOM     23  H   UNL     1      -2.233  32.689  42.353  1.00  0.00     0.293 HD
ENDBRANCH   6  22
BRANCH   8  24
ATOM     24  O   UNL     1       1.411  35.985  42.532  1.00  0.00    -0.508 OA
ATOM     25  H   UNL     1       1.900  35.676  43.363  1.00  0.00     0.293 HD
ENDBRANCH   8  24
TORSDOF 5
ENDMDL
MODEL 3
REMARK VINA RESULT:    -7.352      3.799      5.857
REMARK INTER + INTRA:          -8.917
REMARK INTER:                  -8.605
REMARK INTRA:                  -0.313
REMARK UNBOUND:                -0.276
REMARK SMILES O=c1cc(-c2ccc(O)c(O)c2)oc2cc(O)cc(O)c12
REMARK SMILES IDX 4 1 3 2 2 3 1 4 21 5 19 6 18 7 16 8 15 9 14 10 13 11 5 12
REMARK SMILES IDX 6 13 7 14 8 15 12 16 10 17 9 18 11 20 20 22 17 24
REMARK H PARENT 9 19 11 21 20 23 17 25
REMARK Flexibility Score: inf
ROOT
ATOM      1  C   UNL     1      -0.638  38.052  42.102  1.00  0.00     0.138 A 
ATOM      2  C   UNL     1      -1.844  38.623  41.676  1.00  0.00     0.100 A 
ATOM      3  C   UNL     1      -3.035  37.906  41.810  1.00  0.00     0.197 A 
ATOM      4  O   UNL     1      -4.091  38.425  41.367  1.00  0.00    -0.289 OA
ATOM      5  C   UNL     1      -3.020  36.624  42.409  1.00  0.00     0.107 A 
ATOM      6  C   UNL     1      -4.175  35.815  42.629  1.00  0.00     0.134 A 
ATOM      7  C   UNL     1      -4.023  34.520  43.142  1.00  0.00     0.093 A 
ATOM      8  C   UNL     1      -2.769  34.026  43.494  1.00  0.00     0.123 A 
ATOM      9  C   UNL     1      -1.637  34.827  43.329  1.00  0.00     0.094 A 
ATOM     10  C   UNL     1      -1.751  36.110  42.789  1.00  0.00     0.146 A 
ATOM     11  O   UNL     1      -0.647  36.832  42.633  1.00  0.00    -0.456 OA
ENDROOT
BRANCH   1  12
ATOM     12  C   UNL     1       0.656  38.769  41.986  1.00  0.00     0.021 A 
ATOM     13  C   UNL     1       0.764  39.860  41.108  1.00  0.00     0.016 A 
ATOM     14  C   UNL     1       1.969  40.558  40.984  1.00  0.00     0.051 A 
ATOM     15  C   UNL     1       3.083  40.185  41.742  1.00  0.00     0.157 A 
ATOM     16  C   UNL     1       1.777  38.405  42.758  1.00  0.00     0.062 A 
ATOM     17  C   UNL     1       2.986  39.106  42.636  1.00  0.00     0.158 A 
BRANCH  15  18
ATOM     18  O   UNL     1       4.271  40.899  41.597  1.00  0.00    -0.504 OA
ATOM     19  H   UNL     1       4.295  41.827  41.192  1.00  0.00     0.293 HD
ENDBRANCH  15  18
BRANCH  17  20
ATOM     20  O   UNL     1       4.090  38.736  43.403  1.00  0.00    -0.504 OA
ATOM     21  H   UNL     1       4.167  38.991  44.381  1.00  0.00     0.293 HD
ENDBRANCH  17  20
ENDBRANCH   1  12
BRANCH   6  22
ATOM     22  O   UNL     1      -5.486  36.237  42.387  1.00  0.00    -0.507 OA
ATOM     23  H   UNL     1      -6.050  35.953  41.601  1.00  0.00     0.293 HD
ENDBRANCH   6  22
BRANCH   8  24
ATOM     24  O   UNL     1      -2.658  32.739  44.015  1.00  0.00    -0.508 OA
ATOM     25  H   UNL     1      -2.492  32.579  45.001  1.00  0.00     0.293 HD
ENDBRANCH   8  24
TORSDOF 5
ENDMDL
MODEL 4
REMARK VINA RESULT:    -6.955      2.562      7.414
REMARK INTER + INTRA:          -8.450
REMARK INTER:                  -8.171
REMARK INTRA:                  -0.279
REMARK UNBOUND:                -0.276
REMARK SMILES O=c1cc(-c2ccc(O)c(O)c2)oc2cc(O)cc(O)c12
REMARK SMILES IDX 4 1 3 2 2 3 1 4 21 5 19 6 18 7 16 8 15 9 14 10 13 11 5 12
REMARK SMILES IDX 6 13 7 14 8 15 12 16 10 17 9 18 11 20 20 22 17 24
REMARK H PARENT 9 19 11 21 20 23 17 25
REMARK Flexibility Score: inf
ROOT
ATOM      1  C   UNL     1      -3.332  34.736  43.812  1.00  0.00     0.138 A 
ATOM      2  C   UNL     1      -1.946  34.844  43.637  1.00  0.00     0.100 A 
ATOM      3  C   UNL     1      -1.419  35.946  42.961  1.00  0.00     0.197 A 
ATOM      4  O   UNL     1      -0.176  35.986  42.772  1.00  0.00    -0.289 OA
ATOM      5  C   UNL     1      -2.283  36.964  42.492  1.00  0.00     0.107 A 
ATOM      6  C   UNL     1      -1.857  38.149  41.820  1.00  0.00     0.134 A 
ATOM      7  C   UNL     1      -2.815  39.038  41.315  1.00  0.00     0.093 A 
ATOM      8  C   UNL     1      -4.177  38.815  41.504  1.00  0.00     0.123 A 
ATOM      9  C   UNL     1      -4.604  37.684  42.203  1.00  0.00     0.094 A 
ATOM     10  C   UNL     1      -3.676  36.762  42.690  1.00  0.00     0.146 A 
ATOM     11  O   UNL     1      -4.125  35.690  43.334  1.00  0.00    -0.456 OA
ENDROOT
BRANCH   1  12
ATOM     12  C   UNL     1      -3.946  33.588  44.524  1.00  0.00     0.021 A 
ATOM     13  C   UNL     1      -3.713  32.282  44.061  1.00  0.00     0.016 A 
ATOM     14  C   UNL     1      -4.274  31.183  44.717  1.00  0.00     0.051 A 
ATOM     15  C   UNL     1      -5.069  31.367  45.851  1.00  0.00     0.157 A 
ATOM     16  C   UNL     1      -4.738  33.768  45.676  1.00  0.00     0.062 A 
ATOM     17  C   UNL     1      -5.300  32.665  46.336  1.00  0.00     0.158 A 
BRANCH  15  18
ATOM     18  O   UNL     1      -5.616  30.252  46.483  1.00  0.00    -0.504 OA
ATOM     19  H   UNL     1      -5.064  29.646  47.079  1.00  0.00     0.293 HD
ENDBRANCH  15  18
BRANCH  17  20
ATOM     20  O   UNL     1      -6.083  32.854  47.474  1.00  0.00    -0.504 OA
ATOM     21  H   UNL     1      -6.957  32.358  47.606  1.00  0.00     0.293 HD
ENDBRANCH  17  20
ENDBRANCH   1  12
BRANCH   6  22
ATOM     22  O   UNL     1      -0.518  38.512  41.644  1.00  0.00    -0.507 OA
ATOM     23  H   UNL     1       0.055  38.966  42.338  1.00  0.00     0.293 HD
ENDBRANCH   6  22
BRANCH   8  24
ATOM     24  O   UNL     1      -5.100  39.729  41.000  1.00  0.00    -0.508 OA
ATOM     25  H   UNL     1      -4.841  40.412  40.299  1.00  0.00     0.293 HD
ENDBRANCH   8  24
TORSDOF 5
ENDMDL
MODEL 5
REMARK VINA RESULT:    -6.920      3.292      7.944
REMARK INTER + INTRA:          -8.410
REMARK INTER:                  -8.142
REMARK INTRA:                  -0.267
REMARK UNBOUND:                -0.276
REMARK SMILES O=c1cc(-c2ccc(O)c(O)c2)oc2cc(O)cc(O)c12
REMARK SMILES IDX 4 1 3 2 2 3 1 4 21 5 19 6 18 7 16 8 15 9 14 10 13 11 5 12
REMARK SMILES IDX 6 13 7 14 8 15 12 16 10 17 9 18 11 20 20 22 17 24
REMARK H PARENT 9 19 11 21 20 23 17 25
REMARK Flexibility Score: inf
ROOT
ATOM      1  C   UNL     1      -3.695  33.563  45.326  1.00  0.00     0.138 A 
ATOM      2  C   UNL     1      -2.360  33.201  45.104  1.00  0.00     0.100 A 
ATOM      3  C   UNL     1      -1.563  33.981  44.265  1.00  0.00     0.197 A 
ATOM      4  O   UNL     1      -0.386  33.598  44.042  1.00  0.00    -0.289 OA
ATOM      5  C   UNL     1      -2.097  35.151  43.674  1.00  0.00     0.107 A 
ATOM      6  C   UNL     1      -1.370  36.042  42.829  1.00  0.00     0.134 A 
ATOM      7  C   UNL     1      -2.035  37.116  42.223  1.00  0.00     0.093 A 
ATOM      8  C   UNL     1      -3.382  37.365  42.475  1.00  0.00     0.123 A 
ATOM      9  C   UNL     1      -4.092  36.529  43.340  1.00  0.00     0.094 A 
ATOM     10  C   UNL     1      -3.467  35.430  43.933  1.00  0.00     0.146 A 
ATOM     11  O   UNL     1      -4.182  34.650  44.735  1.00  0.00    -0.456 OA
ENDROOT
BRANCH   1  12
ATOM     12  C   UNL     1      -4.587  32.772  46.211  1.00  0.00     0.021 A 
ATOM     13  C   UNL     1      -5.749  32.189  45.678  1.00  0.00     0.016 A 
ATOM     14  C   UNL     1      -6.602  31.434  46.487  1.00  0.00     0.051 A 
ATOM     15  C   UNL     1      -6.306  31.240  47.839  1.00  0.00     0.157 A 
ATOM     16  C   UNL     1      -4.285  32.562  47.571  1.00  0.00     0.062 A 
ATOM     17  C   UNL     1      -5.140  31.803  48.384  1.00  0.00     0.158 A 
BRANCH  15  18
ATOM     18  O   UNL     1      -7.176  30.483  48.621  1.00  0.00    -0.504 OA
ATOM     19  H   UNL     1      -7.026  30.345  49.614  1.00  0.00     0.293 HD
ENDBRANCH  15  18
BRANCH  17  20
ATOM     20  O   UNL     1      -4.834  31.604  49.729  1.00  0.00    -0.504 OA
ATOM     21  H   UNL     1      -4.093  30.975  50.018  1.00  0.00     0.293 HD
ENDBRANCH  17  20
ENDBRANCH   1  12
BRANCH   6  22
ATOM     22  O   UNL     1       0.000  35.934  42.570  1.00  0.00    -0.507 OA
ATOM     23  H   UNL     1       0.574  35.141  42.810  1.00  0.00     0.293 HD
ENDBRANCH   6  22
BRANCH   8  24
ATOM     24  O   UNL     1      -4.007  38.451  41.867  1.00  0.00    -0.508 OA
ATOM     25  H   UNL     1      -3.484  39.129  41.325  1.00  0.00     0.293 HD
ENDBRANCH   8  24
TORSDOF 5
ENDMDL
MODEL 6
REMARK VINA RESULT:    -6.865      2.579      4.614
REMARK INTER + INTRA:          -8.345
REMARK INTER:                  -8.028
REMARK INTRA:                  -0.317
REMARK UNBOUND:                -0.276
REMARK SMILES O=c1cc(-c2ccc(O)c(O)c2)oc2cc(O)cc(O)c12
REMARK SMILES IDX 4 1 3 2 2 3 1 4 21 5 19 6 18 7 16 8 15 9 14 10 13 11 5 12
REMARK SMILES IDX 6 13 7 14 8 15 12 16 10 17 9 18 11 20 20 22 17 24
REMARK H PARENT 9 19 11 21 20 23 17 25
REMARK Flexibility Score: inf
ROOT
ATOM      1  C   UNL     1      -2.877  35.532  43.465  1.00  0.00     0.138 A 
ATOM      2  C   UNL     1      -3.734  34.739  44.238  1.00  0.00     0.100 A 
ATOM      3  C   UNL     1      -3.299  33.494  44.696  1.00  0.00     0.197 A 
ATOM      4  O   UNL     1      -4.111  32.782  45.340  1.00  0.00    -0.289 OA
ATOM      5  C   UNL     1      -1.983  33.059  44.408  1.00  0.00     0.107 A 
ATOM      6  C   UNL     1      -1.418  31.825  44.850  1.00  0.00     0.134 A 
ATOM      7  C   UNL     1      -0.136  31.459  44.419  1.00  0.00     0.093 A 
ATOM      8  C   UNL     1       0.621  32.304  43.610  1.00  0.00     0.123 A 
ATOM      9  C   UNL     1       0.098  33.536  43.212  1.00  0.00     0.094 A 
ATOM     10  C   UNL     1      -1.189  33.915  43.597  1.00  0.00     0.146 A 
ATOM     11  O   UNL     1      -1.656  35.088  43.182  1.00  0.00    -0.456 OA
ENDROOT
BRANCH   1  12
ATOM     12  C   UNL     1      -3.286  36.865  42.955  1.00  0.00     0.021 A 
ATOM     13  C   UNL     1      -4.473  37.451  43.428  1.00  0.00     0.016 A 
ATOM     14  C   UNL     1      -4.878  38.707  42.970  1.00  0.00     0.051 A 
ATOM     15  C   UNL     1      -4.102  39.404  42.039  1.00  0.00     0.157 A 
ATOM     16  C   UNL     1      -2.501  37.576  42.027  1.00  0.00     0.062 A 
ATOM     17  C   UNL     1      -2.906  38.838  41.567  1.00  0.00     0.158 A 
BRANCH  15  18
ATOM     18  O   UNL     1      -4.533  40.654  41.599  1.00  0.00    -0.504 OA
ATOM     19  H   UNL     1      -3.884  41.374  41.304  1.00  0.00     0.293 HD
ENDBRANCH  15  18
BRANCH  17  20
ATOM     20  O   UNL     1      -2.123  39.533  40.647  1.00  0.00    -0.504 OA
ATOM     21  H   UNL     1      -2.063  39.248  39.677  1.00  0.00     0.293 HD
ENDBRANCH  17  20
ENDBRANCH   1  12
BRANCH   6  22
ATOM     22  O   UNL     1      -2.055  30.939  45.725  1.00  0.00    -0.507 OA
ATOM     23  H   UNL     1      -1.989  29.934  45.681  1.00  0.00     0.293 HD
ENDBRANCH   6  22
BRANCH   8  24
ATOM     24  O   UNL     1       1.898  31.914  43.212  1.00  0.00    -0.508 OA
ATOM     25  H   UNL     1       2.374  32.364  42.439  1.00  0.00     0.293 HD
ENDBRANCH   8  24
TORSDOF 5
ENDMDL
MODEL 7
REMARK VINA RESULT:    -6.842      3.800      8.273
REMARK INTER + INTRA:          -8.317
REMARK INTER:                  -8.050
REMARK INTRA:                  -0.268
REMARK UNBOUND:                -0.276
REMARK SMILES O=c1cc(-c2ccc(O)c(O)c2)oc2cc(O)cc(O)c12
REMARK SMILES IDX 4 1 3 2 2 3 1 4 21 5 19 6 18 7 16 8 15 9 14 10 13 11 5 12
REMARK SMILES IDX 6 13 7 14 8 15 12 16 10 17 9 18 11 20 20 22 17 24
REMARK H PARENT 9 19 11 21 20 23 17 25
REMARK Flexibility Score: inf
ROOT
ATOM      1  C   UNL     1      -4.593  33.800  45.603  1.00  0.00     0.138 A 
ATOM      2  C   UNL     1      -5.326  34.948  45.277  1.00  0.00     0.100 A 
ATOM      3  C   UNL     1      -4.764  35.911  44.436  1.00  0.00     0.197 A 
ATOM      4  O   UNL     1      -5.425  36.956  44.207  1.00  0.00    -0.289 OA
ATOM      5  C   UNL     1      -3.475  35.703  43.890  1.00  0.00     0.107 A 
ATOM      6  C   UNL     1      -2.815  36.598  42.995  1.00  0.00     0.134 A 
ATOM      7  C   UNL     1      -1.498  36.331  42.599  1.00  0.00     0.093 A 
ATOM      8  C   UNL     1      -0.838  35.178  43.018  1.00  0.00     0.123 A 
ATOM      9  C   UNL     1      -1.491  34.270  43.854  1.00  0.00     0.094 A 
ATOM     10  C   UNL     1      -2.792  34.524  44.294  1.00  0.00     0.146 A 
ATOM     11  O   UNL     1      -3.371  33.643  45.103  1.00  0.00    -0.456 OA
ENDROOT
BRANCH   1  12
ATOM     12  C   UNL     1      -5.142  32.744  46.490  1.00  0.00     0.021 A 
ATOM     13  C   UNL     1      -6.150  31.892  46.007  1.00  0.00     0.016 A 
ATOM     14  C   UNL     1      -6.679  30.885  46.819  1.00  0.00     0.051 A 
ATOM     15  C   UNL     1      -6.205  30.704  48.121  1.00  0.00     0.157 A 
ATOM     16  C   UNL     1      -4.657  32.549  47.798  1.00  0.00     0.062 A 
ATOM     17  C   UNL     1      -5.187  31.537  48.613  1.00  0.00     0.158 A 
BRANCH  15  18
ATOM     18  O   UNL     1      -6.753  29.692  48.907  1.00  0.00    -0.504 OA
ATOM     19  H   UNL     1      -6.774  28.725  48.603  1.00  0.00     0.293 HD
ENDBRANCH  15  18
BRANCH  17  20
ATOM     20  O   UNL     1      -4.702  31.354  49.907  1.00  0.00    -0.504 OA
ATOM     21  H   UNL     1      -3.747  31.584  50.154  1.00  0.00     0.293 HD
ENDBRANCH  17  20
ENDBRANCH   1  12
BRANCH   6  22
ATOM     22  O   UNL     1      -3.408  37.741  42.450  1.00  0.00    -0.507 OA
ATOM     23  H   UNL     1      -3.836  37.793  41.539  1.00  0.00     0.293 HD
ENDBRANCH   6  22
BRANCH   8  24
ATOM     24  O   UNL     1       0.467  34.938  42.592  1.00  0.00    -0.508 OA
ATOM     25  H   UNL     1       1.021  35.661  42.150  1.00  0.00     0.293 HD
ENDBRANCH   8  24
TORSDOF 5
ENDMDL
MODEL 8
REMARK VINA RESULT:    -6.841      1.485      3.120
REMARK INTER + INTRA:          -8.317
REMARK INTER:                  -8.049
REMARK INTRA:                  -0.268
REMARK UNBOUND:                -0.276
REMARK SMILES O=c1cc(-c2ccc(O)c(O)c2)oc2cc(O)cc(O)c12
REMARK SMILES IDX 4 1 3 2 2 3 1 4 21 5 19 6 18 7 16 8 15 9 14 10 13 11 5 12
REMARK SMILES IDX 6 13 7 14 8 15 12 16 10 17 9 18 11 20 20 22 17 24
REMARK H PARENT 9 19 11 21 20 23 17 25
REMARK Flexibility Score: inf
ROOT
ATOM      1  C   UNL     1      -4.193  38.222  43.241  1.00  0.00     0.138 A 
ATOM      2  C   UNL     1      -5.033  37.343  43.937  1.00  0.00     0.100 A 
ATOM      3  C   UNL     1      -4.602  36.042  44.205  1.00  0.00     0.197 A 
ATOM      4  O   UNL     1      -5.401  35.261  44.782  1.00  0.00    -0.289 OA
ATOM      5  C   UNL     1      -3.307  35.633  43.806  1.00  0.00     0.107 A 
ATOM      6  C   UNL     1      -2.748  34.344  44.055  1.00  0.00     0.134 A 
ATOM      7  C   UNL     1      -1.492  34.023  43.524  1.00  0.00     0.093 A 
ATOM      8  C   UNL     1      -0.752  34.959  42.804  1.00  0.00     0.123 A 
ATOM      9  C   UNL     1      -1.268  36.239  42.597  1.00  0.00     0.094 A 
ATOM     10  C   UNL     1      -2.531  36.580  43.084  1.00  0.00     0.146 A 
ATOM     11  O   UNL     1      -2.993  37.804  42.850  1.00  0.00    -0.456 OA
ENDROOT
BRANCH   1  12
ATOM     12  C   UNL     1      -4.598  39.616  42.932  1.00  0.00     0.021 A 
ATOM     13  C   UNL     1      -4.650  40.039  41.593  1.00  0.00     0.016 A 
ATOM     14  C   UNL     1      -5.034  41.343  41.273  1.00  0.00     0.051 A 
ATOM     15  C   UNL     1      -5.383  42.246  42.282  1.00  0.00     0.157 A 
ATOM     16  C   UNL     1      -4.963  40.524  43.945  1.00  0.00     0.062 A 
ATOM     17  C   UNL     1      -5.351  41.834  43.625  1.00  0.00     0.158 A 
BRANCH  15  18
ATOM     18  O   UNL     1      -5.761  43.541  41.933  1.00  0.00    -0.504 OA
ATOM     19  H   UNL     1      -6.287  44.136  42.561  1.00  0.00     0.293 HD
ENDBRANCH  15  18
BRANCH  17  20
ATOM     20  O   UNL     1      -5.708  42.726  44.635  1.00  0.00    -0.504 OA
ATOM     21  H   UNL     1      -6.370  43.475  44.473  1.00  0.00     0.293 HD
ENDBRANCH  17  20
ENDBRANCH   1  12
BRANCH   6  22
ATOM     22  O   UNL     1      -3.366  33.357  44.829  1.00  0.00    -0.507 OA
ATOM     23  H   UNL     1      -3.560  32.417  44.521  1.00  0.00     0.293 HD
ENDBRANCH   6  22
BRANCH   8  24
ATOM     24  O   UNL     1       0.501  34.609  42.304  1.00  0.00    -0.508 OA
ATOM     25  H   UNL     1       1.270  34.372  42.920  1.00  0.00     0.293 HD
ENDBRANCH   8  24
TORSDOF 5
ENDMDL
MODEL 9
REMARK VINA RESULT:    -6.828      2.502      3.838
REMARK INTER + INTRA:          -8.301
REMARK INTER:                  -8.005
REMARK INTRA:                  -0.296
REMARK UNBOUND:                -0.276
REMARK SMILES O=c1cc(-c2ccc(O)c(O)c2)oc2cc(O)cc(O)c12
REMARK SMILES IDX 4 1 3 2 2 3 1 4 21 5 19 6 18 7 16 8 15 9 14 10 13 11 5 12
REMARK SMILES IDX 6 13 7 14 8 15 12 16 10 17 9 18 11 20 20 22 17 24
REMARK H PARENT 9 19 11 21 20 23 17 25
REMARK Flexibility Score: inf
ROOT
ATOM      1  C   UNL     1      -2.422  35.529  43.348  1.00  0.00     0.138 A 
ATOM      2  C   UNL     1      -1.108  35.125  43.078  1.00  0.00     0.100 A 
ATOM      3  C   UNL     1      -0.646  33.904  43.573  1.00  0.00     0.197 A 
ATOM      4  O   UNL     1       0.555  33.595  43.361  1.00  0.00    -0.289 OA
ATOM      5  C   UNL     1      -1.517  33.068  44.311  1.00  0.00     0.107 A 
ATOM      6  C   UNL     1      -1.167  31.787  44.835  1.00  0.00     0.134 A 
ATOM      7  C   UNL     1      -2.087  31.094  45.634  1.00  0.00     0.093 A 
ATOM      8  C   UNL     1      -3.359  31.607  45.881  1.00  0.00     0.123 A 
ATOM      9  C   UNL     1      -3.729  32.836  45.331  1.00  0.00     0.094 A 
ATOM     10  C   UNL     1      -2.825  33.566  44.559  1.00  0.00     0.146 A 
ATOM     11  O   UNL     1      -3.212  34.740  44.069  1.00  0.00    -0.456 OA
ENDROOT
BRANCH   1  12
ATOM     12  C   UNL     1      -2.967  36.815  42.844  1.00  0.00     0.021 A 
ATOM     13  C   UNL     1      -4.223  37.256  43.295  1.00  0.00     0.016 A 
ATOM     14  C   UNL     1      -4.756  38.466  42.842  1.00  0.00     0.051 A 
ATOM     15  C   UNL     1      -4.042  39.261  41.941  1.00  0.00     0.157 A 
ATOM     16  C   UNL     1      -2.245  37.625  41.947  1.00  0.00     0.062 A 
ATOM     17  C   UNL     1      -2.778  38.841  41.493  1.00  0.00     0.158 A 
BRANCH  15  18
ATOM     18  O   UNL     1      -4.600  40.462  41.507  1.00  0.00    -0.504 OA
ATOM     19  H   UNL     1      -4.323  40.901  40.637  1.00  0.00     0.293 HD
ENDBRANCH  15  18
BRANCH  17  20
ATOM     20  O   UNL     1      -2.056  39.635  40.603  1.00  0.00    -0.504 OA
ATOM     21  H   UNL     1      -1.120  39.384  40.306  1.00  0.00     0.293 HD
ENDBRANCH  17  20
ENDBRANCH   1  12
BRANCH   6  22
ATOM     22  O   UNL     1       0.049  31.143  44.587  1.00  0.00    -0.507 OA
ATOM     23  H   UNL     1       0.170  30.354  43.972  1.00  0.00     0.293 HD
ENDBRANCH   6  22
BRANCH   8  24
ATOM     24  O   UNL     1      -4.252  30.883  46.667  1.00  0.00    -0.508 OA
ATOM     25  H   UNL     1      -5.083  30.459  46.273  1.00  0.00     0.293 HD
ENDBRANCH   8  24
TORSDOF 5
ENDMDL
