MODEL 1
REMARK VINA RESULT:    -3.464      0.000      0.000
REMARK INTER + INTRA:          -3.464
REMARK INTER:                  -3.464
REMARK INTRA:                   0.000
REMARK UNBOUND:                 0.000
REMARK SMILES CC1(C)C(=O)[C@]2(C)CC[C@H]1C2
REMARK SMILES IDX 1 1 2 2 10 3 9 4 8 5 6 6 11 7 4 8 5 9 7 10 3 11
REMARK H PARENT
REMARK Flexibility Score: inf
ROOT
ATOM      1  C   UNL     1     168.203 158.780 172.415  1.00  0.00     0.020 C 
ATOM      2  C   UNL     1     167.588 158.889 171.003  1.00  0.00     0.027 C 
ATOM      3  C   UNL     1     168.253 159.983 170.092  1.00  0.00     0.003 C 
ATOM      4  C   UNL     1     169.799 159.869 170.118  1.00  0.00     0.005 C 
ATOM      5  C   UNL     1     170.063 158.535 169.383  1.00  0.00     0.015 C 
ATOM      6  C   UNL     1     168.650 158.109 168.942  1.00  0.00     0.027 C 
ATOM      7  C   UNL     1     167.994 159.450 168.684  1.00  0.00     0.019 C 
ATOM      8  C   UNL     1     167.900 157.678 170.172  1.00  0.00     0.144 C 
ATOM      9  O   UNL     1     167.651 156.522 170.484  1.00  0.00    -0.298 OA
ATOM     10  C   UNL     1     168.597 157.132 167.766  1.00  0.00     0.020 C 
ATOM     11  C   UNL     1     166.064 159.104 171.129  1.00  0.00     0.020 C 
ENDROOT
TORSDOF 0
ENDMDL
MODEL 2
REMARK VINA RESULT:    -3.452     14.179     15.317
REMARK INTER + INTRA:          -3.452
REMARK INTER:                  -3.452
REMARK INTRA:                   0.000
REMARK UNBOUND:                 0.000
REMARK SMILES CC1(C)C(=O)[C@]2(C)CC[C@H]1C2
REMARK SMILES IDX 1 1 2 2 10 3 9 4 8 5 6 6 11 7 4 8 5 9 7 10 3 11
REMARK H PARENT
REMARK Flexibility Score: inf
ROOT
ATOM      1  C   UNL     1     162.978 172.442 172.368  1.00  0.00     0.020 C 
ATOM      2  C   UNL     1     163.618 172.298 170.971  1.00  0.00     0.027 C 
ATOM      3  C   UNL     1     162.956 171.196 170.067  1.00  0.00     0.003 C 
ATOM      4  C   UNL     1     161.411 171.330 170.063  1.00  0.00     0.005 C 
ATOM      5  C   UNL     1     161.178 172.653 169.298  1.00  0.00     0.015 C 
ATOM      6  C   UNL     1     162.604 173.054 168.876  1.00  0.00     0.027 C 
ATOM      7  C   UNL     1     163.248 171.699 168.655  1.00  0.00     0.019 C 
ATOM      8  C   UNL     1     163.337 173.498 170.112  1.00  0.00     0.144 C 
ATOM      9  O   UNL     1     163.595 174.656 170.407  1.00  0.00    -0.298 OA
ATOM     10  C   UNL     1     162.692 174.008 167.683  1.00  0.00     0.020 C 
ATOM     11  C   UNL     1     165.136 172.068 171.129  1.00  0.00     0.020 C 
ENDROOT
TORSDOF 0
ENDMDL
MODEL 3
REMARK VINA RESULT:    -3.341     14.916     16.159
REMARK INTER + INTRA:          -3.341
REMARK INTER:                  -3.341
REMARK INTRA:                   0.000
REMARK UNBOUND:                 0.000
REMARK SMILES CC1(C)C(=O)[C@]2(C)CC[C@H]1C2
REMARK SMILES IDX 1 1 2 2 10 3 9 4 8 5 6 6 11 7 4 8 5 9 7 10 3 11
REMARK H PARENT
REMARK Flexibility Score: inf
ROOT
ATOM      1  C   UNL     1     163.198 171.013 170.066  1.00  0.00     0.020 C 
ATOM      2  C   UNL     1     162.713 172.142 169.131  1.00  0.00     0.027 C 
ATOM      3  C   UNL     1     161.152 172.241 168.994  1.00  0.00     0.003 C 
ATOM      4  C   UNL     1     160.466 172.213 170.384  1.00  0.00     0.005 C 
ATOM      5  C   UNL     1     160.889 173.561 171.010  1.00  0.00     0.015 C 
ATOM      6  C   UNL     1     161.675 174.230 169.867  1.00  0.00     0.027 C 
ATOM      7  C   UNL     1     160.938 173.714 168.647  1.00  0.00     0.019 C 
ATOM      8  C   UNL     1     162.980 173.497 169.721  1.00  0.00     0.144 C 
ATOM      9  O   UNL     1     164.070 173.906 170.091  1.00  0.00    -0.298 OA
ATOM     10  C   UNL     1     161.786 175.754 169.951  1.00  0.00     0.020 C 
ATOM     11  C   UNL     1     163.396 171.987 167.755  1.00  0.00     0.020 C 
ENDROOT
TORSDOF 0
ENDMDL
MODEL 4
REMARK VINA RESULT:    -3.261      2.368      3.324
REMARK INTER + INTRA:          -3.261
REMARK INTER:                  -3.261
REMARK INTRA:                   0.000
REMARK UNBOUND:                 0.000
REMARK SMILES CC1(C)C(=O)[C@]2(C)CC[C@H]1C2
REMARK SMILES IDX 1 1 2 2 10 3 9 4 8 5 6 6 11 7 4 8 5 9 7 10 3 11
REMARK H PARENT
REMARK Flexibility Score: inf
ROOT
ATOM      1  C   UNL     1     169.841 158.477 171.433  1.00  0.00     0.020 C 
ATOM      2  C   UNL     1     170.293 158.891 170.016  1.00  0.00     0.027 C 
ATOM      3  C   UNL     1     171.576 159.798 169.987  1.00  0.00     0.003 C 
ATOM      4  C   UNL     1     172.698 159.208 170.879  1.00  0.00     0.005 C 
ATOM      5  C   UNL     1     173.110 157.926 170.120  1.00  0.00     0.015 C 
ATOM      6  C   UNL     1     172.246 157.998 168.846  1.00  0.00     0.027 C 
ATOM      7  C   UNL     1     172.171 159.494 168.613  1.00  0.00     0.019 C 
ATOM      8  C   UNL     1     170.823 157.718 169.243  1.00  0.00     0.144 C 
ATOM      9  O   UNL     1     170.220 156.675 169.038  1.00  0.00    -0.298 OA
ATOM     10  C   UNL     1     172.765 157.190 167.655  1.00  0.00     0.020 C 
ATOM     11  C   UNL     1     169.110 159.556 169.281  1.00  0.00     0.020 C 
ENDROOT
TORSDOF 0
ENDMDL
MODEL 5
REMARK VINA RESULT:    -3.260     15.518     16.814
REMARK INTER + INTRA:          -3.260
REMARK INTER:                  -3.260
REMARK INTRA:                   0.000
REMARK UNBOUND:                 0.000
REMARK SMILES CC1(C)C(=O)[C@]2(C)CC[C@H]1C2
REMARK SMILES IDX 1 1 2 2 10 3 9 4 8 5 6 6 11 7 4 8 5 9 7 10 3 11
REMARK H PARENT
REMARK Flexibility Score: inf
ROOT
ATOM      1  C   UNL     1     161.360 172.746 171.390  1.00  0.00     0.020 C 
ATOM      2  C   UNL     1     160.907 172.327 169.975  1.00  0.00     0.027 C 
ATOM      3  C   UNL     1     159.624 171.421 169.948  1.00  0.00     0.003 C 
ATOM      4  C   UNL     1     158.502 172.015 170.838  1.00  0.00     0.005 C 
ATOM      5  C   UNL     1     158.091 173.294 170.075  1.00  0.00     0.015 C 
ATOM      6  C   UNL     1     158.954 173.217 168.801  1.00  0.00     0.027 C 
ATOM      7  C   UNL     1     159.029 171.720 168.574  1.00  0.00     0.019 C 
ATOM      8  C   UNL     1     160.378 173.498 169.198  1.00  0.00     0.144 C 
ATOM      9  O   UNL     1     160.981 174.540 168.988  1.00  0.00    -0.298 OA
ATOM     10  C   UNL     1     158.436 174.022 167.607  1.00  0.00     0.020 C 
ATOM     11  C   UNL     1     162.090 171.659 169.241  1.00  0.00     0.020 C 
ENDROOT
TORSDOF 0
ENDMDL
MODEL 6
REMARK VINA RESULT:    -3.190      6.607      8.003
REMARK INTER + INTRA:          -3.190
REMARK INTER:                  -3.190
REMARK INTRA:                   0.000
REMARK UNBOUND:                 0.000
REMARK SMILES CC1(C)C(=O)[C@]2(C)CC[C@H]1C2
REMARK SMILES IDX 1 1 2 2 10 3 9 4 8 5 6 6 11 7 4 8 5 9 7 10 3 11
REMARK H PARENT
REMARK Flexibility Score: inf
ROOT
ATOM      1  C   UNL     1     166.843 164.863 168.154  1.00  0.00     0.020 C 
ATOM      2  C   UNL     1     166.469 165.647 169.431  1.00  0.00     0.027 C 
ATOM      3  C   UNL     1     165.162 166.508 169.300  1.00  0.00     0.003 C 
ATOM      4  C   UNL     1     164.004 165.678 168.688  1.00  0.00     0.005 C 
ATOM      5  C   UNL     1     163.686 164.651 169.798  1.00  0.00     0.015 C 
ATOM      6  C   UNL     1     164.626 165.085 170.937  1.00  0.00     0.027 C 
ATOM      7  C   UNL     1     164.667 166.588 170.743  1.00  0.00     0.019 C 
ATOM      8  C   UNL     1     166.029 164.726 170.532  1.00  0.00     0.144 C 
ATOM      9  O   UNL     1     166.679 163.790 170.974  1.00  0.00    -0.298 OA
ATOM     10  C   UNL     1     164.213 164.631 172.339  1.00  0.00     0.020 C 
ATOM     11  C   UNL     1     167.675 166.507 169.868  1.00  0.00     0.020 C 
ENDROOT
TORSDOF 0
ENDMDL
MODEL 7
REMARK VINA RESULT:    -3.176     14.352     15.453
REMARK INTER + INTRA:          -3.176
REMARK INTER:                  -3.176
REMARK INTRA:                   0.000
REMARK UNBOUND:                 0.000
REMARK SMILES CC1(C)C(=O)[C@]2(C)CC[C@H]1C2
REMARK SMILES IDX 1 1 2 2 10 3 9 4 8 5 6 6 11 7 4 8 5 9 7 10 3 11
REMARK H PARENT
REMARK Flexibility Score: inf
ROOT
ATOM      1  C   UNL     1     160.131 172.000 169.048  1.00  0.00     0.020 C 
ATOM      2  C   UNL     1     161.231 171.746 170.101  1.00  0.00     0.027 C 
ATOM      3  C   UNL     1     162.597 171.254 169.501  1.00  0.00     0.003 C 
ATOM      4  C   UNL     1     163.036 172.141 168.308  1.00  0.00     0.005 C 
ATOM      5  C   UNL     1     163.368 173.492 168.980  1.00  0.00     0.015 C 
ATOM      6  C   UNL     1     163.176 173.180 170.477  1.00  0.00     0.027 C 
ATOM      7  C   UNL     1     163.610 171.728 170.542  1.00  0.00     0.019 C 
ATOM      8  C   UNL     1     161.701 173.028 170.725  1.00  0.00     0.144 C 
ATOM      9  O   UNL     1     160.985 173.850 171.278  1.00  0.00    -0.298 OA
ATOM     10  C   UNL     1     163.911 174.112 171.442  1.00  0.00     0.020 C 
ATOM     11  C   UNL     1     160.693 170.768 171.168  1.00  0.00     0.020 C 
ENDROOT
TORSDOF 0
ENDMDL
MODEL 8
REMARK VINA RESULT:    -3.153      1.404      3.024
REMARK INTER + INTRA:          -3.153
REMARK INTER:                  -3.153
REMARK INTRA:                   0.000
REMARK UNBOUND:                 0.000
REMARK SMILES CC1(C)C(=O)[C@]2(C)CC[C@H]1C2
REMARK SMILES IDX 1 1 2 2 10 3 9 4 8 5 6 6 11 7 4 8 5 9 7 10 3 11
REMARK H PARENT
REMARK Flexibility Score: inf
ROOT
ATOM      1  C   UNL     1     167.878 159.298 168.064  1.00  0.00     0.020 C 
ATOM      2  C   UNL     1     168.693 158.072 168.529  1.00  0.00     0.027 C 
ATOM      3  C   UNL     1     170.167 158.402 168.961  1.00  0.00     0.003 C 
ATOM      4  C   UNL     1     170.208 159.612 169.930  1.00  0.00     0.005 C 
ATOM      5  C   UNL     1     169.541 159.058 171.209  1.00  0.00     0.015 C 
ATOM      6  C   UNL     1     169.296 157.581 170.848  1.00  0.00     0.027 C 
ATOM      7  C   UNL     1     170.484 157.285 169.953  1.00  0.00     0.019 C 
ATOM      8  C   UNL     1     168.184 157.537 169.836  1.00  0.00     0.144 C 
ATOM      9  O   UNL     1     167.033 157.194 170.060  1.00  0.00    -0.298 OA
ATOM     10  C   UNL     1     169.137 156.631 172.037  1.00  0.00     0.020 C 
ATOM     11  C   UNL     1     168.652 156.990 167.428  1.00  0.00     0.020 C 
ENDROOT
TORSDOF 0
ENDMDL
MODEL 9
REMARK VINA RESULT:    -3.084      1.681      2.741
REMARK INTER + INTRA:          -3.084
REMARK INTER:                  -3.084
REMARK INTRA:                   0.000
REMARK UNBOUND:                 0.000
REMARK SMILES CC1(C)C(=O)[C@]2(C)CC[C@H]1C2
REMARK SMILES IDX 1 1 2 2 10 3 9 4 8 5 6 6 11 7 4 8 5 9 7 10 3 11
REMARK H PARENT
REMARK Flexibility Score: inf
ROOT
ATOM      1  C   UNL     1     170.840 159.997 170.658  1.00  0.00     0.020 C 
ATOM      2  C   UNL     1     170.093 158.653 170.517  1.00  0.00     0.027 C 
ATOM      3  C   UNL     1     168.533 158.761 170.670  1.00  0.00     0.003 C 
ATOM      4  C   UNL     1     167.965 159.913 169.801  1.00  0.00     0.005 C 
ATOM      5  C   UNL     1     168.180 159.400 168.359  1.00  0.00     0.015 C 
ATOM      6  C   UNL     1     168.749 157.987 168.585  1.00  0.00     0.027 C 
ATOM      7  C   UNL     1     168.033 157.571 169.855  1.00  0.00     0.019 C 
ATOM      8  C   UNL     1     170.151 158.138 169.107  1.00  0.00     0.144 C 
ATOM      9  O   UNL     1     171.173 157.945 168.465  1.00  0.00    -0.298 OA
ATOM     10  C   UNL     1     168.587 157.019 167.412  1.00  0.00     0.020 C 
ATOM     11  C   UNL     1     170.693 157.634 171.510  1.00  0.00     0.020 C 
ENDROOT
TORSDOF 0
ENDMDL
