MODEL 1
REMARK VINA RESULT:    -6.594      0.000      0.000
REMARK INTER + INTRA:          -8.022
REMARK INTER:                  -7.751
REMARK INTRA:                  -0.272
REMARK UNBOUND:                -0.272
REMARK SMILES O=c1cc(-c2ccc(O)c(O)c2)oc2cc(O)cc(O)c12
REMARK SMILES IDX 4 1 3 2 2 3 1 4 21 5 19 6 18 7 16 8 15 9 14 10 13 11 5 12
REMARK SMILES IDX 6 13 7 14 8 15 12 16 10 17 9 18 11 20 20 22 17 24
REMARK H PARENT 9 19 11 21 20 23 17 25
REMARK Flexibility Score: inf
ROOT
ATOM      1  C   UNL     1      18.729  -1.616 -17.057  1.00  0.00     0.138 A 
ATOM      2  C   UNL     1      18.141  -0.892 -16.011  1.00  0.00     0.100 A 
ATOM      3  C   UNL     1      17.446  -1.569 -15.007  1.00  0.00     0.197 A 
ATOM      4  O   UNL     1      16.983  -0.898 -14.050  1.00  0.00    -0.289 OA
ATOM      5  C   UNL     1      17.314  -2.977 -15.071  1.00  0.00     0.107 A 
ATOM      6  C   UNL     1      16.595  -3.768 -14.127  1.00  0.00     0.134 A 
ATOM      7  C   UNL     1      16.631  -5.165 -14.228  1.00  0.00     0.093 A 
ATOM      8  C   UNL     1      17.309  -5.795 -15.270  1.00  0.00     0.123 A 
ATOM      9  C   UNL     1      17.971  -5.029 -16.230  1.00  0.00     0.094 A 
ATOM     10  C   UNL     1      17.983  -3.634 -16.138  1.00  0.00     0.146 A 
ATOM     11  O   UNL     1      18.638  -2.941 -17.064  1.00  0.00    -0.456 OA
ENDROOT
BRANCH   1  12
ATOM     12  C   UNL     1      19.478  -0.945 -18.151  1.00  0.00     0.021 A 
ATOM     13  C   UNL     1      20.712  -0.312 -17.921  1.00  0.00     0.016 A 
ATOM     14  C   UNL     1      21.388   0.318 -18.966  1.00  0.00     0.051 A 
ATOM     15  C   UNL     1      20.851   0.339 -20.257  1.00  0.00     0.157 A 
ATOM     16  C   UNL     1      18.931  -0.913 -19.445  1.00  0.00     0.062 A 
ATOM     17  C   UNL     1      19.604  -0.283 -20.500  1.00  0.00     0.158 A 
BRANCH  15  18
ATOM     18  O   UNL     1      21.580   0.985 -21.257  1.00  0.00    -0.504 OA
ATOM     19  H   UNL     1      21.272   1.069 -22.216  1.00  0.00     0.293 HD
ENDBRANCH  15  18
BRANCH  17  20
ATOM     20  O   UNL     1      19.002  -0.299 -21.759  1.00  0.00    -0.504 OA
ATOM     21  H   UNL     1      18.082   0.071 -21.950  1.00  0.00     0.293 HD
ENDBRANCH  17  20
ENDBRANCH   1  12
BRANCH   6  22
ATOM     22  O   UNL     1      15.815  -3.238 -13.095  1.00  0.00    -0.507 OA
ATOM     23  H   UNL     1      15.198  -2.446 -13.188  1.00  0.00     0.293 HD
ENDBRANCH   6  22
BRANCH   8  24
ATOM     24  O   UNL     1      17.311  -7.186 -15.347  1.00  0.00    -0.508 OA
ATOM     25  H   UNL     1      16.540  -7.739 -14.990  1.00  0.00     0.293 HD
ENDBRANCH   8  24
TORSDOF 5
ENDMDL
MODEL 2
REMARK VINA RESULT:    -6.447      8.826     12.678
REMARK INTER + INTRA:          -7.849
REMARK INTER:                  -7.533
REMARK INTRA:                  -0.316
REMARK UNBOUND:                -0.272
REMARK SMILES O=c1cc(-c2ccc(O)c(O)c2)oc2cc(O)cc(O)c12
REMARK SMILES IDX 4 1 3 2 2 3 1 4 21 5 19 6 18 7 16 8 15 9 14 10 13 11 5 12
REMARK SMILES IDX 6 13 7 14 8 15 12 16 10 17 9 18 11 20 20 22 17 24
REMARK H PARENT 9 19 11 21 20 23 17 25
REMARK Flexibility Score: inf
ROOT
ATOM      1  C   UNL     1      10.840  -7.006  -9.321  1.00  0.00     0.138 A 
ATOM      2  C   UNL     1       9.922  -8.037  -9.564  1.00  0.00     0.100 A 
ATOM      3  C   UNL     1       8.854  -8.233  -8.686  1.00  0.00     0.197 A 
ATOM      4  O   UNL     1       8.013  -9.124  -8.965  1.00  0.00    -0.289 OA
ATOM      5  C   UNL     1       8.725  -7.410  -7.542  1.00  0.00     0.107 A 
ATOM      6  C   UNL     1       7.702  -7.543  -6.557  1.00  0.00     0.134 A 
ATOM      7  C   UNL     1       7.607  -6.597  -5.528  1.00  0.00     0.093 A 
ATOM      8  C   UNL     1       8.531  -5.560  -5.415  1.00  0.00     0.123 A 
ATOM      9  C   UNL     1       9.569  -5.452  -6.341  1.00  0.00     0.094 A 
ATOM     10  C   UNL     1       9.671  -6.359  -7.399  1.00  0.00     0.146 A 
ATOM     11  O   UNL     1      10.665  -6.213  -8.269  1.00  0.00    -0.456 OA
ENDROOT
BRANCH   1  12
ATOM     12  C   UNL     1      11.994  -6.755 -10.221  1.00  0.00     0.021 A 
ATOM     13  C   UNL     1      12.402  -7.699 -11.180  1.00  0.00     0.016 A 
ATOM     14  C   UNL     1      13.496  -7.440 -12.005  1.00  0.00     0.051 A 
ATOM     15  C   UNL     1      14.211  -6.244 -11.892  1.00  0.00     0.157 A 
ATOM     16  C   UNL     1      12.721  -5.558 -10.098  1.00  0.00     0.062 A 
ATOM     17  C   UNL     1      13.820  -5.291 -10.924  1.00  0.00     0.158 A 
BRANCH  15  18
ATOM     18  O   UNL     1      15.295  -6.047 -12.751  1.00  0.00    -0.504 OA
ATOM     19  H   UNL     1      16.051  -6.706 -12.866  1.00  0.00     0.293 HD
ENDBRANCH  15  18
BRANCH  17  20
ATOM     20  O   UNL     1      14.487  -4.077 -10.748  1.00  0.00    -0.504 OA
ATOM     21  H   UNL     1      14.080  -3.175 -10.950  1.00  0.00     0.293 HD
ENDBRANCH  17  20
ENDBRANCH   1  12
BRANCH   6  22
ATOM     22  O   UNL     1       6.777  -8.590  -6.528  1.00  0.00    -0.507 OA
ATOM     23  H   UNL     1       6.637  -9.215  -5.748  1.00  0.00     0.293 HD
ENDBRANCH   6  22
BRANCH   8  24
ATOM     24  O   UNL     1       8.415  -4.646  -4.370  1.00  0.00    -0.508 OA
ATOM     25  H   UNL     1       8.698  -3.679  -4.477  1.00  0.00     0.293 HD
ENDBRANCH   8  24
TORSDOF 5
ENDMDL
MODEL 3
REMARK VINA RESULT:    -6.347     10.608     14.889
REMARK INTER + INTRA:          -7.732
REMARK INTER:                  -7.463
REMARK INTRA:                  -0.269
REMARK UNBOUND:                -0.272
REMARK SMILES O=c1cc(-c2ccc(O)c(O)c2)oc2cc(O)cc(O)c12
REMARK SMILES IDX 4 1 3 2 2 3 1 4 21 5 19 6 18 7 16 8 15 9 14 10 13 11 5 12
REMARK SMILES IDX 6 13 7 14 8 15 12 16 10 17 9 18 11 20 20 22 17 24
REMARK H PARENT 9 19 11 21 20 23 17 25
REMARK Flexibility Score: inf
ROOT
ATOM      1  C   UNL     1       8.738  -7.780  -8.732  1.00  0.00     0.138 A 
ATOM      2  C   UNL     1       7.709  -8.012  -9.655  1.00  0.00     0.100 A 
ATOM      3  C   UNL     1       8.023  -8.266 -10.991  1.00  0.00     0.197 A 
ATOM      4  O   UNL     1       7.083  -8.532 -11.782  1.00  0.00    -0.289 OA
ATOM      5  C   UNL     1       9.376  -8.257 -11.409  1.00  0.00     0.107 A 
ATOM      6  C   UNL     1       9.812  -8.463 -12.751  1.00  0.00     0.134 A 
ATOM      7  C   UNL     1      11.183  -8.548 -13.026  1.00  0.00     0.093 A 
ATOM      8  C   UNL     1      12.132  -8.375 -12.020  1.00  0.00     0.123 A 
ATOM      9  C   UNL     1      11.717  -8.119 -10.712  1.00  0.00     0.094 A 
ATOM     10  C   UNL     1      10.356  -8.063 -10.399  1.00  0.00     0.146 A 
ATOM     11  O   UNL     1      10.002  -7.832  -9.139  1.00  0.00    -0.456 OA
ENDROOT
BRANCH   1  12
ATOM     12  C   UNL     1       8.459  -7.503  -7.300  1.00  0.00     0.021 A 
ATOM     13  C   UNL     1       8.033  -8.514  -6.421  1.00  0.00     0.016 A 
ATOM     14  C   UNL     1       7.769  -8.222  -5.083  1.00  0.00     0.051 A 
ATOM     15  C   UNL     1       7.916  -6.921  -4.591  1.00  0.00     0.157 A 
ATOM     16  C   UNL     1       8.594  -6.193  -6.810  1.00  0.00     0.062 A 
ATOM     17  C   UNL     1       8.331  -5.892  -5.467  1.00  0.00     0.158 A 
BRANCH  15  18
ATOM     18  O   UNL     1       7.637  -6.698  -3.241  1.00  0.00    -0.504 OA
ATOM     19  H   UNL     1       8.291  -6.287  -2.591  1.00  0.00     0.293 HD
ENDBRANCH  15  18
BRANCH  17  20
ATOM     20  O   UNL     1       8.495  -4.569  -5.052  1.00  0.00    -0.504 OA
ATOM     21  H   UNL     1       7.843  -3.827  -5.262  1.00  0.00     0.293 HD
ENDBRANCH  17  20
ENDBRANCH   1  12
BRANCH   6  22
ATOM     22  O   UNL     1       8.950  -8.565 -13.847  1.00  0.00    -0.507 OA
ATOM     23  H   UNL     1       8.898  -7.900 -14.603  1.00  0.00     0.293 HD
ENDBRANCH   6  22
BRANCH   8  24
ATOM     24  O   UNL     1      13.487  -8.451 -12.332  1.00  0.00    -0.508 OA
ATOM     25  H   UNL     1      13.826  -9.028 -13.093  1.00  0.00     0.293 HD
ENDBRANCH   8  24
TORSDOF 5
ENDMDL
MODEL 4
REMARK VINA RESULT:    -6.033      1.201      2.709
REMARK INTER + INTRA:          -7.363
REMARK INTER:                  -7.099
REMARK INTRA:                  -0.264
REMARK UNBOUND:                -0.272
REMARK SMILES O=c1cc(-c2ccc(O)c(O)c2)oc2cc(O)cc(O)c12
REMARK SMILES IDX 4 1 3 2 2 3 1 4 21 5 19 6 18 7 16 8 15 9 14 10 13 11 5 12
REMARK SMILES IDX 6 13 7 14 8 15 12 16 10 17 9 18 11 20 20 22 17 24
REMARK H PARENT 9 19 11 21 20 23 17 25
REMARK Flexibility Score: inf
ROOT
ATOM      1  C   UNL     1      18.734  -1.944 -17.207  1.00  0.00     0.138 A 
ATOM      2  C   UNL     1      18.641  -3.340 -17.286  1.00  0.00     0.100 A 
ATOM      3  C   UNL     1      17.942  -4.043 -16.304  1.00  0.00     0.197 A 
ATOM      4  O   UNL     1      17.823  -5.288 -16.436  1.00  0.00    -0.289 OA
ATOM      5  C   UNL     1      17.358  -3.344 -15.220  1.00  0.00     0.107 A 
ATOM      6  C   UNL     1      16.657  -3.959 -14.140  1.00  0.00     0.134 A 
ATOM      7  C   UNL     1      16.022  -3.156 -13.184  1.00  0.00     0.093 A 
ATOM      8  C   UNL     1      16.112  -1.766 -13.235  1.00  0.00     0.123 A 
ATOM      9  C   UNL     1      16.842  -1.156 -14.256  1.00  0.00     0.094 A 
ATOM     10  C   UNL     1      17.458  -1.927 -15.245  1.00  0.00     0.146 A 
ATOM     11  O   UNL     1      18.130  -1.307 -16.209  1.00  0.00    -0.456 OA
ENDROOT
BRANCH   1  12
ATOM     12  C   UNL     1      19.467  -1.148 -18.223  1.00  0.00     0.021 A 
ATOM     13  C   UNL     1      20.660  -0.472 -17.913  1.00  0.00     0.016 A 
ATOM     14  C   UNL     1      21.322   0.277 -18.886  1.00  0.00     0.051 A 
ATOM     15  C   UNL     1      20.810   0.376 -20.184  1.00  0.00     0.157 A 
ATOM     16  C   UNL     1      18.945  -1.037 -19.524  1.00  0.00     0.062 A 
ATOM     17  C   UNL     1      19.604  -0.287 -20.507  1.00  0.00     0.158 A 
BRANCH  15  18
ATOM     18  O   UNL     1      21.524   1.140 -21.110  1.00  0.00    -0.504 OA
ATOM     19  H   UNL     1      21.612   0.904 -22.088  1.00  0.00     0.293 HD
ENDBRANCH  15  18
BRANCH  17  20
ATOM     20  O   UNL     1      19.029  -0.230 -21.778  1.00  0.00    -0.504 OA
ATOM     21  H   UNL     1      19.252   0.472 -22.467  1.00  0.00     0.293 HD
ENDBRANCH  17  20
ENDBRANCH   1  12
BRANCH   6  22
ATOM     22  O   UNL     1      16.575  -5.341 -13.947  1.00  0.00    -0.507 OA
ATOM     23  H   UNL     1      16.013  -5.792 -13.242  1.00  0.00     0.293 HD
ENDBRANCH   6  22
BRANCH   8  24
ATOM     24  O   UNL     1      15.481  -1.000 -12.258  1.00  0.00    -0.508 OA
ATOM     25  H   UNL     1      14.521  -0.692 -12.363  1.00  0.00     0.293 HD
ENDBRANCH   8  24
TORSDOF 5
ENDMDL
MODEL 5
REMARK VINA RESULT:    -5.993      7.249     10.873
REMARK INTER + INTRA:          -7.316
REMARK INTER:                  -7.045
REMARK INTRA:                  -0.270
REMARK UNBOUND:                -0.272
REMARK SMILES O=c1cc(-c2ccc(O)c(O)c2)oc2cc(O)cc(O)c12
REMARK SMILES IDX 4 1 3 2 2 3 1 4 21 5 19 6 18 7 16 8 15 9 14 10 13 11 5 12
REMARK SMILES IDX 6 13 7 14 8 15 12 16 10 17 9 18 11 20 20 22 17 24
REMARK H PARENT 9 19 11 21 20 23 17 25
REMARK Flexibility Score: inf
ROOT
ATOM      1  C   UNL     1      11.900  -6.684 -10.798  1.00  0.00     0.138 A 
ATOM      2  C   UNL     1      11.590  -6.948  -9.457  1.00  0.00     0.100 A 
ATOM      3  C   UNL     1      10.327  -7.441  -9.124  1.00  0.00     0.197 A 
ATOM      4  O   UNL     1      10.100  -7.726  -7.921  1.00  0.00    -0.289 OA
ATOM      5  C   UNL     1       9.361  -7.641 -10.138  1.00  0.00     0.107 A 
ATOM      6  C   UNL     1       8.029  -8.101  -9.913  1.00  0.00     0.134 A 
ATOM      7  C   UNL     1       7.199  -8.373 -11.006  1.00  0.00     0.093 A 
ATOM      8  C   UNL     1       7.628  -8.145 -12.313  1.00  0.00     0.123 A 
ATOM      9  C   UNL     1       8.910  -7.644 -12.543  1.00  0.00     0.094 A 
ATOM     10  C   UNL     1       9.776  -7.396 -11.475  1.00  0.00     0.146 A 
ATOM     11  O   UNL     1      10.994  -6.933 -11.738  1.00  0.00    -0.456 OA
ENDROOT
BRANCH   1  12
ATOM     12  C   UNL     1      13.227  -6.158 -11.207  1.00  0.00     0.021 A 
ATOM     13  C   UNL     1      14.010  -6.803 -12.181  1.00  0.00     0.016 A 
ATOM     14  C   UNL     1      15.258  -6.290 -12.538  1.00  0.00     0.051 A 
ATOM     15  C   UNL     1      15.756  -5.133 -11.932  1.00  0.00     0.157 A 
ATOM     16  C   UNL     1      13.734  -5.002 -10.588  1.00  0.00     0.062 A 
ATOM     17  C   UNL     1      14.985  -4.480 -10.942  1.00  0.00     0.158 A 
BRANCH  15  18
ATOM     18  O   UNL     1      17.011  -4.672 -12.337  1.00  0.00    -0.504 OA
ATOM     19  H   UNL     1      17.154  -3.846 -12.901  1.00  0.00     0.293 HD
ENDBRANCH  15  18
BRANCH  17  20
ATOM     20  O   UNL     1      15.418  -3.325 -10.289  1.00  0.00    -0.504 OA
ATOM     21  H   UNL     1      15.161  -2.389 -10.568  1.00  0.00     0.293 HD
ENDBRANCH  17  20
ENDBRANCH   1  12
BRANCH   6  22
ATOM     22  O   UNL     1       7.470  -8.281  -8.644  1.00  0.00    -0.507 OA
ATOM     23  H   UNL     1       7.851  -7.909  -7.788  1.00  0.00     0.293 HD
ENDBRANCH   6  22
BRANCH   8  24
ATOM     24  O   UNL     1       6.769  -8.412 -13.376  1.00  0.00    -0.508 OA
ATOM     25  H   UNL     1       5.766  -8.288 -13.293  1.00  0.00     0.293 HD
ENDBRANCH   8  24
TORSDOF 5
ENDMDL
MODEL 6
REMARK VINA RESULT:    -5.958      7.151     12.462
REMARK INTER + INTRA:          -7.275
REMARK INTER:                  -6.992
REMARK INTRA:                  -0.283
REMARK UNBOUND:                -0.272
REMARK SMILES O=c1cc(-c2ccc(O)c(O)c2)oc2cc(O)cc(O)c12
REMARK SMILES IDX 4 1 3 2 2 3 1 4 21 5 19 6 18 7 16 8 15 9 14 10 13 11 5 12
REMARK SMILES IDX 6 13 7 14 8 15 12 16 10 17 9 18 11 20 20 22 17 24
REMARK H PARENT 9 19 11 21 20 23 17 25
REMARK Flexibility Score: inf
ROOT
ATOM      1  C   UNL     1      11.725  -6.805  -9.913  1.00  0.00     0.138 A 
ATOM      2  C   UNL     1      11.861  -7.739 -10.949  1.00  0.00     0.100 A 
ATOM      3  C   UNL     1      12.911  -7.612 -11.860  1.00  0.00     0.197 A 
ATOM      4  O   UNL     1      13.043  -8.500 -12.740  1.00  0.00    -0.289 OA
ATOM      5  C   UNL     1      13.810  -6.525 -11.749  1.00  0.00     0.107 A 
ATOM      6  C   UNL     1      14.893  -6.272 -12.643  1.00  0.00     0.134 A 
ATOM      7  C   UNL     1      15.788  -5.232 -12.366  1.00  0.00     0.093 A 
ATOM      8  C   UNL     1      15.607  -4.399 -11.263  1.00  0.00     0.123 A 
ATOM      9  C   UNL     1      14.520  -4.603 -10.412  1.00  0.00     0.094 A 
ATOM     10  C   UNL     1      13.629  -5.655 -10.641  1.00  0.00     0.146 A 
ATOM     11  O   UNL     1      12.615  -5.825  -9.798  1.00  0.00    -0.456 OA
ENDROOT
BRANCH   1  12
ATOM     12  C   UNL     1      10.626  -6.892  -8.918  1.00  0.00     0.021 A 
ATOM     13  C   UNL     1      10.390  -8.063  -8.177  1.00  0.00     0.016 A 
ATOM     14  C   UNL     1       9.344  -8.119  -7.256  1.00  0.00     0.051 A 
ATOM     15  C   UNL     1       8.506  -7.017  -7.057  1.00  0.00     0.157 A 
ATOM     16  C   UNL     1       9.776  -5.789  -8.728  1.00  0.00     0.062 A 
ATOM     17  C   UNL     1       8.723  -5.837  -7.804  1.00  0.00     0.158 A 
BRANCH  15  18
ATOM     18  O   UNL     1       7.479  -7.139  -6.119  1.00  0.00    -0.504 OA
ATOM     19  H   UNL     1       7.379  -6.542  -5.311  1.00  0.00     0.293 HD
ENDBRANCH  15  18
BRANCH  17  20
ATOM     20  O   UNL     1       7.926  -4.699  -7.665  1.00  0.00    -0.504 OA
ATOM     21  H   UNL     1       7.589  -4.147  -8.441  1.00  0.00     0.293 HD
ENDBRANCH  17  20
ENDBRANCH   1  12
BRANCH   6  22
ATOM     22  O   UNL     1      15.117  -6.991 -13.821  1.00  0.00    -0.507 OA
ATOM     23  H   UNL     1      15.962  -6.947 -14.371  1.00  0.00     0.293 HD
ENDBRANCH   6  22
BRANCH   8  24
ATOM     24  O   UNL     1      16.508  -3.364 -11.027  1.00  0.00    -0.508 OA
ATOM     25  H   UNL     1      16.498  -2.514 -11.580  1.00  0.00     0.293 HD
ENDBRANCH   8  24
TORSDOF 5
ENDMDL
MODEL 7
REMARK VINA RESULT:    -5.854      7.497     11.246
REMARK INTER + INTRA:          -7.153
REMARK INTER:                  -6.845
REMARK INTRA:                  -0.307
REMARK UNBOUND:                -0.272
REMARK SMILES O=c1cc(-c2ccc(O)c(O)c2)oc2cc(O)cc(O)c12
REMARK SMILES IDX 4 1 3 2 2 3 1 4 21 5 19 6 18 7 16 8 15 9 14 10 13 11 5 12
REMARK SMILES IDX 6 13 7 14 8 15 12 16 10 17 9 18 11 20 20 22 17 24
REMARK H PARENT 9 19 11 21 20 23 17 25
REMARK Flexibility Score: inf
ROOT
ATOM      1  C   UNL     1      11.819  -6.506 -10.617  1.00  0.00     0.138 A 
ATOM      2  C   UNL     1      10.921  -7.186 -11.452  1.00  0.00     0.100 A 
ATOM      3  C   UNL     1       9.670  -7.563 -10.960  1.00  0.00     0.197 A 
ATOM      4  O   UNL     1       8.864  -8.116 -11.751  1.00  0.00    -0.289 OA
ATOM      5  C   UNL     1       9.331  -7.284  -9.615  1.00  0.00     0.107 A 
ATOM      6  C   UNL     1       8.102  -7.656  -8.993  1.00  0.00     0.134 A 
ATOM      7  C   UNL     1       7.829  -7.223  -7.689  1.00  0.00     0.093 A 
ATOM      8  C   UNL     1       8.763  -6.484  -6.965  1.00  0.00     0.123 A 
ATOM      9  C   UNL     1       9.992  -6.161  -7.543  1.00  0.00     0.094 A 
ATOM     10  C   UNL     1      10.280  -6.548  -8.855  1.00  0.00     0.146 A 
ATOM     11  O   UNL     1      11.454  -6.208  -9.375  1.00  0.00    -0.456 OA
ENDROOT
BRANCH   1  12
ATOM     12  C   UNL     1      13.162  -6.084 -11.089  1.00  0.00     0.021 A 
ATOM     13  C   UNL     1      13.866  -6.814 -12.063  1.00  0.00     0.016 A 
ATOM     14  C   UNL     1      15.132  -6.398 -12.480  1.00  0.00     0.051 A 
ATOM     15  C   UNL     1      15.726  -5.256 -11.934  1.00  0.00     0.157 A 
ATOM     16  C   UNL     1      13.765  -4.943 -10.531  1.00  0.00     0.062 A 
ATOM     17  C   UNL     1      15.034  -4.520 -10.945  1.00  0.00     0.158 A 
BRANCH  15  18
ATOM     18  O   UNL     1      16.993  -4.895 -12.397  1.00  0.00    -0.504 OA
ATOM     19  H   UNL     1      17.193  -4.026 -12.872  1.00  0.00     0.293 HD
ENDBRANCH  15  18
BRANCH  17  20
ATOM     20  O   UNL     1      15.564  -3.373 -10.350  1.00  0.00    -0.504 OA
ATOM     21  H   UNL     1      15.037  -2.751  -9.755  1.00  0.00     0.293 HD
ENDBRANCH  17  20
ENDBRANCH   1  12
BRANCH   6  22
ATOM     22  O   UNL     1       7.134  -8.463  -9.597  1.00  0.00    -0.507 OA
ATOM     23  H   UNL     1       6.535  -8.175 -10.356  1.00  0.00     0.293 HD
ENDBRANCH   6  22
BRANCH   8  24
ATOM     24  O   UNL     1       8.465  -6.084  -5.664  1.00  0.00    -0.508 OA
ATOM     25  H   UNL     1       8.717  -6.651  -4.863  1.00  0.00     0.293 HD
ENDBRANCH   8  24
TORSDOF 5
ENDMDL
MODEL 8
REMARK VINA RESULT:    -5.804      4.227      7.873
REMARK INTER + INTRA:          -7.094
REMARK INTER:                  -6.809
REMARK INTRA:                  -0.285
REMARK UNBOUND:                -0.272
REMARK SMILES O=c1cc(-c2ccc(O)c(O)c2)oc2cc(O)cc(O)c12
REMARK SMILES IDX 4 1 3 2 2 3 1 4 21 5 19 6 18 7 16 8 15 9 14 10 13 11 5 12
REMARK SMILES IDX 6 13 7 14 8 15 12 16 10 17 9 18 11 20 20 22 17 24
REMARK H PARENT 9 19 11 21 20 23 17 25
REMARK Flexibility Score: inf
ROOT
ATOM      1  C   UNL     1      16.881  -3.762 -11.700  1.00  0.00     0.138 A 
ATOM      2  C   UNL     1      15.932  -4.779 -11.528  1.00  0.00     0.100 A 
ATOM      3  C   UNL     1      15.597  -5.600 -12.606  1.00  0.00     0.197 A 
ATOM      4  O   UNL     1      14.789  -6.543 -12.405  1.00  0.00    -0.289 OA
ATOM      5  C   UNL     1      16.194  -5.380 -13.869  1.00  0.00     0.107 A 
ATOM      6  C   UNL     1      15.900  -6.128 -15.048  1.00  0.00     0.134 A 
ATOM      7  C   UNL     1      16.639  -5.896 -16.215  1.00  0.00     0.093 A 
ATOM      8  C   UNL     1      17.618  -4.905 -16.263  1.00  0.00     0.123 A 
ATOM      9  C   UNL     1      17.877  -4.130 -15.131  1.00  0.00     0.094 A 
ATOM     10  C   UNL     1      17.181  -4.361 -13.942  1.00  0.00     0.146 A 
ATOM     11  O   UNL     1      17.467  -3.611 -12.882  1.00  0.00    -0.456 OA
ENDROOT
BRANCH   1  12
ATOM     12  C   UNL     1      17.272  -2.859 -10.587  1.00  0.00     0.021 A 
ATOM     13  C   UNL     1      17.690  -1.537 -10.821  1.00  0.00     0.016 A 
ATOM     14  C   UNL     1      18.062  -0.715  -9.757  1.00  0.00     0.051 A 
ATOM     15  C   UNL     1      18.033  -1.188  -8.442  1.00  0.00     0.157 A 
ATOM     16  C   UNL     1      17.255  -3.340  -9.267  1.00  0.00     0.062 A 
ATOM     17  C   UNL     1      17.626  -2.520  -8.193  1.00  0.00     0.158 A 
BRANCH  15  18
ATOM     18  O   UNL     1      18.415  -0.313  -7.423  1.00  0.00    -0.504 OA
ATOM     19  H   UNL     1      18.573  -0.594  -6.467  1.00  0.00     0.293 HD
ENDBRANCH  15  18
BRANCH  17  20
ATOM     20  O   UNL     1      17.576  -3.066  -6.909  1.00  0.00    -0.504 OA
ATOM     21  H   UNL     1      17.810  -2.556  -6.069  1.00  0.00     0.293 HD
ENDBRANCH  17  20
ENDBRANCH   1  12
BRANCH   6  22
ATOM     22  O   UNL     1      14.884  -7.084 -15.134  1.00  0.00    -0.507 OA
ATOM     23  H   UNL     1      14.879  -7.965 -14.643  1.00  0.00     0.293 HD
ENDBRANCH   6  22
BRANCH   8  24
ATOM     24  O   UNL     1      18.324  -4.692 -17.445  1.00  0.00    -0.508 OA
ATOM     25  H   UNL     1      19.274  -5.023 -17.564  1.00  0.00     0.293 HD
ENDBRANCH   8  24
TORSDOF 5
ENDMDL
MODEL 9
REMARK VINA RESULT:    -5.710      8.267     10.476
REMARK INTER + INTRA:          -6.983
REMARK INTER:                  -6.720
REMARK INTRA:                  -0.263
REMARK UNBOUND:                -0.272
REMARK SMILES O=c1cc(-c2ccc(O)c(O)c2)oc2cc(O)cc(O)c12
REMARK SMILES IDX 4 1 3 2 2 3 1 4 21 5 19 6 18 7 16 8 15 9 14 10 13 11 5 12
REMARK SMILES IDX 6 13 7 14 8 15 12 16 10 17 9 18 11 20 20 22 17 24
REMARK H PARENT 9 19 11 21 20 23 17 25
REMARK Flexibility Score: inf
ROOT
ATOM      1  C   UNL     1      20.454  -1.770  -7.545  1.00  0.00     0.138 A 
ATOM      2  C   UNL     1      20.254  -0.413  -7.258  1.00  0.00     0.100 A 
ATOM      3  C   UNL     1      19.098   0.226  -7.711  1.00  0.00     0.197 A 
ATOM      4  O   UNL     1      18.917   1.427  -7.384  1.00  0.00    -0.289 OA
ATOM      5  C   UNL     1      18.154  -0.493  -8.482  1.00  0.00     0.107 A 
ATOM      6  C   UNL     1      16.961   0.064  -9.031  1.00  0.00     0.134 A 
ATOM      7  C   UNL     1      16.043  -0.773  -9.679  1.00  0.00     0.093 A 
ATOM      8  C   UNL     1      16.303  -2.131  -9.851  1.00  0.00     0.123 A 
ATOM      9  C   UNL     1      17.493  -2.676  -9.366  1.00  0.00     0.094 A 
ATOM     10  C   UNL     1      18.412  -1.875  -8.683  1.00  0.00     0.146 A 
ATOM     11  O   UNL     1      19.526  -2.436  -8.224  1.00  0.00    -0.456 OA
ENDROOT
BRANCH   1  12
ATOM     12  C   UNL     1      21.666  -2.497  -7.089  1.00  0.00     0.021 A 
ATOM     13  C   UNL     1      21.690  -3.204  -5.874  1.00  0.00     0.016 A 
ATOM     14  C   UNL     1      22.847  -3.870  -5.467  1.00  0.00     0.051 A 
ATOM     15  C   UNL     1      24.003  -3.842  -6.252  1.00  0.00     0.157 A 
ATOM     16  C   UNL     1      22.833  -2.458  -7.873  1.00  0.00     0.062 A 
ATOM     17  C   UNL     1      23.997  -3.125  -7.471  1.00  0.00     0.158 A 
BRANCH  15  18
ATOM     18  O   UNL     1      25.125  -4.532  -5.787  1.00  0.00    -0.504 OA
ATOM     19  H   UNL     1      26.009  -4.566  -6.275  1.00  0.00     0.293 HD
ENDBRANCH  15  18
BRANCH  17  20
ATOM     20  O   UNL     1      25.114  -3.047  -8.306  1.00  0.00    -0.504 OA
ATOM     21  H   UNL     1      25.372  -2.222  -8.827  1.00  0.00     0.293 HD
ENDBRANCH  17  20
ENDBRANCH   1  12
BRANCH   6  22
ATOM     22  O   UNL     1      16.643   1.424  -8.990  1.00  0.00    -0.507 OA
ATOM     23  H   UNL     1      17.295   2.163  -8.775  1.00  0.00     0.293 HD
ENDBRANCH   6  22
BRANCH   8  24
ATOM     24  O   UNL     1      15.375  -2.931 -10.514  1.00  0.00    -0.508 OA
ATOM     25  H   UNL     1      14.502  -3.204 -10.078  1.00  0.00     0.293 HD
ENDBRANCH   8  24
TORSDOF 5
ENDMDL
