MODEL 1
REMARK VINA RESULT:    -3.593      0.000      0.000
REMARK INTER + INTRA:          -6.838
REMARK INTER:                  -5.694
REMARK INTRA:                  -1.145
REMARK UNBOUND:                -1.145
REMARK SMILES CCCCCCCCCCCC(=O)[O-]
REMARK SMILES IDX 7 1 8 2 9 3 10 4 11 5 12 6 13 7 14 8 6 9 5 10 4 11 3 12 2 13
REMARK SMILES IDX 1 14
REMARK H PARENT
REMARK Flexibility Score: inf
ROOT
ATOM      1  C   UNL     1     -22.167  22.271  40.408  1.00  0.00     0.000 C 
ENDROOT
BRANCH   1   2
ATOM      2  C   UNL     1     -20.791  21.597  40.516  1.00  0.00     0.000 C 
BRANCH   2   3
ATOM      3  C   UNL     1     -20.658  20.832  41.842  1.00  0.00     0.000 C 
BRANCH   3   4
ATOM      4  C   UNL     1     -19.260  20.965  42.465  1.00  0.00     0.006 C 
BRANCH   4   5
ATOM      5  C   UNL     1     -18.155  20.394  41.567  1.00  0.00     0.053 C 
BRANCH   5   6
ATOM      6  C   UNL     1     -17.558  19.170  42.187  1.00  0.00     0.041 C 
ATOM      7  O   UNL     1     -17.290  18.165  41.477  1.00  0.00    -0.550 OA
ATOM      8  O   UNL     1     -17.344  19.120  43.559  1.00  0.00    -0.550 OA
ENDBRANCH   5   6
ENDBRANCH   4   5
ENDBRANCH   3   4
ENDBRANCH   2   3
ENDBRANCH   1   2
BRANCH   1   9
ATOM      9  C   UNL     1     -22.557  23.030  41.686  1.00  0.00     0.000 C 
BRANCH   9  10
ATOM     10  C   UNL     1     -22.717  24.541  41.450  1.00  0.00    -0.000 C 
BRANCH  10  11
ATOM     11  C   UNL     1     -21.769  25.378  42.324  1.00  0.00    -0.000 C 
BRANCH  11  12
ATOM     12  C   UNL     1     -20.303  24.928  42.201  1.00  0.00    -0.000 C 
BRANCH  12  13
ATOM     13  C   UNL     1     -19.536  25.708  41.122  1.00  0.00    -0.003 C 
ATOM     14  C   UNL     1     -19.115  24.828  39.945  1.00  0.00     0.004 C 
ENDBRANCH  12  13
ENDBRANCH  11  12
ENDBRANCH  10  11
ENDBRANCH   9  10
ENDBRANCH   1   9
TORSDOF 10
ENDMDL
MODEL 2
REMARK VINA RESULT:    -3.551     15.456     17.239
REMARK INTER + INTRA:          -6.772
REMARK INTER:                  -5.621
REMARK INTRA:                  -1.151
REMARK UNBOUND:                -1.145
REMARK SMILES CCCCCCCCCCCC(=O)[O-]
REMARK SMILES IDX 7 1 8 2 9 3 10 4 11 5 12 6 13 7 14 8 6 9 5 10 4 11 3 12 2 13
REMARK SMILES IDX 1 14
REMARK H PARENT
REMARK Flexibility Score: inf
ROOT
ATOM      1  C   UNL     1      -8.695  29.419  45.292  1.00  0.00     0.000 C 
ENDROOT
BRANCH   1   2
ATOM      2  C   UNL     1      -8.095  30.776  45.687  1.00  0.00     0.000 C 
BRANCH   2   3
ATOM      3  C   UNL     1      -7.596  30.754  47.140  1.00  0.00     0.000 C 
BRANCH   3   4
ATOM      4  C   UNL     1      -6.341  31.615  47.350  1.00  0.00     0.006 C 
BRANCH   4   5
ATOM      5  C   UNL     1      -6.663  32.993  47.945  1.00  0.00     0.053 C 
BRANCH   5   6
ATOM      6  C   UNL     1      -5.633  33.377  48.959  1.00  0.00     0.041 C 
ATOM      7  O   UNL     1      -5.960  33.546  50.163  1.00  0.00    -0.550 OA
ATOM      8  O   UNL     1      -4.319  33.599  48.565  1.00  0.00    -0.550 OA
ENDBRANCH   5   6
ENDBRANCH   4   5
ENDBRANCH   3   4
ENDBRANCH   2   3
ENDBRANCH   1   2
BRANCH   1   9
ATOM      9  C   UNL     1      -8.048  28.831  44.029  1.00  0.00     0.000 C 
BRANCH   9  10
ATOM     10  C   UNL     1      -7.437  27.440  44.271  1.00  0.00    -0.000 C 
BRANCH  10  11
ATOM     11  C   UNL     1      -7.302  27.107  45.765  1.00  0.00    -0.000 C 
BRANCH  11  12
ATOM     12  C   UNL     1      -5.843  26.860  46.185  1.00  0.00    -0.000 C 
BRANCH  12  13
ATOM     13  C   UNL     1      -5.143  28.142  46.662  1.00  0.00    -0.003 C 
ATOM     14  C   UNL     1      -4.242  28.755  45.589  1.00  0.00     0.004 C 
ENDBRANCH  12  13
ENDBRANCH  11  12
ENDBRANCH  10  11
ENDBRANCH   9  10
ENDBRANCH   1   9
TORSDOF 10
ENDMDL
MODEL 3
REMARK VINA RESULT:    -3.492     15.239     16.845
REMARK INTER + INTRA:          -6.678
REMARK INTER:                  -5.586
REMARK INTRA:                  -1.092
REMARK UNBOUND:                -1.145
REMARK SMILES CCCCCCCCCCCC(=O)[O-]
REMARK SMILES IDX 7 1 8 2 9 3 10 4 11 5 12 6 13 7 14 8 6 9 5 10 4 11 3 12 2 13
REMARK SMILES IDX 1 14
REMARK H PARENT
REMARK Flexibility Score: inf
ROOT
ATOM      1  C   UNL     1      -8.067  31.252  45.622  1.00  0.00     0.000 C 
ENDROOT
BRANCH   1   2
ATOM      2  C   UNL     1      -7.977  30.434  46.918  1.00  0.00     0.000 C 
BRANCH   2   3
ATOM      3  C   UNL     1      -6.519  30.067  47.235  1.00  0.00     0.000 C 
BRANCH   3   4
ATOM      4  C   UNL     1      -5.835  29.308  46.087  1.00  0.00     0.006 C 
BRANCH   4   5
ATOM      5  C   UNL     1      -5.393  27.896  46.493  1.00  0.00     0.053 C 
BRANCH   5   6
ATOM      6  C   UNL     1      -6.483  26.908  46.218  1.00  0.00     0.041 C 
ATOM      7  O   UNL     1      -6.418  25.745  46.695  1.00  0.00    -0.550 OA
ATOM      8  O   UNL     1      -7.545  27.257  45.395  1.00  0.00    -0.550 OA
ENDBRANCH   5   6
ENDBRANCH   4   5
ENDBRANCH   3   4
ENDBRANCH   2   3
ENDBRANCH   1   2
BRANCH   1   9
ATOM      9  C   UNL     1      -7.916  32.762  45.864  1.00  0.00     0.000 C 
BRANCH   9  10
ATOM     10  C   UNL     1      -6.559  33.305  45.385  1.00  0.00    -0.000 C 
BRANCH  10  11
ATOM     11  C   UNL     1      -5.717  33.884  46.534  1.00  0.00    -0.000 C 
BRANCH  11  12
ATOM     12  C   UNL     1      -6.531  34.073  47.824  1.00  0.00    -0.000 C 
BRANCH  12  13
ATOM     13  C   UNL     1      -6.007  33.212  48.984  1.00  0.00    -0.003 C 
ATOM     14  C   UNL     1      -6.062  33.937  50.329  1.00  0.00     0.004 C 
ENDBRANCH  12  13
ENDBRANCH  11  12
ENDBRANCH  10  11
ENDBRANCH   9  10
ENDBRANCH   1   9
TORSDOF 10
ENDMDL
MODEL 4
REMARK VINA RESULT:    -3.489      5.179      6.615
REMARK INTER + INTRA:          -6.673
REMARK INTER:                  -6.213
REMARK INTRA:                  -0.459
REMARK UNBOUND:                -1.145
REMARK SMILES CCCCCCCCCCCC(=O)[O-]
REMARK SMILES IDX 7 1 8 2 9 3 10 4 11 5 12 6 13 7 14 8 6 9 5 10 4 11 3 12 2 13
REMARK SMILES IDX 1 14
REMARK H PARENT
REMARK Flexibility Score: inf
ROOT
ATOM      1  C   UNL     1     -22.661  21.114  37.373  1.00  0.00     0.000 C 
ENDROOT
BRANCH   1   2
ATOM      2  C   UNL     1     -22.218  21.282  35.912  1.00  0.00     0.000 C 
BRANCH   2   3
ATOM      3  C   UNL     1     -21.113  22.343  35.793  1.00  0.00     0.000 C 
BRANCH   3   4
ATOM      4  C   UNL     1     -20.381  22.288  34.444  1.00  0.00     0.006 C 
BRANCH   4   5
ATOM      5  C   UNL     1     -19.014  22.984  34.484  1.00  0.00     0.053 C 
BRANCH   5   6
ATOM      6  C   UNL     1     -18.218  22.644  33.263  1.00  0.00     0.041 C 
ATOM      7  O   UNL     1     -18.550  23.109  32.141  1.00  0.00    -0.550 OA
ATOM      8  O   UNL     1     -17.140  21.774  33.356  1.00  0.00    -0.550 OA
ENDBRANCH   5   6
ENDBRANCH   4   5
ENDBRANCH   3   4
ENDBRANCH   2   3
ENDBRANCH   1   2
BRANCH   1   9
ATOM      9  C   UNL     1     -21.801  21.930  38.350  1.00  0.00     0.000 C 
BRANCH   9  10
ATOM     10  C   UNL     1     -22.308  21.841  39.800  1.00  0.00    -0.000 C 
BRANCH  10  11
ATOM     11  C   UNL     1     -21.427  22.631  40.782  1.00  0.00    -0.000 C 
BRANCH  11  12
ATOM     12  C   UNL     1     -20.048  21.983  40.989  1.00  0.00    -0.000 C 
BRANCH  12  13
ATOM     13  C   UNL     1     -20.144  20.579  41.608  1.00  0.00    -0.003 C 
ATOM     14  C   UNL     1     -18.786  19.883  41.705  1.00  0.00     0.004 C 
ENDBRANCH  12  13
ENDBRANCH  11  12
ENDBRANCH  10  11
ENDBRANCH   9  10
ENDBRANCH   1   9
TORSDOF 10
ENDMDL
MODEL 5
REMARK VINA RESULT:    -3.439      5.189      6.622
REMARK INTER + INTRA:          -6.594
REMARK INTER:                  -6.085
REMARK INTRA:                  -0.509
REMARK UNBOUND:                -1.145
REMARK SMILES CCCCCCCCCCCC(=O)[O-]
REMARK SMILES IDX 7 1 8 2 9 3 10 4 11 5 12 6 13 7 14 8 6 9 5 10 4 11 3 12 2 13
REMARK SMILES IDX 1 14
REMARK H PARENT
REMARK Flexibility Score: inf
ROOT
ATOM      1  C   UNL     1     -22.902  21.250  38.384  1.00  0.00     0.000 C 
ENDROOT
BRANCH   1   2
ATOM      2  C   UNL     1     -22.682  21.127  36.869  1.00  0.00     0.000 C 
BRANCH   2   3
ATOM      3  C   UNL     1     -21.497  21.993  36.415  1.00  0.00     0.000 C 
BRANCH   3   4
ATOM      4  C   UNL     1     -21.263  21.930  34.898  1.00  0.00     0.006 C 
BRANCH   4   5
ATOM      5  C   UNL     1     -19.831  22.317  34.504  1.00  0.00     0.053 C 
BRANCH   5   6
ATOM      6  C   UNL     1     -19.844  23.484  33.568  1.00  0.00     0.041 C 
ATOM      7  O   UNL     1     -19.216  23.430  32.478  1.00  0.00    -0.550 OA
ATOM      8  O   UNL     1     -20.509  24.651  33.922  1.00  0.00    -0.550 OA
ENDBRANCH   5   6
ENDBRANCH   4   5
ENDBRANCH   3   4
ENDBRANCH   2   3
ENDBRANCH   1   2
BRANCH   1   9
ATOM      9  C   UNL     1     -21.821  22.099  39.072  1.00  0.00     0.000 C 
BRANCH   9  10
ATOM     10  C   UNL     1     -21.900  22.025  40.607  1.00  0.00    -0.000 C 
BRANCH  10  11
ATOM     11  C   UNL     1     -20.695  22.688  41.292  1.00  0.00    -0.000 C 
BRANCH  11  12
ATOM     12  C   UNL     1     -19.425  21.823  41.219  1.00  0.00    -0.000 C 
BRANCH  12  13
ATOM     13  C   UNL     1     -19.665  20.384  41.704  1.00  0.00    -0.003 C 
ATOM     14  C   UNL     1     -18.397  19.531  41.670  1.00  0.00     0.004 C 
ENDBRANCH  12  13
ENDBRANCH  11  12
ENDBRANCH  10  11
ENDBRANCH   9  10
ENDBRANCH   1   9
TORSDOF 10
ENDMDL
MODEL 6
REMARK VINA RESULT:    -3.425     15.738     17.357
REMARK INTER + INTRA:          -6.572
REMARK INTER:                  -5.654
REMARK INTRA:                  -0.918
REMARK UNBOUND:                -1.145
REMARK SMILES CCCCCCCCCCCC(=O)[O-]
REMARK SMILES IDX 7 1 8 2 9 3 10 4 11 5 12 6 13 7 14 8 6 9 5 10 4 11 3 12 2 13
REMARK SMILES IDX 1 14
REMARK H PARENT
REMARK Flexibility Score: inf
ROOT
ATOM      1  C   UNL     1      -7.040  31.561  46.890  1.00  0.00     0.000 C 
ENDROOT
BRANCH   1   2
ATOM      2  C   UNL     1      -7.980  30.347  46.862  1.00  0.00     0.000 C 
BRANCH   2   3
ATOM      3  C   UNL     1      -8.079  29.762  45.445  1.00  0.00     0.000 C 
BRANCH   3   4
ATOM      4  C   UNL     1      -7.887  28.238  45.418  1.00  0.00     0.006 C 
BRANCH   4   5
ATOM      5  C   UNL     1      -6.478  27.827  44.971  1.00  0.00     0.053 C 
BRANCH   5   6
ATOM      6  C   UNL     1      -5.670  27.370  46.144  1.00  0.00     0.041 C 
ATOM      7  O   UNL     1      -5.125  28.212  46.905  1.00  0.00    -0.550 OA
ATOM      8  O   UNL     1      -5.477  26.012  46.369  1.00  0.00    -0.550 OA
ENDBRANCH   5   6
ENDBRANCH   4   5
ENDBRANCH   3   4
ENDBRANCH   2   3
ENDBRANCH   1   2
BRANCH   1   9
ATOM      9  C   UNL     1      -5.810  31.378  45.986  1.00  0.00     0.000 C 
BRANCH   9  10
ATOM     10  C   UNL     1      -4.495  31.742  46.696  1.00  0.00    -0.000 C 
BRANCH  10  11
ATOM     11  C   UNL     1      -4.394  33.242  47.016  1.00  0.00    -0.000 C 
BRANCH  11  12
ATOM     12  C   UNL     1      -4.261  33.516  48.523  1.00  0.00    -0.000 C 
BRANCH  12  13
ATOM     13  C   UNL     1      -5.492  34.230  49.104  1.00  0.00    -0.003 C 
ATOM     14  C   UNL     1      -5.879  33.707  50.487  1.00  0.00     0.004 C 
ENDBRANCH  12  13
ENDBRANCH  11  12
ENDBRANCH  10  11
ENDBRANCH   9  10
ENDBRANCH   1   9
TORSDOF 10
ENDMDL
MODEL 7
REMARK VINA RESULT:    -3.424     16.073     17.941
REMARK INTER + INTRA:          -6.570
REMARK INTER:                  -5.518
REMARK INTRA:                  -1.052
REMARK UNBOUND:                -1.145
REMARK SMILES CCCCCCCCCCCC(=O)[O-]
REMARK SMILES IDX 7 1 8 2 9 3 10 4 11 5 12 6 13 7 14 8 6 9 5 10 4 11 3 12 2 13
REMARK SMILES IDX 1 14
REMARK H PARENT
REMARK Flexibility Score: inf
ROOT
ATOM      1  C   UNL     1      -6.259  30.325  47.294  1.00  0.00     0.000 C 
ENDROOT
BRANCH   1   2
ATOM      2  C   UNL     1      -5.360  30.900  46.189  1.00  0.00     0.000 C 
BRANCH   2   3
ATOM      3  C   UNL     1      -4.189  31.691  46.791  1.00  0.00     0.000 C 
BRANCH   3   4
ATOM      4  C   UNL     1      -4.546  33.159  47.071  1.00  0.00     0.006 C 
BRANCH   4   5
ATOM      5  C   UNL     1      -4.382  33.536  48.550  1.00  0.00     0.053 C 
BRANCH   5   6
ATOM      6  C   UNL     1      -5.712  33.556  49.234  1.00  0.00     0.041 C 
ATOM      7  O   UNL     1      -6.773  33.585  48.557  1.00  0.00    -0.550 OA
ATOM      8  O   UNL     1      -5.780  33.592  50.621  1.00  0.00    -0.550 OA
ENDBRANCH   5   6
ENDBRANCH   4   5
ENDBRANCH   3   4
ENDBRANCH   2   3
ENDBRANCH   1   2
BRANCH   1   9
ATOM      9  C   UNL     1      -7.748  30.340  46.913  1.00  0.00     0.000 C 
BRANCH   9  10
ATOM     10  C   UNL     1      -7.997  29.842  45.479  1.00  0.00    -0.000 C 
BRANCH  10  11
ATOM     11  C   UNL     1      -7.865  28.316  45.354  1.00  0.00    -0.000 C 
BRANCH  11  12
ATOM     12  C   UNL     1      -6.695  27.898  44.446  1.00  0.00    -0.000 C 
BRANCH  12  13
ATOM     13  C   UNL     1      -5.727  26.929  45.143  1.00  0.00    -0.003 C 
ATOM     14  C   UNL     1      -6.371  26.195  46.318  1.00  0.00     0.004 C 
ENDBRANCH  12  13
ENDBRANCH  11  12
ENDBRANCH  10  11
ENDBRANCH   9  10
ENDBRANCH   1   9
TORSDOF 10
ENDMDL
MODEL 8
REMARK VINA RESULT:    -3.396     15.716     17.636
REMARK INTER + INTRA:          -6.527
REMARK INTER:                  -5.467
REMARK INTRA:                  -1.059
REMARK UNBOUND:                -1.145
REMARK SMILES CCCCCCCCCCCC(=O)[O-]
REMARK SMILES IDX 7 1 8 2 9 3 10 4 11 5 12 6 13 7 14 8 6 9 5 10 4 11 3 12 2 13
REMARK SMILES IDX 1 14
REMARK H PARENT
REMARK Flexibility Score: inf
ROOT
ATOM      1  C   UNL     1      -5.263  30.031  46.876  1.00  0.00     0.000 C 
ENDROOT
BRANCH   1   2
ATOM      2  C   UNL     1      -6.717  30.295  47.294  1.00  0.00     0.000 C 
BRANCH   2   3
ATOM      3  C   UNL     1      -7.225  31.619  46.704  1.00  0.00     0.000 C 
BRANCH   3   4
ATOM      4  C   UNL     1      -6.267  32.792  46.966  1.00  0.00     0.006 C 
BRANCH   4   5
ATOM      5  C   UNL     1      -6.637  33.586  48.226  1.00  0.00     0.053 C 
BRANCH   5   6
ATOM      6  C   UNL     1      -5.466  33.666  49.155  1.00  0.00     0.041 C 
ATOM      7  O   UNL     1      -4.293  33.655  48.698  1.00  0.00    -0.550 OA
ATOM      8  O   UNL     1      -5.669  33.700  50.528  1.00  0.00    -0.550 OA
ENDBRANCH   5   6
ENDBRANCH   4   5
ENDBRANCH   3   4
ENDBRANCH   2   3
ENDBRANCH   1   2
BRANCH   1   9
ATOM      9  C   UNL     1      -4.981  28.541  46.624  1.00  0.00     0.000 C 
BRANCH   9  10
ATOM     10  C   UNL     1      -5.588  28.040  45.303  1.00  0.00    -0.000 C 
BRANCH  10  11
ATOM     11  C   UNL     1      -6.743  27.050  45.523  1.00  0.00    -0.000 C 
BRANCH  11  12
ATOM     12  C   UNL     1      -8.104  27.629  45.101  1.00  0.00    -0.000 C 
BRANCH  12  13
ATOM     13  C   UNL     1      -8.007  28.505  43.842  1.00  0.00    -0.003 C 
ATOM     14  C   UNL     1      -8.802  29.805  43.966  1.00  0.00     0.004 C 
ENDBRANCH  12  13
ENDBRANCH  11  12
ENDBRANCH  10  11
ENDBRANCH   9  10
ENDBRANCH   1   9
TORSDOF 10
ENDMDL
MODEL 9
REMARK VINA RESULT:    -3.385     14.243     15.852
REMARK INTER + INTRA:          -6.508
REMARK INTER:                  -4.998
REMARK INTRA:                  -1.510
REMARK UNBOUND:                -1.145
REMARK SMILES CCCCCCCCCCCC(=O)[O-]
REMARK SMILES IDX 7 1 8 2 9 3 10 4 11 5 12 6 13 7 14 8 6 9 5 10 4 11 3 12 2 13
REMARK SMILES IDX 1 14
REMARK H PARENT
REMARK Flexibility Score: inf
ROOT
ATOM      1  C   UNL     1      -5.759  31.762  46.828  1.00  0.00     0.000 C 
ENDROOT
BRANCH   1   2
ATOM      2  C   UNL     1      -5.251  30.346  47.139  1.00  0.00     0.000 C 
BRANCH   2   3
ATOM      3  C   UNL     1      -4.322  29.839  46.025  1.00  0.00     0.000 C 
BRANCH   3   4
ATOM      4  C   UNL     1      -4.665  28.413  45.569  1.00  0.00     0.006 C 
BRANCH   4   5
ATOM      5  C   UNL     1      -5.625  27.700  46.532  1.00  0.00     0.053 C 
BRANCH   5   6
ATOM      6  C   UNL     1      -5.890  26.303  46.065  1.00  0.00     0.041 C 
ATOM      7  O   UNL     1      -5.653  25.978  44.872  1.00  0.00    -0.550 OA
ATOM      8  O   UNL     1      -6.447  25.374  46.934  1.00  0.00    -0.550 OA
ENDBRANCH   5   6
ENDBRANCH   4   5
ENDBRANCH   3   4
ENDBRANCH   2   3
ENDBRANCH   1   2
BRANCH   1   9
ATOM      9  C   UNL     1      -7.288  31.877  46.928  1.00  0.00     0.000 C 
BRANCH   9  10
ATOM     10  C   UNL     1      -7.993  30.515  46.808  1.00  0.00    -0.000 C 
BRANCH  10  11
ATOM     11  C   UNL     1      -8.721  30.344  45.465  1.00  0.00    -0.000 C 
BRANCH  11  12
ATOM     12  C   UNL     1      -7.751  30.098  44.296  1.00  0.00    -0.000 C 
BRANCH  12  13
ATOM     13  C   UNL     1      -7.947  28.718  43.649  1.00  0.00    -0.003 C 
ATOM     14  C   UNL     1      -8.870  27.811  44.462  1.00  0.00     0.004 C 
ENDBRANCH  12  13
ENDBRANCH  11  12
ENDBRANCH  10  11
ENDBRANCH   9  10
ENDBRANCH   1   9
TORSDOF 10
ENDMDL
