MODEL 1
REMARK VINA RESULT:    -3.110      0.000      0.000
REMARK INTER + INTRA:          -7.844
REMARK INTER:                  -5.655
REMARK INTRA:                  -2.189
REMARK UNBOUND:                -2.189
REMARK SMILES CCCCCCCCCCCCCCCC(=O)[O-]
REMARK SMILES IDX 9 1 10 2 11 3 12 4 13 5 14 6 15 7 16 8 17 9 18 10 8 11 7 12
REMARK SMILES IDX 6 13 5 14 4 15 3 16 2 17 1 18
REMARK H PARENT
REMARK Flexibility Score: inf
ROOT
ATOM      1  C   UNL     1      25.987  61.604  84.480  1.00  0.00     0.000 C 
ENDROOT
BRANCH   1   2
ATOM      2  C   UNL     1      27.396  61.334  83.915  1.00  0.00     0.000 C 
BRANCH   2   3
ATOM      3  C   UNL     1      27.499  61.522  82.386  1.00  0.00     0.000 C 
BRANCH   3   4
ATOM      4  C   UNL     1      27.734  60.198  81.642  1.00  0.00     0.000 C 
BRANCH   4   5
ATOM      5  C   UNL     1      28.294  59.128  82.591  1.00  0.00     0.000 C 
BRANCH   5   6
ATOM      6  C   UNL     1      29.749  58.754  82.270  1.00  0.00     0.006 C 
BRANCH   6   7
ATOM      7  C   UNL     1      30.207  57.482  82.994  1.00  0.00     0.053 C 
BRANCH   7   8
ATOM      8  C   UNL     1      31.683  57.523  83.240  1.00  0.00     0.041 C 
ATOM      9  O   UNL     1      32.479  57.717  82.284  1.00  0.00    -0.550 OA
ATOM     10  O   UNL     1      32.182  57.295  84.515  1.00  0.00    -0.550 OA
ENDBRANCH   7   8
ENDBRANCH   6   7
ENDBRANCH   5   6
ENDBRANCH   4   5
ENDBRANCH   3   4
ENDBRANCH   2   3
ENDBRANCH   1   2
BRANCH   1  11
ATOM     11  C   UNL     1      24.931  60.541  84.124  1.00  0.00     0.000 C 
BRANCH  11  12
ATOM     12  C   UNL     1      25.265  59.104  84.582  1.00  0.00    -0.000 C 
BRANCH  12  13
ATOM     13  C   UNL     1      24.832  58.754  86.018  1.00  0.00    -0.000 C 
BRANCH  13  14
ATOM     14  C   UNL     1      26.007  58.306  86.904  1.00  0.00    -0.000 C 
BRANCH  14  15
ATOM     15  C   UNL     1      27.350  58.325  86.156  1.00  0.00    -0.000 C 
BRANCH  15  16
ATOM     16  C   UNL     1      28.349  59.329  86.755  1.00  0.00    -0.000 C 
BRANCH  16  17
ATOM     17  C   UNL     1      27.698  60.263  87.788  1.00  0.00    -0.003 C 
ATOM     18  C   UNL     1      28.097  61.726  87.593  1.00  0.00     0.004 C 
ENDBRANCH  16  17
ENDBRANCH  15  16
ENDBRANCH  14  15
ENDBRANCH  13  14
ENDBRANCH  12  13
ENDBRANCH  11  12
ENDBRANCH   1  11
TORSDOF 14
ENDMDL
MODEL 2
REMARK VINA RESULT:    -3.103      1.645      3.530
REMARK INTER + INTRA:          -7.833
REMARK INTER:                  -5.460
REMARK INTRA:                  -2.373
REMARK UNBOUND:                -2.189
REMARK SMILES CCCCCCCCCCCCCCCC(=O)[O-]
REMARK SMILES IDX 9 1 10 2 11 3 12 4 13 5 14 6 15 7 16 8 17 9 18 10 8 11 7 12
REMARK SMILES IDX 6 13 5 14 4 15 3 16 2 17 1 18
REMARK H PARENT
REMARK Flexibility Score: inf
ROOT
ATOM      1  C   UNL     1      27.225  59.930  87.771  1.00  0.00     0.000 C 
ENDROOT
BRANCH   1   2
ATOM      2  C   UNL     1      28.511  59.512  87.030  1.00  0.00     0.000 C 
BRANCH   2   3
ATOM      3  C   UNL     1      28.788  57.994  87.073  1.00  0.00     0.000 C 
BRANCH   3   4
ATOM      4  C   UNL     1      29.229  57.435  85.711  1.00  0.00     0.000 C 
BRANCH   4   5
ATOM      5  C   UNL     1      30.188  58.405  85.005  1.00  0.00     0.000 C 
BRANCH   5   6
ATOM      6  C   UNL     1      29.867  58.572  83.511  1.00  0.00     0.006 C 
BRANCH   6   7
ATOM      7  C   UNL     1      30.852  57.822  82.606  1.00  0.00     0.053 C 
BRANCH   7   8
ATOM      8  C   UNL     1      31.175  58.638  81.394  1.00  0.00     0.041 C 
ATOM      9  O   UNL     1      30.317  58.787  80.484  1.00  0.00    -0.550 OA
ATOM     10  O   UNL     1      32.439  59.192  81.246  1.00  0.00    -0.550 OA
ENDBRANCH   7   8
ENDBRANCH   6   7
ENDBRANCH   5   6
ENDBRANCH   4   5
ENDBRANCH   3   4
ENDBRANCH   2   3
ENDBRANCH   1   2
BRANCH   1  11
ATOM     11  C   UNL     1      26.518  58.794  88.534  1.00  0.00     0.000 C 
BRANCH  11  12
ATOM     12  C   UNL     1      25.151  58.367  87.955  1.00  0.00    -0.000 C 
BRANCH  12  13
ATOM     13  C   UNL     1      25.128  56.986  87.273  1.00  0.00    -0.000 C 
BRANCH  13  14
ATOM     14  C   UNL     1      25.513  57.048  85.785  1.00  0.00    -0.000 C 
BRANCH  14  15
ATOM     15  C   UNL     1      24.976  58.309  85.090  1.00  0.00    -0.000 C 
BRANCH  15  16
ATOM     16  C   UNL     1      26.061  59.056  84.294  1.00  0.00    -0.000 C 
BRANCH  16  17
ATOM     17  C   UNL     1      25.853  60.578  84.304  1.00  0.00    -0.003 C 
ATOM     18  C   UNL     1      27.157  61.352  84.101  1.00  0.00     0.004 C 
ENDBRANCH  16  17
ENDBRANCH  15  16
ENDBRANCH  14  15
ENDBRANCH  13  14
ENDBRANCH  12  13
ENDBRANCH  11  12
ENDBRANCH   1  11
TORSDOF 14
ENDMDL
MODEL 3
REMARK VINA RESULT:    -3.094      1.575      4.434
REMARK INTER + INTRA:          -7.815
REMARK INTER:                  -5.774
REMARK INTRA:                  -2.041
REMARK UNBOUND:                -2.189
REMARK SMILES CCCCCCCCCCCCCCCC(=O)[O-]
REMARK SMILES IDX 9 1 10 2 11 3 12 4 13 5 14 6 15 7 16 8 17 9 18 10 8 11 7 12
REMARK SMILES IDX 6 13 5 14 4 15 3 16 2 17 1 18
REMARK H PARENT
REMARK Flexibility Score: inf
ROOT
ATOM      1  C   UNL     1      27.105  61.295  85.221  1.00  0.00     0.000 C 
ENDROOT
BRANCH   1   2
ATOM      2  C   UNL     1      27.298  61.046  86.730  1.00  0.00     0.000 C 
BRANCH   2   3
ATOM      3  C   UNL     1      28.490  60.122  87.061  1.00  0.00     0.000 C 
BRANCH   3   4
ATOM      4  C   UNL     1      28.055  58.681  87.364  1.00  0.00     0.000 C 
BRANCH   4   5
ATOM      5  C   UNL     1      28.994  57.670  86.689  1.00  0.00     0.000 C 
BRANCH   5   6
ATOM      6  C   UNL     1      30.223  58.337  86.052  1.00  0.00     0.006 C 
BRANCH   6   7
ATOM      7  C   UNL     1      31.468  57.442  86.088  1.00  0.00     0.053 C 
BRANCH   7   8
ATOM      8  C   UNL     1      32.038  57.283  84.713  1.00  0.00     0.041 C 
ATOM      9  O   UNL     1      33.271  57.084  84.557  1.00  0.00    -0.550 OA
ATOM     10  O   UNL     1      31.214  57.406  83.602  1.00  0.00    -0.550 OA
ENDBRANCH   7   8
ENDBRANCH   6   7
ENDBRANCH   5   6
ENDBRANCH   4   5
ENDBRANCH   3   4
ENDBRANCH   2   3
ENDBRANCH   1   2
BRANCH   1  11
ATOM     11  C   UNL     1      26.077  60.373  84.538  1.00  0.00     0.000 C 
BRANCH  11  12
ATOM     12  C   UNL     1      26.680  59.239  83.681  1.00  0.00    -0.000 C 
BRANCH  12  13
ATOM     13  C   UNL     1      28.163  59.417  83.303  1.00  0.00    -0.000 C 
BRANCH  13  14
ATOM     14  C   UNL     1      28.433  59.170  81.809  1.00  0.00    -0.000 C 
BRANCH  14  15
ATOM     15  C   UNL     1      27.269  59.629  80.916  1.00  0.00    -0.000 C 
BRANCH  15  16
ATOM     16  C   UNL     1      27.533  60.991  80.251  1.00  0.00    -0.000 C 
BRANCH  16  17
ATOM     17  C   UNL     1      27.033  62.168  81.104  1.00  0.00    -0.003 C 
ATOM     18  C   UNL     1      25.508  62.281  81.116  1.00  0.00     0.004 C 
ENDBRANCH  16  17
ENDBRANCH  15  16
ENDBRANCH  14  15
ENDBRANCH  13  14
ENDBRANCH  12  13
ENDBRANCH  11  12
ENDBRANCH   1  11
TORSDOF 14
ENDMDL
MODEL 4
REMARK VINA RESULT:    -3.093      2.469      4.227
REMARK INTER + INTRA:          -7.815
REMARK INTER:                  -5.704
REMARK INTRA:                  -2.110
REMARK UNBOUND:                -2.189
REMARK SMILES CCCCCCCCCCCCCCCC(=O)[O-]
REMARK SMILES IDX 9 1 10 2 11 3 12 4 13 5 14 6 15 7 16 8 17 9 18 10 8 11 7 12
REMARK SMILES IDX 6 13 5 14 4 15 3 16 2 17 1 18
REMARK H PARENT
REMARK Flexibility Score: inf
ROOT
ATOM      1  C   UNL     1      27.270  61.355  85.965  1.00  0.00     0.000 C 
ENDROOT
BRANCH   1   2
ATOM      2  C   UNL     1      26.257  60.403  85.298  1.00  0.00     0.000 C 
BRANCH   2   3
ATOM      3  C   UNL     1      26.321  60.409  83.755  1.00  0.00     0.000 C 
BRANCH   3   4
ATOM      4  C   UNL     1      27.322  61.438  83.209  1.00  0.00     0.000 C 
BRANCH   4   5
ATOM      5  C   UNL     1      26.985  61.815  81.758  1.00  0.00     0.000 C 
BRANCH   5   6
ATOM      6  C   UNL     1      27.466  60.764  80.746  1.00  0.00     0.006 C 
BRANCH   6   7
ATOM      7  C   UNL     1      27.692  61.351  79.346  1.00  0.00     0.053 C 
BRANCH   7   8
ATOM      8  C   UNL     1      28.768  60.596  78.631  1.00  0.00     0.041 C 
ATOM      9  O   UNL     1      29.060  60.885  77.440  1.00  0.00    -0.550 OA
ATOM     10  O   UNL     1      29.413  59.541  79.261  1.00  0.00    -0.550 OA
ENDBRANCH   7   8
ENDBRANCH   6   7
ENDBRANCH   5   6
ENDBRANCH   4   5
ENDBRANCH   3   4
ENDBRANCH   2   3
ENDBRANCH   1   2
BRANCH   1  11
ATOM     11  C   UNL     1      28.033  60.756  87.161  1.00  0.00     0.000 C 
BRANCH  11  12
ATOM     12  C   UNL     1      27.294  59.627  87.913  1.00  0.00    -0.000 C 
BRANCH  12  13
ATOM     13  C   UNL     1      28.025  58.272  87.948  1.00  0.00    -0.000 C 
BRANCH  13  14
ATOM     14  C   UNL     1      28.894  58.029  86.702  1.00  0.00    -0.000 C 
BRANCH  14  15
ATOM     15  C   UNL     1      28.187  57.161  85.650  1.00  0.00    -0.000 C 
BRANCH  15  16
ATOM     16  C   UNL     1      28.597  57.518  84.211  1.00  0.00    -0.000 C 
BRANCH  16  17
ATOM     17  C   UNL     1      29.689  58.598  84.162  1.00  0.00    -0.003 C 
ATOM     18  C   UNL     1      30.116  58.939  82.734  1.00  0.00     0.004 C 
ENDBRANCH  16  17
ENDBRANCH  15  16
ENDBRANCH  14  15
ENDBRANCH  13  14
ENDBRANCH  12  13
ENDBRANCH  11  12
ENDBRANCH   1  11
TORSDOF 14
ENDMDL
MODEL 5
REMARK VINA RESULT:    -3.030      1.423      3.983
REMARK INTER + INTRA:          -7.700
REMARK INTER:                  -5.503
REMARK INTRA:                  -2.197
REMARK UNBOUND:                -2.189
REMARK SMILES CCCCCCCCCCCCCCCC(=O)[O-]
REMARK SMILES IDX 9 1 10 2 11 3 12 4 13 5 14 6 15 7 16 8 17 9 18 10 8 11 7 12
REMARK SMILES IDX 6 13 5 14 4 15 3 16 2 17 1 18
REMARK H PARENT
REMARK Flexibility Score: inf
ROOT
ATOM      1  C   UNL     1      26.679  59.349  87.662  1.00  0.00     0.000 C 
ENDROOT
BRANCH   1   2
ATOM      2  C   UNL     1      27.996  58.586  87.415  1.00  0.00     0.000 C 
BRANCH   2   3
ATOM      3  C   UNL     1      29.060  59.411  86.660  1.00  0.00     0.000 C 
BRANCH   3   4
ATOM      4  C   UNL     1      29.981  58.538  85.794  1.00  0.00     0.000 C 
BRANCH   4   5
ATOM      5  C   UNL     1      29.184  57.427  85.094  1.00  0.00     0.000 C 
BRANCH   5   6
ATOM      6  C   UNL     1      29.400  57.411  83.573  1.00  0.00     0.006 C 
BRANCH   6   7
ATOM      7  C   UNL     1      30.093  58.680  83.061  1.00  0.00     0.053 C 
BRANCH   7   8
ATOM      8  C   UNL     1      31.114  58.336  82.022  1.00  0.00     0.041 C 
ATOM      9  O   UNL     1      32.119  57.641  82.327  1.00  0.00    -0.550 OA
ATOM     10  O   UNL     1      30.981  58.824  80.729  1.00  0.00    -0.550 OA
ENDBRANCH   7   8
ENDBRANCH   6   7
ENDBRANCH   5   6
ENDBRANCH   4   5
ENDBRANCH   3   4
ENDBRANCH   2   3
ENDBRANCH   1   2
BRANCH   1  11
ATOM     11  C   UNL     1      25.463  58.812  86.883  1.00  0.00     0.000 C 
BRANCH  11  12
ATOM     12  C   UNL     1      25.243  59.446  85.492  1.00  0.00    -0.000 C 
BRANCH  12  13
ATOM     13  C   UNL     1      25.845  58.665  84.310  1.00  0.00    -0.000 C 
BRANCH  13  14
ATOM     14  C   UNL     1      26.428  59.583  83.221  1.00  0.00    -0.000 C 
BRANCH  14  15
ATOM     15  C   UNL     1      27.152  60.805  83.807  1.00  0.00    -0.000 C 
BRANCH  15  16
ATOM     16  C   UNL     1      27.653  61.774  82.723  1.00  0.00    -0.000 C 
BRANCH  16  17
ATOM     17  C   UNL     1      26.714  61.834  81.508  1.00  0.00    -0.003 C 
ATOM     18  C   UNL     1      27.440  61.566  80.189  1.00  0.00     0.004 C 
ENDBRANCH  16  17
ENDBRANCH  15  16
ENDBRANCH  14  15
ENDBRANCH  13  14
ENDBRANCH  12  13
ENDBRANCH  11  12
ENDBRANCH   1  11
TORSDOF 14
ENDMDL
MODEL 6
REMARK VINA RESULT:    -3.016      5.897      8.728
REMARK INTER + INTRA:          -7.673
REMARK INTER:                  -6.343
REMARK INTRA:                  -1.330
REMARK UNBOUND:                -2.189
REMARK SMILES CCCCCCCCCCCCCCCC(=O)[O-]
REMARK SMILES IDX 9 1 10 2 11 3 12 4 13 5 14 6 15 7 16 8 17 9 18 10 8 11 7 12
REMARK SMILES IDX 6 13 5 14 4 15 3 16 2 17 1 18
REMARK H PARENT
REMARK Flexibility Score: inf
ROOT
ATOM      1  C   UNL     1      24.165  63.612  79.539  1.00  0.00     0.000 C 
ENDROOT
BRANCH   1   2
ATOM      2  C   UNL     1      24.864  62.252  79.731  1.00  0.00     0.000 C 
BRANCH   2   3
ATOM      3  C   UNL     1      25.868  62.228  80.904  1.00  0.00     0.000 C 
BRANCH   3   4
ATOM      4  C   UNL     1      27.310  61.966  80.443  1.00  0.00     0.000 C 
BRANCH   4   5
ATOM      5  C   UNL     1      27.340  61.480  78.985  1.00  0.00     0.000 C 
BRANCH   5   6
ATOM      6  C   UNL     1      28.732  61.000  78.549  1.00  0.00     0.006 C 
BRANCH   6   7
ATOM      7  C   UNL     1      28.801  59.480  78.355  1.00  0.00     0.053 C 
BRANCH   7   8
ATOM      8  C   UNL     1      29.211  58.808  79.628  1.00  0.00     0.041 C 
ATOM      9  O   UNL     1      30.401  58.887  80.031  1.00  0.00    -0.550 OA
ATOM     10  O   UNL     1      28.291  58.053  80.342  1.00  0.00    -0.550 OA
ENDBRANCH   7   8
ENDBRANCH   6   7
ENDBRANCH   5   6
ENDBRANCH   4   5
ENDBRANCH   3   4
ENDBRANCH   2   3
ENDBRANCH   1   2
BRANCH   1  11
ATOM     11  C   UNL     1      24.221  64.174  78.106  1.00  0.00     0.000 C 
BRANCH  11  12
ATOM     12  C   UNL     1      24.463  63.125  76.999  1.00  0.00    -0.000 C 
BRANCH  12  13
ATOM     13  C   UNL     1      25.843  63.193  76.319  1.00  0.00    -0.000 C 
BRANCH  13  14
ATOM     14  C   UNL     1      25.760  63.594  74.836  1.00  0.00    -0.000 C 
BRANCH  14  15
ATOM     15  C   UNL     1      24.846  64.808  74.605  1.00  0.00    -0.000 C 
BRANCH  15  16
ATOM     16  C   UNL     1      25.630  66.086  74.260  1.00  0.00    -0.000 C 
BRANCH  16  17
ATOM     17  C   UNL     1      26.368  66.668  75.476  1.00  0.00    -0.003 C 
ATOM     18  C   UNL     1      25.613  67.831  76.120  1.00  0.00     0.004 C 
ENDBRANCH  16  17
ENDBRANCH  15  16
ENDBRANCH  14  15
ENDBRANCH  13  14
ENDBRANCH  12  13
ENDBRANCH  11  12
ENDBRANCH   1  11
TORSDOF 14
ENDMDL
MODEL 7
REMARK VINA RESULT:    -3.008      3.126      4.236
REMARK INTER + INTRA:          -7.659
REMARK INTER:                  -5.841
REMARK INTRA:                  -1.818
REMARK UNBOUND:                -2.189
REMARK SMILES CCCCCCCCCCCCCCCC(=O)[O-]
REMARK SMILES IDX 9 1 10 2 11 3 12 4 13 5 14 6 15 7 16 8 17 9 18 10 8 11 7 12
REMARK SMILES IDX 6 13 5 14 4 15 3 16 2 17 1 18
REMARK H PARENT
REMARK Flexibility Score: inf
ROOT
ATOM      1  C   UNL     1      25.775  60.830  84.553  1.00  0.00     0.000 C 
ENDROOT
BRANCH   1   2
ATOM      2  C   UNL     1      27.018  61.410  83.849  1.00  0.00     0.000 C 
BRANCH   2   3
ATOM      3  C   UNL     1      27.791  60.377  83.001  1.00  0.00     0.000 C 
BRANCH   3   4
ATOM      4  C   UNL     1      27.677  60.646  81.493  1.00  0.00     0.000 C 
BRANCH   4   5
ATOM      5  C   UNL     1      27.169  62.072  81.226  1.00  0.00     0.000 C 
BRANCH   5   6
ATOM      6  C   UNL     1      26.095  62.123  80.129  1.00  0.00     0.006 C 
BRANCH   6   7
ATOM      7  C   UNL     1      26.285  61.036  79.064  1.00  0.00     0.053 C 
BRANCH   7   8
ATOM      8  C   UNL     1      27.141  61.544  77.946  1.00  0.00     0.041 C 
ATOM      9  O   UNL     1      26.650  62.294  77.062  1.00  0.00    -0.550 OA
ATOM     10  O   UNL     1      28.469  61.148  77.852  1.00  0.00    -0.550 OA
ENDBRANCH   7   8
ENDBRANCH   6   7
ENDBRANCH   5   6
ENDBRANCH   4   5
ENDBRANCH   3   4
ENDBRANCH   2   3
ENDBRANCH   1   2
BRANCH   1  11
ATOM     11  C   UNL     1      25.613  59.303  84.429  1.00  0.00     0.000 C 
BRANCH  11  12
ATOM     12  C   UNL     1      24.737  58.646  85.518  1.00  0.00    -0.000 C 
BRANCH  12  13
ATOM     13  C   UNL     1      25.511  57.931  86.642  1.00  0.00    -0.000 C 
BRANCH  13  14
ATOM     14  C   UNL     1      25.480  58.701  87.973  1.00  0.00    -0.000 C 
BRANCH  14  15
ATOM     15  C   UNL     1      26.888  59.038  88.490  1.00  0.00    -0.000 C 
BRANCH  15  16
ATOM     16  C   UNL     1      27.988  58.740  87.457  1.00  0.00    -0.000 C 
BRANCH  16  17
ATOM     17  C   UNL     1      28.614  60.020  86.880  1.00  0.00    -0.003 C 
ATOM     18  C   UNL     1      28.013  61.291  87.479  1.00  0.00     0.004 C 
ENDBRANCH  16  17
ENDBRANCH  15  16
ENDBRANCH  14  15
ENDBRANCH  13  14
ENDBRANCH  12  13
ENDBRANCH  11  12
ENDBRANCH   1  11
TORSDOF 14
ENDMDL
MODEL 8
REMARK VINA RESULT:    -2.989      2.854      5.975
REMARK INTER + INTRA:          -7.626
REMARK INTER:                  -5.504
REMARK INTRA:                  -2.122
REMARK UNBOUND:                -2.189
REMARK SMILES CCCCCCCCCCCCCCCC(=O)[O-]
REMARK SMILES IDX 9 1 10 2 11 3 12 4 13 5 14 6 15 7 16 8 17 9 18 10 8 11 7 12
REMARK SMILES IDX 6 13 5 14 4 15 3 16 2 17 1 18
REMARK H PARENT
REMARK Flexibility Score: inf
ROOT
ATOM      1  C   UNL     1      31.284  58.349  81.644  1.00  0.00     0.000 C 
ENDROOT
BRANCH   1   2
ATOM      2  C   UNL     1      31.188  57.144  82.600  1.00  0.00     0.000 C 
BRANCH   2   3
ATOM      3  C   UNL     1      31.396  57.509  84.085  1.00  0.00     0.000 C 
BRANCH   3   4
ATOM      4  C   UNL     1      30.093  57.449  84.897  1.00  0.00     0.000 C 
BRANCH   4   5
ATOM      5  C   UNL     1      29.903  58.729  85.726  1.00  0.00     0.000 C 
BRANCH   5   6
ATOM      6  C   UNL     1      28.762  58.610  86.747  1.00  0.00     0.006 C 
BRANCH   6   7
ATOM      7  C   UNL     1      27.474  59.298  86.278  1.00  0.00     0.053 C 
BRANCH   7   8
ATOM      8  C   UNL     1      27.569  60.778  86.479  1.00  0.00     0.041 C 
ATOM      9  O   UNL     1      26.995  61.565  85.681  1.00  0.00    -0.550 OA
ATOM     10  O   UNL     1      28.336  61.290  87.518  1.00  0.00    -0.550 OA
ENDBRANCH   7   8
ENDBRANCH   6   7
ENDBRANCH   5   6
ENDBRANCH   4   5
ENDBRANCH   3   4
ENDBRANCH   2   3
ENDBRANCH   1   2
BRANCH   1  11
ATOM     11  C   UNL     1      29.968  58.727  80.940  1.00  0.00     0.000 C 
BRANCH  11  12
ATOM     12  C   UNL     1      28.710  58.004  81.469  1.00  0.00    -0.000 C 
BRANCH  12  13
ATOM     13  C   UNL     1      27.761  58.872  82.318  1.00  0.00    -0.000 C 
BRANCH  13  14
ATOM     14  C   UNL     1      28.335  60.267  82.618  1.00  0.00    -0.000 C 
BRANCH  14  15
ATOM     15  C   UNL     1      27.366  61.397  82.236  1.00  0.00    -0.000 C 
BRANCH  15  16
ATOM     16  C   UNL     1      26.424  61.007  81.083  1.00  0.00    -0.000 C 
BRANCH  16  17
ATOM     17  C   UNL     1      26.717  61.790  79.794  1.00  0.00    -0.003 C 
ATOM     18  C   UNL     1      27.974  61.296  79.078  1.00  0.00     0.004 C 
ENDBRANCH  16  17
ENDBRANCH  15  16
ENDBRANCH  14  15
ENDBRANCH  13  14
ENDBRANCH  12  13
ENDBRANCH  11  12
ENDBRANCH   1  11
TORSDOF 14
ENDMDL
MODEL 9
REMARK VINA RESULT:    -2.920      6.350      8.984
REMARK INTER + INTRA:          -7.499
REMARK INTER:                  -5.882
REMARK INTRA:                  -1.616
REMARK UNBOUND:                -2.189
REMARK SMILES CCCCCCCCCCCCCCCC(=O)[O-]
REMARK SMILES IDX 9 1 10 2 11 3 12 4 13 5 14 6 15 7 16 8 17 9 18 10 8 11 7 12
REMARK SMILES IDX 6 13 5 14 4 15 3 16 2 17 1 18
REMARK H PARENT
REMARK Flexibility Score: inf
ROOT
ATOM      1  C   UNL     1      25.370  62.461  80.004  1.00  0.00     0.000 C 
ENDROOT
BRANCH   1   2
ATOM      2  C   UNL     1      26.145  61.203  79.564  1.00  0.00     0.000 C 
BRANCH   2   3
ATOM      3  C   UNL     1      27.673  61.412  79.479  1.00  0.00     0.000 C 
BRANCH   3   4
ATOM      4  C   UNL     1      28.198  61.361  78.037  1.00  0.00     0.000 C 
BRANCH   4   5
ATOM      5  C   UNL     1      27.544  60.210  77.256  1.00  0.00     0.000 C 
BRANCH   5   6
ATOM      6  C   UNL     1      28.460  58.982  77.135  1.00  0.00     0.006 C 
BRANCH   6   7
ATOM      7  C   UNL     1      29.870  59.340  76.648  1.00  0.00     0.053 C 
BRANCH   7   8
ATOM      8  C   UNL     1      30.123  58.745  75.298  1.00  0.00     0.041 C 
ATOM      9  O   UNL     1      31.055  57.914  75.137  1.00  0.00    -0.550 OA
ATOM     10  O   UNL     1      29.364  59.148  74.208  1.00  0.00    -0.550 OA
ENDBRANCH   7   8
ENDBRANCH   6   7
ENDBRANCH   5   6
ENDBRANCH   4   5
ENDBRANCH   3   4
ENDBRANCH   2   3
ENDBRANCH   1   2
BRANCH   1  11
ATOM     11  C   UNL     1      24.517  63.117  78.903  1.00  0.00     0.000 C 
BRANCH  11  12
ATOM     12  C   UNL     1      24.309  62.259  77.635  1.00  0.00    -0.000 C 
BRANCH  12  13
ATOM     13  C   UNL     1      24.443  63.015  76.300  1.00  0.00    -0.000 C 
BRANCH  13  14
ATOM     14  C   UNL     1      25.901  63.365  75.954  1.00  0.00    -0.000 C 
BRANCH  14  15
ATOM     15  C   UNL     1      26.076  64.841  75.565  1.00  0.00    -0.000 C 
BRANCH  15  16
ATOM     16  C   UNL     1      24.737  65.593  75.470  1.00  0.00    -0.000 C 
BRANCH  16  17
ATOM     17  C   UNL     1      24.752  66.920  76.245  1.00  0.00    -0.003 C 
ATOM     18  C   UNL     1      26.028  67.728  76.002  1.00  0.00     0.004 C 
ENDBRANCH  16  17
ENDBRANCH  15  16
ENDBRANCH  14  15
ENDBRANCH  13  14
ENDBRANCH  12  13
ENDBRANCH  11  12
ENDBRANCH   1  11
TORSDOF 14
ENDMDL
