MODEL 1
REMARK VINA RESULT:    -4.799      0.000      0.000
REMARK INTER + INTRA:         -15.949
REMARK INTER:                 -12.094
REMARK INTRA:                  -3.855
REMARK UNBOUND:                -3.855
REMARK SMILES CCCCCCCCCCCCCCCCCCCCCCCCCCCC(=O)[O-]
REMARK SMILES IDX 15 1 16 2 17 3 18 4 19 5 20 6 21 7 22 8 23 9 24 10 25 11
REMARK SMILES IDX 26 12 27 13 28 14 29 15 30 16 14 17 13 18 12 19 11 20 10 21
REMARK SMILES IDX 9 22 8 23 7 24 6 25 5 26 4 27 3 28 2 29 1 30
REMARK H PARENT
REMARK Flexibility Score: inf
ROOT
ATOM      1  C   UNL     1      -7.306   6.955  16.415  1.00  0.00     0.000 C 
ENDROOT
BRANCH   1   2
ATOM      2  C   UNL     1      -5.851   7.412  16.594  1.00  0.00     0.000 C 
BRANCH   2   3
ATOM      3  C   UNL     1      -4.878   6.230  16.473  1.00  0.00     0.000 C 
BRANCH   3   4
ATOM      4  C   UNL     1      -5.470   4.927  17.036  1.00  0.00     0.000 C 
BRANCH   4   5
ATOM      5  C   UNL     1      -5.091   3.699  16.190  1.00  0.00     0.000 C 
BRANCH   5   6
ATOM      6  C   UNL     1      -3.865   2.957  16.745  1.00  0.00     0.000 C 
BRANCH   6   7
ATOM      7  C   UNL     1      -2.590   3.228  15.925  1.00  0.00     0.000 C 
BRANCH   7   8
ATOM      8  C   UNL     1      -1.469   3.853  16.768  1.00  0.00     0.000 C 
BRANCH   8   9
ATOM      9  C   UNL     1      -1.160   5.304  16.362  1.00  0.00     0.000 C 
BRANCH   9  10
ATOM     10  C   UNL     1       0.068   5.863  17.099  1.00  0.00     0.000 C 
BRANCH  10  11
ATOM     11  C   UNL     1      -0.040   5.696  18.624  1.00  0.00     0.000 C 
BRANCH  11  12
ATOM     12  C   UNL     1       0.285   6.994  19.389  1.00  0.00     0.006 C 
BRANCH  12  13
ATOM     13  C   UNL     1      -0.040   6.935  20.891  1.00  0.00     0.053 C 
BRANCH  13  14
ATOM     14  C   UNL     1       1.175   7.158  21.740  1.00  0.00     0.041 C 
ATOM     15  O   UNL     1       1.232   6.676  22.902  1.00  0.00    -0.550 OA
ATOM     16  O   UNL     1       2.262   7.858  21.232  1.00  0.00    -0.550 OA
ENDBRANCH  13  14
ENDBRANCH  12  13
ENDBRANCH  11  12
ENDBRANCH  10  11
ENDBRANCH   9  10
ENDBRANCH   8   9
ENDBRANCH   7   8
ENDBRANCH   6   7
ENDBRANCH   5   6
ENDBRANCH   4   5
ENDBRANCH   3   4
ENDBRANCH   2   3
ENDBRANCH   1   2
BRANCH   1  17
ATOM     17  C   UNL     1      -7.946   7.486  15.119  1.00  0.00     0.000 C 
BRANCH  17  18
ATOM     18  C   UNL     1      -8.654   6.423  14.255  1.00  0.00     0.000 C 
BRANCH  18  19
ATOM     19  C   UNL     1      -7.895   5.089  14.115  1.00  0.00     0.000 C 
BRANCH  19  20
ATOM     20  C   UNL     1      -7.127   4.918  12.789  1.00  0.00     0.000 C 
BRANCH  20  21
ATOM     21  C   UNL     1      -5.599   5.085  12.897  1.00  0.00     0.000 C 
BRANCH  21  22
ATOM     22  C   UNL     1      -5.010   6.238  12.058  1.00  0.00    -0.000 C 
BRANCH  22  23
ATOM     23  C   UNL     1      -5.647   7.618  12.316  1.00  0.00    -0.000 C 
BRANCH  23  24
ATOM     24  C   UNL     1      -4.804   8.571  13.187  1.00  0.00    -0.000 C 
BRANCH  24  25
ATOM     25  C   UNL     1      -3.501   7.962  13.736  1.00  0.00    -0.000 C 
BRANCH  25  26
ATOM     26  C   UNL     1      -2.250   8.483  13.008  1.00  0.00    -0.000 C 
BRANCH  26  27
ATOM     27  C   UNL     1      -2.399   9.938  12.539  1.00  0.00    -0.000 C 
BRANCH  27  28
ATOM     28  C   UNL     1      -1.323  10.862  13.131  1.00  0.00    -0.000 C 
BRANCH  28  29
ATOM     29  C   UNL     1      -1.066  10.532  14.604  1.00  0.00    -0.003 C 
ATOM     30  C   UNL     1       0.423  10.337  14.873  1.00  0.00     0.004 C 
ENDBRANCH  28  29
ENDBRANCH  27  28
ENDBRANCH  26  27
ENDBRANCH  25  26
ENDBRANCH  24  25
ENDBRANCH  23  24
ENDBRANCH  22  23
ENDBRANCH  21  22
ENDBRANCH  20  21
ENDBRANCH  19  20
ENDBRANCH  18  19
ENDBRANCH  17  18
ENDBRANCH   1  17
TORSDOF 26
ENDMDL
MODEL 2
REMARK VINA RESULT:    -4.795      1.356      5.231
REMARK INTER + INTRA:         -15.937
REMARK INTER:                 -12.972
REMARK INTRA:                  -2.965
REMARK UNBOUND:                -3.855
REMARK SMILES CCCCCCCCCCCCCCCCCCCCCCCCCCCC(=O)[O-]
REMARK SMILES IDX 15 1 16 2 17 3 18 4 19 5 20 6 21 7 22 8 23 9 24 10 25 11
REMARK SMILES IDX 26 12 27 13 28 14 29 15 30 16 14 17 13 18 12 19 11 20 10 21
REMARK SMILES IDX 9 22 8 23 7 24 6 25 5 26 4 27 3 28 2 29 1 30
REMARK H PARENT
REMARK Flexibility Score: inf
ROOT
ATOM      1  C   UNL     1      -4.702   8.807  12.811  1.00  0.00     0.000 C 
ENDROOT
BRANCH   1   2
ATOM      2  C   UNL     1      -3.528   9.585  13.424  1.00  0.00     0.000 C 
BRANCH   2   3
ATOM      3  C   UNL     1      -2.229   8.768  13.363  1.00  0.00     0.000 C 
BRANCH   3   4
ATOM      4  C   UNL     1      -1.090   9.535  12.673  1.00  0.00     0.000 C 
BRANCH   4   5
ATOM      5  C   UNL     1       0.087   9.815  13.624  1.00  0.00     0.000 C 
BRANCH   5   6
ATOM      6  C   UNL     1      -0.289  10.784  14.756  1.00  0.00     0.000 C 
BRANCH   6   7
ATOM      7  C   UNL     1       0.251  10.329  16.125  1.00  0.00     0.000 C 
BRANCH   7   8
ATOM      8  C   UNL     1       1.783  10.222  16.147  1.00  0.00     0.000 C 
BRANCH   8   9
ATOM      9  C   UNL     1       2.294   9.252  17.226  1.00  0.00     0.000 C 
BRANCH   9  10
ATOM     10  C   UNL     1       1.163   8.391  17.813  1.00  0.00     0.000 C 
BRANCH  10  11
ATOM     11  C   UNL     1       0.853   8.752  19.276  1.00  0.00     0.000 C 
BRANCH  11  12
ATOM     12  C   UNL     1       1.074   7.571  20.240  1.00  0.00     0.006 C 
BRANCH  12  13
ATOM     13  C   UNL     1      -0.208   7.077  20.931  1.00  0.00     0.053 C 
BRANCH  13  14
ATOM     14  C   UNL     1      -0.006   6.848  22.398  1.00  0.00     0.041 C 
ATOM     15  O   UNL     1       1.152   6.660  22.855  1.00  0.00    -0.550 OA
ATOM     16  O   UNL     1      -1.090   6.886  23.266  1.00  0.00    -0.550 OA
ENDBRANCH  13  14
ENDBRANCH  12  13
ENDBRANCH  11  12
ENDBRANCH  10  11
ENDBRANCH   9  10
ENDBRANCH   8   9
ENDBRANCH   7   8
ENDBRANCH   6   7
ENDBRANCH   5   6
ENDBRANCH   4   5
ENDBRANCH   3   4
ENDBRANCH   2   3
ENDBRANCH   1   2
BRANCH   1  17
ATOM     17  C   UNL     1      -4.295   7.412  12.301  1.00  0.00     0.000 C 
BRANCH  17  18
ATOM     18  C   UNL     1      -5.117   6.887  11.106  1.00  0.00     0.000 C 
BRANCH  18  19
ATOM     19  C   UNL     1      -6.281   5.950  11.481  1.00  0.00     0.000 C 
BRANCH  19  20
ATOM     20  C   UNL     1      -5.972   4.959  12.621  1.00  0.00     0.000 C 
BRANCH  20  21
ATOM     21  C   UNL     1      -7.164   4.635  13.542  1.00  0.00     0.000 C 
BRANCH  21  22
ATOM     22  C   UNL     1      -8.326   5.647  13.482  1.00  0.00    -0.000 C 
BRANCH  22  23
ATOM     23  C   UNL     1      -8.893   6.065  14.854  1.00  0.00    -0.000 C 
BRANCH  23  24
ATOM     24  C   UNL     1      -7.833   6.386  15.926  1.00  0.00    -0.000 C 
BRANCH  24  25
ATOM     25  C   UNL     1      -6.772   7.416  15.498  1.00  0.00    -0.000 C 
BRANCH  25  26
ATOM     26  C   UNL     1      -5.389   7.134  16.110  1.00  0.00    -0.000 C 
BRANCH  26  27
ATOM     27  C   UNL     1      -5.107   5.633  16.269  1.00  0.00    -0.000 C 
BRANCH  27  28
ATOM     28  C   UNL     1      -3.604   5.310  16.260  1.00  0.00    -0.000 C 
BRANCH  28  29
ATOM     29  C   UNL     1      -3.368   3.797  16.256  1.00  0.00    -0.003 C 
ATOM     30  C   UNL     1      -4.642   3.040  16.621  1.00  0.00     0.004 C 
ENDBRANCH  28  29
ENDBRANCH  27  28
ENDBRANCH  26  27
ENDBRANCH  25  26
ENDBRANCH  24  25
ENDBRANCH  23  24
ENDBRANCH  22  23
ENDBRANCH  21  22
ENDBRANCH  20  21
ENDBRANCH  19  20
ENDBRANCH  18  19
ENDBRANCH  17  18
ENDBRANCH   1  17
TORSDOF 26
ENDMDL
MODEL 3
REMARK VINA RESULT:    -4.762      2.897      6.993
REMARK INTER + INTRA:         -15.854
REMARK INTER:                 -12.358
REMARK INTRA:                  -3.496
REMARK UNBOUND:                -3.855
REMARK SMILES CCCCCCCCCCCCCCCCCCCCCCCCCCCC(=O)[O-]
REMARK SMILES IDX 15 1 16 2 17 3 18 4 19 5 20 6 21 7 22 8 23 9 24 10 25 11
REMARK SMILES IDX 26 12 27 13 28 14 29 15 30 16 14 17 13 18 12 19 11 20 10 21
REMARK SMILES IDX 9 22 8 23 7 24 6 25 5 26 4 27 3 28 2 29 1 30
REMARK H PARENT
REMARK Flexibility Score: inf
ROOT
ATOM      1  C   UNL     1      -6.746   7.806  15.674  1.00  0.00     0.000 C 
ENDROOT
BRANCH   1   2
ATOM      2  C   UNL     1      -7.642   7.578  14.447  1.00  0.00     0.000 C 
BRANCH   2   3
ATOM      3  C   UNL     1      -8.633   6.431  14.689  1.00  0.00     0.000 C 
BRANCH   3   4
ATOM      4  C   UNL     1      -8.514   5.323  13.630  1.00  0.00     0.000 C 
BRANCH   4   5
ATOM      5  C   UNL     1      -7.106   4.704  13.588  1.00  0.00     0.000 C 
BRANCH   5   6
ATOM      6  C   UNL     1      -6.429   4.874  12.219  1.00  0.00     0.000 C 
BRANCH   6   7
ATOM      7  C   UNL     1      -7.438   5.177  11.096  1.00  0.00     0.000 C 
BRANCH   7   8
ATOM      8  C   UNL     1      -6.915   6.223  10.101  1.00  0.00     0.000 C 
BRANCH   8   9
ATOM      9  C   UNL     1      -6.023   7.284  10.770  1.00  0.00     0.000 C 
BRANCH   9  10
ATOM     10  C   UNL     1      -4.595   7.282  10.201  1.00  0.00     0.000 C 
BRANCH  10  11
ATOM     11  C   UNL     1      -3.542   7.631  11.267  1.00  0.00     0.000 C 
BRANCH  11  12
ATOM     12  C   UNL     1      -4.164   7.904  12.650  1.00  0.00     0.006 C 
BRANCH  12  13
ATOM     13  C   UNL     1      -3.155   8.386  13.707  1.00  0.00     0.053 C 
BRANCH  13  14
ATOM     14  C   UNL     1      -3.372   9.821  14.079  1.00  0.00     0.041 C 
ATOM     15  O   UNL     1      -2.472  10.675  13.859  1.00  0.00    -0.550 OA
ATOM     16  O   UNL     1      -4.583  10.225  14.628  1.00  0.00    -0.550 OA
ENDBRANCH  13  14
ENDBRANCH  12  13
ENDBRANCH  11  12
ENDBRANCH  10  11
ENDBRANCH   9  10
ENDBRANCH   8   9
ENDBRANCH   7   8
ENDBRANCH   6   7
ENDBRANCH   5   6
ENDBRANCH   4   5
ENDBRANCH   3   4
ENDBRANCH   2   3
ENDBRANCH   1   2
BRANCH   1  17
ATOM     17  C   UNL     1      -6.912   6.716  16.747  1.00  0.00     0.000 C 
BRANCH  17  18
ATOM     18  C   UNL     1      -5.601   6.048  17.209  1.00  0.00     0.000 C 
BRANCH  18  19
ATOM     19  C   UNL     1      -4.537   5.876  16.108  1.00  0.00     0.000 C 
BRANCH  19  20
ATOM     20  C   UNL     1      -4.365   4.432  15.595  1.00  0.00     0.000 C 
BRANCH  20  21
ATOM     21  C   UNL     1      -2.905   3.993  15.367  1.00  0.00     0.000 C 
BRANCH  21  22
ATOM     22  C   UNL     1      -1.849   5.086  15.625  1.00  0.00    -0.000 C 
BRANCH  22  23
ATOM     23  C   UNL     1      -0.646   4.638  16.478  1.00  0.00    -0.000 C 
BRANCH  23  24
ATOM     24  C   UNL     1       0.126   5.782  17.165  1.00  0.00    -0.000 C 
BRANCH  24  25
ATOM     25  C   UNL     1      -0.119   5.909  18.679  1.00  0.00    -0.000 C 
BRANCH  25  26
ATOM     26  C   UNL     1       0.212   7.311  19.219  1.00  0.00    -0.000 C 
BRANCH  26  27
ATOM     27  C   UNL     1       0.060   7.410  20.745  1.00  0.00    -0.000 C 
BRANCH  27  28
ATOM     28  C   UNL     1       1.356   7.055  21.491  1.00  0.00    -0.000 C 
BRANCH  28  29
ATOM     29  C   UNL     1       1.070   6.719  22.958  1.00  0.00    -0.003 C 
ATOM     30  C   UNL     1      -0.429   6.582  23.208  1.00  0.00     0.004 C 
ENDBRANCH  28  29
ENDBRANCH  27  28
ENDBRANCH  26  27
ENDBRANCH  25  26
ENDBRANCH  24  25
ENDBRANCH  23  24
ENDBRANCH  22  23
ENDBRANCH  21  22
ENDBRANCH  20  21
ENDBRANCH  19  20
ENDBRANCH  18  19
ENDBRANCH  17  18
ENDBRANCH   1  17
TORSDOF 26
ENDMDL
MODEL 4
REMARK VINA RESULT:    -4.654      2.970      6.643
REMARK INTER + INTRA:         -15.583
REMARK INTER:                 -12.357
REMARK INTRA:                  -3.226
REMARK UNBOUND:                -3.855
REMARK SMILES CCCCCCCCCCCCCCCCCCCCCCCCCCCC(=O)[O-]
REMARK SMILES IDX 15 1 16 2 17 3 18 4 19 5 20 6 21 7 22 8 23 9 24 10 25 11
REMARK SMILES IDX 26 12 27 13 28 14 29 15 30 16 14 17 13 18 12 19 11 20 10 21
REMARK SMILES IDX 9 22 8 23 7 24 6 25 5 26 4 27 3 28 2 29 1 30
REMARK H PARENT
REMARK Flexibility Score: inf
ROOT
ATOM      1  C   UNL     1       1.508  10.592  15.871  1.00  0.00     0.000 C 
ENDROOT
BRANCH   1   2
ATOM      2  C   UNL     1       1.459   9.113  16.281  1.00  0.00     0.000 C 
BRANCH   2   3
ATOM      3  C   UNL     1       2.035   8.908  17.689  1.00  0.00     0.000 C 
BRANCH   3   4
ATOM      4  C   UNL     1       0.951   8.962  18.778  1.00  0.00     0.000 C 
BRANCH   4   5
ATOM      5  C   UNL     1       1.423   8.342  20.104  1.00  0.00     0.000 C 
BRANCH   5   6
ATOM      6  C   UNL     1       0.651   7.063  20.464  1.00  0.00     0.000 C 
BRANCH   6   7
ATOM      7  C   UNL     1      -0.350   6.651  19.369  1.00  0.00     0.000 C 
BRANCH   7   8
ATOM      8  C   UNL     1       0.148   5.463  18.533  1.00  0.00     0.000 C 
BRANCH   8   9
ATOM      9  C   UNL     1      -0.351   5.511  17.078  1.00  0.00     0.000 C 
BRANCH   9  10
ATOM     10  C   UNL     1      -1.057   4.210  16.664  1.00  0.00     0.000 C 
BRANCH  10  11
ATOM     11  C   UNL     1      -1.796   4.348  15.322  1.00  0.00     0.000 C 
BRANCH  11  12
ATOM     12  C   UNL     1      -3.019   5.281  15.410  1.00  0.00     0.006 C 
BRANCH  12  13
ATOM     13  C   UNL     1      -3.931   5.008  16.618  1.00  0.00     0.053 C 
BRANCH  13  14
ATOM     14  C   UNL     1      -4.966   3.967  16.319  1.00  0.00     0.041 C 
ATOM     15  O   UNL     1      -4.839   2.799  16.774  1.00  0.00    -0.550 OA
ATOM     16  O   UNL     1      -6.093   4.297  15.576  1.00  0.00    -0.550 OA
ENDBRANCH  13  14
ENDBRANCH  12  13
ENDBRANCH  11  12
ENDBRANCH  10  11
ENDBRANCH   9  10
ENDBRANCH   8   9
ENDBRANCH   7   8
ENDBRANCH   6   7
ENDBRANCH   5   6
ENDBRANCH   4   5
ENDBRANCH   3   4
ENDBRANCH   2   3
ENDBRANCH   1   2
BRANCH   1  17
ATOM     17  C   UNL     1       0.230  11.056  15.148  1.00  0.00     0.000 C 
BRANCH  17  18
ATOM     18  C   UNL     1      -0.485   9.969  14.321  1.00  0.00     0.000 C 
BRANCH  18  19
ATOM     19  C   UNL     1      -0.186  10.002  12.809  1.00  0.00     0.000 C 
BRANCH  19  20
ATOM     20  C   UNL     1      -1.355   9.558  11.909  1.00  0.00     0.000 C 
BRANCH  20  21
ATOM     21  C   UNL     1      -2.688   9.318  12.645  1.00  0.00     0.000 C 
BRANCH  21  22
ATOM     22  C   UNL     1      -3.303   7.919  12.437  1.00  0.00    -0.000 C 
BRANCH  22  23
ATOM     23  C   UNL     1      -3.800   7.636  11.006  1.00  0.00    -0.000 C 
BRANCH  23  24
ATOM     24  C   UNL     1      -5.056   6.745  10.918  1.00  0.00    -0.000 C 
BRANCH  24  25
ATOM     25  C   UNL     1      -5.523   6.152  12.260  1.00  0.00    -0.000 C 
BRANCH  25  26
ATOM     26  C   UNL     1      -7.042   6.276  12.466  1.00  0.00    -0.000 C 
BRANCH  26  27
ATOM     27  C   UNL     1      -7.407   6.883  13.830  1.00  0.00    -0.000 C 
BRANCH  27  28
ATOM     28  C   UNL     1      -6.642   8.184  14.120  1.00  0.00    -0.000 C 
BRANCH  28  29
ATOM     29  C   UNL     1      -5.622   7.981  15.245  1.00  0.00    -0.003 C 
ATOM     30  C   UNL     1      -5.579   9.192  16.173  1.00  0.00     0.004 C 
ENDBRANCH  28  29
ENDBRANCH  27  28
ENDBRANCH  26  27
ENDBRANCH  25  26
ENDBRANCH  24  25
ENDBRANCH  23  24
ENDBRANCH  22  23
ENDBRANCH  21  22
ENDBRANCH  20  21
ENDBRANCH  19  20
ENDBRANCH  18  19
ENDBRANCH  17  18
ENDBRANCH   1  17
TORSDOF 26
ENDMDL
MODEL 5
REMARK VINA RESULT:    -4.630      2.129      5.783
REMARK INTER + INTRA:         -15.523
REMARK INTER:                 -12.301
REMARK INTRA:                  -3.221
REMARK UNBOUND:                -3.855
REMARK SMILES CCCCCCCCCCCCCCCCCCCCCCCCCCCC(=O)[O-]
REMARK SMILES IDX 15 1 16 2 17 3 18 4 19 5 20 6 21 7 22 8 23 9 24 10 25 11
REMARK SMILES IDX 26 12 27 13 28 14 29 15 30 16 14 17 13 18 12 19 11 20 10 21
REMARK SMILES IDX 9 22 8 23 7 24 6 25 5 26 4 27 3 28 2 29 1 30
REMARK H PARENT
REMARK Flexibility Score: inf
ROOT
ATOM      1  C   UNL     1      -3.371   7.893  13.850  1.00  0.00     0.000 C 
ENDROOT
BRANCH   1   2
ATOM      2  C   UNL     1      -2.104   8.728  13.617  1.00  0.00     0.000 C 
BRANCH   2   3
ATOM      3  C   UNL     1      -2.359  10.216  13.900  1.00  0.00     0.000 C 
BRANCH   3   4
ATOM      4  C   UNL     1      -1.055  11.002  14.110  1.00  0.00     0.000 C 
BRANCH   4   5
ATOM      5  C   UNL     1       0.032  10.158  14.797  1.00  0.00     0.000 C 
BRANCH   5   6
ATOM      6  C   UNL     1       1.067  11.020  15.538  1.00  0.00     0.000 C 
BRANCH   6   7
ATOM      7  C   UNL     1       2.089  10.173  16.318  1.00  0.00     0.000 C 
BRANCH   7   8
ATOM      8  C   UNL     1       1.438   8.989  17.048  1.00  0.00     0.000 C 
BRANCH   8   9
ATOM      9  C   UNL     1       1.806   8.938  18.541  1.00  0.00     0.000 C 
BRANCH   9  10
ATOM     10  C   UNL     1       0.604   8.554  19.420  1.00  0.00     0.000 C 
BRANCH  10  11
ATOM     11  C   UNL     1       0.582   7.053  19.756  1.00  0.00     0.000 C 
BRANCH  11  12
ATOM     12  C   UNL     1      -0.433   6.268  18.904  1.00  0.00     0.006 C 
BRANCH  12  13
ATOM     13  C   UNL     1       0.190   5.528  17.709  1.00  0.00     0.053 C 
BRANCH  13  14
ATOM     14  C   UNL     1      -0.843   4.835  16.873  1.00  0.00     0.041 C 
ATOM     15  O   UNL     1      -1.474   5.473  15.989  1.00  0.00    -0.550 OA
ATOM     16  O   UNL     1      -1.077   3.475  17.039  1.00  0.00    -0.550 OA
ENDBRANCH  13  14
ENDBRANCH  12  13
ENDBRANCH  11  12
ENDBRANCH  10  11
ENDBRANCH   9  10
ENDBRANCH   8   9
ENDBRANCH   7   8
ENDBRANCH   6   7
ENDBRANCH   5   6
ENDBRANCH   4   5
ENDBRANCH   3   4
ENDBRANCH   2   3
ENDBRANCH   1   2
BRANCH   1  17
ATOM     17  C   UNL     1      -4.108   7.545  12.544  1.00  0.00     0.000 C 
BRANCH  17  18
ATOM     18  C   UNL     1      -5.076   6.348  12.638  1.00  0.00     0.000 C 
BRANCH  18  19
ATOM     19  C   UNL     1      -5.954   6.124  11.392  1.00  0.00     0.000 C 
BRANCH  19  20
ATOM     20  C   UNL     1      -7.169   5.201  11.614  1.00  0.00     0.000 C 
BRANCH  20  21
ATOM     21  C   UNL     1      -7.476   4.875  13.089  1.00  0.00     0.000 C 
BRANCH  21  22
ATOM     22  C   UNL     1      -8.739   5.553  13.656  1.00  0.00    -0.000 C 
BRANCH  22  23
ATOM     23  C   UNL     1      -8.659   5.928  15.149  1.00  0.00    -0.000 C 
BRANCH  23  24
ATOM     24  C   UNL     1      -8.238   7.385  15.432  1.00  0.00    -0.000 C 
BRANCH  24  25
ATOM     25  C   UNL     1      -6.718   7.615  15.508  1.00  0.00    -0.000 C 
BRANCH  25  26
ATOM     26  C   UNL     1      -6.194   7.651  16.953  1.00  0.00    -0.000 C 
BRANCH  26  27
ATOM     27  C   UNL     1      -5.657   6.290  17.422  1.00  0.00    -0.000 C 
BRANCH  27  28
ATOM     28  C   UNL     1      -4.986   5.498  16.289  1.00  0.00    -0.000 C 
BRANCH  28  29
ATOM     29  C   UNL     1      -5.609   4.106  16.149  1.00  0.00    -0.003 C 
ATOM     30  C   UNL     1      -4.680   3.029  16.702  1.00  0.00     0.004 C 
ENDBRANCH  28  29
ENDBRANCH  27  28
ENDBRANCH  26  27
ENDBRANCH  25  26
ENDBRANCH  24  25
ENDBRANCH  23  24
ENDBRANCH  22  23
ENDBRANCH  21  22
ENDBRANCH  20  21
ENDBRANCH  19  20
ENDBRANCH  18  19
ENDBRANCH  17  18
ENDBRANCH   1  17
TORSDOF 26
ENDMDL
MODEL 6
REMARK VINA RESULT:    -4.523      2.403      6.867
REMARK INTER + INTRA:         -15.252
REMARK INTER:                 -12.108
REMARK INTRA:                  -3.144
REMARK UNBOUND:                -3.855
REMARK SMILES CCCCCCCCCCCCCCCCCCCCCCCCCCCC(=O)[O-]
REMARK SMILES IDX 15 1 16 2 17 3 18 4 19 5 20 6 21 7 22 8 23 9 24 10 25 11
REMARK SMILES IDX 26 12 27 13 28 14 29 15 30 16 14 17 13 18 12 19 11 20 10 21
REMARK SMILES IDX 9 22 8 23 7 24 6 25 5 26 4 27 3 28 2 29 1 30
REMARK H PARENT
REMARK Flexibility Score: inf
ROOT
ATOM      1  C   UNL     1      -4.423   7.040  13.630  1.00  0.00     0.000 C 
ENDROOT
BRANCH   1   2
ATOM      2  C   UNL     1      -4.828   7.515  12.226  1.00  0.00     0.000 C 
BRANCH   2   3
ATOM      3  C   UNL     1      -5.192   6.327  11.323  1.00  0.00     0.000 C 
BRANCH   3   4
ATOM      4  C   UNL     1      -6.043   5.277  12.055  1.00  0.00     0.000 C 
BRANCH   4   5
ATOM      5  C   UNL     1      -7.540   5.403  11.723  1.00  0.00     0.000 C 
BRANCH   5   6
ATOM      6  C   UNL     1      -8.139   6.736  12.199  1.00  0.00     0.000 C 
BRANCH   6   7
ATOM      7  C   UNL     1      -8.695   6.653  13.633  1.00  0.00     0.000 C 
BRANCH   7   8
ATOM      8  C   UNL     1      -8.073   7.702  14.567  1.00  0.00     0.000 C 
BRANCH   8   9
ATOM      9  C   UNL     1      -7.391   7.072  15.794  1.00  0.00     0.000 C 
BRANCH   9  10
ATOM     10  C   UNL     1      -7.072   5.584  15.580  1.00  0.00     0.000 C 
BRANCH  10  11
ATOM     11  C   UNL     1      -5.764   5.162  16.270  1.00  0.00     0.000 C 
BRANCH  11  12
ATOM     12  C   UNL     1      -5.106   3.940  15.602  1.00  0.00     0.006 C 
BRANCH  12  13
ATOM     13  C   UNL     1      -4.050   3.240  16.475  1.00  0.00     0.053 C 
BRANCH  13  14
ATOM     14  C   UNL     1      -2.656   3.654  16.114  1.00  0.00     0.041 C 
ATOM     15  O   UNL     1      -2.440   4.798  15.633  1.00  0.00    -0.550 OA
ATOM     16  O   UNL     1      -1.590   2.794  16.349  1.00  0.00    -0.550 OA
ENDBRANCH  13  14
ENDBRANCH  12  13
ENDBRANCH  11  12
ENDBRANCH  10  11
ENDBRANCH   9  10
ENDBRANCH   8   9
ENDBRANCH   7   8
ENDBRANCH   6   7
ENDBRANCH   5   6
ENDBRANCH   4   5
ENDBRANCH   3   4
ENDBRANCH   2   3
ENDBRANCH   1   2
BRANCH   1  17
ATOM     17  C   UNL     1      -3.564   8.071  14.385  1.00  0.00     0.000 C 
BRANCH  17  18
ATOM     18  C   UNL     1      -3.983   9.542  14.189  1.00  0.00     0.000 C 
BRANCH  18  19
ATOM     19  C   UNL     1      -2.880  10.576  14.488  1.00  0.00     0.000 C 
BRANCH  19  20
ATOM     20  C   UNL     1      -2.030  10.984  13.268  1.00  0.00     0.000 C 
BRANCH  20  21
ATOM     21  C   UNL     1      -0.624  10.355  13.217  1.00  0.00     0.000 C 
BRANCH  21  22
ATOM     22  C   UNL     1      -0.098   9.826  14.566  1.00  0.00    -0.000 C 
BRANCH  22  23
ATOM     23  C   UNL     1       0.653  10.865  15.422  1.00  0.00    -0.000 C 
BRANCH  23  24
ATOM     24  C   UNL     1       1.762  10.286  16.324  1.00  0.00    -0.000 C 
BRANCH  24  25
ATOM     25  C   UNL     1       1.421   8.937  16.981  1.00  0.00    -0.000 C 
BRANCH  25  26
ATOM     26  C   UNL     1       1.900   8.849  18.440  1.00  0.00    -0.000 C 
BRANCH  26  27
ATOM     27  C   UNL     1       0.739   8.729  19.439  1.00  0.00    -0.000 C 
BRANCH  27  28
ATOM     28  C   UNL     1       0.268   7.277  19.624  1.00  0.00    -0.000 C 
BRANCH  28  29
ATOM     29  C   UNL     1       0.066   6.951  21.107  1.00  0.00    -0.003 C 
ATOM     30  C   UNL     1       1.382   7.044  21.875  1.00  0.00     0.004 C 
ENDBRANCH  28  29
ENDBRANCH  27  28
ENDBRANCH  26  27
ENDBRANCH  25  26
ENDBRANCH  24  25
ENDBRANCH  23  24
ENDBRANCH  22  23
ENDBRANCH  21  22
ENDBRANCH  20  21
ENDBRANCH  19  20
ENDBRANCH  18  19
ENDBRANCH  17  18
ENDBRANCH   1  17
TORSDOF 26
ENDMDL
MODEL 7
REMARK VINA RESULT:    -4.508      1.540      3.002
REMARK INTER + INTRA:         -15.216
REMARK INTER:                 -11.242
REMARK INTRA:                  -3.973
REMARK UNBOUND:                -3.855
REMARK SMILES CCCCCCCCCCCCCCCCCCCCCCCCCCCC(=O)[O-]
REMARK SMILES IDX 15 1 16 2 17 3 18 4 19 5 20 6 21 7 22 8 23 9 24 10 25 11
REMARK SMILES IDX 26 12 27 13 28 14 29 15 30 16 14 17 13 18 12 19 11 20 10 21
REMARK SMILES IDX 9 22 8 23 7 24 6 25 5 26 4 27 3 28 2 29 1 30
REMARK H PARENT
REMARK Flexibility Score: inf
ROOT
ATOM      1  C   UNL     1      -5.551   8.198  15.797  1.00  0.00     0.000 C 
ENDROOT
BRANCH   1   2
ATOM      2  C   UNL     1      -6.343   7.953  17.090  1.00  0.00     0.000 C 
BRANCH   2   3
ATOM      3  C   UNL     1      -6.050   6.559  17.664  1.00  0.00     0.000 C 
BRANCH   3   4
ATOM      4  C   UNL     1      -6.279   5.443  16.632  1.00  0.00     0.000 C 
BRANCH   4   5
ATOM      5  C   UNL     1      -5.091   4.468  16.551  1.00  0.00     0.000 C 
BRANCH   5   6
ATOM      6  C   UNL     1      -4.350   4.554  15.207  1.00  0.00     0.000 C 
BRANCH   6   7
ATOM      7  C   UNL     1      -2.883   4.095  15.314  1.00  0.00     0.000 C 
BRANCH   7   8
ATOM      8  C   UNL     1      -1.964   5.186  15.880  1.00  0.00     0.000 C 
BRANCH   8   9
ATOM      9  C   UNL     1      -0.679   4.615  16.503  1.00  0.00     0.000 C 
BRANCH   9  10
ATOM     10  C   UNL     1       0.127   5.686  17.255  1.00  0.00     0.000 C 
BRANCH  10  11
ATOM     11  C   UNL     1      -0.488   6.027  18.623  1.00  0.00     0.000 C 
BRANCH  11  12
ATOM     12  C   UNL     1       0.369   7.020  19.430  1.00  0.00     0.006 C 
BRANCH  12  13
ATOM     13  C   UNL     1       0.104   6.991  20.945  1.00  0.00     0.053 C 
BRANCH  13  14
ATOM     14  C   UNL     1       1.366   7.126  21.742  1.00  0.00     0.041 C 
ATOM     15  O   UNL     1       2.288   7.885  21.342  1.00  0.00    -0.550 OA
ATOM     16  O   UNL     1       1.506   6.449  22.947  1.00  0.00    -0.550 OA
ENDBRANCH  13  14
ENDBRANCH  12  13
ENDBRANCH  11  12
ENDBRANCH  10  11
ENDBRANCH   9  10
ENDBRANCH   8   9
ENDBRANCH   7   8
ENDBRANCH   6   7
ENDBRANCH   5   6
ENDBRANCH   4   5
ENDBRANCH   3   4
ENDBRANCH   2   3
ENDBRANCH   1   2
BRANCH   1  17
ATOM     17  C   UNL     1      -5.261   9.689  15.546  1.00  0.00     0.000 C 
BRANCH  17  18
ATOM     18  C   UNL     1      -5.984  10.301  14.328  1.00  0.00     0.000 C 
BRANCH  18  19
ATOM     19  C   UNL     1      -7.109   9.430  13.737  1.00  0.00     0.000 C 
BRANCH  19  20
ATOM     20  C   UNL     1      -7.539   9.812  12.306  1.00  0.00     0.000 C 
BRANCH  20  21
ATOM     21  C   UNL     1      -8.795   9.085  11.789  1.00  0.00     0.000 C 
BRANCH  21  22
ATOM     22  C   UNL     1      -8.589   7.596  11.444  1.00  0.00    -0.000 C 
BRANCH  22  23
ATOM     23  C   UNL     1      -8.908   6.615  12.589  1.00  0.00    -0.000 C 
BRANCH  23  24
ATOM     24  C   UNL     1      -7.680   5.919  13.210  1.00  0.00    -0.000 C 
BRANCH  24  25
ATOM     25  C   UNL     1      -6.629   5.435  12.194  1.00  0.00    -0.000 C 
BRANCH  25  26
ATOM     26  C   UNL     1      -5.265   6.121  12.378  1.00  0.00    -0.000 C 
BRANCH  26  27
ATOM     27  C   UNL     1      -5.010   7.222  11.336  1.00  0.00    -0.000 C 
BRANCH  27  28
ATOM     28  C   UNL     1      -3.839   8.139  11.722  1.00  0.00    -0.000 C 
BRANCH  28  29
ATOM     29  C   UNL     1      -3.229   7.716  13.062  1.00  0.00    -0.003 C 
ATOM     30  C   UNL     1      -2.197   8.732  13.541  1.00  0.00     0.004 C 
ENDBRANCH  28  29
ENDBRANCH  27  28
ENDBRANCH  26  27
ENDBRANCH  25  26
ENDBRANCH  24  25
ENDBRANCH  23  24
ENDBRANCH  22  23
ENDBRANCH  21  22
ENDBRANCH  20  21
ENDBRANCH  19  20
ENDBRANCH  18  19
ENDBRANCH  17  18
ENDBRANCH   1  17
TORSDOF 26
ENDMDL
MODEL 8
REMARK VINA RESULT:    -4.486      1.450      5.020
REMARK INTER + INTRA:         -15.159
REMARK INTER:                 -12.103
REMARK INTRA:                  -3.056
REMARK UNBOUND:                -3.855
REMARK SMILES CCCCCCCCCCCCCCCCCCCCCCCCCCCC(=O)[O-]
REMARK SMILES IDX 15 1 16 2 17 3 18 4 19 5 20 6 21 7 22 8 23 9 24 10 25 11
REMARK SMILES IDX 26 12 27 13 28 14 29 15 30 16 14 17 13 18 12 19 11 20 10 21
REMARK SMILES IDX 9 22 8 23 7 24 6 25 5 26 4 27 3 28 2 29 1 30
REMARK H PARENT
REMARK Flexibility Score: inf
ROOT
ATOM      1  C   UNL     1      -5.095   9.172  13.464  1.00  0.00     0.000 C 
ENDROOT
BRANCH   1   2
ATOM      2  C   UNL     1      -3.786   8.565  13.990  1.00  0.00     0.000 C 
BRANCH   2   3
ATOM      3  C   UNL     1      -2.779   8.348  12.852  1.00  0.00     0.000 C 
BRANCH   3   4
ATOM      4  C   UNL     1      -2.164   9.667  12.357  1.00  0.00     0.000 C 
BRANCH   4   5
ATOM      5  C   UNL     1      -0.633   9.693  12.513  1.00  0.00     0.000 C 
BRANCH   5   6
ATOM      6  C   UNL     1      -0.174  10.592  13.672  1.00  0.00     0.000 C 
BRANCH   6   7
ATOM      7  C   UNL     1       0.322   9.782  14.884  1.00  0.00     0.000 C 
BRANCH   7   8
ATOM      8  C   UNL     1       1.271  10.589  15.783  1.00  0.00     0.000 C 
BRANCH   8   9
ATOM      9  C   UNL     1       1.888   9.739  16.907  1.00  0.00     0.000 C 
BRANCH   9  10
ATOM     10  C   UNL     1       1.926   8.244  16.549  1.00  0.00     0.000 C 
BRANCH  10  11
ATOM     11  C   UNL     1       1.012   7.404  17.457  1.00  0.00     0.000 C 
BRANCH  11  12
ATOM     12  C   UNL     1       0.811   8.036  18.848  1.00  0.00     0.006 C 
BRANCH  12  13
ATOM     13  C   UNL     1       0.080   7.127  19.851  1.00  0.00     0.053 C 
BRANCH  13  14
ATOM     14  C   UNL     1       0.740   7.125  21.196  1.00  0.00     0.041 C 
ATOM     15  O   UNL     1       1.940   7.488  21.313  1.00  0.00    -0.550 OA
ATOM     16  O   UNL     1       0.017   6.765  22.327  1.00  0.00    -0.550 OA
ENDBRANCH  13  14
ENDBRANCH  12  13
ENDBRANCH  11  12
ENDBRANCH  10  11
ENDBRANCH   9  10
ENDBRANCH   8   9
ENDBRANCH   7   8
ENDBRANCH   6   7
ENDBRANCH   5   6
ENDBRANCH   4   5
ENDBRANCH   3   4
ENDBRANCH   2   3
ENDBRANCH   1   2
BRANCH   1  17
ATOM     17  C   UNL     1      -5.754   8.316  12.367  1.00  0.00     0.000 C 
BRANCH  17  18
ATOM     18  C   UNL     1      -6.980   8.957  11.685  1.00  0.00     0.000 C 
BRANCH  18  19
ATOM     19  C   UNL     1      -8.319   8.732  12.415  1.00  0.00     0.000 C 
BRANCH  19  20
ATOM     20  C   UNL     1      -8.827   7.276  12.400  1.00  0.00     0.000 C 
BRANCH  20  21
ATOM     21  C   UNL     1      -9.029   6.645  13.792  1.00  0.00     0.000 C 
BRANCH  21  22
ATOM     22  C   UNL     1      -7.898   6.920  14.802  1.00  0.00    -0.000 C 
BRANCH  22  23
ATOM     23  C   UNL     1      -7.059   5.686  15.189  1.00  0.00    -0.000 C 
BRANCH  23  24
ATOM     24  C   UNL     1      -6.764   4.711  14.032  1.00  0.00    -0.000 C 
BRANCH  24  25
ATOM     25  C   UNL     1      -5.277   4.363  13.843  1.00  0.00    -0.000 C 
BRANCH  25  26
ATOM     26  C   UNL     1      -4.356   5.161  14.782  1.00  0.00    -0.000 C 
BRANCH  26  27
ATOM     27  C   UNL     1      -3.120   4.361  15.219  1.00  0.00    -0.000 C 
BRANCH  27  28
ATOM     28  C   UNL     1      -1.990   5.261  15.744  1.00  0.00    -0.000 C 
BRANCH  28  29
ATOM     29  C   UNL     1      -1.025   4.468  16.631  1.00  0.00    -0.003 C 
ATOM     30  C   UNL     1      -1.407   2.992  16.677  1.00  0.00     0.004 C 
ENDBRANCH  28  29
ENDBRANCH  27  28
ENDBRANCH  26  27
ENDBRANCH  25  26
ENDBRANCH  24  25
ENDBRANCH  23  24
ENDBRANCH  22  23
ENDBRANCH  21  22
ENDBRANCH  20  21
ENDBRANCH  19  20
ENDBRANCH  18  19
ENDBRANCH  17  18
ENDBRANCH   1  17
TORSDOF 26
ENDMDL
MODEL 9
REMARK VINA RESULT:    -4.472      1.727      3.217
REMARK INTER + INTRA:         -15.125
REMARK INTER:                 -10.988
REMARK INTRA:                  -4.137
REMARK UNBOUND:                -3.855
REMARK SMILES CCCCCCCCCCCCCCCCCCCCCCCCCCCC(=O)[O-]
REMARK SMILES IDX 15 1 16 2 17 3 18 4 19 5 20 6 21 7 22 8 23 9 24 10 25 11
REMARK SMILES IDX 26 12 27 13 28 14 29 15 30 16 14 17 13 18 12 19 11 20 10 21
REMARK SMILES IDX 9 22 8 23 7 24 6 25 5 26 4 27 3 28 2 29 1 30
REMARK H PARENT
REMARK Flexibility Score: inf
ROOT
ATOM      1  C   UNL     1      -8.018   5.866  15.003  1.00  0.00     0.000 C 
ENDROOT
BRANCH   1   2
ATOM      2  C   UNL     1      -6.844   6.800  15.332  1.00  0.00     0.000 C 
BRANCH   2   3
ATOM      3  C   UNL     1      -6.899   7.268  16.793  1.00  0.00     0.000 C 
BRANCH   3   4
ATOM      4  C   UNL     1      -6.034   6.397  17.718  1.00  0.00     0.000 C 
BRANCH   4   5
ATOM      5  C   UNL     1      -5.070   5.489  16.933  1.00  0.00     0.000 C 
BRANCH   5   6
ATOM      6  C   UNL     1      -5.347   3.996  17.166  1.00  0.00     0.000 C 
BRANCH   6   7
ATOM      7  C   UNL     1      -4.345   3.089  16.427  1.00  0.00     0.000 C 
BRANCH   7   8
ATOM      8  C   UNL     1      -3.173   3.876  15.824  1.00  0.00     0.000 C 
BRANCH   8   9
ATOM      9  C   UNL     1      -1.803   3.311  16.239  1.00  0.00     0.000 C 
BRANCH   9  10
ATOM     10  C   UNL     1      -0.730   4.407  16.336  1.00  0.00     0.000 C 
BRANCH  10  11
ATOM     11  C   UNL     1      -1.098   5.496  17.358  1.00  0.00     0.000 C 
BRANCH  11  12
ATOM     12  C   UNL     1       0.086   5.887  18.263  1.00  0.00     0.006 C 
BRANCH  12  13
ATOM     13  C   UNL     1      -0.325   6.615  19.554  1.00  0.00     0.053 C 
BRANCH  13  14
ATOM     14  C   UNL     1       0.706   7.611  19.993  1.00  0.00     0.041 C 
ATOM     15  O   UNL     1       0.840   8.698  19.372  1.00  0.00    -0.550 OA
ATOM     16  O   UNL     1       1.487   7.357  21.113  1.00  0.00    -0.550 OA
ENDBRANCH  13  14
ENDBRANCH  12  13
ENDBRANCH  11  12
ENDBRANCH  10  11
ENDBRANCH   9  10
ENDBRANCH   8   9
ENDBRANCH   7   8
ENDBRANCH   6   7
ENDBRANCH   5   6
ENDBRANCH   4   5
ENDBRANCH   3   4
ENDBRANCH   2   3
ENDBRANCH   1   2
BRANCH   1  17
ATOM     17  C   UNL     1      -7.639   4.755  14.007  1.00  0.00     0.000 C 
BRANCH  17  18
ATOM     18  C   UNL     1      -6.165   4.756  13.555  1.00  0.00     0.000 C 
BRANCH  18  19
ATOM     19  C   UNL     1      -5.916   5.349  12.154  1.00  0.00     0.000 C 
BRANCH  19  20
ATOM     20  C   UNL     1      -7.143   5.336  11.220  1.00  0.00     0.000 C 
BRANCH  20  21
ATOM     21  C   UNL     1      -7.258   6.554  10.283  1.00  0.00     0.000 C 
BRANCH  21  22
ATOM     22  C   UNL     1      -8.649   7.218  10.247  1.00  0.00    -0.000 C 
BRANCH  22  23
ATOM     23  C   UNL     1      -9.486   7.040  11.529  1.00  0.00    -0.000 C 
BRANCH  23  24
ATOM     24  C   UNL     1      -9.853   8.351  12.253  1.00  0.00    -0.000 C 
BRANCH  24  25
ATOM     25  C   UNL     1      -8.783   8.870  13.231  1.00  0.00    -0.000 C 
BRANCH  25  26
ATOM     26  C   UNL     1      -7.954  10.026  12.645  1.00  0.00    -0.000 C 
BRANCH  26  27
ATOM     27  C   UNL     1      -6.551  10.123  13.264  1.00  0.00    -0.000 C 
BRANCH  27  28
ATOM     28  C   UNL     1      -5.470   9.487  12.377  1.00  0.00    -0.000 C 
BRANCH  28  29
ATOM     29  C   UNL     1      -4.586   8.534  13.188  1.00  0.00    -0.003 C 
ATOM     30  C   UNL     1      -3.349   8.122  12.395  1.00  0.00     0.004 C 
ENDBRANCH  28  29
ENDBRANCH  27  28
ENDBRANCH  26  27
ENDBRANCH  25  26
ENDBRANCH  24  25
ENDBRANCH  23  24
ENDBRANCH  22  23
ENDBRANCH  21  22
ENDBRANCH  20  21
ENDBRANCH  19  20
ENDBRANCH  18  19
ENDBRANCH  17  18
ENDBRANCH   1  17
TORSDOF 26
ENDMDL
