MODEL 1
REMARK VINA RESULT:    -3.922      0.000      0.000
REMARK INTER + INTRA:          -9.673
REMARK INTER:                  -7.361
REMARK INTRA:                  -2.312
REMARK UNBOUND:                -2.312
REMARK SMILES CCCCCCCCC=CCCCCCCCC(=O)[O-]
REMARK SMILES IDX 10 1 9 2 11 3 12 4 13 5 14 6 15 7 16 8 17 9 18 10 19 11
REMARK SMILES IDX 20 12 8 13 7 14 6 15 5 16 4 17 3 18 2 19 1 20
REMARK H PARENT
REMARK Flexibility Score: inf
ROOT
ATOM      1  C   UNL     1      -8.971   0.383  24.242  1.00  0.00    -0.031 C 
ATOM      2  C   UNL     1      -8.595  -0.894  24.401  1.00  0.00    -0.031 C 
ENDROOT
BRANCH   1   3
ATOM      3  C   UNL     1      -8.283   1.485  25.001  1.00  0.00     0.027 C 
BRANCH   3   4
ATOM      4  C   UNL     1      -8.128   1.119  26.485  1.00  0.00     0.004 C 
BRANCH   4   5
ATOM      5  C   UNL     1      -9.439   1.267  27.273  1.00  0.00     0.000 C 
BRANCH   5   6
ATOM      6  C   UNL     1      -9.761   0.027  28.125  1.00  0.00     0.000 C 
BRANCH   6   7
ATOM      7  C   UNL     1     -10.799  -0.892  27.461  1.00  0.00     0.000 C 
BRANCH   7   8
ATOM      8  C   UNL     1     -10.667  -2.356  27.906  1.00  0.00     0.006 C 
BRANCH   8   9
ATOM      9  C   UNL     1      -9.380  -2.980  27.359  1.00  0.00     0.053 C 
BRANCH   9  10
ATOM     10  C   UNL     1      -9.570  -4.443  27.111  1.00  0.00     0.041 C 
ATOM     11  O   UNL     1     -10.196  -4.837  26.092  1.00  0.00    -0.550 OA
ATOM     12  O   UNL     1      -9.012  -5.374  27.978  1.00  0.00    -0.550 OA
ENDBRANCH   9  10
ENDBRANCH   8   9
ENDBRANCH   7   8
ENDBRANCH   6   7
ENDBRANCH   5   6
ENDBRANCH   4   5
ENDBRANCH   3   4
ENDBRANCH   1   3
BRANCH   2  13
ATOM     13  C   UNL     1      -9.269  -2.015  23.654  1.00  0.00     0.027 C 
BRANCH  13  14
ATOM     14  C   UNL     1     -10.763  -2.129  23.994  1.00  0.00     0.004 C 
BRANCH  14  15
ATOM     15  C   UNL     1     -11.513  -3.039  23.010  1.00  0.00     0.000 C 
BRANCH  15  16
ATOM     16  C   UNL     1     -10.612  -3.441  21.836  1.00  0.00     0.000 C 
BRANCH  16  17
ATOM     17  C   UNL     1     -10.885  -4.890  21.406  1.00  0.00    -0.000 C 
BRANCH  17  18
ATOM     18  C   UNL     1      -9.622  -5.764  21.436  1.00  0.00    -0.000 C 
BRANCH  18  19
ATOM     19  C   UNL     1      -8.778  -5.542  22.700  1.00  0.00    -0.003 C 
ATOM     20  C   UNL     1      -7.435  -4.903  22.359  1.00  0.00     0.004 C 
ENDBRANCH  18  19
ENDBRANCH  17  18
ENDBRANCH  16  17
ENDBRANCH  15  16
ENDBRANCH  14  15
ENDBRANCH  13  14
ENDBRANCH   2  13
TORSDOF 15
ENDMDL
MODEL 2
REMARK VINA RESULT:    -3.830      2.444      4.052
REMARK INTER + INTRA:          -9.500
REMARK INTER:                  -7.161
REMARK INTRA:                  -2.339
REMARK UNBOUND:                -2.312
REMARK SMILES CCCCCCCCC=CCCCCCCCC(=O)[O-]
REMARK SMILES IDX 10 1 9 2 11 3 12 4 13 5 14 6 15 7 16 8 17 9 18 10 19 11
REMARK SMILES IDX 20 12 8 13 7 14 6 15 5 16 4 17 3 18 2 19 1 20
REMARK H PARENT
REMARK Flexibility Score: inf
ROOT
ATOM      1  C   UNL     1      -9.597  -2.841  23.066  1.00  0.00    -0.031 C 
ATOM      2  C   UNL     1     -10.768  -3.454  22.841  1.00  0.00    -0.031 C 
ENDROOT
BRANCH   1   3
ATOM      3  C   UNL     1      -9.015  -2.784  24.452  1.00  0.00     0.027 C 
BRANCH   3   4
ATOM      4  C   UNL     1     -10.051  -3.208  25.504  1.00  0.00     0.004 C 
BRANCH   4   5
ATOM      5  C   UNL     1      -9.532  -3.060  26.943  1.00  0.00     0.000 C 
BRANCH   5   6
ATOM      6  C   UNL     1      -9.953  -1.729  27.590  1.00  0.00     0.000 C 
BRANCH   6   7
ATOM      7  C   UNL     1      -8.750  -0.861  27.991  1.00  0.00     0.000 C 
BRANCH   7   8
ATOM      8  C   UNL     1      -8.827   0.563  27.417  1.00  0.00     0.006 C 
BRANCH   8   9
ATOM      9  C   UNL     1      -9.486   0.560  26.035  1.00  0.00     0.053 C 
BRANCH   9  10
ATOM     10  C   UNL     1      -8.538   1.080  25.001  1.00  0.00     0.041 C 
ATOM     11  O   UNL     1      -8.553   0.609  23.833  1.00  0.00    -0.550 OA
ATOM     12  O   UNL     1      -7.673   2.122  25.311  1.00  0.00    -0.550 OA
ENDBRANCH   9  10
ENDBRANCH   8   9
ENDBRANCH   7   8
ENDBRANCH   6   7
ENDBRANCH   5   6
ENDBRANCH   4   5
ENDBRANCH   3   4
ENDBRANCH   1   3
BRANCH   2  13
ATOM     13  C   UNL     1     -11.373  -3.523  21.464  1.00  0.00     0.027 C 
BRANCH  13  14
ATOM     14  C   UNL     1     -12.112  -4.846  21.215  1.00  0.00     0.004 C 
BRANCH  14  15
ATOM     15  C   UNL     1     -11.297  -6.062  21.679  1.00  0.00     0.000 C 
BRANCH  15  16
ATOM     16  C   UNL     1     -10.395  -6.582  20.553  1.00  0.00     0.000 C 
BRANCH  16  17
ATOM     17  C   UNL     1      -9.011  -6.970  21.093  1.00  0.00    -0.000 C 
BRANCH  17  18
ATOM     18  C   UNL     1      -8.133  -5.748  21.405  1.00  0.00    -0.000 C 
BRANCH  18  19
ATOM     19  C   UNL     1      -7.428  -5.858  22.766  1.00  0.00    -0.003 C 
ATOM     20  C   UNL     1      -8.373  -6.402  23.832  1.00  0.00     0.004 C 
ENDBRANCH  18  19
ENDBRANCH  17  18
ENDBRANCH  16  17
ENDBRANCH  15  16
ENDBRANCH  14  15
ENDBRANCH  13  14
ENDBRANCH   2  13
TORSDOF 15
ENDMDL
MODEL 3
REMARK VINA RESULT:    -3.812      1.962      6.181
REMARK INTER + INTRA:          -9.467
REMARK INTER:                  -7.102
REMARK INTRA:                  -2.365
REMARK UNBOUND:                -2.312
REMARK SMILES CCCCCCCCC=CCCCCCCCC(=O)[O-]
REMARK SMILES IDX 10 1 9 2 11 3 12 4 13 5 14 6 15 7 16 8 17 9 18 10 19 11
REMARK SMILES IDX 20 12 8 13 7 14 6 15 5 16 4 17 3 18 2 19 1 20
REMARK H PARENT
REMARK Flexibility Score: inf
ROOT
ATOM      1  C   UNL     1      -9.136  -2.706  24.695  1.00  0.00    -0.031 C 
ATOM      2  C   UNL     1      -9.906  -2.496  25.773  1.00  0.00    -0.031 C 
ENDROOT
BRANCH   1   3
ATOM      3  C   UNL     1      -9.612  -2.309  23.324  1.00  0.00     0.027 C 
BRANCH   3   4
ATOM      4  C   UNL     1     -11.053  -2.782  23.081  1.00  0.00     0.004 C 
BRANCH   4   5
ATOM      5  C   UNL     1     -11.183  -3.674  21.837  1.00  0.00     0.000 C 
BRANCH   5   6
ATOM      6  C   UNL     1     -11.881  -5.012  22.138  1.00  0.00     0.000 C 
BRANCH   6   7
ATOM      7  C   UNL     1     -11.260  -5.744  23.339  1.00  0.00     0.000 C 
BRANCH   7   8
ATOM      8  C   UNL     1     -10.106  -6.674  22.936  1.00  0.00     0.006 C 
BRANCH   8   9
ATOM      9  C   UNL     1      -8.765  -6.129  23.437  1.00  0.00     0.053 C 
BRANCH   9  10
ATOM     10  C   UNL     1      -8.001  -5.502  22.314  1.00  0.00     0.041 C 
ATOM     11  O   UNL     1      -8.257  -5.813  21.120  1.00  0.00    -0.550 OA
ATOM     12  O   UNL     1      -7.040  -4.535  22.581  1.00  0.00    -0.550 OA
ENDBRANCH   9  10
ENDBRANCH   8   9
ENDBRANCH   7   8
ENDBRANCH   6   7
ENDBRANCH   5   6
ENDBRANCH   4   5
ENDBRANCH   3   4
ENDBRANCH   1   3
BRANCH   2  13
ATOM     13  C   UNL     1      -9.454  -2.887  27.155  1.00  0.00     0.027 C 
BRANCH  13  14
ATOM     14  C   UNL     1      -9.237  -1.669  28.066  1.00  0.00     0.004 C 
BRANCH  14  15
ATOM     15  C   UNL     1     -10.424  -0.695  28.023  1.00  0.00     0.000 C 
BRANCH  15  16
ATOM     16  C   UNL     1      -9.942   0.754  27.885  1.00  0.00     0.000 C 
BRANCH  16  17
ATOM     17  C   UNL     1      -8.415   0.814  27.735  1.00  0.00    -0.000 C 
BRANCH  17  18
ATOM     18  C   UNL     1      -7.975   1.513  26.440  1.00  0.00    -0.000 C 
BRANCH  18  19
ATOM     19  C   UNL     1      -8.433   0.765  25.178  1.00  0.00    -0.003 C 
ATOM     20  C   UNL     1      -8.475   1.698  23.971  1.00  0.00     0.004 C 
ENDBRANCH  18  19
ENDBRANCH  17  18
ENDBRANCH  16  17
ENDBRANCH  15  16
ENDBRANCH  14  15
ENDBRANCH  13  14
ENDBRANCH   2  13
TORSDOF 15
ENDMDL
MODEL 4
REMARK VINA RESULT:    -3.803      2.313      5.275
REMARK INTER + INTRA:          -9.450
REMARK INTER:                  -7.685
REMARK INTRA:                  -1.764
REMARK UNBOUND:                -2.312
REMARK SMILES CCCCCCCCC=CCCCCCCCC(=O)[O-]
REMARK SMILES IDX 10 1 9 2 11 3 12 4 13 5 14 6 15 7 16 8 17 9 18 10 19 11
REMARK SMILES IDX 20 12 8 13 7 14 6 15 5 16 4 17 3 18 2 19 1 20
REMARK H PARENT
REMARK Flexibility Score: inf
ROOT
ATOM      1  C   UNL     1      -8.619   1.046  25.573  1.00  0.00    -0.031 C 
ATOM      2  C   UNL     1      -7.876   1.513  26.587  1.00  0.00    -0.031 C 
ENDROOT
BRANCH   1   3
ATOM      3  C   UNL     1      -8.343   1.480  24.159  1.00  0.00     0.027 C 
BRANCH   3   4
ATOM      4  C   UNL     1      -8.687   0.363  23.162  1.00  0.00     0.004 C 
BRANCH   4   5
ATOM      5  C   UNL     1      -9.072  -0.953  23.855  1.00  0.00     0.000 C 
BRANCH   5   6
ATOM      6  C   UNL     1      -9.319  -2.097  22.857  1.00  0.00     0.000 C 
BRANCH   6   7
ATOM      7  C   UNL     1      -8.515  -3.362  23.197  1.00  0.00     0.000 C 
BRANCH   7   8
ATOM      8  C   UNL     1      -8.736  -4.498  22.187  1.00  0.00     0.006 C 
BRANCH   8   9
ATOM      9  C   UNL     1     -10.209  -4.589  21.781  1.00  0.00     0.053 C 
BRANCH   9  10
ATOM     10  C   UNL     1     -10.454  -5.819  20.966  1.00  0.00     0.041 C 
ATOM     11  O   UNL     1      -9.557  -6.697  20.857  1.00  0.00    -0.550 OA
ATOM     12  O   UNL     1     -11.691  -6.023  20.367  1.00  0.00    -0.550 OA
ENDBRANCH   9  10
ENDBRANCH   8   9
ENDBRANCH   7   8
ENDBRANCH   6   7
ENDBRANCH   5   6
ENDBRANCH   4   5
ENDBRANCH   3   4
ENDBRANCH   1   3
BRANCH   2  13
ATOM     13  C   UNL     1      -8.133   1.096  28.011  1.00  0.00     0.027 C 
BRANCH  13  14
ATOM     14  C   UNL     1      -8.562  -0.375  28.122  1.00  0.00     0.004 C 
BRANCH  14  15
ATOM     15  C   UNL     1     -10.090  -0.534  28.124  1.00  0.00     0.000 C 
BRANCH  15  16
ATOM     16  C   UNL     1     -10.489  -2.014  28.068  1.00  0.00     0.000 C 
BRANCH  16  17
ATOM     17  C   UNL     1      -9.734  -2.745  26.948  1.00  0.00    -0.000 C 
BRANCH  17  18
ATOM     18  C   UNL     1      -9.627  -4.257  27.195  1.00  0.00    -0.000 C 
BRANCH  18  19
ATOM     19  C   UNL     1      -9.995  -5.087  25.955  1.00  0.00    -0.003 C 
ATOM     20  C   UNL     1     -11.339  -4.649  25.380  1.00  0.00     0.004 C 
ENDBRANCH  18  19
ENDBRANCH  17  18
ENDBRANCH  16  17
ENDBRANCH  15  16
ENDBRANCH  14  15
ENDBRANCH  13  14
ENDBRANCH   2  13
TORSDOF 15
ENDMDL
MODEL 5
REMARK VINA RESULT:    -3.802      2.041      5.384
REMARK INTER + INTRA:          -9.447
REMARK INTER:                  -6.902
REMARK INTRA:                  -2.545
REMARK UNBOUND:                -2.312
REMARK SMILES CCCCCCCCC=CCCCCCCCC(=O)[O-]
REMARK SMILES IDX 10 1 9 2 11 3 12 4 13 5 14 6 15 7 16 8 17 9 18 10 19 11
REMARK SMILES IDX 20 12 8 13 7 14 6 15 5 16 4 17 3 18 2 19 1 20
REMARK H PARENT
REMARK Flexibility Score: inf
ROOT
ATOM      1  C   UNL     1      -8.896  -1.688  27.919  1.00  0.00    -0.031 C 
ATOM      2  C   UNL     1      -9.103  -0.363  27.914  1.00  0.00    -0.031 C 
ENDROOT
BRANCH   1   3
ATOM      3  C   UNL     1     -10.054  -2.644  28.009  1.00  0.00     0.027 C 
BRANCH   3   4
ATOM      4  C   UNL     1      -9.746  -3.955  27.271  1.00  0.00     0.004 C 
BRANCH   4   5
ATOM      5  C   UNL     1     -11.015  -4.721  26.865  1.00  0.00     0.000 C 
BRANCH   5   6
ATOM      6  C   UNL     1     -10.749  -5.773  25.775  1.00  0.00     0.000 C 
BRANCH   6   7
ATOM      7  C   UNL     1      -9.721  -5.300  24.736  1.00  0.00     0.000 C 
BRANCH   7   8
ATOM      8  C   UNL     1     -10.001  -5.850  23.329  1.00  0.00     0.006 C 
BRANCH   8   9
ATOM      9  C   UNL     1      -9.453  -4.906  22.254  1.00  0.00     0.053 C 
BRANCH   9  10
ATOM     10  C   UNL     1      -8.008  -5.189  21.994  1.00  0.00     0.041 C 
ATOM     11  O   UNL     1      -7.115  -4.483  22.535  1.00  0.00    -0.550 OA
ATOM     12  O   UNL     1      -7.642  -6.264  21.194  1.00  0.00    -0.550 OA
ENDBRANCH   9  10
ENDBRANCH   8   9
ENDBRANCH   7   8
ENDBRANCH   6   7
ENDBRANCH   5   6
ENDBRANCH   4   5
ENDBRANCH   3   4
ENDBRANCH   1   3
BRANCH   2  13
ATOM     13  C   UNL     1      -7.960   0.615  27.827  1.00  0.00     0.027 C 
BRANCH  13  14
ATOM     14  C   UNL     1      -8.052   1.512  26.584  1.00  0.00     0.004 C 
BRANCH  14  15
ATOM     15  C   UNL     1      -9.035   0.959  25.541  1.00  0.00     0.000 C 
BRANCH  15  16
ATOM     16  C   UNL     1      -8.316   0.633  24.226  1.00  0.00     0.000 C 
BRANCH  16  17
ATOM     17  C   UNL     1      -9.072  -0.448  23.440  1.00  0.00    -0.000 C 
BRANCH  17  18
ATOM     18  C   UNL     1      -9.525  -1.617  24.329  1.00  0.00    -0.000 C 
BRANCH  18  19
ATOM     19  C   UNL     1     -10.982  -2.030  24.066  1.00  0.00    -0.003 C 
ATOM     20  C   UNL     1     -11.911  -1.487  25.147  1.00  0.00     0.004 C 
ENDBRANCH  18  19
ENDBRANCH  17  18
ENDBRANCH  16  17
ENDBRANCH  15  16
ENDBRANCH  14  15
ENDBRANCH  13  14
ENDBRANCH   2  13
TORSDOF 15
ENDMDL
MODEL 6
REMARK VINA RESULT:    -3.745     20.807     23.311
REMARK INTER + INTRA:          -9.341
REMARK INTER:                  -7.073
REMARK INTRA:                  -2.268
REMARK UNBOUND:                -2.312
REMARK SMILES CCCCCCCCC=CCCCCCCCC(=O)[O-]
REMARK SMILES IDX 10 1 9 2 11 3 12 4 13 5 14 6 15 7 16 8 17 9 18 10 19 11
REMARK SMILES IDX 20 12 8 13 7 14 6 15 5 16 4 17 3 18 2 19 1 20
REMARK H PARENT
REMARK Flexibility Score: inf
ROOT
ATOM      1  C   UNL     1       4.975   9.484  13.844  1.00  0.00    -0.031 C 
ATOM      2  C   UNL     1       5.186   8.713  12.767  1.00  0.00    -0.031 C 
ENDROOT
BRANCH   1   3
ATOM      3  C   UNL     1       3.636  10.130  14.074  1.00  0.00     0.027 C 
BRANCH   3   4
ATOM      4  C   UNL     1       2.872  10.303  12.752  1.00  0.00     0.004 C 
BRANCH   4   5
ATOM      5  C   UNL     1       2.865  11.758  12.258  1.00  0.00     0.000 C 
BRANCH   5   6
ATOM      6  C   UNL     1       3.925  12.627  12.958  1.00  0.00     0.000 C 
BRANCH   6   7
ATOM      7  C   UNL     1       5.178  12.839  12.095  1.00  0.00     0.000 C 
BRANCH   7   8
ATOM      8  C   UNL     1       4.954  12.469  10.620  1.00  0.00     0.006 C 
BRANCH   8   9
ATOM      9  C   UNL     1       5.917  11.361  10.182  1.00  0.00     0.053 C 
BRANCH   9  10
ATOM     10  C   UNL     1       5.175  10.269   9.479  1.00  0.00     0.041 C 
ATOM     11  O   UNL     1       3.991  10.455   9.089  1.00  0.00    -0.550 OA
ATOM     12  O   UNL     1       5.807   9.062   9.206  1.00  0.00    -0.550 OA
ENDBRANCH   9  10
ENDBRANCH   8   9
ENDBRANCH   7   8
ENDBRANCH   6   7
ENDBRANCH   5   6
ENDBRANCH   4   5
ENDBRANCH   3   4
ENDBRANCH   1   3
BRANCH   2  13
ATOM     13  C   UNL     1       6.518   8.057  12.513  1.00  0.00     0.027 C 
BRANCH  13  14
ATOM     14  C   UNL     1       7.647   8.685  13.344  1.00  0.00     0.004 C 
BRANCH  14  15
ATOM     15  C   UNL     1       8.111   7.764  14.482  1.00  0.00     0.000 C 
BRANCH  15  16
ATOM     16  C   UNL     1       8.125   8.509  15.822  1.00  0.00     0.000 C 
BRANCH  16  17
ATOM     17  C   UNL     1       7.026   7.981  16.757  1.00  0.00    -0.000 C 
BRANCH  17  18
ATOM     18  C   UNL     1       6.563   6.564  16.384  1.00  0.00    -0.000 C 
BRANCH  18  19
ATOM     19  C   UNL     1       6.650   5.583  17.564  1.00  0.00    -0.003 C 
ATOM     20  C   UNL     1       7.614   6.092  18.631  1.00  0.00     0.004 C 
ENDBRANCH  18  19
ENDBRANCH  17  18
ENDBRANCH  16  17
ENDBRANCH  15  16
ENDBRANCH  14  15
ENDBRANCH  13  14
ENDBRANCH   2  13
TORSDOF 15
ENDMDL
MODEL 7
REMARK VINA RESULT:    -3.709      1.716      6.001
REMARK INTER + INTRA:          -9.274
REMARK INTER:                  -7.069
REMARK INTRA:                  -2.205
REMARK UNBOUND:                -2.312
REMARK SMILES CCCCCCCCC=CCCCCCCCC(=O)[O-]
REMARK SMILES IDX 10 1 9 2 11 3 12 4 13 5 14 6 15 7 16 8 17 9 18 10 19 11
REMARK SMILES IDX 20 12 8 13 7 14 6 15 5 16 4 17 3 18 2 19 1 20
REMARK H PARENT
REMARK Flexibility Score: inf
ROOT
ATOM      1  C   UNL     1      -8.585  -1.928  23.769  1.00  0.00    -0.031 C 
ATOM      2  C   UNL     1      -9.156  -0.725  23.923  1.00  0.00    -0.031 C 
ENDROOT
BRANCH   1   3
ATOM      3  C   UNL     1      -9.400  -3.186  23.900  1.00  0.00     0.027 C 
BRANCH   3   4
ATOM      4  C   UNL     1     -10.788  -3.013  23.266  1.00  0.00     0.004 C 
BRANCH   4   5
ATOM      5  C   UNL     1     -10.800  -3.341  21.764  1.00  0.00     0.000 C 
BRANCH   5   6
ATOM      6  C   UNL     1     -12.032  -4.162  21.347  1.00  0.00     0.000 C 
BRANCH   6   7
ATOM      7  C   UNL     1     -11.779  -5.677  21.404  1.00  0.00     0.000 C 
BRANCH   7   8
ATOM      8  C   UNL     1     -10.343  -6.054  21.012  1.00  0.00     0.006 C 
BRANCH   8   9
ATOM      9  C   UNL     1      -9.637  -6.782  22.159  1.00  0.00     0.053 C 
BRANCH   9  10
ATOM     10  C   UNL     1      -8.254  -6.244  22.350  1.00  0.00     0.041 C 
ATOM     11  O   UNL     1      -7.764  -5.442  21.512  1.00  0.00    -0.550 OA
ATOM     12  O   UNL     1      -7.523  -6.588  23.481  1.00  0.00    -0.550 OA
ENDBRANCH   9  10
ENDBRANCH   8   9
ENDBRANCH   7   8
ENDBRANCH   6   7
ENDBRANCH   5   6
ENDBRANCH   4   5
ENDBRANCH   3   4
ENDBRANCH   1   3
BRANCH   2  13
ATOM     13  C   UNL     1      -8.362   0.549  23.798  1.00  0.00     0.027 C 
BRANCH  13  14
ATOM     14  C   UNL     1      -8.302   1.333  25.117  1.00  0.00     0.004 C 
BRANCH  14  15
ATOM     15  C   UNL     1      -9.379   0.877  26.112  1.00  0.00     0.000 C 
BRANCH  15  16
ATOM     16  C   UNL     1      -8.745   0.249  27.360  1.00  0.00     0.000 C 
BRANCH  16  17
ATOM     17  C   UNL     1      -9.767  -0.605  28.125  1.00  0.00    -0.000 C 
BRANCH  17  18
ATOM     18  C   UNL     1     -10.828  -1.225  27.203  1.00  0.00    -0.000 C 
BRANCH  18  19
ATOM     19  C   UNL     1     -10.878  -2.758  27.304  1.00  0.00    -0.003 C 
ATOM     20  C   UNL     1      -9.489  -3.338  27.550  1.00  0.00     0.004 C 
ENDBRANCH  18  19
ENDBRANCH  17  18
ENDBRANCH  16  17
ENDBRANCH  15  16
ENDBRANCH  14  15
ENDBRANCH  13  14
ENDBRANCH   2  13
TORSDOF 15
ENDMDL
MODEL 8
REMARK VINA RESULT:    -3.687      2.686      4.182
REMARK INTER + INTRA:          -9.232
REMARK INTER:                  -6.615
REMARK INTRA:                  -2.617
REMARK UNBOUND:                -2.312
REMARK SMILES CCCCCCCCC=CCCCCCCCC(=O)[O-]
REMARK SMILES IDX 10 1 9 2 11 3 12 4 13 5 14 6 15 7 16 8 17 9 18 10 19 11
REMARK SMILES IDX 20 12 8 13 7 14 6 15 5 16 4 17 3 18 2 19 1 20
REMARK H PARENT
REMARK Flexibility Score: inf
ROOT
ATOM      1  C   UNL     1      -9.191  -2.783  24.930  1.00  0.00    -0.031 C 
ATOM      2  C   UNL     1     -10.188  -2.495  24.081  1.00  0.00    -0.031 C 
ENDROOT
BRANCH   1   3
ATOM      3  C   UNL     1      -9.338  -2.518  26.403  1.00  0.00     0.027 C 
BRANCH   3   4
ATOM      4  C   UNL     1     -10.727  -1.948  26.726  1.00  0.00     0.004 C 
BRANCH   4   5
ATOM      5  C   UNL     1     -10.663  -0.692  27.609  1.00  0.00     0.000 C 
BRANCH   5   6
ATOM      6  C   UNL     1      -9.220  -0.218  27.858  1.00  0.00     0.000 C 
BRANCH   6   7
ATOM      7  C   UNL     1      -8.902   1.106  27.144  1.00  0.00     0.000 C 
BRANCH   7   8
ATOM      8  C   UNL     1      -9.385   1.125  25.686  1.00  0.00     0.006 C 
BRANCH   8   9
ATOM      9  C   UNL     1      -8.214   0.928  24.720  1.00  0.00     0.053 C 
BRANCH   9  10
ATOM     10  C   UNL     1      -8.634   1.231  23.316  1.00  0.00     0.041 C 
ATOM     11  O   UNL     1      -8.689   0.311  22.457  1.00  0.00    -0.550 OA
ATOM     12  O   UNL     1      -9.016   2.521  22.968  1.00  0.00    -0.550 OA
ENDBRANCH   9  10
ENDBRANCH   8   9
ENDBRANCH   7   8
ENDBRANCH   6   7
ENDBRANCH   5   6
ENDBRANCH   4   5
ENDBRANCH   3   4
ENDBRANCH   1   3
BRANCH   2  13
ATOM     13  C   UNL     1     -10.066  -2.749  22.602  1.00  0.00     0.027 C 
BRANCH  13  14
ATOM     14  C   UNL     1     -11.337  -3.374  22.008  1.00  0.00     0.004 C 
BRANCH  14  15
ATOM     15  C   UNL     1     -11.067  -4.748  21.378  1.00  0.00     0.000 C 
BRANCH  15  16
ATOM     16  C   UNL     1      -9.629  -5.205  21.649  1.00  0.00     0.000 C 
BRANCH  16  17
ATOM     17  C   UNL     1      -9.610  -6.533  22.421  1.00  0.00    -0.000 C 
BRANCH  17  18
ATOM     18  C   UNL     1      -9.600  -6.332  23.944  1.00  0.00    -0.000 C 
BRANCH  18  19
ATOM     19  C   UNL     1     -10.910  -6.781  24.609  1.00  0.00    -0.003 C 
ATOM     20  C   UNL     1     -11.754  -5.581  25.028  1.00  0.00     0.004 C 
ENDBRANCH  18  19
ENDBRANCH  17  18
ENDBRANCH  16  17
ENDBRANCH  15  16
ENDBRANCH  14  15
ENDBRANCH  13  14
ENDBRANCH   2  13
TORSDOF 15
ENDMDL
MODEL 9
REMARK VINA RESULT:    -3.679      2.360      5.781
REMARK INTER + INTRA:          -9.217
REMARK INTER:                  -6.832
REMARK INTRA:                  -2.385
REMARK UNBOUND:                -2.312
REMARK SMILES CCCCCCCCC=CCCCCCCCC(=O)[O-]
REMARK SMILES IDX 10 1 9 2 11 3 12 4 13 5 14 6 15 7 16 8 17 9 18 10 19 11
REMARK SMILES IDX 20 12 8 13 7 14 6 15 5 16 4 17 3 18 2 19 1 20
REMARK H PARENT
REMARK Flexibility Score: inf
ROOT
ATOM      1  C   UNL     1      -8.429  -0.583  23.621  1.00  0.00    -0.031 C 
ATOM      2  C   UNL     1      -9.118   0.297  24.362  1.00  0.00    -0.031 C 
ENDROOT
BRANCH   1   3
ATOM      3  C   UNL     1      -9.114  -1.778  23.016  1.00  0.00     0.027 C 
BRANCH   3   4
ATOM      4  C   UNL     1      -8.758  -3.063  23.779  1.00  0.00     0.004 C 
BRANCH   4   5
ATOM      5  C   UNL     1      -8.134  -4.137  22.873  1.00  0.00     0.000 C 
BRANCH   5   6
ATOM      6  C   UNL     1      -8.656  -5.550  23.185  1.00  0.00     0.000 C 
BRANCH   6   7
ATOM      7  C   UNL     1      -9.897  -5.534  24.091  1.00  0.00     0.000 C 
BRANCH   7   8
ATOM      8  C   UNL     1     -11.133  -6.148  23.418  1.00  0.00     0.006 C 
BRANCH   8   9
ATOM      9  C   UNL     1     -12.120  -5.059  22.989  1.00  0.00     0.053 C 
BRANCH   9  10
ATOM     10  C   UNL     1     -11.824  -4.602  21.595  1.00  0.00     0.041 C 
ATOM     11  O   UNL     1     -11.775  -3.372  21.328  1.00  0.00    -0.550 OA
ATOM     12  O   UNL     1     -11.552  -5.533  20.600  1.00  0.00    -0.550 OA
ENDBRANCH   9  10
ENDBRANCH   8   9
ENDBRANCH   7   8
ENDBRANCH   6   7
ENDBRANCH   5   6
ENDBRANCH   4   5
ENDBRANCH   3   4
ENDBRANCH   1   3
BRANCH   2  13
ATOM     13  C   UNL     1      -8.455   1.500  24.979  1.00  0.00     0.027 C 
BRANCH  13  14
ATOM     14  C   UNL     1      -7.999   1.241  26.423  1.00  0.00     0.004 C 
BRANCH  14  15
ATOM     15  C   UNL     1      -9.184   0.991  27.368  1.00  0.00     0.000 C 
BRANCH  15  16
ATOM     16  C   UNL     1      -9.218  -0.470  27.833  1.00  0.00     0.000 C 
BRANCH  16  17
ATOM     17  C   UNL     1     -10.639  -1.045  27.735  1.00  0.00    -0.000 C 
BRANCH  17  18
ATOM     18  C   UNL     1     -10.705  -2.317  26.876  1.00  0.00    -0.000 C 
BRANCH  18  19
ATOM     19  C   UNL     1     -12.078  -2.515  26.216  1.00  0.00    -0.003 C 
ATOM     20  C   UNL     1     -12.123  -1.866  24.836  1.00  0.00     0.004 C 
ENDBRANCH  18  19
ENDBRANCH  17  18
ENDBRANCH  16  17
ENDBRANCH  15  16
ENDBRANCH  14  15
ENDBRANCH  13  14
ENDBRANCH   2  13
TORSDOF 15
ENDMDL
