MODEL 1
REMARK VINA RESULT:    -4.185      0.000      0.000
REMARK INTER + INTRA:          -7.315
REMARK INTER:                  -6.632
REMARK INTRA:                  -0.683
REMARK UNBOUND:                -0.683
REMARK SMILES CCCCCCCCCCCC(=O)[O-]
REMARK SMILES IDX 7 1 8 2 9 3 10 4 11 5 12 6 13 7 14 8 6 9 5 10 4 11 3 12 2 13
REMARK SMILES IDX 1 14
REMARK H PARENT
REMARK Flexibility Score: inf
ROOT
ATOM      1  C   UNL     1      24.048  -2.201 -10.369  1.00  0.00     0.000 C 
ENDROOT
BRANCH   1   2
ATOM      2  C   UNL     1      25.011  -1.777 -11.485  1.00  0.00     0.000 C 
BRANCH   2   3
ATOM      3  C   UNL     1      25.064  -0.247 -11.613  1.00  0.00     0.000 C 
BRANCH   3   4
ATOM      4  C   UNL     1      24.152   0.286 -12.729  1.00  0.00     0.006 C 
BRANCH   4   5
ATOM      5  C   UNL     1      24.872   1.266 -13.664  1.00  0.00     0.053 C 
BRANCH   5   6
ATOM      6  C   UNL     1      25.248   0.587 -14.942  1.00  0.00     0.041 C 
ATOM      7  O   UNL     1      25.740   1.252 -15.891  1.00  0.00    -0.550 OA
ATOM      8  O   UNL     1      25.009  -0.772 -15.105  1.00  0.00    -0.550 OA
ENDBRANCH   5   6
ENDBRANCH   4   5
ENDBRANCH   3   4
ENDBRANCH   2   3
ENDBRANCH   1   2
BRANCH   1   9
ATOM      9  C   UNL     1      24.397  -1.508  -9.047  1.00  0.00     0.000 C 
BRANCH   9  10
ATOM     10  C   UNL     1      25.057  -2.488  -8.069  1.00  0.00    -0.000 C 
BRANCH  10  11
ATOM     11  C   UNL     1      26.589  -2.386  -8.138  1.00  0.00    -0.000 C 
BRANCH  11  12
ATOM     12  C   UNL     1      27.108  -0.966  -7.851  1.00  0.00    -0.000 C 
BRANCH  12  13
ATOM     13  C   UNL     1      28.582  -0.894  -7.412  1.00  0.00    -0.003 C 
ATOM     14  C   UNL     1      28.798  -1.334  -5.965  1.00  0.00     0.004 C 
ENDBRANCH  12  13
ENDBRANCH  11  12
ENDBRANCH  10  11
ENDBRANCH   9  10
ENDBRANCH   1   9
TORSDOF 10
ENDMDL
MODEL 2
REMARK VINA RESULT:    -4.185      1.843      3.256
REMARK INTER + INTRA:          -7.315
REMARK INTER:                  -6.151
REMARK INTRA:                  -1.164
REMARK UNBOUND:                -0.683
REMARK SMILES CCCCCCCCCCCC(=O)[O-]
REMARK SMILES IDX 7 1 8 2 9 3 10 4 11 5 12 6 13 7 14 8 6 9 5 10 4 11 3 12 2 13
REMARK SMILES IDX 1 14
REMARK H PARENT
REMARK Flexibility Score: inf
ROOT
ATOM      1  C   UNL     1      25.709  -1.046  -9.095  1.00  0.00     0.000 C 
ENDROOT
BRANCH   1   2
ATOM      2  C   UNL     1      25.555  -0.483 -10.514  1.00  0.00     0.000 C 
BRANCH   2   3
ATOM      3  C   UNL     1      24.311  -1.063 -11.204  1.00  0.00     0.000 C 
BRANCH   3   4
ATOM      4  C   UNL     1      23.852  -0.220 -12.403  1.00  0.00     0.006 C 
BRANCH   4   5
ATOM      5  C   UNL     1      24.648  -0.522 -13.679  1.00  0.00     0.053 C 
BRANCH   5   6
ATOM      6  C   UNL     1      25.088   0.749 -14.332  1.00  0.00     0.041 C 
ATOM      7  O   UNL     1      25.204   0.811 -15.584  1.00  0.00    -0.550 OA
ATOM      8  O   UNL     1      25.420   1.853 -13.555  1.00  0.00    -0.550 OA
ENDBRANCH   5   6
ENDBRANCH   4   5
ENDBRANCH   3   4
ENDBRANCH   2   3
ENDBRANCH   1   2
BRANCH   1   9
ATOM      9  C   UNL     1      24.540  -1.973  -8.740  1.00  0.00     0.000 C 
BRANCH   9  10
ATOM     10  C   UNL     1      25.030  -3.212  -7.980  1.00  0.00    -0.000 C 
BRANCH  10  11
ATOM     11  C   UNL     1      24.313  -4.478  -8.472  1.00  0.00    -0.000 C 
BRANCH  11  12
ATOM     12  C   UNL     1      24.072  -4.478  -9.992  1.00  0.00    -0.000 C 
BRANCH  12  13
ATOM     13  C   UNL     1      25.171  -5.169 -10.820  1.00  0.00    -0.003 C 
ATOM     14  C   UNL     1      26.115  -4.182 -11.506  1.00  0.00     0.004 C 
ENDBRANCH  12  13
ENDBRANCH  11  12
ENDBRANCH  10  11
ENDBRANCH   9  10
ENDBRANCH   1   9
TORSDOF 10
ENDMDL
MODEL 3
REMARK VINA RESULT:    -4.167      3.999      6.655
REMARK INTER + INTRA:          -7.286
REMARK INTER:                  -6.455
REMARK INTRA:                  -0.831
REMARK UNBOUND:                -0.683
REMARK SMILES CCCCCCCCCCCC(=O)[O-]
REMARK SMILES IDX 7 1 8 2 9 3 10 4 11 5 12 6 13 7 14 8 6 9 5 10 4 11 3 12 2 13
REMARK SMILES IDX 1 14
REMARK H PARENT
REMARK Flexibility Score: inf
ROOT
ATOM      1  C   UNL     1      25.604  -0.792  -9.336  1.00  0.00     0.000 C 
ENDROOT
BRANCH   1   2
ATOM      2  C   UNL     1      24.464  -1.700  -8.857  1.00  0.00     0.000 C 
BRANCH   2   3
ATOM      3  C   UNL     1      24.981  -2.756  -7.868  1.00  0.00     0.000 C 
BRANCH   3   4
ATOM      4  C   UNL     1      24.958  -4.176  -8.453  1.00  0.00     0.006 C 
BRANCH   4   5
ATOM      5  C   UNL     1      23.746  -4.424  -9.359  1.00  0.00     0.053 C 
BRANCH   5   6
ATOM      6  C   UNL     1      23.397  -5.878  -9.379  1.00  0.00     0.041 C 
ATOM      7  O   UNL     1      22.203  -6.241  -9.536  1.00  0.00    -0.550 OA
ATOM      8  O   UNL     1      24.386  -6.834  -9.175  1.00  0.00    -0.550 OA
ENDBRANCH   5   6
ENDBRANCH   4   5
ENDBRANCH   3   4
ENDBRANCH   2   3
ENDBRANCH   1   2
BRANCH   1   9
ATOM      9  C   UNL     1      25.761  -0.864 -10.860  1.00  0.00     0.000 C 
BRANCH   9  10
ATOM     10  C   UNL     1      24.471  -1.359 -11.524  1.00  0.00    -0.000 C 
BRANCH  10  11
ATOM     11  C   UNL     1      23.917  -0.309 -12.500  1.00  0.00    -0.000 C 
BRANCH  11  12
ATOM     12  C   UNL     1      24.982   0.703 -12.958  1.00  0.00    -0.000 C 
BRANCH  12  13
ATOM     13  C   UNL     1      25.125   0.846 -14.484  1.00  0.00    -0.003 C 
ATOM     14  C   UNL     1      26.337   0.102 -15.044  1.00  0.00     0.004 C 
ENDBRANCH  12  13
ENDBRANCH  11  12
ENDBRANCH  10  11
ENDBRANCH   9  10
ENDBRANCH   1   9
TORSDOF 10
ENDMDL
MODEL 4
REMARK VINA RESULT:    -4.163      1.902      3.264
REMARK INTER + INTRA:          -7.280
REMARK INTER:                  -6.461
REMARK INTRA:                  -0.819
REMARK UNBOUND:                -0.683
REMARK SMILES CCCCCCCCCCCC(=O)[O-]
REMARK SMILES IDX 7 1 8 2 9 3 10 4 11 5 12 6 13 7 14 8 6 9 5 10 4 11 3 12 2 13
REMARK SMILES IDX 1 14
REMARK H PARENT
REMARK Flexibility Score: inf
ROOT
ATOM      1  C   UNL     1      25.708  -0.654 -10.696  1.00  0.00     0.000 C 
ENDROOT
BRANCH   1   2
ATOM      2  C   UNL     1      24.561  -1.379 -11.413  1.00  0.00     0.000 C 
BRANCH   2   3
ATOM      3  C   UNL     1      23.802  -0.422 -12.345  1.00  0.00     0.000 C 
BRANCH   3   4
ATOM      4  C   UNL     1      24.735   0.560 -13.070  1.00  0.00     0.006 C 
BRANCH   4   5
ATOM      5  C   UNL     1      24.909   0.222 -14.556  1.00  0.00     0.053 C 
BRANCH   5   6
ATOM      6  C   UNL     1      26.361   0.128 -14.903  1.00  0.00     0.041 C 
ATOM      7  O   UNL     1      26.903   1.016 -15.611  1.00  0.00    -0.550 OA
ATOM      8  O   UNL     1      27.107  -0.968 -14.485  1.00  0.00    -0.550 OA
ENDBRANCH   5   6
ENDBRANCH   4   5
ENDBRANCH   3   4
ENDBRANCH   2   3
ENDBRANCH   1   2
BRANCH   1   9
ATOM      9  C   UNL     1      25.744  -1.016  -9.207  1.00  0.00     0.000 C 
BRANCH   9  10
ATOM     10  C   UNL     1      24.513  -1.840  -8.810  1.00  0.00    -0.000 C 
BRANCH  10  11
ATOM     11  C   UNL     1      24.898  -2.980  -7.855  1.00  0.00    -0.000 C 
BRANCH  11  12
ATOM     12  C   UNL     1      24.863  -4.363  -8.529  1.00  0.00    -0.000 C 
BRANCH  12  13
ATOM     13  C   UNL     1      23.762  -4.537  -9.592  1.00  0.00    -0.003 C 
ATOM     14  C   UNL     1      22.986  -5.845  -9.442  1.00  0.00     0.004 C 
ENDBRANCH  12  13
ENDBRANCH  11  12
ENDBRANCH  10  11
ENDBRANCH   9  10
ENDBRANCH   1   9
TORSDOF 10
ENDMDL
MODEL 5
REMARK VINA RESULT:    -4.163     16.329     17.365
REMARK INTER + INTRA:          -7.280
REMARK INTER:                  -6.799
REMARK INTRA:                  -0.480
REMARK UNBOUND:                -0.683
REMARK SMILES CCCCCCCCCCCC(=O)[O-]
REMARK SMILES IDX 7 1 8 2 9 3 10 4 11 5 12 6 13 7 14 8 6 9 5 10 4 11 3 12 2 13
REMARK SMILES IDX 1 14
REMARK H PARENT
REMARK Flexibility Score: inf
ROOT
ATOM      1  C   UNL     1      11.213   7.513  -6.765  1.00  0.00     0.000 C 
ENDROOT
BRANCH   1   2
ATOM      2  C   UNL     1      10.629   8.776  -7.410  1.00  0.00     0.000 C 
BRANCH   2   3
ATOM      3  C   UNL     1      11.726   9.820  -7.667  1.00  0.00     0.000 C 
BRANCH   3   4
ATOM      4  C   UNL     1      11.524  10.578  -8.987  1.00  0.00     0.006 C 
BRANCH   4   5
ATOM      5  C   UNL     1      12.849  10.923  -9.680  1.00  0.00     0.053 C 
BRANCH   5   6
ATOM      6  C   UNL     1      12.633  11.128 -11.146  1.00  0.00     0.041 C 
ATOM      7  O   UNL     1      13.367  10.540 -11.983  1.00  0.00    -0.550 OA
ATOM      8  O   UNL     1      11.652  12.007 -11.589  1.00  0.00    -0.550 OA
ENDBRANCH   5   6
ENDBRANCH   4   5
ENDBRANCH   3   4
ENDBRANCH   2   3
ENDBRANCH   1   2
BRANCH   1   9
ATOM      9  C   UNL     1      10.390   6.273  -7.137  1.00  0.00     0.000 C 
BRANCH   9  10
ATOM     10  C   UNL     1      11.156   4.985  -6.812  1.00  0.00    -0.000 C 
BRANCH  10  11
ATOM     11  C   UNL     1      10.858   4.514  -5.380  1.00  0.00    -0.000 C 
BRANCH  11  12
ATOM     12  C   UNL     1      11.770   5.173  -4.330  1.00  0.00    -0.000 C 
BRANCH  12  13
ATOM     13  C   UNL     1      11.056   5.614  -3.039  1.00  0.00    -0.003 C 
ATOM     14  C   UNL     1       9.962   6.652  -3.285  1.00  0.00     0.004 C 
ENDBRANCH  12  13
ENDBRANCH  11  12
ENDBRANCH  10  11
ENDBRANCH   9  10
ENDBRANCH   1   9
TORSDOF 10
ENDMDL
MODEL 6
REMARK VINA RESULT:    -4.152     16.249     18.065
REMARK INTER + INTRA:          -7.263
REMARK INTER:                  -6.593
REMARK INTRA:                  -0.670
REMARK UNBOUND:                -0.683
REMARK SMILES CCCCCCCCCCCC(=O)[O-]
REMARK SMILES IDX 7 1 8 2 9 3 10 4 11 5 12 6 13 7 14 8 6 9 5 10 4 11 3 12 2 13
REMARK SMILES IDX 1 14
REMARK H PARENT
REMARK Flexibility Score: inf
ROOT
ATOM      1  C   UNL     1      11.020   8.502  -6.476  1.00  0.00     0.000 C 
ENDROOT
BRANCH   1   2
ATOM      2  C   UNL     1      10.273   8.194  -5.172  1.00  0.00     0.000 C 
BRANCH   2   3
ATOM      3  C   UNL     1      11.095   7.257  -4.275  1.00  0.00     0.000 C 
BRANCH   3   4
ATOM      4  C   UNL     1      10.835   5.772  -4.575  1.00  0.00     0.006 C 
BRANCH   4   5
ATOM      5  C   UNL     1      12.058   5.067  -5.177  1.00  0.00     0.053 C 
BRANCH   5   6
ATOM      6  C   UNL     1      11.759   4.598  -6.565  1.00  0.00     0.041 C 
ATOM      7  O   UNL     1      12.616   3.939  -7.209  1.00  0.00    -0.550 OA
ATOM      8  O   UNL     1      10.551   4.929  -7.167  1.00  0.00    -0.550 OA
ENDBRANCH   5   6
ENDBRANCH   4   5
ENDBRANCH   3   4
ENDBRANCH   2   3
ENDBRANCH   1   2
BRANCH   1   9
ATOM      9  C   UNL     1      10.042   8.890  -7.592  1.00  0.00     0.000 C 
BRANCH   9  10
ATOM     10  C   UNL     1      10.683   9.890  -8.563  1.00  0.00    -0.000 C 
BRANCH  10  11
ATOM     11  C   UNL     1      12.142  10.173  -8.176  1.00  0.00    -0.000 C 
BRANCH  11  12
ATOM     12  C   UNL     1      12.870  11.065  -9.198  1.00  0.00    -0.000 C 
BRANCH  12  13
ATOM     13  C   UNL     1      12.326  10.977 -10.635  1.00  0.00    -0.003 C 
ATOM     14  C   UNL     1      13.172  11.753 -11.644  1.00  0.00     0.004 C 
ENDBRANCH  12  13
ENDBRANCH  11  12
ENDBRANCH  10  11
ENDBRANCH   9  10
ENDBRANCH   1   9
TORSDOF 10
ENDMDL
MODEL 7
REMARK VINA RESULT:    -4.133      3.657      6.623
REMARK INTER + INTRA:          -7.232
REMARK INTER:                  -6.614
REMARK INTRA:                  -0.618
REMARK UNBOUND:                -0.683
REMARK SMILES CCCCCCCCCCCC(=O)[O-]
REMARK SMILES IDX 7 1 8 2 9 3 10 4 11 5 12 6 13 7 14 8 6 9 5 10 4 11 3 12 2 13
REMARK SMILES IDX 1 14
REMARK H PARENT
REMARK Flexibility Score: inf
ROOT
ATOM      1  C   UNL     1      25.896  -2.145  -8.595  1.00  0.00     0.000 C 
ENDROOT
BRANCH   1   2
ATOM      2  C   UNL     1      24.874  -2.917  -7.751  1.00  0.00     0.000 C 
BRANCH   2   3
ATOM      3  C   UNL     1      24.735  -4.365  -8.246  1.00  0.00     0.000 C 
BRANCH   3   4
ATOM      4  C   UNL     1      23.785  -4.491  -9.447  1.00  0.00     0.006 C 
BRANCH   4   5
ATOM      5  C   UNL     1      22.996  -5.806  -9.442  1.00  0.00     0.053 C 
BRANCH   5   6
ATOM      6  C   UNL     1      23.782  -6.889 -10.110  1.00  0.00     0.041 C 
ATOM      7  O   UNL     1      23.446  -8.094  -9.971  1.00  0.00    -0.550 OA
ATOM      8  O   UNL     1      24.917  -6.572 -10.847  1.00  0.00    -0.550 OA
ENDBRANCH   5   6
ENDBRANCH   4   5
ENDBRANCH   3   4
ENDBRANCH   2   3
ENDBRANCH   1   2
BRANCH   1   9
ATOM      9  C   UNL     1      25.304  -0.826  -9.107  1.00  0.00     0.000 C 
BRANCH   9  10
ATOM     10  C   UNL     1      25.604  -0.630 -10.598  1.00  0.00    -0.000 C 
BRANCH  10  11
ATOM     11  C   UNL     1      24.519  -1.283 -11.467  1.00  0.00    -0.000 C 
BRANCH  11  12
ATOM     12  C   UNL     1      23.838  -0.287 -12.424  1.00  0.00    -0.000 C 
BRANCH  12  13
ATOM     13  C   UNL     1      24.665   0.080 -13.670  1.00  0.00    -0.003 C 
ATOM     14  C   UNL     1      25.058   1.556 -13.714  1.00  0.00     0.004 C 
ENDBRANCH  12  13
ENDBRANCH  11  12
ENDBRANCH  10  11
ENDBRANCH   9  10
ENDBRANCH   1   9
TORSDOF 10
ENDMDL
MODEL 8
REMARK VINA RESULT:    -4.133      1.309      2.107
REMARK INTER + INTRA:          -7.232
REMARK INTER:                  -6.206
REMARK INTRA:                  -1.026
REMARK UNBOUND:                -0.683
REMARK SMILES CCCCCCCCCCCC(=O)[O-]
REMARK SMILES IDX 7 1 8 2 9 3 10 4 11 5 12 6 13 7 14 8 6 9 5 10 4 11 3 12 2 13
REMARK SMILES IDX 1 14
REMARK H PARENT
REMARK Flexibility Score: inf
ROOT
ATOM      1  C   UNL     1      24.349  -4.268  -8.787  1.00  0.00     0.000 C 
ENDROOT
BRANCH   1   2
ATOM      2  C   UNL     1      23.748  -3.616 -10.039  1.00  0.00     0.000 C 
BRANCH   2   3
ATOM      3  C   UNL     1      24.091  -2.120 -10.099  1.00  0.00     0.000 C 
BRANCH   3   4
ATOM      4  C   UNL     1      24.992  -1.767 -11.292  1.00  0.00     0.006 C 
BRANCH   4   5
ATOM      5  C   UNL     1      25.119  -0.254 -11.510  1.00  0.00     0.053 C 
BRANCH   5   6
ATOM      6  C   UNL     1      24.590   0.126 -12.856  1.00  0.00     0.041 C 
ATOM      7  O   UNL     1      24.581   1.332 -13.217  1.00  0.00    -0.550 OA
ATOM      8  O   UNL     1      24.062  -0.847 -13.696  1.00  0.00    -0.550 OA
ENDBRANCH   5   6
ENDBRANCH   4   5
ENDBRANCH   3   4
ENDBRANCH   2   3
ENDBRANCH   1   2
BRANCH   1   9
ATOM      9  C   UNL     1      24.901  -3.208  -7.826  1.00  0.00     0.000 C 
BRANCH   9  10
ATOM     10  C   UNL     1      26.221  -3.670  -7.196  1.00  0.00    -0.000 C 
BRANCH  10  11
ATOM     11  C   UNL     1      27.425  -3.106  -7.967  1.00  0.00    -0.000 C 
BRANCH  11  12
ATOM     12  C   UNL     1      27.245  -1.628  -8.358  1.00  0.00    -0.000 C 
BRANCH  12  13
ATOM     13  C   UNL     1      27.837  -0.618  -7.359  1.00  0.00    -0.003 C 
ATOM     14  C   UNL     1      28.951  -1.212  -6.497  1.00  0.00     0.004 C 
ENDBRANCH  12  13
ENDBRANCH  11  12
ENDBRANCH  10  11
ENDBRANCH   9  10
ENDBRANCH   1   9
TORSDOF 10
ENDMDL
MODEL 9
REMARK VINA RESULT:    -4.104     16.966     18.431
REMARK INTER + INTRA:          -7.186
REMARK INTER:                  -6.310
REMARK INTRA:                  -0.876
REMARK UNBOUND:                -0.683
REMARK SMILES CCCCCCCCCCCC(=O)[O-]
REMARK SMILES IDX 7 1 8 2 9 3 10 4 11 5 12 6 13 7 14 8 6 9 5 10 4 11 3 12 2 13
REMARK SMILES IDX 1 14
REMARK H PARENT
REMARK Flexibility Score: inf
ROOT
ATOM      1  C   UNL     1       9.883   5.843  -7.227  1.00  0.00     0.000 C 
ENDROOT
BRANCH   1   2
ATOM      2  C   UNL     1      11.267   5.289  -6.864  1.00  0.00     0.000 C 
BRANCH   2   3
ATOM      3  C   UNL     1      11.216   4.500  -5.548  1.00  0.00     0.000 C 
BRANCH   3   4
ATOM      4  C   UNL     1      10.862   5.384  -4.342  1.00  0.00     0.006 C 
BRANCH   4   5
ATOM      5  C   UNL     1      12.097   6.025  -3.695  1.00  0.00     0.053 C 
BRANCH   5   6
ATOM      6  C   UNL     1      11.695   7.180  -2.834  1.00  0.00     0.041 C 
ATOM      7  O   UNL     1      11.343   8.268  -3.359  1.00  0.00    -0.550 OA
ATOM      8  O   UNL     1      11.755   7.071  -1.450  1.00  0.00    -0.550 OA
ENDBRANCH   5   6
ENDBRANCH   4   5
ENDBRANCH   3   4
ENDBRANCH   2   3
ENDBRANCH   1   2
BRANCH   1   9
ATOM      9  C   UNL     1       9.906   7.374  -7.308  1.00  0.00     0.000 C 
BRANCH   9  10
ATOM     10  C   UNL     1      11.284   7.925  -6.922  1.00  0.00    -0.000 C 
BRANCH  10  11
ATOM     11  C   UNL     1      11.326   9.454  -7.073  1.00  0.00    -0.000 C 
BRANCH  11  12
ATOM     12  C   UNL     1      10.533   9.957  -8.292  1.00  0.00    -0.000 C 
BRANCH  12  13
ATOM     13  C   UNL     1      11.385  10.628  -9.385  1.00  0.00    -0.003 C 
ATOM     14  C   UNL     1      12.869  10.703  -9.025  1.00  0.00     0.004 C 
ENDBRANCH  12  13
ENDBRANCH  11  12
ENDBRANCH  10  11
ENDBRANCH   9  10
ENDBRANCH   1   9
TORSDOF 10
ENDMDL
