MODEL 1
REMARK VINA RESULT:    -3.231      0.000      0.000
REMARK INTER + INTRA:         -14.139
REMARK INTER:                  -8.520
REMARK INTRA:                  -5.619
REMARK UNBOUND:                -5.619
REMARK SMILES CCCCCCCCCCCCCCCCCCCCCCCCCCCCCC(=O)[O-]
REMARK SMILES IDX 16 1 17 2 18 3 19 4 20 5 21 6 22 7 23 8 24 9 25 10 26 11
REMARK SMILES IDX 27 12 28 13 29 14 30 15 31 16 32 17 15 18 14 19 13 20 12 21
REMARK SMILES IDX 11 22 10 23 9 24 8 25 7 26 6 27 5 28 4 29 3 30 2 31 1 32
REMARK H PARENT
REMARK Flexibility Score: inf
ROOT
ATOM      1  C   UNL     1      12.325  43.637 152.366  1.00  0.00     0.000 C 
ENDROOT
BRANCH   1   2
ATOM      2  C   UNL     1      11.039  43.701 151.521  1.00  0.00     0.000 C 
BRANCH   2   3
ATOM      3  C   UNL     1      11.259  43.262 150.063  1.00  0.00     0.000 C 
BRANCH   3   4
ATOM      4  C   UNL     1      12.492  42.355 149.885  1.00  0.00     0.000 C 
BRANCH   4   5
ATOM      5  C   UNL     1      12.234  41.016 149.163  1.00  0.00     0.000 C 
BRANCH   5   6
ATOM      6  C   UNL     1      11.310  40.038 149.910  1.00  0.00     0.000 C 
BRANCH   6   7
ATOM      7  C   UNL     1      11.688  39.876 151.391  1.00  0.00     0.000 C 
BRANCH   7   8
ATOM      8  C   UNL     1      10.485  40.062 152.328  1.00  0.00     0.000 C 
BRANCH   8   9
ATOM      9  C   UNL     1       9.195  40.421 151.568  1.00  0.00     0.000 C 
BRANCH   9  10
ATOM     10  C   UNL     1       8.283  41.379 152.356  1.00  0.00     0.000 C 
BRANCH  10  11
ATOM     11  C   UNL     1       7.357  40.697 153.379  1.00  0.00     0.000 C 
BRANCH  11  12
ATOM     12  C   UNL     1       5.891  41.134 153.247  1.00  0.00     0.000 C 
BRANCH  12  13
ATOM     13  C   UNL     1       5.057  40.633 154.433  1.00  0.00     0.006 C 
BRANCH  13  14
ATOM     14  C   UNL     1       3.696  40.109 153.967  1.00  0.00     0.053 C 
BRANCH  14  15
ATOM     15  C   UNL     1       3.541  38.657 154.304  1.00  0.00     0.041 C 
ATOM     16  O   UNL     1       2.559  38.005 153.859  1.00  0.00    -0.550 OA
ATOM     17  O   UNL     1       4.472  38.027 155.122  1.00  0.00    -0.550 OA
ENDBRANCH  14  15
ENDBRANCH  13  14
ENDBRANCH  12  13
ENDBRANCH  11  12
ENDBRANCH  10  11
ENDBRANCH   9  10
ENDBRANCH   8   9
ENDBRANCH   7   8
ENDBRANCH   6   7
ENDBRANCH   5   6
ENDBRANCH   4   5
ENDBRANCH   3   4
ENDBRANCH   2   3
ENDBRANCH   1   2
BRANCH   1  18
ATOM     18  C   UNL     1      12.155  43.067 153.786  1.00  0.00     0.000 C 
BRANCH  18  19
ATOM     19  C   UNL     1      10.710  43.166 154.300  1.00  0.00     0.000 C 
BRANCH  19  20
ATOM     20  C   UNL     1      10.464  42.313 155.557  1.00  0.00     0.000 C 
BRANCH  20  21
ATOM     21  C   UNL     1       9.402  42.862 156.531  1.00  0.00     0.000 C 
BRANCH  21  22
ATOM     22  C   UNL     1       8.391  43.849 155.919  1.00  0.00     0.000 C 
BRANCH  22  23
ATOM     23  C   UNL     1       6.930  43.466 156.211  1.00  0.00     0.000 C 
BRANCH  23  24
ATOM     24  C   UNL     1       5.926  44.203 155.306  1.00  0.00    -0.000 C 
BRANCH  24  25
ATOM     25  C   UNL     1       6.250  45.686 155.037  1.00  0.00    -0.000 C 
BRANCH  25  26
ATOM     26  C   UNL     1       6.466  46.052 153.556  1.00  0.00    -0.000 C 
BRANCH  26  27
ATOM     27  C   UNL     1       7.596  45.272 152.855  1.00  0.00    -0.000 C 
BRANCH  27  28
ATOM     28  C   UNL     1       8.404  46.087 151.825  1.00  0.00    -0.000 C 
BRANCH  28  29
ATOM     29  C   UNL     1       9.488  47.004 152.427  1.00  0.00    -0.000 C 
BRANCH  29  30
ATOM     30  C   UNL     1      10.091  46.517 153.761  1.00  0.00    -0.000 C 
BRANCH  30  31
ATOM     31  C   UNL     1       9.805  47.426 154.969  1.00  0.00    -0.003 C 
ATOM     32  C   UNL     1      10.250  48.871 154.745  1.00  0.00     0.004 C 
ENDBRANCH  30  31
ENDBRANCH  29  30
ENDBRANCH  28  29
ENDBRANCH  27  28
ENDBRANCH  26  27
ENDBRANCH  25  26
ENDBRANCH  24  25
ENDBRANCH  23  24
ENDBRANCH  22  23
ENDBRANCH  21  22
ENDBRANCH  20  21
ENDBRANCH  19  20
ENDBRANCH  18  19
ENDBRANCH   1  18
TORSDOF 28
ENDMDL
MODEL 2
REMARK VINA RESULT:    -3.107      2.504      3.855
REMARK INTER + INTRA:         -13.813
REMARK INTER:                  -7.090
REMARK INTRA:                  -6.723
REMARK UNBOUND:                -5.619
REMARK SMILES CCCCCCCCCCCCCCCCCCCCCCCCCCCCCC(=O)[O-]
REMARK SMILES IDX 16 1 17 2 18 3 19 4 20 5 21 6 22 7 23 8 24 9 25 10 26 11
REMARK SMILES IDX 27 12 28 13 29 14 30 15 31 16 32 17 15 18 14 19 13 20 12 21
REMARK SMILES IDX 11 22 10 23 9 24 8 25 7 26 6 27 5 28 4 29 3 30 2 31 1 32
REMARK H PARENT
REMARK Flexibility Score: inf
ROOT
ATOM      1  C   UNL     1      10.228  42.284 154.997  1.00  0.00     0.000 C 
ENDROOT
BRANCH   1   2
ATOM      2  C   UNL     1      11.646  42.760 154.626  1.00  0.00     0.000 C 
BRANCH   2   3
ATOM      3  C   UNL     1      11.985  42.530 153.143  1.00  0.00     0.000 C 
BRANCH   3   4
ATOM      4  C   UNL     1      12.853  43.652 152.541  1.00  0.00     0.000 C 
BRANCH   4   5
ATOM      5  C   UNL     1      12.982  43.640 151.003  1.00  0.00     0.000 C 
BRANCH   5   6
ATOM      6  C   UNL     1      11.817  42.968 150.255  1.00  0.00     0.000 C 
BRANCH   6   7
ATOM      7  C   UNL     1      12.292  42.017 149.145  1.00  0.00     0.000 C 
BRANCH   7   8
ATOM      8  C   UNL     1      11.744  40.592 149.318  1.00  0.00     0.000 C 
BRANCH   8   9
ATOM      9  C   UNL     1      12.049  40.007 150.709  1.00  0.00     0.000 C 
BRANCH   9  10
ATOM     10  C   UNL     1      10.801  39.436 151.406  1.00  0.00     0.000 C 
BRANCH  10  11
ATOM     11  C   UNL     1       9.468  40.073 150.972  1.00  0.00     0.000 C 
BRANCH  11  12
ATOM     12  C   UNL     1       8.774  40.842 152.106  1.00  0.00     0.000 C 
BRANCH  12  13
ATOM     13  C   UNL     1       8.512  42.298 151.704  1.00  0.00     0.006 C 
BRANCH  13  14
ATOM     14  C   UNL     1       8.209  42.411 150.207  1.00  0.00     0.053 C 
BRANCH  14  15
ATOM     15  C   UNL     1       6.790  42.836 149.982  1.00  0.00     0.041 C 
ATOM     16  O   UNL     1       6.035  43.069 150.964  1.00  0.00    -0.550 OA
ATOM     17  O   UNL     1       6.294  42.958 148.689  1.00  0.00    -0.550 OA
ENDBRANCH  14  15
ENDBRANCH  13  14
ENDBRANCH  12  13
ENDBRANCH  11  12
ENDBRANCH  10  11
ENDBRANCH   9  10
ENDBRANCH   8   9
ENDBRANCH   7   8
ENDBRANCH   6   7
ENDBRANCH   5   6
ENDBRANCH   4   5
ENDBRANCH   3   4
ENDBRANCH   2   3
ENDBRANCH   1   2
BRANCH   1  18
ATOM     18  C   UNL     1       9.725  42.725 156.383  1.00  0.00     0.000 C 
BRANCH  18  19
ATOM     19  C   UNL     1       8.467  43.605 156.310  1.00  0.00     0.000 C 
BRANCH  19  20
ATOM     20  C   UNL     1       7.470  43.135 155.236  1.00  0.00     0.000 C 
BRANCH  20  21
ATOM     21  C   UNL     1       6.878  44.250 154.350  1.00  0.00     0.000 C 
BRANCH  21  22
ATOM     22  C   UNL     1       6.677  45.609 155.044  1.00  0.00     0.000 C 
BRANCH  22  23
ATOM     23  C   UNL     1       6.358  46.743 154.054  1.00  0.00     0.000 C 
BRANCH  23  24
ATOM     24  C   UNL     1       6.225  46.250 152.602  1.00  0.00    -0.000 C 
BRANCH  24  25
ATOM     25  C   UNL     1       7.201  46.897 151.597  1.00  0.00    -0.000 C 
BRANCH  25  26
ATOM     26  C   UNL     1       8.391  46.014 151.177  1.00  0.00    -0.000 C 
BRANCH  26  27
ATOM     27  C   UNL     1       9.724  46.348 151.875  1.00  0.00    -0.000 C 
BRANCH  27  28
ATOM     28  C   UNL     1       9.980  45.578 153.186  1.00  0.00    -0.000 C 
BRANCH  28  29
ATOM     29  C   UNL     1      10.243  46.462 154.421  1.00  0.00    -0.000 C 
BRANCH  29  30
ATOM     30  C   UNL     1       9.899  47.955 154.241  1.00  0.00    -0.000 C 
BRANCH  30  31
ATOM     31  C   UNL     1       9.264  48.625 155.472  1.00  0.00    -0.003 C 
ATOM     32  C   UNL     1       8.477  49.888 155.125  1.00  0.00     0.004 C 
ENDBRANCH  30  31
ENDBRANCH  29  30
ENDBRANCH  28  29
ENDBRANCH  27  28
ENDBRANCH  26  27
ENDBRANCH  25  26
ENDBRANCH  24  25
ENDBRANCH  23  24
ENDBRANCH  22  23
ENDBRANCH  21  22
ENDBRANCH  20  21
ENDBRANCH  19  20
ENDBRANCH  18  19
ENDBRANCH   1  18
TORSDOF 28
ENDMDL
MODEL 3
REMARK VINA RESULT:    -3.100      1.402      5.246
REMARK INTER + INTRA:         -13.793
REMARK INTER:                  -7.190
REMARK INTRA:                  -6.603
REMARK UNBOUND:                -5.619
REMARK SMILES CCCCCCCCCCCCCCCCCCCCCCCCCCCCCC(=O)[O-]
REMARK SMILES IDX 16 1 17 2 18 3 19 4 20 5 21 6 22 7 23 8 24 9 25 10 26 11
REMARK SMILES IDX 27 12 28 13 29 14 30 15 31 16 32 17 15 18 14 19 13 20 12 21
REMARK SMILES IDX 11 22 10 23 9 24 8 25 7 26 6 27 5 28 4 29 3 30 2 31 1 32
REMARK H PARENT
REMARK Flexibility Score: inf
ROOT
ATOM      1  C   UNL     1       8.786  41.895 153.967  1.00  0.00     0.000 C 
ENDROOT
BRANCH   1   2
ATOM      2  C   UNL     1      10.121  41.997 154.730  1.00  0.00     0.000 C 
BRANCH   2   3
ATOM      3  C   UNL     1      11.080  43.034 154.121  1.00  0.00     0.000 C 
BRANCH   3   4
ATOM      4  C   UNL     1      10.351  44.157 153.358  1.00  0.00     0.000 C 
BRANCH   4   5
ATOM      5  C   UNL     1      10.341  45.534 154.053  1.00  0.00     0.000 C 
BRANCH   5   6
ATOM      6  C   UNL     1       9.009  45.922 154.718  1.00  0.00     0.000 C 
BRANCH   6   7
ATOM      7  C   UNL     1       8.776  45.197 156.053  1.00  0.00     0.000 C 
BRANCH   7   8
ATOM      8  C   UNL     1       7.285  45.026 156.378  1.00  0.00     0.000 C 
BRANCH   8   9
ATOM      9  C   UNL     1       6.882  43.550 156.546  1.00  0.00     0.000 C 
BRANCH   9  10
ATOM     10  C   UNL     1       5.379  43.309 156.319  1.00  0.00     0.000 C 
BRANCH  10  11
ATOM     11  C   UNL     1       5.022  41.915 155.772  1.00  0.00     0.000 C 
BRANCH  11  12
ATOM     12  C   UNL     1       3.989  41.964 154.636  1.00  0.00     0.000 C 
BRANCH  12  13
ATOM     13  C   UNL     1       4.427  41.090 153.455  1.00  0.00     0.006 C 
BRANCH  13  14
ATOM     14  C   UNL     1       4.927  39.724 153.935  1.00  0.00     0.053 C 
BRANCH  14  15
ATOM     15  C   UNL     1       3.778  38.840 154.313  1.00  0.00     0.041 C 
ATOM     16  O   UNL     1       3.766  38.259 155.431  1.00  0.00    -0.550 OA
ATOM     17  O   UNL     1       2.726  38.642 153.425  1.00  0.00    -0.550 OA
ENDBRANCH  14  15
ENDBRANCH  13  14
ENDBRANCH  12  13
ENDBRANCH  11  12
ENDBRANCH  10  11
ENDBRANCH   9  10
ENDBRANCH   8   9
ENDBRANCH   7   8
ENDBRANCH   6   7
ENDBRANCH   5   6
ENDBRANCH   4   5
ENDBRANCH   3   4
ENDBRANCH   2   3
ENDBRANCH   1   2
BRANCH   1  18
ATOM     18  C   UNL     1       8.460  40.507 153.389  1.00  0.00     0.000 C 
BRANCH  18  19
ATOM     19  C   UNL     1       8.167  40.541 151.881  1.00  0.00     0.000 C 
BRANCH  19  20
ATOM     20  C   UNL     1       9.434  40.387 151.022  1.00  0.00     0.000 C 
BRANCH  20  21
ATOM     21  C   UNL     1      10.640  39.739 151.732  1.00  0.00     0.000 C 
BRANCH  21  22
ATOM     22  C   UNL     1      11.988  40.456 151.532  1.00  0.00     0.000 C 
BRANCH  22  23
ATOM     23  C   UNL     1      11.982  41.414 150.329  1.00  0.00     0.000 C 
BRANCH  23  24
ATOM     24  C   UNL     1      12.735  42.728 150.606  1.00  0.00    -0.000 C 
BRANCH  24  25
ATOM     25  C   UNL     1      12.004  44.011 150.161  1.00  0.00    -0.000 C 
BRANCH  25  26
ATOM     26  C   UNL     1      10.793  43.788 149.235  1.00  0.00    -0.000 C 
BRANCH  26  27
ATOM     27  C   UNL     1       9.419  43.925 149.921  1.00  0.00    -0.000 C 
BRANCH  27  28
ATOM     28  C   UNL     1       8.956  45.375 150.161  1.00  0.00    -0.000 C 
BRANCH  28  29
ATOM     29  C   UNL     1       7.729  45.523 151.083  1.00  0.00    -0.000 C 
BRANCH  29  30
ATOM     30  C   UNL     1       6.998  44.206 151.415  1.00  0.00    -0.000 C 
BRANCH  30  31
ATOM     31  C   UNL     1       6.395  44.140 152.829  1.00  0.00    -0.003 C 
ATOM     32  C   UNL     1       5.409  45.274 153.110  1.00  0.00     0.004 C 
ENDBRANCH  30  31
ENDBRANCH  29  30
ENDBRANCH  28  29
ENDBRANCH  27  28
ENDBRANCH  26  27
ENDBRANCH  25  26
ENDBRANCH  24  25
ENDBRANCH  23  24
ENDBRANCH  22  23
ENDBRANCH  21  22
ENDBRANCH  20  21
ENDBRANCH  19  20
ENDBRANCH  18  19
ENDBRANCH   1  18
TORSDOF 28
ENDMDL
MODEL 4
REMARK VINA RESULT:    -3.089      3.569      7.569
REMARK INTER + INTRA:         -13.765
REMARK INTER:                  -7.480
REMARK INTRA:                  -6.284
REMARK UNBOUND:                -5.619
REMARK SMILES CCCCCCCCCCCCCCCCCCCCCCCCCCCCCC(=O)[O-]
REMARK SMILES IDX 16 1 17 2 18 3 19 4 20 5 21 6 22 7 23 8 24 9 25 10 26 11
REMARK SMILES IDX 27 12 28 13 29 14 30 15 31 16 32 17 15 18 14 19 13 20 12 21
REMARK SMILES IDX 11 22 10 23 9 24 8 25 7 26 6 27 5 28 4 29 3 30 2 31 1 32
REMARK H PARENT
REMARK Flexibility Score: inf
ROOT
ATOM      1  C   UNL     1      10.655  42.739 154.344  1.00  0.00     0.000 C 
ENDROOT
BRANCH   1   2
ATOM      2  C   UNL     1      10.107  42.378 155.738  1.00  0.00     0.000 C 
BRANCH   2   3
ATOM      3  C   UNL     1       9.025  43.357 156.226  1.00  0.00     0.000 C 
BRANCH   3   4
ATOM      4  C   UNL     1       7.657  43.130 155.552  1.00  0.00     0.000 C 
BRANCH   4   5
ATOM      5  C   UNL     1       6.788  44.393 155.372  1.00  0.00     0.000 C 
BRANCH   5   6
ATOM      6  C   UNL     1       6.756  44.966 153.945  1.00  0.00     0.000 C 
BRANCH   6   7
ATOM      7  C   UNL     1       7.646  46.209 153.783  1.00  0.00     0.000 C 
BRANCH   7   8
ATOM      8  C   UNL     1       9.088  45.853 153.391  1.00  0.00     0.000 C 
BRANCH   8   9
ATOM      9  C   UNL     1      10.124  46.415 154.382  1.00  0.00     0.000 C 
BRANCH   9  10
ATOM     10  C   UNL     1       9.479  47.057 155.624  1.00  0.00     0.000 C 
BRANCH  10  11
ATOM     11  C   UNL     1       9.782  48.555 155.811  1.00  0.00     0.000 C 
BRANCH  11  12
ATOM     12  C   UNL     1       9.889  49.315 154.481  1.00  0.00     0.000 C 
BRANCH  12  13
ATOM     13  C   UNL     1       8.517  49.833 154.030  1.00  0.00     0.006 C 
BRANCH  13  14
ATOM     14  C   UNL     1       8.264  49.511 152.554  1.00  0.00     0.053 C 
BRANCH  14  15
ATOM     15  C   UNL     1       6.979  50.124 152.088  1.00  0.00     0.041 C 
ATOM     16  O   UNL     1       6.993  51.063 151.247  1.00  0.00    -0.550 OA
ATOM     17  O   UNL     1       5.765  49.673 152.595  1.00  0.00    -0.550 OA
ENDBRANCH  14  15
ENDBRANCH  13  14
ENDBRANCH  12  13
ENDBRANCH  11  12
ENDBRANCH  10  11
ENDBRANCH   9  10
ENDBRANCH   8   9
ENDBRANCH   7   8
ENDBRANCH   6   7
ENDBRANCH   5   6
ENDBRANCH   4   5
ENDBRANCH   3   4
ENDBRANCH   2   3
ENDBRANCH   1   2
BRANCH   1  18
ATOM     18  C   UNL     1      12.190  42.766 154.225  1.00  0.00     0.000 C 
BRANCH  18  19
ATOM     19  C   UNL     1      12.693  43.820 153.226  1.00  0.00     0.000 C 
BRANCH  19  20
ATOM     20  C   UNL     1      11.882  43.839 151.918  1.00  0.00     0.000 C 
BRANCH  20  21
ATOM     21  C   UNL     1      12.503  43.056 150.743  1.00  0.00     0.000 C 
BRANCH  21  22
ATOM     22  C   UNL     1      11.731  41.796 150.309  1.00  0.00     0.000 C 
BRANCH  22  23
ATOM     23  C   UNL     1      12.100  40.554 151.138  1.00  0.00     0.000 C 
BRANCH  23  24
ATOM     24  C   UNL     1      10.908  39.989 151.932  1.00  0.00    -0.000 C 
BRANCH  24  25
ATOM     25  C   UNL     1       9.929  39.121 151.116  1.00  0.00    -0.000 C 
BRANCH  25  26
ATOM     26  C   UNL     1       8.497  39.679 151.001  1.00  0.00    -0.000 C 
BRANCH  26  27
ATOM     27  C   UNL     1       7.970  40.377 152.271  1.00  0.00    -0.000 C 
BRANCH  27  28
ATOM     28  C   UNL     1       7.397  41.790 152.044  1.00  0.00    -0.000 C 
BRANCH  28  29
ATOM     29  C   UNL     1       8.421  42.840 151.569  1.00  0.00    -0.000 C 
BRANCH  29  30
ATOM     30  C   UNL     1       8.198  43.369 150.137  1.00  0.00    -0.000 C 
BRANCH  30  31
ATOM     31  C   UNL     1       7.986  44.890 150.036  1.00  0.00    -0.003 C 
ATOM     32  C   UNL     1       6.527  45.302 150.224  1.00  0.00     0.004 C 
ENDBRANCH  30  31
ENDBRANCH  29  30
ENDBRANCH  28  29
ENDBRANCH  27  28
ENDBRANCH  26  27
ENDBRANCH  25  26
ENDBRANCH  24  25
ENDBRANCH  23  24
ENDBRANCH  22  23
ENDBRANCH  21  22
ENDBRANCH  20  21
ENDBRANCH  19  20
ENDBRANCH  18  19
ENDBRANCH   1  18
TORSDOF 28
ENDMDL
MODEL 5
REMARK VINA RESULT:    -3.085      3.937      7.761
REMARK INTER + INTRA:         -13.753
REMARK INTER:                  -7.451
REMARK INTRA:                  -6.302
REMARK UNBOUND:                -5.619
REMARK SMILES CCCCCCCCCCCCCCCCCCCCCCCCCCCCCC(=O)[O-]
REMARK SMILES IDX 16 1 17 2 18 3 19 4 20 5 21 6 22 7 23 8 24 9 25 10 26 11
REMARK SMILES IDX 27 12 28 13 29 14 30 15 31 16 32 17 15 18 14 19 13 20 12 21
REMARK SMILES IDX 11 22 10 23 9 24 8 25 7 26 6 27 5 28 4 29 3 30 2 31 1 32
REMARK H PARENT
REMARK Flexibility Score: inf
ROOT
ATOM      1  C   UNL     1       8.490  44.538 155.342  1.00  0.00     0.000 C 
ENDROOT
BRANCH   1   2
ATOM      2  C   UNL     1       8.692  45.764 156.253  1.00  0.00     0.000 C 
BRANCH   2   3
ATOM      3  C   UNL     1       9.529  46.871 155.589  1.00  0.00     0.000 C 
BRANCH   3   4
ATOM      4  C   UNL     1      10.064  46.472 154.200  1.00  0.00     0.000 C 
BRANCH   4   5
ATOM      5  C   UNL     1       9.782  47.480 153.066  1.00  0.00     0.000 C 
BRANCH   5   6
ATOM      6  C   UNL     1       9.231  46.865 151.768  1.00  0.00     0.000 C 
BRANCH   6   7
ATOM      7  C   UNL     1       8.727  45.425 151.958  1.00  0.00     0.000 C 
BRANCH   7   8
ATOM      8  C   UNL     1       7.292  45.232 151.447  1.00  0.00     0.000 C 
BRANCH   8   9
ATOM      9  C   UNL     1       6.282  45.024 152.591  1.00  0.00     0.000 C 
BRANCH   9  10
ATOM     10  C   UNL     1       5.471  46.292 152.913  1.00  0.00     0.000 C 
BRANCH  10  11
ATOM     11  C   UNL     1       5.953  47.074 154.148  1.00  0.00     0.000 C 
BRANCH  11  12
ATOM     12  C   UNL     1       6.426  48.496 153.810  1.00  0.00     0.000 C 
BRANCH  12  13
ATOM     13  C   UNL     1       6.803  49.267 155.081  1.00  0.00     0.006 C 
BRANCH  13  14
ATOM     14  C   UNL     1       7.932  50.265 154.805  1.00  0.00     0.053 C 
BRANCH  14  15
ATOM     15  C   UNL     1       7.435  51.674 154.915  1.00  0.00     0.041 C 
ATOM     16  O   UNL     1       7.620  52.331 155.975  1.00  0.00    -0.550 OA
ATOM     17  O   UNL     1       6.753  52.259 153.853  1.00  0.00    -0.550 OA
ENDBRANCH  14  15
ENDBRANCH  13  14
ENDBRANCH  12  13
ENDBRANCH  11  12
ENDBRANCH  10  11
ENDBRANCH   9  10
ENDBRANCH   8   9
ENDBRANCH   7   8
ENDBRANCH   6   7
ENDBRANCH   5   6
ENDBRANCH   4   5
ENDBRANCH   3   4
ENDBRANCH   2   3
ENDBRANCH   1   2
BRANCH   1  18
ATOM     18  C   UNL     1       8.669  43.170 156.025  1.00  0.00     0.000 C 
BRANCH  18  19
ATOM     19  C   UNL     1       9.811  42.343 155.416  1.00  0.00     0.000 C 
BRANCH  19  20
ATOM     20  C   UNL     1      10.542  43.078 154.279  1.00  0.00     0.000 C 
BRANCH  20  21
ATOM     21  C   UNL     1      12.082  43.028 154.340  1.00  0.00     0.000 C 
BRANCH  21  22
ATOM     22  C   UNL     1      12.813  43.738 153.186  1.00  0.00     0.000 C 
BRANCH  22  23
ATOM     23  C   UNL     1      11.977  43.796 151.896  1.00  0.00     0.000 C 
BRANCH  23  24
ATOM     24  C   UNL     1      12.653  43.081 150.712  1.00  0.00    -0.000 C 
BRANCH  24  25
ATOM     25  C   UNL     1      11.725  42.178 149.874  1.00  0.00    -0.000 C 
BRANCH  25  26
ATOM     26  C   UNL     1      11.799  40.675 150.204  1.00  0.00    -0.000 C 
BRANCH  26  27
ATOM     27  C   UNL     1      11.776  40.341 151.709  1.00  0.00    -0.000 C 
BRANCH  27  28
ATOM     28  C   UNL     1      10.381  40.022 152.281  1.00  0.00    -0.000 C 
BRANCH  28  29
ATOM     29  C   UNL     1       9.204  40.306 151.325  1.00  0.00    -0.000 C 
BRANCH  29  30
ATOM     30  C   UNL     1       8.424  41.604 151.617  1.00  0.00    -0.000 C 
BRANCH  30  31
ATOM     31  C   UNL     1       6.948  41.399 151.999  1.00  0.00    -0.003 C 
ATOM     32  C   UNL     1       6.736  41.253 153.506  1.00  0.00     0.004 C 
ENDBRANCH  30  31
ENDBRANCH  29  30
ENDBRANCH  28  29
ENDBRANCH  27  28
ENDBRANCH  26  27
ENDBRANCH  25  26
ENDBRANCH  24  25
ENDBRANCH  23  24
ENDBRANCH  22  23
ENDBRANCH  21  22
ENDBRANCH  20  21
ENDBRANCH  19  20
ENDBRANCH  18  19
ENDBRANCH   1  18
TORSDOF 28
ENDMDL
MODEL 6
REMARK VINA RESULT:    -3.080      2.194      5.846
REMARK INTER + INTRA:         -13.742
REMARK INTER:                  -7.361
REMARK INTRA:                  -6.381
REMARK UNBOUND:                -5.619
REMARK SMILES CCCCCCCCCCCCCCCCCCCCCCCCCCCCCC(=O)[O-]
REMARK SMILES IDX 16 1 17 2 18 3 19 4 20 5 21 6 22 7 23 8 24 9 25 10 26 11
REMARK SMILES IDX 27 12 28 13 29 14 30 15 31 16 32 17 15 18 14 19 13 20 12 21
REMARK SMILES IDX 11 22 10 23 9 24 8 25 7 26 6 27 5 28 4 29 3 30 2 31 1 32
REMARK H PARENT
REMARK Flexibility Score: inf
ROOT
ATOM      1  C   UNL     1      11.144  43.424 154.137  1.00  0.00     0.000 C 
ENDROOT
BRANCH   1   2
ATOM      2  C   UNL     1      10.533  42.606 155.291  1.00  0.00     0.000 C 
BRANCH   2   3
ATOM      3  C   UNL     1       9.239  43.229 155.845  1.00  0.00     0.000 C 
BRANCH   3   4
ATOM      4  C   UNL     1       8.899  44.587 155.201  1.00  0.00     0.000 C 
BRANCH   4   5
ATOM      5  C   UNL     1       8.734  45.765 156.184  1.00  0.00     0.000 C 
BRANCH   5   6
ATOM      6  C   UNL     1       9.753  46.905 156.016  1.00  0.00     0.000 C 
BRANCH   6   7
ATOM      7  C   UNL     1      10.169  47.120 154.551  1.00  0.00     0.000 C 
BRANCH   7   8
ATOM      8  C   UNL     1       9.803  48.520 154.036  1.00  0.00     0.000 C 
BRANCH   8   9
ATOM      9  C   UNL     1       8.678  48.486 152.986  1.00  0.00     0.000 C 
BRANCH   9  10
ATOM     10  C   UNL     1       7.310  48.115 153.585  1.00  0.00     0.000 C 
BRANCH  10  11
ATOM     11  C   UNL     1       6.378  47.334 152.641  1.00  0.00     0.000 C 
BRANCH  11  12
ATOM     12  C   UNL     1       6.083  45.910 153.132  1.00  0.00     0.000 C 
BRANCH  12  13
ATOM     13  C   UNL     1       5.472  45.928 154.539  1.00  0.00     0.006 C 
BRANCH  13  14
ATOM     14  C   UNL     1       4.634  44.671 154.792  1.00  0.00     0.053 C 
BRANCH  14  15
ATOM     15  C   UNL     1       5.450  43.615 155.474  1.00  0.00     0.041 C 
ATOM     16  O   UNL     1       5.753  43.738 156.691  1.00  0.00    -0.550 OA
ATOM     17  O   UNL     1       5.891  42.505 154.763  1.00  0.00    -0.550 OA
ENDBRANCH  14  15
ENDBRANCH  13  14
ENDBRANCH  12  13
ENDBRANCH  11  12
ENDBRANCH  10  11
ENDBRANCH   9  10
ENDBRANCH   8   9
ENDBRANCH   7   8
ENDBRANCH   6   7
ENDBRANCH   5   6
ENDBRANCH   4   5
ENDBRANCH   3   4
ENDBRANCH   2   3
ENDBRANCH   1   2
BRANCH   1  18
ATOM     18  C   UNL     1      12.321  42.754 153.404  1.00  0.00     0.000 C 
BRANCH  18  19
ATOM     19  C   UNL     1      12.398  43.141 151.919  1.00  0.00     0.000 C 
BRANCH  19  20
ATOM     20  C   UNL     1      12.032  41.980 150.979  1.00  0.00     0.000 C 
BRANCH  20  21
ATOM     21  C   UNL     1      11.873  40.604 151.657  1.00  0.00     0.000 C 
BRANCH  21  22
ATOM     22  C   UNL     1      10.453  40.011 151.622  1.00  0.00     0.000 C 
BRANCH  22  23
ATOM     23  C   UNL     1       9.740  40.087 152.983  1.00  0.00     0.000 C 
BRANCH  23  24
ATOM     24  C   UNL     1       8.326  40.689 152.886  1.00  0.00    -0.000 C 
BRANCH  24  25
ATOM     25  C   UNL     1       8.098  41.637 151.691  1.00  0.00    -0.000 C 
BRANCH  25  26
ATOM     26  C   UNL     1       8.369  43.127 151.975  1.00  0.00    -0.000 C 
BRANCH  26  27
ATOM     27  C   UNL     1       8.869  43.937 150.762  1.00  0.00    -0.000 C 
BRANCH  27  28
ATOM     28  C   UNL     1       9.047  45.447 151.019  1.00  0.00    -0.000 C 
BRANCH  28  29
ATOM     29  C   UNL     1      10.436  46.010 150.659  1.00  0.00    -0.000 C 
BRANCH  29  30
ATOM     30  C   UNL     1      11.071  45.419 149.383  1.00  0.00    -0.000 C 
BRANCH  30  31
ATOM     31  C   UNL     1      12.273  46.207 148.835  1.00  0.00    -0.003 C 
ATOM     32  C   UNL     1      11.928  47.041 147.602  1.00  0.00     0.004 C 
ENDBRANCH  30  31
ENDBRANCH  29  30
ENDBRANCH  28  29
ENDBRANCH  27  28
ENDBRANCH  26  27
ENDBRANCH  25  26
ENDBRANCH  24  25
ENDBRANCH  23  24
ENDBRANCH  22  23
ENDBRANCH  21  22
ENDBRANCH  20  21
ENDBRANCH  19  20
ENDBRANCH  18  19
ENDBRANCH   1  18
TORSDOF 28
ENDMDL
MODEL 7
REMARK VINA RESULT:    -3.056      1.406      4.185
REMARK INTER + INTRA:         -13.677
REMARK INTER:                  -7.580
REMARK INTRA:                  -6.096
REMARK UNBOUND:                -5.619
REMARK SMILES CCCCCCCCCCCCCCCCCCCCCCCCCCCCCC(=O)[O-]
REMARK SMILES IDX 16 1 17 2 18 3 19 4 20 5 21 6 22 7 23 8 24 9 25 10 26 11
REMARK SMILES IDX 27 12 28 13 29 14 30 15 31 16 32 17 15 18 14 19 13 20 12 21
REMARK SMILES IDX 11 22 10 23 9 24 8 25 7 26 6 27 5 28 4 29 3 30 2 31 1 32
REMARK H PARENT
REMARK Flexibility Score: inf
ROOT
ATOM      1  C   UNL     1      11.598  42.017 150.037  1.00  0.00     0.000 C 
ENDROOT
BRANCH   1   2
ATOM      2  C   UNL     1      12.441  42.962 150.916  1.00  0.00     0.000 C 
BRANCH   2   3
ATOM      3  C   UNL     1      11.702  43.415 152.186  1.00  0.00     0.000 C 
BRANCH   3   4
ATOM      4  C   UNL     1      12.305  42.828 153.477  1.00  0.00     0.000 C 
BRANCH   4   5
ATOM      5  C   UNL     1      11.367  42.816 154.703  1.00  0.00     0.000 C 
BRANCH   5   6
ATOM      6  C   UNL     1      10.129  43.722 154.587  1.00  0.00     0.000 C 
BRANCH   6   7
ATOM      7  C   UNL     1       9.125  43.506 155.731  1.00  0.00     0.000 C 
BRANCH   7   8
ATOM      8  C   UNL     1       8.194  44.712 155.931  1.00  0.00     0.000 C 
BRANCH   8   9
ATOM      9  C   UNL     1       6.758  44.435 155.450  1.00  0.00     0.000 C 
BRANCH   9  10
ATOM     10  C   UNL     1       6.326  42.973 155.663  1.00  0.00     0.000 C 
BRANCH  10  11
ATOM     11  C   UNL     1       5.429  42.394 154.553  1.00  0.00     0.000 C 
BRANCH  11  12
ATOM     12  C   UNL     1       5.031  40.932 154.805  1.00  0.00     0.000 C 
BRANCH  12  13
ATOM     13  C   UNL     1       5.181  40.093 153.530  1.00  0.00     0.006 C 
BRANCH  13  14
ATOM     14  C   UNL     1       3.813  39.671 152.985  1.00  0.00     0.053 C 
BRANCH  14  15
ATOM     15  C   UNL     1       3.004  38.990 154.046  1.00  0.00     0.041 C 
ATOM     16  O   UNL     1       1.859  39.424 154.346  1.00  0.00    -0.550 OA
ATOM     17  O   UNL     1       3.519  37.886 154.716  1.00  0.00    -0.550 OA
ENDBRANCH  14  15
ENDBRANCH  13  14
ENDBRANCH  12  13
ENDBRANCH  11  12
ENDBRANCH  10  11
ENDBRANCH   9  10
ENDBRANCH   8   9
ENDBRANCH   7   8
ENDBRANCH   6   7
ENDBRANCH   5   6
ENDBRANCH   4   5
ENDBRANCH   3   4
ENDBRANCH   2   3
ENDBRANCH   1   2
BRANCH   1  18
ATOM     18  C   UNL     1      12.065  40.551 150.007  1.00  0.00     0.000 C 
BRANCH  18  19
ATOM     19  C   UNL     1      11.757  39.799 151.312  1.00  0.00     0.000 C 
BRANCH  19  20
ATOM     20  C   UNL     1      10.249  39.610 151.551  1.00  0.00     0.000 C 
BRANCH  20  21
ATOM     21  C   UNL     1       9.718  40.156 152.893  1.00  0.00     0.000 C 
BRANCH  21  22
ATOM     22  C   UNL     1       8.509  41.103 152.788  1.00  0.00     0.000 C 
BRANCH  22  23
ATOM     23  C   UNL     1       8.109  41.402 151.333  1.00  0.00     0.000 C 
BRANCH  23  24
ATOM     24  C   UNL     1       8.145  42.905 150.999  1.00  0.00    -0.000 C 
BRANCH  24  25
ATOM     25  C   UNL     1       7.543  43.831 152.076  1.00  0.00    -0.000 C 
BRANCH  25  26
ATOM     26  C   UNL     1       7.522  45.329 151.714  1.00  0.00    -0.000 C 
BRANCH  26  27
ATOM     27  C   UNL     1       8.654  46.163 152.347  1.00  0.00    -0.000 C 
BRANCH  27  28
ATOM     28  C   UNL     1       9.877  46.392 151.437  1.00  0.00    -0.000 C 
BRANCH  28  29
ATOM     29  C   UNL     1       9.563  46.460 149.928  1.00  0.00    -0.000 C 
BRANCH  29  30
ATOM     30  C   UNL     1      10.167  45.320 149.083  1.00  0.00    -0.000 C 
BRANCH  30  31
ATOM     31  C   UNL     1      11.366  45.730 148.209  1.00  0.00    -0.003 C 
ATOM     32  C   UNL     1      12.631  46.002 149.021  1.00  0.00     0.004 C 
ENDBRANCH  30  31
ENDBRANCH  29  30
ENDBRANCH  28  29
ENDBRANCH  27  28
ENDBRANCH  26  27
ENDBRANCH  25  26
ENDBRANCH  24  25
ENDBRANCH  23  24
ENDBRANCH  22  23
ENDBRANCH  21  22
ENDBRANCH  20  21
ENDBRANCH  19  20
ENDBRANCH  18  19
ENDBRANCH   1  18
TORSDOF 28
ENDMDL
MODEL 8
REMARK VINA RESULT:    -3.014      3.480      6.658
REMARK INTER + INTRA:         -13.567
REMARK INTER:                  -7.209
REMARK INTRA:                  -6.359
REMARK UNBOUND:                -5.619
REMARK SMILES CCCCCCCCCCCCCCCCCCCCCCCCCCCCCC(=O)[O-]
REMARK SMILES IDX 16 1 17 2 18 3 19 4 20 5 21 6 22 7 23 8 24 9 25 10 26 11
REMARK SMILES IDX 27 12 28 13 29 14 30 15 31 16 32 17 15 18 14 19 13 20 12 21
REMARK SMILES IDX 11 22 10 23 9 24 8 25 7 26 6 27 5 28 4 29 3 30 2 31 1 32
REMARK H PARENT
REMARK Flexibility Score: inf
ROOT
ATOM      1  C   UNL     1      10.833  40.345 152.267  1.00  0.00     0.000 C 
ENDROOT
BRANCH   1   2
ATOM      2  C   UNL     1       9.404  40.504 151.712  1.00  0.00     0.000 C 
BRANCH   2   3
ATOM      3  C   UNL     1       8.325  40.404 152.803  1.00  0.00     0.000 C 
BRANCH   3   4
ATOM      4  C   UNL     1       7.598  41.739 153.057  1.00  0.00     0.000 C 
BRANCH   4   5
ATOM      5  C   UNL     1       8.139  42.951 152.270  1.00  0.00     0.000 C 
BRANCH   5   6
ATOM      6  C   UNL     1       7.212  43.478 151.162  1.00  0.00     0.000 C 
BRANCH   6   7
ATOM      7  C   UNL     1       7.948  43.719 149.834  1.00  0.00     0.000 C 
BRANCH   7   8
ATOM      8  C   UNL     1       8.868  44.947 149.887  1.00  0.00     0.000 C 
BRANCH   8   9
ATOM      9  C   UNL     1       8.084  46.270 149.966  1.00  0.00     0.000 C 
BRANCH   9  10
ATOM     10  C   UNL     1       8.506  47.147 151.157  1.00  0.00     0.000 C 
BRANCH  10  11
ATOM     11  C   UNL     1       9.629  46.558 152.030  1.00  0.00     0.000 C 
BRANCH  11  12
ATOM     12  C   UNL     1       9.208  46.356 153.494  1.00  0.00     0.000 C 
BRANCH  12  13
ATOM     13  C   UNL     1      10.284  46.879 154.454  1.00  0.00     0.006 C 
BRANCH  13  14
ATOM     14  C   UNL     1       9.707  47.930 155.407  1.00  0.00     0.053 C 
BRANCH  14  15
ATOM     15  C   UNL     1       9.454  49.220 154.688  1.00  0.00     0.041 C 
ATOM     16  O   UNL     1       8.276  49.643 154.541  1.00  0.00    -0.550 OA
ATOM     17  O   UNL     1      10.517  49.947 154.163  1.00  0.00    -0.550 OA
ENDBRANCH  14  15
ENDBRANCH  13  14
ENDBRANCH  12  13
ENDBRANCH  11  12
ENDBRANCH  10  11
ENDBRANCH   9  10
ENDBRANCH   8   9
ENDBRANCH   7   8
ENDBRANCH   6   7
ENDBRANCH   5   6
ENDBRANCH   4   5
ENDBRANCH   3   4
ENDBRANCH   2   3
ENDBRANCH   1   2
BRANCH   1  18
ATOM     18  C   UNL     1      11.960  40.837 151.341  1.00  0.00     0.000 C 
BRANCH  18  19
ATOM     19  C   UNL     1      11.641  42.185 150.675  1.00  0.00     0.000 C 
BRANCH  19  20
ATOM     20  C   UNL     1      11.560  43.345 151.683  1.00  0.00     0.000 C 
BRANCH  20  21
ATOM     21  C   UNL     1      12.739  43.446 152.671  1.00  0.00     0.000 C 
BRANCH  21  22
ATOM     22  C   UNL     1      12.400  43.128 154.139  1.00  0.00     0.000 C 
BRANCH  22  23
ATOM     23  C   UNL     1      10.903  43.287 154.454  1.00  0.00     0.000 C 
BRANCH  23  24
ATOM     24  C   UNL     1      10.427  42.355 155.583  1.00  0.00    -0.000 C 
BRANCH  24  25
ATOM     25  C   UNL     1       9.111  42.774 156.270  1.00  0.00    -0.000 C 
BRANCH  25  26
ATOM     26  C   UNL     1       8.944  44.290 156.496  1.00  0.00    -0.000 C 
BRANCH  26  27
ATOM     27  C   UNL     1       7.486  44.762 156.660  1.00  0.00    -0.000 C 
BRANCH  27  28
ATOM     28  C   UNL     1       6.495  44.180 155.633  1.00  0.00    -0.000 C 
BRANCH  28  29
ATOM     29  C   UNL     1       5.861  45.213 154.680  1.00  0.00    -0.000 C 
BRANCH  29  30
ATOM     30  C   UNL     1       4.517  44.786 154.054  1.00  0.00    -0.000 C 
BRANCH  30  31
ATOM     31  C   UNL     1       4.423  43.296 153.682  1.00  0.00    -0.003 C 
ATOM     32  C   UNL     1       3.234  42.592 154.336  1.00  0.00     0.004 C 
ENDBRANCH  30  31
ENDBRANCH  29  30
ENDBRANCH  28  29
ENDBRANCH  27  28
ENDBRANCH  26  27
ENDBRANCH  25  26
ENDBRANCH  24  25
ENDBRANCH  23  24
ENDBRANCH  22  23
ENDBRANCH  21  22
ENDBRANCH  20  21
ENDBRANCH  19  20
ENDBRANCH  18  19
ENDBRANCH   1  18
TORSDOF 28
ENDMDL
MODEL 9
REMARK VINA RESULT:    -3.007      1.628      5.903
REMARK INTER + INTRA:         -13.549
REMARK INTER:                  -6.816
REMARK INTRA:                  -6.733
REMARK UNBOUND:                -5.619
REMARK SMILES CCCCCCCCCCCCCCCCCCCCCCCCCCCCCC(=O)[O-]
REMARK SMILES IDX 16 1 17 2 18 3 19 4 20 5 21 6 22 7 23 8 24 9 25 10 26 11
REMARK SMILES IDX 27 12 28 13 29 14 30 15 31 16 32 17 15 18 14 19 13 20 12 21
REMARK SMILES IDX 11 22 10 23 9 24 8 25 7 26 6 27 5 28 4 29 3 30 2 31 1 32
REMARK H PARENT
REMARK Flexibility Score: inf
ROOT
ATOM      1  C   UNL     1       8.818  43.120 155.926  1.00  0.00     0.000 C 
ENDROOT
BRANCH   1   2
ATOM      2  C   UNL     1       8.726  44.145 157.073  1.00  0.00     0.000 C 
BRANCH   2   3
ATOM      3  C   UNL     1       7.877  45.375 156.708  1.00  0.00     0.000 C 
BRANCH   3   4
ATOM      4  C   UNL     1       8.718  46.556 156.186  1.00  0.00     0.000 C 
BRANCH   4   5
ATOM      5  C   UNL     1       8.011  47.477 155.170  1.00  0.00     0.000 C 
BRANCH   5   6
ATOM      6  C   UNL     1       8.829  47.811 153.911  1.00  0.00     0.000 C 
BRANCH   6   7
ATOM      7  C   UNL     1       9.756  46.662 153.481  1.00  0.00     0.000 C 
BRANCH   7   8
ATOM      8  C   UNL     1       9.807  46.487 151.956  1.00  0.00     0.000 C 
BRANCH   8   9
ATOM      9  C   UNL     1       8.983  45.278 151.474  1.00  0.00     0.000 C 
BRANCH   9  10
ATOM     10  C   UNL     1       8.176  44.614 152.604  1.00  0.00     0.000 C 
BRANCH  10  11
ATOM     11  C   UNL     1       6.650  44.628 152.405  1.00  0.00     0.000 C 
BRANCH  11  12
ATOM     12  C   UNL     1       5.873  44.643 153.730  1.00  0.00     0.000 C 
BRANCH  12  13
ATOM     13  C   UNL     1       5.638  43.218 154.248  1.00  0.00     0.006 C 
BRANCH  13  14
ATOM     14  C   UNL     1       4.369  42.613 153.640  1.00  0.00     0.053 C 
BRANCH  14  15
ATOM     15  C   UNL     1       4.020  41.322 154.315  1.00  0.00     0.041 C 
ATOM     16  O   UNL     1       2.927  40.749 154.059  1.00  0.00    -0.550 OA
ATOM     17  O   UNL     1       4.892  40.758 155.239  1.00  0.00    -0.550 OA
ENDBRANCH  14  15
ENDBRANCH  13  14
ENDBRANCH  12  13
ENDBRANCH  11  12
ENDBRANCH  10  11
ENDBRANCH   9  10
ENDBRANCH   8   9
ENDBRANCH   7   8
ENDBRANCH   6   7
ENDBRANCH   5   6
ENDBRANCH   4   5
ENDBRANCH   3   4
ENDBRANCH   2   3
ENDBRANCH   1   2
BRANCH   1  18
ATOM     18  C   UNL     1      10.239  42.639 155.581  1.00  0.00     0.000 C 
BRANCH  18  19
ATOM     19  C   UNL     1      10.906  43.486 154.485  1.00  0.00     0.000 C 
BRANCH  19  20
ATOM     20  C   UNL     1      12.036  42.738 153.757  1.00  0.00     0.000 C 
BRANCH  20  21
ATOM     21  C   UNL     1      12.223  43.108 152.271  1.00  0.00     0.000 C 
BRANCH  21  22
ATOM     22  C   UNL     1      11.616  42.116 151.262  1.00  0.00     0.000 C 
BRANCH  22  23
ATOM     23  C   UNL     1      11.798  40.648 151.684  1.00  0.00     0.000 C 
BRANCH  23  24
ATOM     24  C   UNL     1      10.472  39.867 151.719  1.00  0.00    -0.000 C 
BRANCH  24  25
ATOM     25  C   UNL     1       9.616  40.081 152.984  1.00  0.00    -0.000 C 
BRANCH  25  26
ATOM     26  C   UNL     1       8.443  41.068 152.823  1.00  0.00    -0.000 C 
BRANCH  26  27
ATOM     27  C   UNL     1       7.148  40.447 152.264  1.00  0.00    -0.000 C 
BRANCH  27  28
ATOM     28  C   UNL     1       6.646  41.070 150.947  1.00  0.00    -0.000 C 
BRANCH  28  29
ATOM     29  C   UNL     1       7.711  41.846 150.146  1.00  0.00    -0.000 C 
BRANCH  29  30
ATOM     30  C   UNL     1       8.305  41.086 148.942  1.00  0.00    -0.000 C 
BRANCH  30  31
ATOM     31  C   UNL     1       9.507  41.776 148.272  1.00  0.00    -0.003 C 
ATOM     32  C   UNL     1       9.484  43.296 148.426  1.00  0.00     0.004 C 
ENDBRANCH  30  31
ENDBRANCH  29  30
ENDBRANCH  28  29
ENDBRANCH  27  28
ENDBRANCH  26  27
ENDBRANCH  25  26
ENDBRANCH  24  25
ENDBRANCH  23  24
ENDBRANCH  22  23
ENDBRANCH  21  22
ENDBRANCH  20  21
ENDBRANCH  19  20
ENDBRANCH  18  19
ENDBRANCH   1  18
TORSDOF 28
ENDMDL
