MODEL 1
REMARK VINA RESULT:    -5.086      0.000      0.000
REMARK INTER + INTRA:         -17.409
REMARK INTER:                 -12.816
REMARK INTRA:                  -4.593
REMARK UNBOUND:                -4.593
REMARK SMILES CCCCCCCCCCCCCCCCCCCCCCCCCCCC(=O)[O-]
REMARK SMILES IDX 15 1 16 2 17 3 18 4 19 5 20 6 21 7 22 8 23 9 24 10 25 11
REMARK SMILES IDX 26 12 27 13 28 14 29 15 30 16 14 17 13 18 12 19 11 20 10 21
REMARK SMILES IDX 9 22 8 23 7 24 6 25 5 26 4 27 3 28 2 29 1 30
REMARK H PARENT
REMARK Flexibility Score: inf
ROOT
ATOM      1  C   UNL     1      14.732 -33.072  22.140  1.00  0.00     0.000 C 
ENDROOT
BRANCH   1   2
ATOM      2  C   UNL     1      15.388 -34.381  21.662  1.00  0.00     0.000 C 
BRANCH   2   3
ATOM      3  C   UNL     1      15.456 -34.532  20.127  1.00  0.00     0.000 C 
BRANCH   3   4
ATOM      4  C   UNL     1      16.231 -35.782  19.669  1.00  0.00     0.000 C 
BRANCH   4   5
ATOM      5  C   UNL     1      17.747 -35.546  19.531  1.00  0.00     0.000 C 
BRANCH   5   6
ATOM      6  C   UNL     1      18.193 -34.079  19.728  1.00  0.00     0.000 C 
BRANCH   6   7
ATOM      7  C   UNL     1      19.104 -33.808  20.945  1.00  0.00     0.000 C 
BRANCH   7   8
ATOM      8  C   UNL     1      19.367 -32.327  21.274  1.00  0.00     0.000 C 
BRANCH   8   9
ATOM      9  C   UNL     1      20.481 -32.127  22.311  1.00  0.00     0.000 C 
BRANCH   9  10
ATOM     10  C   UNL     1      21.387 -30.948  21.924  1.00  0.00     0.000 C 
BRANCH  10  11
ATOM     11  C   UNL     1      20.698 -29.942  20.984  1.00  0.00     0.000 C 
BRANCH  11  12
ATOM     12  C   UNL     1      20.174 -28.664  21.667  1.00  0.00     0.006 C 
BRANCH  12  13
ATOM     13  C   UNL     1      19.760 -27.548  20.694  1.00  0.00     0.053 C 
BRANCH  13  14
ATOM     14  C   UNL     1      20.861 -26.557  20.474  1.00  0.00     0.041 C 
ATOM     15  O   UNL     1      20.591 -25.374  20.139  1.00  0.00    -0.550 OA
ATOM     16  O   UNL     1      22.185 -26.940  20.640  1.00  0.00    -0.550 OA
ENDBRANCH  13  14
ENDBRANCH  12  13
ENDBRANCH  11  12
ENDBRANCH  10  11
ENDBRANCH   9  10
ENDBRANCH   8   9
ENDBRANCH   7   8
ENDBRANCH   6   7
ENDBRANCH   5   6
ENDBRANCH   4   5
ENDBRANCH   3   4
ENDBRANCH   2   3
ENDBRANCH   1   2
BRANCH   1  17
ATOM     17  C   UNL     1      13.881 -32.340  21.088  1.00  0.00     0.000 C 
BRANCH  17  18
ATOM     18  C   UNL     1      13.237 -31.023  21.568  1.00  0.00     0.000 C 
BRANCH  18  19
ATOM     19  C   UNL     1      12.755 -31.024  23.031  1.00  0.00     0.000 C 
BRANCH  19  20
ATOM     20  C   UNL     1      13.417 -29.969  23.938  1.00  0.00     0.000 C 
BRANCH  20  21
ATOM     21  C   UNL     1      13.594 -28.609  23.238  1.00  0.00     0.000 C 
BRANCH  21  22
ATOM     22  C   UNL     1      15.059 -28.135  23.242  1.00  0.00    -0.000 C 
BRANCH  22  23
ATOM     23  C   UNL     1      15.827 -28.471  21.945  1.00  0.00    -0.000 C 
BRANCH  23  24
ATOM     24  C   UNL     1      16.650 -29.772  22.020  1.00  0.00    -0.000 C 
BRANCH  24  25
ATOM     25  C   UNL     1      17.350 -29.990  23.377  1.00  0.00    -0.000 C 
BRANCH  25  26
ATOM     26  C   UNL     1      16.924 -31.303  24.050  1.00  0.00    -0.000 C 
BRANCH  26  27
ATOM     27  C   UNL     1      18.042 -31.846  24.949  1.00  0.00    -0.000 C 
BRANCH  27  28
ATOM     28  C   UNL     1      18.121 -33.378  24.865  1.00  0.00    -0.000 C 
BRANCH  28  29
ATOM     29  C   UNL     1      16.803 -34.060  25.263  1.00  0.00    -0.003 C 
ATOM     30  C   UNL     1      16.909 -35.585  25.280  1.00  0.00     0.004 C 
ENDBRANCH  28  29
ENDBRANCH  27  28
ENDBRANCH  26  27
ENDBRANCH  25  26
ENDBRANCH  24  25
ENDBRANCH  23  24
ENDBRANCH  22  23
ENDBRANCH  21  22
ENDBRANCH  20  21
ENDBRANCH  19  20
ENDBRANCH  18  19
ENDBRANCH  17  18
ENDBRANCH   1  17
TORSDOF 26
ENDMDL
MODEL 2
REMARK VINA RESULT:    -5.038      1.221      4.082
REMARK INTER + INTRA:         -17.288
REMARK INTER:                 -12.740
REMARK INTRA:                  -4.548
REMARK UNBOUND:                -4.593
REMARK SMILES CCCCCCCCCCCCCCCCCCCCCCCCCCCC(=O)[O-]
REMARK SMILES IDX 15 1 16 2 17 3 18 4 19 5 20 6 21 7 22 8 23 9 24 10 25 11
REMARK SMILES IDX 26 12 27 13 28 14 29 15 30 16 14 17 13 18 12 19 11 20 10 21
REMARK SMILES IDX 9 22 8 23 7 24 6 25 5 26 4 27 3 28 2 29 1 30
REMARK H PARENT
REMARK Flexibility Score: inf
ROOT
ATOM      1  C   UNL     1      13.692 -29.684  23.021  1.00  0.00     0.000 C 
ENDROOT
BRANCH   1   2
ATOM      2  C   UNL     1      15.195 -29.407  23.215  1.00  0.00     0.000 C 
BRANCH   2   3
ATOM      3  C   UNL     1      16.046 -29.600  21.941  1.00  0.00     0.000 C 
BRANCH   3   4
ATOM      4  C   UNL     1      17.204 -30.598  22.125  1.00  0.00     0.000 C 
BRANCH   4   5
ATOM      5  C   UNL     1      17.903 -30.973  20.805  1.00  0.00     0.000 C 
BRANCH   5   6
ATOM      6  C   UNL     1      18.962 -32.092  20.929  1.00  0.00     0.000 C 
BRANCH   6   7
ATOM      7  C   UNL     1      20.291 -31.693  21.606  1.00  0.00     0.000 C 
BRANCH   7   8
ATOM      8  C   UNL     1      21.027 -30.490  20.988  1.00  0.00     0.000 C 
BRANCH   8   9
ATOM      9  C   UNL     1      21.283 -29.357  21.993  1.00  0.00     0.000 C 
BRANCH   9  10
ATOM     10  C   UNL     1      20.149 -28.322  21.956  1.00  0.00     0.000 C 
BRANCH  10  11
ATOM     11  C   UNL     1      20.032 -27.606  20.599  1.00  0.00     0.000 C 
BRANCH  11  12
ATOM     12  C   UNL     1      20.230 -26.079  20.646  1.00  0.00     0.006 C 
BRANCH  12  13
ATOM     13  C   UNL     1      21.599 -25.599  20.137  1.00  0.00     0.053 C 
BRANCH  13  14
ATOM     14  C   UNL     1      22.714 -26.021  21.044  1.00  0.00     0.041 C 
ATOM     15  O   UNL     1      22.822 -25.518  22.193  1.00  0.00    -0.550 OA
ATOM     16  O   UNL     1      23.636 -26.968  20.618  1.00  0.00    -0.550 OA
ENDBRANCH  13  14
ENDBRANCH  12  13
ENDBRANCH  11  12
ENDBRANCH  10  11
ENDBRANCH   9  10
ENDBRANCH   8   9
ENDBRANCH   7   8
ENDBRANCH   6   7
ENDBRANCH   5   6
ENDBRANCH   4   5
ENDBRANCH   3   4
ENDBRANCH   2   3
ENDBRANCH   1   2
BRANCH   1  17
ATOM     17  C   UNL     1      13.331 -31.136  22.664  1.00  0.00     0.000 C 
BRANCH  17  18
ATOM     18  C   UNL     1      13.018 -31.385  21.175  1.00  0.00     0.000 C 
BRANCH  18  19
ATOM     19  C   UNL     1      13.868 -32.479  20.500  1.00  0.00     0.000 C 
BRANCH  19  20
ATOM     20  C   UNL     1      14.835 -33.225  21.438  1.00  0.00     0.000 C 
BRANCH  20  21
ATOM     21  C   UNL     1      15.198 -34.631  20.925  1.00  0.00     0.000 C 
BRANCH  21  22
ATOM     22  C   UNL     1      16.262 -34.593  19.814  1.00  0.00    -0.000 C 
BRANCH  22  23
ATOM     23  C   UNL     1      17.632 -35.163  20.242  1.00  0.00    -0.000 C 
BRANCH  23  24
ATOM     24  C   UNL     1      17.611 -35.900  21.595  1.00  0.00    -0.000 C 
BRANCH  24  25
ATOM     25  C   UNL     1      18.319 -35.137  22.732  1.00  0.00    -0.000 C 
BRANCH  25  26
ATOM     26  C   UNL     1      17.760 -35.501  24.116  1.00  0.00    -0.000 C 
BRANCH  26  27
ATOM     27  C   UNL     1      16.569 -34.604  24.479  1.00  0.00    -0.000 C 
BRANCH  27  28
ATOM     28  C   UNL     1      16.981 -33.125  24.504  1.00  0.00    -0.000 C 
BRANCH  28  29
ATOM     29  C   UNL     1      18.065 -32.831  25.553  1.00  0.00    -0.003 C 
ATOM     30  C   UNL     1      18.691 -31.447  25.383  1.00  0.00     0.004 C 
ENDBRANCH  28  29
ENDBRANCH  27  28
ENDBRANCH  26  27
ENDBRANCH  25  26
ENDBRANCH  24  25
ENDBRANCH  23  24
ENDBRANCH  22  23
ENDBRANCH  21  22
ENDBRANCH  20  21
ENDBRANCH  19  20
ENDBRANCH  18  19
ENDBRANCH  17  18
ENDBRANCH   1  17
TORSDOF 26
ENDMDL
MODEL 3
REMARK VINA RESULT:    -5.025      2.786      6.150
REMARK INTER + INTRA:         -17.255
REMARK INTER:                 -11.837
REMARK INTRA:                  -5.418
REMARK UNBOUND:                -4.593
REMARK SMILES CCCCCCCCCCCCCCCCCCCCCCCCCCCC(=O)[O-]
REMARK SMILES IDX 15 1 16 2 17 3 18 4 19 5 20 6 21 7 22 8 23 9 24 10 25 11
REMARK SMILES IDX 26 12 27 13 28 14 29 15 30 16 14 17 13 18 12 19 11 20 10 21
REMARK SMILES IDX 9 22 8 23 7 24 6 25 5 26 4 27 3 28 2 29 1 30
REMARK H PARENT
REMARK Flexibility Score: inf
ROOT
ATOM      1  C   UNL     1      18.213 -32.747  20.307  1.00  0.00     0.000 C 
ENDROOT
BRANCH   1   2
ATOM      2  C   UNL     1      18.060 -34.033  19.472  1.00  0.00     0.000 C 
BRANCH   2   3
ATOM      3  C   UNL     1      16.610 -34.553  19.367  1.00  0.00     0.000 C 
BRANCH   3   4
ATOM      4  C   UNL     1      16.467 -36.043  19.727  1.00  0.00     0.000 C 
BRANCH   4   5
ATOM      5  C   UNL     1      17.817 -36.752  19.947  1.00  0.00     0.000 C 
BRANCH   5   6
ATOM      6  C   UNL     1      18.064 -37.238  21.393  1.00  0.00     0.000 C 
BRANCH   6   7
ATOM      7  C   UNL     1      19.156 -36.484  22.182  1.00  0.00     0.000 C 
BRANCH   7   8
ATOM      8  C   UNL     1      18.658 -35.561  23.309  1.00  0.00     0.000 C 
BRANCH   8   9
ATOM      9  C   UNL     1      17.233 -35.037  23.076  1.00  0.00     0.000 C 
BRANCH   9  10
ATOM     10  C   UNL     1      16.524 -34.761  24.411  1.00  0.00     0.000 C 
BRANCH  10  11
ATOM     11  C   UNL     1      15.393 -33.725  24.288  1.00  0.00     0.000 C 
BRANCH  11  12
ATOM     12  C   UNL     1      15.029 -33.321  22.846  1.00  0.00     0.006 C 
BRANCH  12  13
ATOM     13  C   UNL     1      14.128 -32.081  22.741  1.00  0.00     0.053 C 
BRANCH  13  14
ATOM     14  C   UNL     1      13.960 -31.626  21.324  1.00  0.00     0.041 C 
ATOM     15  O   UNL     1      14.170 -30.424  21.014  1.00  0.00    -0.550 OA
ATOM     16  O   UNL     1      13.571 -32.531  20.344  1.00  0.00    -0.550 OA
ENDBRANCH  13  14
ENDBRANCH  12  13
ENDBRANCH  11  12
ENDBRANCH  10  11
ENDBRANCH   9  10
ENDBRANCH   8   9
ENDBRANCH   7   8
ENDBRANCH   6   7
ENDBRANCH   5   6
ENDBRANCH   4   5
ENDBRANCH   3   4
ENDBRANCH   2   3
ENDBRANCH   1   2
BRANCH   1  17
ATOM     17  C   UNL     1      19.425 -32.719  21.254  1.00  0.00     0.000 C 
BRANCH  17  18
ATOM     18  C   UNL     1      20.500 -31.668  20.910  1.00  0.00     0.000 C 
BRANCH  18  19
ATOM     19  C   UNL     1      21.724 -31.653  21.846  1.00  0.00     0.000 C 
BRANCH  19  20
ATOM     20  C   UNL     1      21.431 -32.022  23.311  1.00  0.00     0.000 C 
BRANCH  20  21
ATOM     21  C   UNL     1      21.195 -30.787  24.202  1.00  0.00     0.000 C 
BRANCH  21  22
ATOM     22  C   UNL     1      20.132 -31.042  25.286  1.00  0.00    -0.000 C 
BRANCH  22  23
ATOM     23  C   UNL     1      18.905 -31.832  24.781  1.00  0.00    -0.000 C 
BRANCH  23  24
ATOM     24  C   UNL     1      17.635 -30.977  24.604  1.00  0.00    -0.000 C 
BRANCH  24  25
ATOM     25  C   UNL     1      17.419 -30.474  23.162  1.00  0.00    -0.000 C 
BRANCH  25  26
ATOM     26  C   UNL     1      16.653 -29.143  23.116  1.00  0.00    -0.000 C 
BRANCH  26  27
ATOM     27  C   UNL     1      17.282 -28.183  22.099  1.00  0.00    -0.000 C 
BRANCH  27  28
ATOM     28  C   UNL     1      18.404 -28.875  21.310  1.00  0.00    -0.000 C 
BRANCH  28  29
ATOM     29  C   UNL     1      19.785 -28.261  21.585  1.00  0.00    -0.003 C 
ATOM     30  C   UNL     1      20.003 -26.942  20.842  1.00  0.00     0.004 C 
ENDBRANCH  28  29
ENDBRANCH  27  28
ENDBRANCH  26  27
ENDBRANCH  25  26
ENDBRANCH  24  25
ENDBRANCH  23  24
ENDBRANCH  22  23
ENDBRANCH  21  22
ENDBRANCH  20  21
ENDBRANCH  19  20
ENDBRANCH  18  19
ENDBRANCH  17  18
ENDBRANCH   1  17
TORSDOF 26
ENDMDL
MODEL 4
REMARK VINA RESULT:    -5.006      3.036      6.877
REMARK INTER + INTRA:         -17.209
REMARK INTER:                 -12.567
REMARK INTRA:                  -4.642
REMARK UNBOUND:                -4.593
REMARK SMILES CCCCCCCCCCCCCCCCCCCCCCCCCCCC(=O)[O-]
REMARK SMILES IDX 15 1 16 2 17 3 18 4 19 5 20 6 21 7 22 8 23 9 24 10 25 11
REMARK SMILES IDX 26 12 27 13 28 14 29 15 30 16 14 17 13 18 12 19 11 20 10 21
REMARK SMILES IDX 9 22 8 23 7 24 6 25 5 26 4 27 3 28 2 29 1 30
REMARK H PARENT
REMARK Flexibility Score: inf
ROOT
ATOM      1  C   UNL     1      14.309 -28.944  23.617  1.00  0.00     0.000 C 
ENDROOT
BRANCH   1   2
ATOM      2  C   UNL     1      13.381 -30.025  23.030  1.00  0.00     0.000 C 
BRANCH   2   3
ATOM      3  C   UNL     1      13.585 -31.432  23.633  1.00  0.00     0.000 C 
BRANCH   3   4
ATOM      4  C   UNL     1      14.173 -32.446  22.633  1.00  0.00     0.000 C 
BRANCH   4   5
ATOM      5  C   UNL     1      13.845 -32.117  21.165  1.00  0.00     0.000 C 
BRANCH   5   6
ATOM      6  C   UNL     1      14.163 -33.249  20.162  1.00  0.00     0.000 C 
BRANCH   6   7
ATOM      7  C   UNL     1      15.247 -34.257  20.603  1.00  0.00     0.000 C 
BRANCH   7   8
ATOM      8  C   UNL     1      16.254 -34.681  19.519  1.00  0.00     0.000 C 
BRANCH   8   9
ATOM      9  C   UNL     1      16.875 -36.062  19.777  1.00  0.00     0.000 C 
BRANCH   9  10
ATOM     10  C   UNL     1      18.278 -35.928  20.389  1.00  0.00     0.000 C 
BRANCH  10  11
ATOM     11  C   UNL     1      18.355 -36.450  21.835  1.00  0.00     0.000 C 
BRANCH  11  12
ATOM     12  C   UNL     1      18.441 -35.359  22.921  1.00  0.00     0.006 C 
BRANCH  12  13
ATOM     13  C   UNL     1      17.132 -35.123  23.690  1.00  0.00     0.053 C 
BRANCH  13  14
ATOM     14  C   UNL     1      17.345 -35.113  25.173  1.00  0.00     0.041 C 
ATOM     15  O   UNL     1      16.769 -35.962  25.902  1.00  0.00    -0.550 OA
ATOM     16  O   UNL     1      18.181 -34.165  25.749  1.00  0.00    -0.550 OA
ENDBRANCH  13  14
ENDBRANCH  12  13
ENDBRANCH  11  12
ENDBRANCH  10  11
ENDBRANCH   9  10
ENDBRANCH   8   9
ENDBRANCH   7   8
ENDBRANCH   6   7
ENDBRANCH   5   6
ENDBRANCH   4   5
ENDBRANCH   3   4
ENDBRANCH   2   3
ENDBRANCH   1   2
BRANCH   1  17
ATOM     17  C   UNL     1      15.365 -28.386  22.648  1.00  0.00     0.000 C 
BRANCH  17  18
ATOM     18  C   UNL     1      16.297 -29.441  22.018  1.00  0.00     0.000 C 
BRANCH  18  19
ATOM     19  C   UNL     1      17.196 -30.199  23.014  1.00  0.00     0.000 C 
BRANCH  19  20
ATOM     20  C   UNL     1      17.600 -31.619  22.577  1.00  0.00     0.000 C 
BRANCH  20  21
ATOM     21  C   UNL     1      18.000 -31.696  21.092  1.00  0.00     0.000 C 
BRANCH  21  22
ATOM     22  C   UNL     1      19.421 -32.255  20.896  1.00  0.00    -0.000 C 
BRANCH  22  23
ATOM     23  C   UNL     1      20.529 -31.368  21.504  1.00  0.00    -0.000 C 
BRANCH  23  24
ATOM     24  C   UNL     1      20.602 -29.951  20.902  1.00  0.00    -0.000 C 
BRANCH  24  25
ATOM     25  C   UNL     1      20.329 -28.826  21.921  1.00  0.00    -0.000 C 
BRANCH  25  26
ATOM     26  C   UNL     1      19.510 -27.676  21.315  1.00  0.00    -0.000 C 
BRANCH  26  27
ATOM     27  C   UNL     1      20.373 -26.823  20.377  1.00  0.00    -0.000 C 
BRANCH  27  28
ATOM     28  C   UNL     1      20.624 -25.430  20.973  1.00  0.00    -0.000 C 
BRANCH  28  29
ATOM     29  C   UNL     1      22.119 -25.095  21.083  1.00  0.00    -0.003 C 
ATOM     30  C   UNL     1      23.006 -26.339  21.053  1.00  0.00     0.004 C 
ENDBRANCH  28  29
ENDBRANCH  27  28
ENDBRANCH  26  27
ENDBRANCH  25  26
ENDBRANCH  24  25
ENDBRANCH  23  24
ENDBRANCH  22  23
ENDBRANCH  21  22
ENDBRANCH  20  21
ENDBRANCH  19  20
ENDBRANCH  18  19
ENDBRANCH  17  18
ENDBRANCH   1  17
TORSDOF 26
ENDMDL
MODEL 5
REMARK VINA RESULT:    -4.993      1.309      4.739
REMARK INTER + INTRA:         -17.175
REMARK INTER:                 -12.272
REMARK INTRA:                  -4.904
REMARK UNBOUND:                -4.593
REMARK SMILES CCCCCCCCCCCCCCCCCCCCCCCCCCCC(=O)[O-]
REMARK SMILES IDX 15 1 16 2 17 3 18 4 19 5 20 6 21 7 22 8 23 9 24 10 25 11
REMARK SMILES IDX 26 12 27 13 28 14 29 15 30 16 14 17 13 18 12 19 11 20 10 21
REMARK SMILES IDX 9 22 8 23 7 24 6 25 5 26 4 27 3 28 2 29 1 30
REMARK H PARENT
REMARK Flexibility Score: inf
ROOT
ATOM      1  C   UNL     1      13.558 -31.768  23.622  1.00  0.00     0.000 C 
ENDROOT
BRANCH   1   2
ATOM      2  C   UNL     1      13.337 -30.528  22.734  1.00  0.00     0.000 C 
BRANCH   2   3
ATOM      3  C   UNL     1      13.548 -29.182  23.460  1.00  0.00     0.000 C 
BRANCH   3   4
ATOM      4  C   UNL     1      14.917 -28.538  23.170  1.00  0.00     0.000 C 
BRANCH   4   5
ATOM      5  C   UNL     1      15.593 -29.086  21.899  1.00  0.00     0.000 C 
BRANCH   5   6
ATOM      6  C   UNL     1      16.955 -29.777  22.137  1.00  0.00     0.000 C 
BRANCH   6   7
ATOM      7  C   UNL     1      17.414 -30.762  21.040  1.00  0.00     0.000 C 
BRANCH   7   8
ATOM      8  C   UNL     1      18.310 -31.923  21.509  1.00  0.00     0.000 C 
BRANCH   8   9
ATOM      9  C   UNL     1      19.709 -31.900  20.877  1.00  0.00     0.000 C 
BRANCH   9  10
ATOM     10  C   UNL     1      20.650 -30.970  21.659  1.00  0.00     0.000 C 
BRANCH  10  11
ATOM     11  C   UNL     1      21.004 -29.686  20.887  1.00  0.00     0.000 C 
BRANCH  11  12
ATOM     12  C   UNL     1      20.278 -28.414  21.365  1.00  0.00     0.006 C 
BRANCH  12  13
ATOM     13  C   UNL     1      20.907 -27.100  20.874  1.00  0.00     0.053 C 
BRANCH  13  14
ATOM     14  C   UNL     1      22.390 -27.074  21.085  1.00  0.00     0.041 C 
ATOM     15  O   UNL     1      23.170 -27.012  20.099  1.00  0.00    -0.550 OA
ATOM     16  O   UNL     1      22.910 -27.120  22.372  1.00  0.00    -0.550 OA
ENDBRANCH  13  14
ENDBRANCH  12  13
ENDBRANCH  11  12
ENDBRANCH  10  11
ENDBRANCH   9  10
ENDBRANCH   8   9
ENDBRANCH   7   8
ENDBRANCH   6   7
ENDBRANCH   5   6
ENDBRANCH   4   5
ENDBRANCH   3   4
ENDBRANCH   2   3
ENDBRANCH   1   2
BRANCH   1  17
ATOM     17  C   UNL     1      14.982 -32.348  23.599  1.00  0.00     0.000 C 
BRANCH  17  18
ATOM     18  C   UNL     1      15.153 -33.628  22.755  1.00  0.00     0.000 C 
BRANCH  18  19
ATOM     19  C   UNL     1      14.915 -33.452  21.243  1.00  0.00     0.000 C 
BRANCH  19  20
ATOM     20  C   UNL     1      15.329 -34.653  20.373  1.00  0.00     0.000 C 
BRANCH  20  21
ATOM     21  C   UNL     1      16.447 -34.307  19.372  1.00  0.00     0.000 C 
BRANCH  21  22
ATOM     22  C   UNL     1      17.675 -35.223  19.527  1.00  0.00    -0.000 C 
BRANCH  22  23
ATOM     23  C   UNL     1      17.338 -36.634  20.055  1.00  0.00    -0.000 C 
BRANCH  23  24
ATOM     24  C   UNL     1      18.004 -36.978  21.401  1.00  0.00    -0.000 C 
BRANCH  24  25
ATOM     25  C   UNL     1      18.233 -35.756  22.313  1.00  0.00    -0.000 C 
BRANCH  25  26
ATOM     26  C   UNL     1      19.704 -35.313  22.338  1.00  0.00    -0.000 C 
BRANCH  26  27
ATOM     27  C   UNL     1      20.066 -34.688  23.691  1.00  0.00    -0.000 C 
BRANCH  27  28
ATOM     28  C   UNL     1      18.851 -33.984  24.315  1.00  0.00    -0.000 C 
BRANCH  28  29
ATOM     29  C   UNL     1      19.250 -32.829  25.246  1.00  0.00    -0.003 C 
ATOM     30  C   UNL     1      18.273 -31.656  25.184  1.00  0.00     0.004 C 
ENDBRANCH  28  29
ENDBRANCH  27  28
ENDBRANCH  26  27
ENDBRANCH  25  26
ENDBRANCH  24  25
ENDBRANCH  23  24
ENDBRANCH  22  23
ENDBRANCH  21  22
ENDBRANCH  20  21
ENDBRANCH  19  20
ENDBRANCH  18  19
ENDBRANCH  17  18
ENDBRANCH   1  17
TORSDOF 26
ENDMDL
MODEL 6
REMARK VINA RESULT:    -4.951      1.372      4.739
REMARK INTER + INTRA:         -17.069
REMARK INTER:                 -13.046
REMARK INTRA:                  -4.022
REMARK UNBOUND:                -4.593
REMARK SMILES CCCCCCCCCCCCCCCCCCCCCCCCCCCC(=O)[O-]
REMARK SMILES IDX 15 1 16 2 17 3 18 4 19 5 20 6 21 7 22 8 23 9 24 10 25 11
REMARK SMILES IDX 26 12 27 13 28 14 29 15 30 16 14 17 13 18 12 19 11 20 10 21
REMARK SMILES IDX 9 22 8 23 7 24 6 25 5 26 4 27 3 28 2 29 1 30
REMARK H PARENT
REMARK Flexibility Score: inf
ROOT
ATOM      1  C   UNL     1      16.569 -35.506  19.616  1.00  0.00     0.000 C 
ENDROOT
BRANCH   1   2
ATOM      2  C   UNL     1      15.472 -34.534  20.091  1.00  0.00     0.000 C 
BRANCH   2   3
ATOM      3  C   UNL     1      15.378 -34.384  21.625  1.00  0.00     0.000 C 
BRANCH   3   4
ATOM      4  C   UNL     1      15.001 -32.961  22.078  1.00  0.00     0.000 C 
BRANCH   4   5
ATOM      5  C   UNL     1      13.904 -32.314  21.212  1.00  0.00     0.000 C 
BRANCH   5   6
ATOM      6  C   UNL     1      13.135 -31.162  21.897  1.00  0.00     0.000 C 
BRANCH   6   7
ATOM      7  C   UNL     1      13.660 -30.729  23.283  1.00  0.00     0.000 C 
BRANCH   7   8
ATOM      8  C   UNL     1      14.253 -29.311  23.367  1.00  0.00     0.000 C 
BRANCH   8   9
ATOM      9  C   UNL     1      15.034 -28.907  22.108  1.00  0.00     0.000 C 
BRANCH   9  10
ATOM     10  C   UNL     1      16.438 -29.530  22.110  1.00  0.00     0.000 C 
BRANCH  10  11
ATOM     11  C   UNL     1      17.562 -28.482  22.017  1.00  0.00     0.000 C 
BRANCH  11  12
ATOM     12  C   UNL     1      18.777 -28.899  21.166  1.00  0.00     0.006 C 
BRANCH  12  13
ATOM     13  C   UNL     1      19.701 -27.738  20.765  1.00  0.00     0.053 C 
BRANCH  13  14
ATOM     14  C   UNL     1      21.100 -27.937  21.262  1.00  0.00     0.041 C 
ATOM     15  O   UNL     1      22.073 -27.446  20.631  1.00  0.00    -0.550 OA
ATOM     16  O   UNL     1      21.329 -28.666  22.422  1.00  0.00    -0.550 OA
ENDBRANCH  13  14
ENDBRANCH  12  13
ENDBRANCH  11  12
ENDBRANCH  10  11
ENDBRANCH   9  10
ENDBRANCH   8   9
ENDBRANCH   7   8
ENDBRANCH   6   7
ENDBRANCH   5   6
ENDBRANCH   4   5
ENDBRANCH   3   4
ENDBRANCH   2   3
ENDBRANCH   1   2
BRANCH   1  17
ATOM     17  C   UNL     1      18.012 -34.994  19.767  1.00  0.00     0.000 C 
BRANCH  17  18
ATOM     18  C   UNL     1      18.176 -33.463  19.673  1.00  0.00     0.000 C 
BRANCH  18  19
ATOM     19  C   UNL     1      18.690 -32.780  20.955  1.00  0.00     0.000 C 
BRANCH  19  20
ATOM     20  C   UNL     1      18.971 -33.730  22.134  1.00  0.00     0.000 C 
BRANCH  20  21
ATOM     21  C   UNL     1      19.570 -33.005  23.354  1.00  0.00     0.000 C 
BRANCH  21  22
ATOM     22  C   UNL     1      18.823 -31.701  23.685  1.00  0.00    -0.000 C 
BRANCH  22  23
ATOM     23  C   UNL     1      17.933 -31.795  24.944  1.00  0.00    -0.000 C 
BRANCH  23  24
ATOM     24  C   UNL     1      17.875 -33.202  25.570  1.00  0.00    -0.000 C 
BRANCH  24  25
ATOM     25  C   UNL     1      16.606 -33.996  25.200  1.00  0.00    -0.000 C 
BRANCH  25  26
ATOM     26  C   UNL     1      16.768 -35.503  25.449  1.00  0.00    -0.000 C 
BRANCH  26  27
ATOM     27  C   UNL     1      18.153 -35.818  26.027  1.00  0.00    -0.000 C 
BRANCH  27  28
ATOM     28  C   UNL     1      18.130 -37.128  26.829  1.00  0.00    -0.000 C 
BRANCH  28  29
ATOM     29  C   UNL     1      16.708 -37.671  27.035  1.00  0.00    -0.003 C 
ATOM     30  C   UNL     1      16.278 -37.658  28.502  1.00  0.00     0.004 C 
ENDBRANCH  28  29
ENDBRANCH  27  28
ENDBRANCH  26  27
ENDBRANCH  25  26
ENDBRANCH  24  25
ENDBRANCH  23  24
ENDBRANCH  22  23
ENDBRANCH  21  22
ENDBRANCH  20  21
ENDBRANCH  19  20
ENDBRANCH  18  19
ENDBRANCH  17  18
ENDBRANCH   1  17
TORSDOF 26
ENDMDL
MODEL 7
REMARK VINA RESULT:    -4.948      1.360      4.427
REMARK INTER + INTRA:         -17.063
REMARK INTER:                 -13.158
REMARK INTRA:                  -3.904
REMARK UNBOUND:                -4.593
REMARK SMILES CCCCCCCCCCCCCCCCCCCCCCCCCCCC(=O)[O-]
REMARK SMILES IDX 15 1 16 2 17 3 18 4 19 5 20 6 21 7 22 8 23 9 24 10 25 11
REMARK SMILES IDX 26 12 27 13 28 14 29 15 30 16 14 17 13 18 12 19 11 20 10 21
REMARK SMILES IDX 9 22 8 23 7 24 6 25 5 26 4 27 3 28 2 29 1 30
REMARK H PARENT
REMARK Flexibility Score: inf
ROOT
ATOM      1  C   UNL     1      13.707 -28.750  23.122  1.00  0.00     0.000 C 
ENDROOT
BRANCH   1   2
ATOM      2  C   UNL     1      14.972 -27.971  23.528  1.00  0.00     0.000 C 
BRANCH   2   3
ATOM      3  C   UNL     1      16.122 -28.047  22.501  1.00  0.00     0.000 C 
BRANCH   3   4
ATOM      4  C   UNL     1      16.490 -29.488  22.101  1.00  0.00     0.000 C 
BRANCH   4   5
ATOM      5  C   UNL     1      16.930 -30.359  23.293  1.00  0.00     0.000 C 
BRANCH   5   6
ATOM      6  C   UNL     1      18.170 -31.242  23.025  1.00  0.00     0.000 C 
BRANCH   6   7
ATOM      7  C   UNL     1      18.487 -31.529  21.541  1.00  0.00     0.000 C 
BRANCH   7   8
ATOM      8  C   UNL     1      19.883 -32.110  21.251  1.00  0.00     0.000 C 
BRANCH   8   9
ATOM      9  C   UNL     1      20.965 -31.032  21.089  1.00  0.00     0.000 C 
BRANCH   9  10
ATOM     10  C   UNL     1      20.350 -29.625  21.133  1.00  0.00     0.000 C 
BRANCH  10  11
ATOM     11  C   UNL     1      21.271 -28.587  21.799  1.00  0.00     0.000 C 
BRANCH  11  12
ATOM     12  C   UNL     1      21.980 -27.623  20.828  1.00  0.00     0.006 C 
BRANCH  12  13
ATOM     13  C   UNL     1      22.874 -26.576  21.511  1.00  0.00     0.053 C 
BRANCH  13  14
ATOM     14  C   UNL     1      22.301 -25.196  21.409  1.00  0.00     0.041 C 
ATOM     15  O   UNL     1      21.071 -25.034  21.197  1.00  0.00    -0.550 OA
ATOM     16  O   UNL     1      23.127 -24.088  21.546  1.00  0.00    -0.550 OA
ENDBRANCH  13  14
ENDBRANCH  12  13
ENDBRANCH  11  12
ENDBRANCH  10  11
ENDBRANCH   9  10
ENDBRANCH   8   9
ENDBRANCH   7   8
ENDBRANCH   6   7
ENDBRANCH   5   6
ENDBRANCH   4   5
ENDBRANCH   3   4
ENDBRANCH   2   3
ENDBRANCH   1   2
BRANCH   1  17
ATOM     17  C   UNL     1      13.412 -30.008  23.956  1.00  0.00     0.000 C 
BRANCH  17  18
ATOM     18  C   UNL     1      13.138 -31.287  23.139  1.00  0.00     0.000 C 
BRANCH  18  19
ATOM     19  C   UNL     1      12.907 -31.064  21.632  1.00  0.00     0.000 C 
BRANCH  19  20
ATOM     20  C   UNL     1      13.601 -32.082  20.708  1.00  0.00     0.000 C 
BRANCH  20  21
ATOM     21  C   UNL     1      14.933 -32.598  21.283  1.00  0.00     0.000 C 
BRANCH  21  22
ATOM     22  C   UNL     1      15.051 -34.130  21.202  1.00  0.00    -0.000 C 
BRANCH  22  23
ATOM     23  C   UNL     1      15.475 -34.651  19.812  1.00  0.00    -0.000 C 
BRANCH  23  24
ATOM     24  C   UNL     1      16.810 -34.072  19.304  1.00  0.00    -0.000 C 
BRANCH  24  25
ATOM     25  C   UNL     1      18.016 -35.011  19.509  1.00  0.00    -0.000 C 
BRANCH  25  26
ATOM     26  C   UNL     1      17.591 -36.475  19.700  1.00  0.00    -0.000 C 
BRANCH  26  27
ATOM     27  C   UNL     1      18.025 -36.997  21.075  1.00  0.00    -0.000 C 
BRANCH  27  28
ATOM     28  C   UNL     1      18.710 -35.892  21.893  1.00  0.00    -0.000 C 
BRANCH  28  29
ATOM     29  C   UNL     1      17.841 -35.395  23.059  1.00  0.00    -0.003 C 
ATOM     30  C   UNL     1      18.666 -34.775  24.186  1.00  0.00     0.004 C 
ENDBRANCH  28  29
ENDBRANCH  27  28
ENDBRANCH  26  27
ENDBRANCH  25  26
ENDBRANCH  24  25
ENDBRANCH  23  24
ENDBRANCH  22  23
ENDBRANCH  21  22
ENDBRANCH  20  21
ENDBRANCH  19  20
ENDBRANCH  18  19
ENDBRANCH  17  18
ENDBRANCH   1  17
TORSDOF 26
ENDMDL
MODEL 8
REMARK VINA RESULT:    -4.932      1.536      4.294
REMARK INTER + INTRA:         -17.022
REMARK INTER:                 -12.417
REMARK INTRA:                  -4.605
REMARK UNBOUND:                -4.593
REMARK SMILES CCCCCCCCCCCCCCCCCCCCCCCCCCCC(=O)[O-]
REMARK SMILES IDX 15 1 16 2 17 3 18 4 19 5 20 6 21 7 22 8 23 9 24 10 25 11
REMARK SMILES IDX 26 12 27 13 28 14 29 15 30 16 14 17 13 18 12 19 11 20 10 21
REMARK SMILES IDX 9 22 8 23 7 24 6 25 5 26 4 27 3 28 2 29 1 30
REMARK H PARENT
REMARK Flexibility Score: inf
ROOT
ATOM      1  C   UNL     1      15.280 -28.332  22.366  1.00  0.00     0.000 C 
ENDROOT
BRANCH   1   2
ATOM      2  C   UNL     1      16.773 -28.488  22.713  1.00  0.00     0.000 C 
BRANCH   2   3
ATOM      3  C   UNL     1      17.273 -29.949  22.726  1.00  0.00     0.000 C 
BRANCH   3   4
ATOM      4  C   UNL     1      17.470 -30.541  21.318  1.00  0.00     0.000 C 
BRANCH   4   5
ATOM      5  C   UNL     1      17.712 -32.062  21.322  1.00  0.00     0.000 C 
BRANCH   5   6
ATOM      6  C   UNL     1      19.117 -32.495  20.847  1.00  0.00     0.000 C 
BRANCH   6   7
ATOM      7  C   UNL     1      20.208 -32.560  21.938  1.00  0.00     0.000 C 
BRANCH   7   8
ATOM      8  C   UNL     1      21.365 -31.555  21.796  1.00  0.00     0.000 C 
BRANCH   8   9
ATOM      9  C   UNL     1      21.490 -30.602  22.993  1.00  0.00     0.000 C 
BRANCH   9  10
ATOM     10  C   UNL     1      20.767 -29.275  22.718  1.00  0.00     0.000 C 
BRANCH  10  11
ATOM     11  C   UNL     1      21.258 -28.578  21.436  1.00  0.00     0.000 C 
BRANCH  11  12
ATOM     12  C   UNL     1      22.435 -27.602  21.632  1.00  0.00     0.006 C 
BRANCH  12  13
ATOM     13  C   UNL     1      22.215 -26.210  21.020  1.00  0.00     0.053 C 
BRANCH  13  14
ATOM     14  C   UNL     1      23.123 -25.959  19.854  1.00  0.00     0.041 C 
ATOM     15  O   UNL     1      23.696 -26.921  19.279  1.00  0.00    -0.550 OA
ATOM     16  O   UNL     1      23.335 -24.663  19.404  1.00  0.00    -0.550 OA
ENDBRANCH  13  14
ENDBRANCH  12  13
ENDBRANCH  11  12
ENDBRANCH  10  11
ENDBRANCH   9  10
ENDBRANCH   8   9
ENDBRANCH   7   8
ENDBRANCH   6   7
ENDBRANCH   5   6
ENDBRANCH   4   5
ENDBRANCH   3   4
ENDBRANCH   2   3
ENDBRANCH   1   2
BRANCH   1  17
ATOM     17  C   UNL     1      14.300 -28.791  23.459  1.00  0.00     0.000 C 
BRANCH  17  18
ATOM     18  C   UNL     1      13.211 -29.778  22.990  1.00  0.00     0.000 C 
BRANCH  18  19
ATOM     19  C   UNL     1      13.712 -31.197  22.660  1.00  0.00     0.000 C 
BRANCH  19  20
ATOM     20  C   UNL     1      13.860 -32.136  23.872  1.00  0.00     0.000 C 
BRANCH  20  21
ATOM     21  C   UNL     1      14.930 -33.223  23.656  1.00  0.00     0.000 C 
BRANCH  21  22
ATOM     22  C   UNL     1      16.218 -32.941  24.450  1.00  0.00    -0.000 C 
BRANCH  22  23
ATOM     23  C   UNL     1      17.114 -34.183  24.646  1.00  0.00    -0.000 C 
BRANCH  23  24
ATOM     24  C   UNL     1      17.195 -35.102  23.411  1.00  0.00    -0.000 C 
BRANCH  24  25
ATOM     25  C   UNL     1      18.605 -35.664  23.143  1.00  0.00    -0.000 C 
BRANCH  25  26
ATOM     26  C   UNL     1      18.713 -36.341  21.768  1.00  0.00    -0.000 C 
BRANCH  26  27
ATOM     27  C   UNL     1      17.379 -36.268  21.015  1.00  0.00    -0.000 C 
BRANCH  27  28
ATOM     28  C   UNL     1      17.563 -35.635  19.628  1.00  0.00    -0.000 C 
BRANCH  28  29
ATOM     29  C   UNL     1      16.423 -34.673  19.262  1.00  0.00    -0.003 C 
ATOM     30  C   UNL     1      15.273 -34.710  20.268  1.00  0.00     0.004 C 
ENDBRANCH  28  29
ENDBRANCH  27  28
ENDBRANCH  26  27
ENDBRANCH  25  26
ENDBRANCH  24  25
ENDBRANCH  23  24
ENDBRANCH  22  23
ENDBRANCH  21  22
ENDBRANCH  20  21
ENDBRANCH  19  20
ENDBRANCH  18  19
ENDBRANCH  17  18
ENDBRANCH   1  17
TORSDOF 26
ENDMDL
MODEL 9
REMARK VINA RESULT:    -4.932      1.602      4.807
REMARK INTER + INTRA:         -17.020
REMARK INTER:                 -11.131
REMARK INTRA:                  -5.889
REMARK UNBOUND:                -4.593
REMARK SMILES CCCCCCCCCCCCCCCCCCCCCCCCCCCC(=O)[O-]
REMARK SMILES IDX 15 1 16 2 17 3 18 4 19 5 20 6 21 7 22 8 23 9 24 10 25 11
REMARK SMILES IDX 26 12 27 13 28 14 29 15 30 16 14 17 13 18 12 19 11 20 10 21
REMARK SMILES IDX 9 22 8 23 7 24 6 25 5 26 4 27 3 28 2 29 1 30
REMARK H PARENT
REMARK Flexibility Score: inf
ROOT
ATOM      1  C   UNL     1      16.877 -34.362  19.497  1.00  0.00     0.000 C 
ENDROOT
BRANCH   1   2
ATOM      2  C   UNL     1      15.523 -34.711  20.145  1.00  0.00     0.000 C 
BRANCH   2   3
ATOM      3  C   UNL     1      15.381 -34.241  21.609  1.00  0.00     0.000 C 
BRANCH   3   4
ATOM      4  C   UNL     1      14.627 -32.906  21.752  1.00  0.00     0.000 C 
BRANCH   4   5
ATOM      5  C   UNL     1      14.598 -32.371  23.196  1.00  0.00     0.000 C 
BRANCH   5   6
ATOM      6  C   UNL     1      15.082 -30.912  23.356  1.00  0.00     0.000 C 
BRANCH   6   7
ATOM      7  C   UNL     1      16.599 -30.682  23.190  1.00  0.00     0.000 C 
BRANCH   7   8
ATOM      8  C   UNL     1      17.042 -30.029  21.868  1.00  0.00     0.000 C 
BRANCH   8   9
ATOM      9  C   UNL     1      17.655 -31.027  20.875  1.00  0.00     0.000 C 
BRANCH   9  10
ATOM     10  C   UNL     1      18.839 -31.774  21.508  1.00  0.00     0.000 C 
BRANCH  10  11
ATOM     11  C   UNL     1      20.198 -31.363  20.912  1.00  0.00     0.000 C 
BRANCH  11  12
ATOM     12  C   UNL     1      21.133 -30.608  21.876  1.00  0.00     0.006 C 
BRANCH  12  13
ATOM     13  C   UNL     1      20.667 -29.188  22.233  1.00  0.00     0.053 C 
BRANCH  13  14
ATOM     14  C   UNL     1      20.667 -28.280  21.041  1.00  0.00     0.041 C 
ATOM     15  O   UNL     1      19.580 -27.918  20.519  1.00  0.00    -0.550 OA
ATOM     16  O   UNL     1      21.869 -27.835  20.506  1.00  0.00    -0.550 OA
ENDBRANCH  13  14
ENDBRANCH  12  13
ENDBRANCH  11  12
ENDBRANCH  10  11
ENDBRANCH   9  10
ENDBRANCH   8   9
ENDBRANCH   7   8
ENDBRANCH   6   7
ENDBRANCH   5   6
ENDBRANCH   4   5
ENDBRANCH   3   4
ENDBRANCH   2   3
ENDBRANCH   1   2
BRANCH   1  17
ATOM     17  C   UNL     1      17.913 -35.499  19.487  1.00  0.00     0.000 C 
BRANCH  17  18
ATOM     18  C   UNL     1      17.622 -36.659  20.461  1.00  0.00     0.000 C 
BRANCH  18  19
ATOM     19  C   UNL     1      18.521 -36.706  21.712  1.00  0.00     0.000 C 
BRANCH  19  20
ATOM     20  C   UNL     1      19.167 -35.364  22.102  1.00  0.00     0.000 C 
BRANCH  20  21
ATOM     21  C   UNL     1      20.538 -35.537  22.783  1.00  0.00     0.000 C 
BRANCH  21  22
ATOM     22  C   UNL     1      21.158 -34.192  23.202  1.00  0.00    -0.000 C 
BRANCH  22  23
ATOM     23  C   UNL     1      20.845 -33.788  24.659  1.00  0.00    -0.000 C 
BRANCH  23  24
ATOM     24  C   UNL     1      20.403 -32.321  24.824  1.00  0.00    -0.000 C 
BRANCH  24  25
ATOM     25  C   UNL     1      18.944 -32.159  25.298  1.00  0.00    -0.000 C 
BRANCH  25  26
ATOM     26  C   UNL     1      18.356 -33.472  25.837  1.00  0.00    -0.000 C 
BRANCH  26  27
ATOM     27  C   UNL     1      17.243 -33.993  24.919  1.00  0.00    -0.000 C 
BRANCH  27  28
ATOM     28  C   UNL     1      17.060 -35.509  25.081  1.00  0.00    -0.000 C 
BRANCH  28  29
ATOM     29  C   UNL     1      18.055 -36.121  26.079  1.00  0.00    -0.003 C 
ATOM     30  C   UNL     1      18.746 -37.370  25.533  1.00  0.00     0.004 C 
ENDBRANCH  28  29
ENDBRANCH  27  28
ENDBRANCH  26  27
ENDBRANCH  25  26
ENDBRANCH  24  25
ENDBRANCH  23  24
ENDBRANCH  22  23
ENDBRANCH  21  22
ENDBRANCH  20  21
ENDBRANCH  19  20
ENDBRANCH  18  19
ENDBRANCH  17  18
ENDBRANCH   1  17
TORSDOF 26
ENDMDL
