MODEL 1
REMARK VINA RESULT:    -5.065      0.000      0.000
REMARK INTER + INTRA:          -6.081
REMARK INTER:                  -5.954
REMARK INTRA:                  -0.127
REMARK UNBOUND:                -0.127
REMARK SMILES O=C([O-])C=Cc1ccc(O)c(O)c1
REMARK SMILES IDX 6 1 13 2 7 3 11 4 8 5 9 6 5 7 4 8 2 9 1 10 3 11 12 12 10 14
REMARK H PARENT 12 13 10 15
REMARK Flexibility Score: inf
ROOT
ATOM      1  C   UNL     1       6.908   6.060 -17.162  1.00  0.00    -0.022 A 
ATOM      2  C   UNL     1       6.043   6.410 -16.112  1.00  0.00     0.058 A 
ATOM      3  C   UNL     1       7.721   7.059 -17.734  1.00  0.00     0.012 A 
ATOM      4  C   UNL     1       5.966   7.731 -15.656  1.00  0.00     0.157 A 
ATOM      5  C   UNL     1       7.646   8.377 -17.279  1.00  0.00     0.051 A 
ATOM      6  C   UNL     1       6.769   8.720 -16.243  1.00  0.00     0.157 A 
ENDROOT
BRANCH   1   7
ATOM      7  C   UNL     1       6.957   4.643 -17.600  1.00  0.00     0.010 C 
ATOM      8  C   UNL     1       5.884   3.952 -18.008  1.00  0.00     0.025 C 
BRANCH   8   9
ATOM      9  C   UNL     1       5.978   2.542 -18.422  1.00  0.00     0.064 C 
ATOM     10  O   UNL     1       6.475   1.696 -17.635  1.00  0.00    -0.545 OA
ATOM     11  O   UNL     1       5.523   2.129 -19.670  1.00  0.00    -0.545 OA
ENDBRANCH   8   9
ENDBRANCH   1   7
BRANCH   4  12
ATOM     12  O   UNL     1       5.087   8.038 -14.617  1.00  0.00    -0.504 OA
ATOM     13  H   UNL     1       4.575   7.322 -14.116  1.00  0.00     0.293 HD
ENDBRANCH   4  12
BRANCH   6  14
ATOM     14  O   UNL     1       6.698  10.038 -15.792  1.00  0.00    -0.504 OA
ATOM     15  H   UNL     1       7.409  10.720 -16.030  1.00  0.00     0.293 HD
ENDBRANCH   6  14
TORSDOF 4
ENDMDL
MODEL 2
REMARK VINA RESULT:    -5.041      8.886     12.054
REMARK INTER + INTRA:          -6.052
REMARK INTER:                  -5.925
REMARK INTRA:                  -0.128
REMARK UNBOUND:                -0.127
REMARK SMILES O=C([O-])C=Cc1ccc(O)c(O)c1
REMARK SMILES IDX 6 1 13 2 7 3 11 4 8 5 9 6 5 7 4 8 2 9 1 10 3 11 12 12 10 14
REMARK H PARENT 12 13 10 15
REMARK Flexibility Score: inf
ROOT
ATOM      1  C   UNL     1       9.298  14.147 -22.602  1.00  0.00    -0.022 A 
ATOM      2  C   UNL     1       9.006  13.901 -23.954  1.00  0.00     0.058 A 
ATOM      3  C   UNL     1       9.494  13.050 -21.739  1.00  0.00     0.012 A 
ATOM      4  C   UNL     1       8.883  12.592 -24.435  1.00  0.00     0.157 A 
ATOM      5  C   UNL     1       9.373  11.743 -22.218  1.00  0.00     0.051 A 
ATOM      6  C   UNL     1       9.065  11.508 -23.563  1.00  0.00     0.157 A 
ENDROOT
BRANCH   1   7
ATOM      7  C   UNL     1       9.427  15.554 -22.148  1.00  0.00     0.010 C 
ATOM      8  C   UNL     1       8.435  16.452 -22.216  1.00  0.00     0.025 C 
BRANCH   8   9
ATOM      9  C   UNL     1       8.612  17.842 -21.764  1.00  0.00     0.064 C 
ATOM     10  O   UNL     1       9.626  18.490 -22.133  1.00  0.00    -0.545 OA
ATOM     11  O   UNL     1       7.675  18.453 -20.938  1.00  0.00    -0.545 OA
ENDBRANCH   8   9
ENDBRANCH   1   7
BRANCH   4  12
ATOM     12  O   UNL     1       8.582  12.391 -25.782  1.00  0.00    -0.504 OA
ATOM     13  H   UNL     1       8.070  11.579 -26.104  1.00  0.00     0.293 HD
ENDBRANCH   4  12
BRANCH   6  14
ATOM     14  O   UNL     1       8.944  10.201 -24.037  1.00  0.00    -0.504 OA
ATOM     15  H   UNL     1       8.453   9.992 -24.898  1.00  0.00     0.293 HD
ENDBRANCH   6  14
TORSDOF 4
ENDMDL
MODEL 3
REMARK VINA RESULT:    -4.983      8.377     10.293
REMARK INTER + INTRA:          -5.984
REMARK INTER:                  -5.853
REMARK INTRA:                  -0.131
REMARK UNBOUND:                -0.127
REMARK SMILES O=C([O-])C=Cc1ccc(O)c(O)c1
REMARK SMILES IDX 6 1 13 2 7 3 11 4 8 5 9 6 5 7 4 8 2 9 1 10 3 11 12 12 10 14
REMARK H PARENT 12 13 10 15
REMARK Flexibility Score: inf
ROOT
ATOM      1  C   UNL     1       9.118  12.167 -23.353  1.00  0.00    -0.022 A 
ATOM      2  C   UNL     1       8.946  10.775 -23.420  1.00  0.00     0.058 A 
ATOM      3  C   UNL     1       9.466  12.751 -22.118  1.00  0.00     0.012 A 
ATOM      4  C   UNL     1       9.090   9.979 -22.277  1.00  0.00     0.157 A 
ATOM      5  C   UNL     1       9.611  11.957 -20.978  1.00  0.00     0.051 A 
ATOM      6  C   UNL     1       9.422  10.572 -21.050  1.00  0.00     0.157 A 
ENDROOT
BRANCH   1   7
ATOM      7  C   UNL     1       8.963  12.963 -24.596  1.00  0.00     0.010 C 
ATOM      8  C   UNL     1       9.420  12.570 -25.793  1.00  0.00     0.025 C 
BRANCH   8   9
ATOM      9  C   UNL     1       9.255  13.399 -26.999  1.00  0.00     0.064 C 
ATOM     10  O   UNL     1       9.591  12.936 -28.120  1.00  0.00    -0.545 OA
ATOM     11  O   UNL     1       8.730  14.684 -26.920  1.00  0.00    -0.545 OA
ENDBRANCH   8   9
ENDBRANCH   1   7
BRANCH   4  12
ATOM     12  O   UNL     1       8.900   8.601 -22.385  1.00  0.00    -0.504 OA
ATOM     13  H   UNL     1       8.980   7.983 -21.586  1.00  0.00     0.293 HD
ENDBRANCH   4  12
BRANCH   6  14
ATOM     14  O   UNL     1       9.567   9.784 -19.908  1.00  0.00    -0.504 OA
ATOM     15  H   UNL     1       9.253   8.820 -19.885  1.00  0.00     0.293 HD
ENDBRANCH   6  14
TORSDOF 4
ENDMDL
MODEL 4
REMARK VINA RESULT:    -4.932      8.541     11.678
REMARK INTER + INTRA:          -5.925
REMARK INTER:                  -5.788
REMARK INTRA:                  -0.136
REMARK UNBOUND:                -0.127
REMARK SMILES O=C([O-])C=Cc1ccc(O)c(O)c1
REMARK SMILES IDX 6 1 13 2 7 3 11 4 8 5 9 6 5 7 4 8 2 9 1 10 3 11 12 12 10 14
REMARK H PARENT 12 13 10 15
REMARK Flexibility Score: inf
ROOT
ATOM      1  C   UNL     1       9.259  14.038 -22.692  1.00  0.00    -0.022 A 
ATOM      2  C   UNL     1       9.394  12.972 -21.788  1.00  0.00     0.058 A 
ATOM      3  C   UNL     1       8.981  13.752 -24.044  1.00  0.00     0.012 A 
ATOM      4  C   UNL     1       9.282  11.645 -22.221  1.00  0.00     0.157 A 
ATOM      5  C   UNL     1       8.867  12.429 -24.477  1.00  0.00     0.051 A 
ATOM      6  C   UNL     1       9.020  11.371 -23.572  1.00  0.00     0.157 A 
ENDROOT
BRANCH   1   7
ATOM      7  C   UNL     1       9.377  15.425 -22.178  1.00  0.00     0.010 C 
ATOM      8  C   UNL     1       8.466  16.382 -22.402  1.00  0.00     0.025 C 
BRANCH   8   9
ATOM      9  C   UNL     1       8.631  17.750 -21.881  1.00  0.00     0.064 C 
ATOM     10  O   UNL     1       9.680  18.392 -22.148  1.00  0.00    -0.545 OA
ATOM     11  O   UNL     1       7.645  18.345 -21.102  1.00  0.00    -0.545 OA
ENDBRANCH   8   9
ENDBRANCH   1   7
BRANCH   4  12
ATOM     12  O   UNL     1       9.433  10.615 -21.293  1.00  0.00    -0.504 OA
ATOM     13  H   UNL     1       8.659  10.276 -20.736  1.00  0.00     0.293 HD
ENDBRANCH   4  12
BRANCH   6  14
ATOM     14  O   UNL     1       8.907  10.052 -24.010  1.00  0.00    -0.504 OA
ATOM     15  H   UNL     1       8.066   9.713 -24.461  1.00  0.00     0.293 HD
ENDBRANCH   6  14
TORSDOF 4
ENDMDL
MODEL 5
REMARK VINA RESULT:    -4.919      0.873      1.918
REMARK INTER + INTRA:          -5.910
REMARK INTER:                  -5.775
REMARK INTRA:                  -0.134
REMARK UNBOUND:                -0.127
REMARK SMILES O=C([O-])C=Cc1ccc(O)c(O)c1
REMARK SMILES IDX 6 1 13 2 7 3 11 4 8 5 9 6 5 7 4 8 2 9 1 10 3 11 12 12 10 14
REMARK H PARENT 12 13 10 15
REMARK Flexibility Score: inf
ROOT
ATOM      1  C   UNL     1       6.787   6.242 -16.967  1.00  0.00    -0.022 A 
ATOM      2  C   UNL     1       7.544   7.208 -17.649  1.00  0.00     0.058 A 
ATOM      3  C   UNL     1       5.993   6.647 -15.875  1.00  0.00     0.012 A 
ATOM      4  C   UNL     1       7.536   8.547 -17.240  1.00  0.00     0.157 A 
ATOM      5  C   UNL     1       5.982   7.983 -15.467  1.00  0.00     0.051 A 
ATOM      6  C   UNL     1       6.753   8.937 -16.142  1.00  0.00     0.157 A 
ENDROOT
BRANCH   1   7
ATOM      7  C   UNL     1       6.824   4.839 -17.449  1.00  0.00     0.010 C 
ATOM      8  C   UNL     1       5.744   4.167 -17.871  1.00  0.00     0.025 C 
BRANCH   8   9
ATOM      9  C   UNL     1       5.827   2.771 -18.329  1.00  0.00     0.064 C 
ATOM     10  O   UNL     1       6.375   1.908 -17.595  1.00  0.00    -0.545 OA
ATOM     11  O   UNL     1       5.307   2.387 -19.561  1.00  0.00    -0.545 OA
ENDBRANCH   8   9
ENDBRANCH   1   7
BRANCH   4  12
ATOM     12  O   UNL     1       8.310   9.473 -17.938  1.00  0.00    -0.504 OA
ATOM     13  H   UNL     1       7.949  10.379 -18.211  1.00  0.00     0.293 HD
ENDBRANCH   4  12
BRANCH   6  14
ATOM     14  O   UNL     1       6.740  10.269 -15.730  1.00  0.00    -0.504 OA
ATOM     15  H   UNL     1       6.092  10.600 -15.024  1.00  0.00     0.293 HD
ENDBRANCH   6  14
TORSDOF 4
ENDMDL
MODEL 6
REMARK VINA RESULT:    -4.849     10.458     11.516
REMARK INTER + INTRA:          -5.827
REMARK INTER:                  -5.695
REMARK INTRA:                  -0.132
REMARK UNBOUND:                -0.127
REMARK SMILES O=C([O-])C=Cc1ccc(O)c(O)c1
REMARK SMILES IDX 6 1 13 2 7 3 11 4 8 5 9 6 5 7 4 8 2 9 1 10 3 11 12 12 10 14
REMARK H PARENT 12 13 10 15
REMARK Flexibility Score: inf
ROOT
ATOM      1  C   UNL     1       8.211  15.223 -22.427  1.00  0.00    -0.022 A 
ATOM      2  C   UNL     1       8.932  16.396 -22.708  1.00  0.00     0.058 A 
ATOM      3  C   UNL     1       7.169  15.276 -21.479  1.00  0.00     0.012 A 
ATOM      4  C   UNL     1       8.642  17.592 -22.042  1.00  0.00     0.157 A 
ATOM      5  C   UNL     1       6.878  16.470 -20.815  1.00  0.00     0.051 A 
ATOM      6  C   UNL     1       7.613  17.630 -21.089  1.00  0.00     0.157 A 
ENDROOT
BRANCH   1   7
ATOM      7  C   UNL     1       8.553  13.984 -23.169  1.00  0.00     0.010 C 
ATOM      8  C   UNL     1       8.827  13.953 -24.480  1.00  0.00     0.025 C 
BRANCH   8   9
ATOM      9  C   UNL     1       9.149  12.697 -25.178  1.00  0.00     0.064 C 
ATOM     10  O   UNL     1       8.873  11.597 -24.633  1.00  0.00    -0.545 OA
ATOM     11  O   UNL     1       9.750  12.707 -26.432  1.00  0.00    -0.545 OA
ENDBRANCH   8   9
ENDBRANCH   1   7
BRANCH   4  12
ATOM     12  O   UNL     1       9.388  18.732 -22.343  1.00  0.00    -0.504 OA
ATOM     13  H   UNL     1       9.015  19.485 -22.908  1.00  0.00     0.293 HD
ENDBRANCH   4  12
BRANCH   6  14
ATOM     14  O   UNL     1       7.319  18.820 -20.423  1.00  0.00    -0.504 OA
ATOM     15  H   UNL     1       7.378  19.718 -20.889  1.00  0.00     0.293 HD
ENDBRANCH   6  14
TORSDOF 4
ENDMDL
MODEL 7
REMARK VINA RESULT:    -4.839      8.241     10.206
REMARK INTER + INTRA:          -5.815
REMARK INTER:                  -5.679
REMARK INTRA:                  -0.135
REMARK UNBOUND:                -0.127
REMARK SMILES O=C([O-])C=Cc1ccc(O)c(O)c1
REMARK SMILES IDX 6 1 13 2 7 3 11 4 8 5 9 6 5 7 4 8 2 9 1 10 3 11 12 12 10 14
REMARK H PARENT 12 13 10 15
REMARK Flexibility Score: inf
ROOT
ATOM      1  C   UNL     1       9.073  11.761 -23.506  1.00  0.00    -0.022 A 
ATOM      2  C   UNL     1       9.291  12.263 -22.213  1.00  0.00     0.058 A 
ATOM      3  C   UNL     1       8.919  10.370 -23.678  1.00  0.00     0.012 A 
ATOM      4  C   UNL     1       9.381  11.401 -21.114  1.00  0.00     0.157 A 
ATOM      5  C   UNL     1       9.008   9.509 -22.582  1.00  0.00     0.051 A 
ATOM      6  C   UNL     1       9.242  10.017 -21.299  1.00  0.00     0.157 A 
ENDROOT
BRANCH   1   7
ATOM      7  C   UNL     1       8.975  12.720 -24.634  1.00  0.00     0.010 C 
ATOM      8  C   UNL     1       9.389  12.449 -25.880  1.00  0.00     0.025 C 
BRANCH   8   9
ATOM      9  C   UNL     1       9.284  13.438 -26.966  1.00  0.00     0.064 C 
ATOM     10  O   UNL     1       9.743  13.160 -28.104  1.00  0.00    -0.545 OA
ATOM     11  O   UNL     1       8.682  14.674 -26.756  1.00  0.00    -0.545 OA
ENDBRANCH   8   9
ENDBRANCH   1   7
BRANCH   4  12
ATOM     12  O   UNL     1       9.609  11.940 -19.847  1.00  0.00    -0.504 OA
ATOM     13  H   UNL     1       9.893  12.903 -19.716  1.00  0.00     0.293 HD
ENDBRANCH   4  12
BRANCH   6  14
ATOM     14  O   UNL     1       9.331   9.153 -20.208  1.00  0.00    -0.504 OA
ATOM     15  H   UNL     1       9.627   8.190 -20.316  1.00  0.00     0.293 HD
ENDBRANCH   6  14
TORSDOF 4
ENDMDL
MODEL 8
REMARK VINA RESULT:    -4.748      8.696     10.457
REMARK INTER + INTRA:          -5.708
REMARK INTER:                  -5.580
REMARK INTRA:                  -0.128
REMARK UNBOUND:                -0.127
REMARK SMILES O=C([O-])C=Cc1ccc(O)c(O)c1
REMARK SMILES IDX 6 1 13 2 7 3 11 4 8 5 9 6 5 7 4 8 2 9 1 10 3 11 12 12 10 14
REMARK H PARENT 12 13 10 15
REMARK Flexibility Score: inf
ROOT
ATOM      1  C   UNL     1       8.892  13.753 -22.780  1.00  0.00    -0.022 A 
ATOM      2  C   UNL     1       9.991  13.371 -21.993  1.00  0.00     0.058 A 
ATOM      3  C   UNL     1       7.657  14.002 -22.148  1.00  0.00     0.012 A 
ATOM      4  C   UNL     1       9.861  13.213 -20.608  1.00  0.00     0.157 A 
ATOM      5  C   UNL     1       7.527  13.847 -20.766  1.00  0.00     0.051 A 
ATOM      6  C   UNL     1       8.623  13.449 -19.991  1.00  0.00     0.157 A 
ENDROOT
BRANCH   1   7
ATOM      7  C   UNL     1       9.088  13.915 -24.242  1.00  0.00     0.010 C 
ATOM      8  C   UNL     1       9.419  12.910 -25.065  1.00  0.00     0.025 C 
BRANCH   8   9
ATOM      9  C   UNL     1       9.615  13.121 -26.509  1.00  0.00     0.064 C 
ATOM     10  O   UNL     1       8.923  13.982 -27.110  1.00  0.00    -0.545 OA
ATOM     11  O   UNL     1      10.556  12.384 -27.220  1.00  0.00    -0.545 OA
ENDBRANCH   8   9
ENDBRANCH   1   7
BRANCH   4  12
ATOM     12  O   UNL     1      10.975  12.823 -19.864  1.00  0.00    -0.504 OA
ATOM     13  H   UNL     1      11.876  12.652 -20.293  1.00  0.00     0.293 HD
ENDBRANCH   4  12
BRANCH   6  14
ATOM     14  O   UNL     1       8.488  13.294 -18.612  1.00  0.00    -0.504 OA
ATOM     15  H   UNL     1       8.104  12.447 -18.208  1.00  0.00     0.293 HD
ENDBRANCH   6  14
TORSDOF 4
ENDMDL
MODEL 9
REMARK VINA RESULT:    -4.585      2.727      5.463
REMARK INTER + INTRA:          -5.516
REMARK INTER:                  -5.382
REMARK INTRA:                  -0.134
REMARK UNBOUND:                -0.127
REMARK SMILES O=C([O-])C=Cc1ccc(O)c(O)c1
REMARK SMILES IDX 6 1 13 2 7 3 11 4 8 5 9 6 5 7 4 8 2 9 1 10 3 11 12 12 10 14
REMARK H PARENT 12 13 10 15
REMARK Flexibility Score: inf
ROOT
ATOM      1  C   UNL     1       5.844   7.372 -15.489  1.00  0.00    -0.022 A 
ATOM      2  C   UNL     1       6.308   6.331 -16.311  1.00  0.00     0.058 A 
ATOM      3  C   UNL     1       5.630   8.643 -16.058  1.00  0.00     0.012 A 
ATOM      4  C   UNL     1       6.579   6.554 -17.666  1.00  0.00     0.157 A 
ATOM      5  C   UNL     1       5.899   8.866 -17.411  1.00  0.00     0.051 A 
ATOM      6  C   UNL     1       6.377   7.827 -18.219  1.00  0.00     0.157 A 
ENDROOT
BRANCH   1   7
ATOM      7  C   UNL     1       5.563   7.079 -14.062  1.00  0.00     0.010 C 
ATOM      8  C   UNL     1       6.015   7.825 -13.045  1.00  0.00     0.025 C 
BRANCH   8   9
ATOM      9  C   UNL     1       5.721   7.489 -11.642  1.00  0.00     0.064 C 
ATOM     10  O   UNL     1       4.875   6.594 -11.383  1.00  0.00    -0.545 OA
ATOM     11  O   UNL     1       6.366   8.142 -10.597  1.00  0.00    -0.545 OA
ENDBRANCH   8   9
ENDBRANCH   1   7
BRANCH   4  12
ATOM     12  O   UNL     1       7.048   5.496 -18.445  1.00  0.00    -0.504 OA
ATOM     13  H   UNL     1       7.137   4.556 -18.078  1.00  0.00     0.293 HD
ENDBRANCH   4  12
BRANCH   6  14
ATOM     14  O   UNL     1       6.645   8.055 -19.568  1.00  0.00    -0.504 OA
ATOM     15  H   UNL     1       6.747   7.290 -20.226  1.00  0.00     0.293 HD
ENDBRANCH   6  14
TORSDOF 4
ENDMDL
