MODEL 1
REMARK VINA RESULT:    -1.427      0.000      0.000
REMARK INTER + INTRA:          -4.836
REMARK INTER:                  -2.762
REMARK INTRA:                  -2.074
REMARK UNBOUND:                -2.074
REMARK SMILES CCCCCCCCCCCCCCCCCC(=O)[O-]
REMARK SMILES IDX 10 1 11 2 12 3 13 4 14 5 15 6 16 7 17 8 18 9 19 10 20 11
REMARK SMILES IDX 9 12 8 13 7 14 6 15 5 16 4 17 3 18 2 19 1 20
REMARK H PARENT
REMARK Flexibility Score: inf
ROOT
ATOM      1  C   UNL     1     -23.679   2.067 -33.919  1.00  0.00     0.000 C 
ENDROOT
BRANCH   1   2
ATOM      2  C   UNL     1     -22.685   3.068 -34.530  1.00  0.00     0.000 C 
BRANCH   2   3
ATOM      3  C   UNL     1     -23.376   4.205 -35.304  1.00  0.00     0.000 C 
BRANCH   3   4
ATOM      4  C   UNL     1     -22.487   4.934 -36.328  1.00  0.00     0.000 C 
BRANCH   4   5
ATOM      5  C   UNL     1     -22.527   4.290 -37.723  1.00  0.00     0.000 C 
BRANCH   5   6
ATOM      6  C   UNL     1     -23.210   2.913 -37.722  1.00  0.00     0.000 C 
BRANCH   6   7
ATOM      7  C   UNL     1     -23.152   2.193 -39.087  1.00  0.00     0.006 C 
BRANCH   7   8
ATOM      8  C   UNL     1     -22.061   1.115 -39.125  1.00  0.00     0.053 C 
BRANCH   8   9
ATOM      9  C   UNL     1     -22.611  -0.203 -38.679  1.00  0.00     0.041 C 
ATOM     10  O   UNL     1     -23.837  -0.456 -38.817  1.00  0.00    -0.550 OA
ATOM     11  O   UNL     1     -21.782  -1.132 -38.064  1.00  0.00    -0.550 OA
ENDBRANCH   8   9
ENDBRANCH   7   8
ENDBRANCH   6   7
ENDBRANCH   5   6
ENDBRANCH   4   5
ENDBRANCH   3   4
ENDBRANCH   2   3
ENDBRANCH   1   2
BRANCH   1  12
ATOM     12  C   UNL     1     -25.119   2.300 -34.401  1.00  0.00     0.000 C 
BRANCH  12  13
ATOM     13  C   UNL     1     -26.090   2.583 -33.241  1.00  0.00    -0.000 C 
BRANCH  13  14
ATOM     14  C   UNL     1     -26.065   4.054 -32.787  1.00  0.00    -0.000 C 
BRANCH  14  15
ATOM     15  C   UNL     1     -26.655   5.052 -33.800  1.00  0.00    -0.000 C 
BRANCH  15  16
ATOM     16  C   UNL     1     -28.022   4.608 -34.349  1.00  0.00    -0.000 C 
BRANCH  16  17
ATOM     17  C   UNL     1     -28.263   5.091 -35.789  1.00  0.00    -0.000 C 
BRANCH  17  18
ATOM     18  C   UNL     1     -27.441   4.298 -36.820  1.00  0.00    -0.000 C 
BRANCH  18  19
ATOM     19  C   UNL     1     -26.290   5.125 -37.415  1.00  0.00    -0.003 C 
ATOM     20  C   UNL     1     -26.240   5.053 -38.941  1.00  0.00     0.004 C 
ENDBRANCH  18  19
ENDBRANCH  17  18
ENDBRANCH  16  17
ENDBRANCH  15  16
ENDBRANCH  14  15
ENDBRANCH  13  14
ENDBRANCH  12  13
ENDBRANCH   1  12
TORSDOF 16
ENDMDL
MODEL 2
REMARK VINA RESULT:    -1.244      1.303      2.040
REMARK INTER + INTRA:          -4.481
REMARK INTER:                  -3.048
REMARK INTRA:                  -1.433
REMARK UNBOUND:                -2.074
REMARK SMILES CCCCCCCCCCCCCCCCCC(=O)[O-]
REMARK SMILES IDX 10 1 11 2 12 3 13 4 14 5 15 6 16 7 17 8 18 9 19 10 20 11
REMARK SMILES IDX 9 12 8 13 7 14 6 15 5 16 4 17 3 18 2 19 1 20
REMARK H PARENT
REMARK Flexibility Score: inf
ROOT
ATOM      1  C   UNL     1     -22.402   3.447 -34.173  1.00  0.00     0.000 C 
ENDROOT
BRANCH   1   2
ATOM      2  C   UNL     1     -22.857   4.158 -35.458  1.00  0.00     0.000 C 
BRANCH   2   3
ATOM      3  C   UNL     1     -23.202   3.181 -36.596  1.00  0.00     0.000 C 
BRANCH   3   4
ATOM      4  C   UNL     1     -22.604   3.539 -37.969  1.00  0.00     0.000 C 
BRANCH   4   5
ATOM      5  C   UNL     1     -23.124   2.641 -39.103  1.00  0.00     0.000 C 
BRANCH   5   6
ATOM      6  C   UNL     1     -22.453   1.257 -39.120  1.00  0.00     0.000 C 
BRANCH   6   7
ATOM      7  C   UNL     1     -23.457   0.084 -39.124  1.00  0.00     0.006 C 
BRANCH   7   8
ATOM      8  C   UNL     1     -22.762  -1.271 -38.933  1.00  0.00     0.053 C 
BRANCH   8   9
ATOM      9  C   UNL     1     -23.774  -2.360 -38.773  1.00  0.00     0.041 C 
ATOM     10  O   UNL     1     -23.437  -3.564 -38.923  1.00  0.00    -0.550 OA
ATOM     11  O   UNL     1     -25.102  -2.045 -38.510  1.00  0.00    -0.550 OA
ENDBRANCH   8   9
ENDBRANCH   7   8
ENDBRANCH   6   7
ENDBRANCH   5   6
ENDBRANCH   4   5
ENDBRANCH   3   4
ENDBRANCH   2   3
ENDBRANCH   1   2
BRANCH   1  12
ATOM     12  C   UNL     1     -23.430   2.419 -33.674  1.00  0.00     0.000 C 
BRANCH  12  13
ATOM     13  C   UNL     1     -24.426   3.024 -32.668  1.00  0.00    -0.000 C 
BRANCH  13  14
ATOM     14  C   UNL     1     -25.894   2.803 -33.074  1.00  0.00    -0.000 C 
BRANCH  14  15
ATOM     15  C   UNL     1     -26.778   4.061 -33.007  1.00  0.00    -0.000 C 
BRANCH  15  16
ATOM     16  C   UNL     1     -26.462   5.074 -34.121  1.00  0.00    -0.000 C 
BRANCH  16  17
ATOM     17  C   UNL     1     -26.609   4.468 -35.526  1.00  0.00    -0.000 C 
BRANCH  17  18
ATOM     18  C   UNL     1     -27.747   5.118 -36.331  1.00  0.00    -0.000 C 
BRANCH  18  19
ATOM     19  C   UNL     1     -27.971   4.435 -37.689  1.00  0.00    -0.003 C 
ATOM     20  C   UNL     1     -27.218   5.125 -38.828  1.00  0.00     0.004 C 
ENDBRANCH  18  19
ENDBRANCH  17  18
ENDBRANCH  16  17
ENDBRANCH  15  16
ENDBRANCH  14  15
ENDBRANCH  13  14
ENDBRANCH  12  13
ENDBRANCH   1  12
TORSDOF 16
ENDMDL
MODEL 3
REMARK VINA RESULT:    -1.142      1.259      1.678
REMARK INTER + INTRA:          -4.284
REMARK INTER:                  -2.696
REMARK INTRA:                  -1.589
REMARK UNBOUND:                -2.074
REMARK SMILES CCCCCCCCCCCCCCCCCC(=O)[O-]
REMARK SMILES IDX 10 1 11 2 12 3 13 4 14 5 15 6 16 7 17 8 18 9 19 10 20 11
REMARK SMILES IDX 9 12 8 13 7 14 6 15 5 16 4 17 3 18 2 19 1 20
REMARK H PARENT
REMARK Flexibility Score: inf
ROOT
ATOM      1  C   UNL     1     -24.000   2.180 -34.132  1.00  0.00     0.000 C 
ENDROOT
BRANCH   1   2
ATOM      2  C   UNL     1     -22.556   2.645 -34.385  1.00  0.00     0.000 C 
BRANCH   2   3
ATOM      3  C   UNL     1     -22.458   3.746 -35.457  1.00  0.00     0.000 C 
BRANCH   3   4
ATOM      4  C   UNL     1     -23.805   4.222 -36.030  1.00  0.00     0.000 C 
BRANCH   4   5
ATOM      5  C   UNL     1     -23.676   4.837 -37.433  1.00  0.00     0.000 C 
BRANCH   5   6
ATOM      6  C   UNL     1     -22.266   4.676 -38.025  1.00  0.00     0.000 C 
BRANCH   6   7
ATOM      7  C   UNL     1     -22.125   3.459 -38.964  1.00  0.00     0.006 C 
BRANCH   7   8
ATOM      8  C   UNL     1     -23.358   2.546 -38.914  1.00  0.00     0.053 C 
BRANCH   8   9
ATOM      9  C   UNL     1     -22.993   1.204 -38.361  1.00  0.00     0.041 C 
ATOM     10  O   UNL     1     -23.434   0.156 -38.902  1.00  0.00    -0.550 OA
ATOM     11  O   UNL     1     -22.210   1.112 -37.218  1.00  0.00    -0.550 OA
ENDBRANCH   8   9
ENDBRANCH   7   8
ENDBRANCH   6   7
ENDBRANCH   5   6
ENDBRANCH   4   5
ENDBRANCH   3   4
ENDBRANCH   2   3
ENDBRANCH   1   2
BRANCH   1  12
ATOM     12  C   UNL     1     -24.478   2.496 -32.706  1.00  0.00     0.000 C 
BRANCH  12  13
ATOM     13  C   UNL     1     -24.311   3.982 -32.345  1.00  0.00    -0.000 C 
BRANCH  13  14
ATOM     14  C   UNL     1     -25.490   4.534 -31.523  1.00  0.00    -0.000 C 
BRANCH  14  15
ATOM     15  C   UNL     1     -26.787   4.754 -32.322  1.00  0.00    -0.000 C 
BRANCH  15  16
ATOM     16  C   UNL     1     -26.528   5.089 -33.801  1.00  0.00    -0.000 C 
BRANCH  16  17
ATOM     17  C   UNL     1     -27.197   4.088 -34.757  1.00  0.00    -0.000 C 
BRANCH  17  18
ATOM     18  C   UNL     1     -28.341   4.723 -35.567  1.00  0.00    -0.000 C 
BRANCH  18  19
ATOM     19  C   UNL     1     -27.905   5.124 -36.984  1.00  0.00    -0.003 C 
ATOM     20  C   UNL     1     -28.492   4.214 -38.063  1.00  0.00     0.004 C 
ENDBRANCH  18  19
ENDBRANCH  17  18
ENDBRANCH  16  17
ENDBRANCH  15  16
ENDBRANCH  14  15
ENDBRANCH  13  14
ENDBRANCH  12  13
ENDBRANCH   1  12
TORSDOF 16
ENDMDL
MODEL 4
REMARK VINA RESULT:    -0.826      2.304      5.440
REMARK INTER + INTRA:          -3.672
REMARK INTER:                  -3.158
REMARK INTRA:                  -0.514
REMARK UNBOUND:                -2.074
REMARK SMILES CCCCCCCCCCCCCCCCCC(=O)[O-]
REMARK SMILES IDX 10 1 11 2 12 3 13 4 14 5 15 6 16 7 17 8 18 9 19 10 20 11
REMARK SMILES IDX 9 12 8 13 7 14 6 15 5 16 4 17 3 18 2 19 1 20
REMARK H PARENT
REMARK Flexibility Score: inf
ROOT
ATOM      1  C   UNL     1     -23.483   1.349 -33.294  1.00  0.00     0.000 C 
ENDROOT
BRANCH   1   2
ATOM      2  C   UNL     1     -24.742   1.992 -32.686  1.00  0.00     0.000 C 
BRANCH   2   3
ATOM      3  C   UNL     1     -24.765   3.524 -32.833  1.00  0.00     0.000 C 
BRANCH   3   4
ATOM      4  C   UNL     1     -26.077   4.203 -32.397  1.00  0.00     0.000 C 
BRANCH   4   5
ATOM      5  C   UNL     1     -26.681   5.098 -33.490  1.00  0.00     0.000 C 
BRANCH   5   6
ATOM      6  C   UNL     1     -27.699   4.354 -34.371  1.00  0.00     0.000 C 
BRANCH   6   7
ATOM      7  C   UNL     1     -28.062   5.111 -35.668  1.00  0.00     0.006 C 
BRANCH   7   8
ATOM      8  C   UNL     1     -26.913   5.098 -36.685  1.00  0.00     0.053 C 
BRANCH   8   9
ATOM      9  C   UNL     1     -27.442   4.904 -38.070  1.00  0.00     0.041 C 
ATOM     10  O   UNL     1     -28.684   4.901 -38.279  1.00  0.00    -0.550 OA
ATOM     11  O   UNL     1     -26.567   4.676 -39.125  1.00  0.00    -0.550 OA
ENDBRANCH   8   9
ENDBRANCH   7   8
ENDBRANCH   6   7
ENDBRANCH   5   6
ENDBRANCH   4   5
ENDBRANCH   3   4
ENDBRANCH   2   3
ENDBRANCH   1   2
BRANCH   1  12
ATOM     12  C   UNL     1     -23.292   1.717 -34.773  1.00  0.00     0.000 C 
BRANCH  12  13
ATOM     13  C   UNL     1     -22.388   2.947 -34.963  1.00  0.00    -0.000 C 
BRANCH  13  14
ATOM     14  C   UNL     1     -23.169   4.274 -34.925  1.00  0.00    -0.000 C 
BRANCH  14  15
ATOM     15  C   UNL     1     -23.213   5.035 -36.263  1.00  0.00    -0.000 C 
BRANCH  15  16
ATOM     16  C   UNL     1     -22.507   4.280 -37.403  1.00  0.00    -0.000 C 
BRANCH  16  17
ATOM     17  C   UNL     1     -23.441   3.293 -38.122  1.00  0.00    -0.000 C 
BRANCH  17  18
ATOM     18  C   UNL     1     -22.687   2.379 -39.104  1.00  0.00    -0.000 C 
BRANCH  18  19
ATOM     19  C   UNL     1     -23.249   0.949 -39.125  1.00  0.00    -0.003 C 
ATOM     20  C   UNL     1     -22.369  -0.043 -38.363  1.00  0.00     0.004 C 
ENDBRANCH  18  19
ENDBRANCH  17  18
ENDBRANCH  16  17
ENDBRANCH  15  16
ENDBRANCH  14  15
ENDBRANCH  13  14
ENDBRANCH  12  13
ENDBRANCH   1  12
TORSDOF 16
ENDMDL
MODEL 5
REMARK VINA RESULT:    -0.595      2.223      5.648
REMARK INTER + INTRA:          -3.225
REMARK INTER:                  -2.400
REMARK INTRA:                  -0.825
REMARK UNBOUND:                -2.074
REMARK SMILES CCCCCCCCCCCCCCCCCC(=O)[O-]
REMARK SMILES IDX 10 1 11 2 12 3 13 4 14 5 15 6 16 7 17 8 18 9 19 10 20 11
REMARK SMILES IDX 9 12 8 13 7 14 6 15 5 16 4 17 3 18 2 19 1 20
REMARK H PARENT
REMARK Flexibility Score: inf
ROOT
ATOM      1  C   UNL     1     -24.807   2.752 -32.970  1.00  0.00     0.000 C 
ENDROOT
BRANCH   1   2
ATOM      2  C   UNL     1     -26.339   2.642 -33.049  1.00  0.00     0.000 C 
BRANCH   2   3
ATOM      3  C   UNL     1     -27.012   3.940 -33.532  1.00  0.00     0.000 C 
BRANCH   3   4
ATOM      4  C   UNL     1     -26.370   4.586 -34.773  1.00  0.00     0.000 C 
BRANCH   4   5
ATOM      5  C   UNL     1     -27.367   4.798 -35.922  1.00  0.00     0.000 C 
BRANCH   5   6
ATOM      6  C   UNL     1     -26.674   5.044 -37.273  1.00  0.00     0.000 C 
BRANCH   6   7
ATOM      7  C   UNL     1     -25.276   4.397 -37.377  1.00  0.00     0.006 C 
BRANCH   7   8
ATOM      8  C   UNL     1     -24.382   5.115 -38.398  1.00  0.00     0.053 C 
BRANCH   8   9
ATOM      9  C   UNL     1     -22.940   4.827 -38.124  1.00  0.00     0.041 C 
ATOM     10  O   UNL     1     -22.436   5.124 -37.009  1.00  0.00    -0.550 OA
ATOM     11  O   UNL     1     -22.138   4.279 -39.118  1.00  0.00    -0.550 OA
ENDBRANCH   8   9
ENDBRANCH   7   8
ENDBRANCH   6   7
ENDBRANCH   5   6
ENDBRANCH   4   5
ENDBRANCH   3   4
ENDBRANCH   2   3
ENDBRANCH   1   2
BRANCH   1  12
ATOM     12  C   UNL     1     -24.144   2.730 -34.356  1.00  0.00     0.000 C 
BRANCH  12  13
ATOM     13  C   UNL     1     -22.730   2.125 -34.323  1.00  0.00    -0.000 C 
BRANCH  13  14
ATOM     14  C   UNL     1     -22.097   2.005 -35.721  1.00  0.00    -0.000 C 
BRANCH  14  15
ATOM     15  C   UNL     1     -23.056   1.519 -36.824  1.00  0.00    -0.000 C 
BRANCH  15  16
ATOM     16  C   UNL     1     -22.326   1.116 -38.116  1.00  0.00    -0.000 C 
BRANCH  16  17
ATOM     17  C   UNL     1     -23.099   0.064 -38.926  1.00  0.00    -0.000 C 
BRANCH  17  18
ATOM     18  C   UNL     1     -22.536  -1.356 -38.736  1.00  0.00    -0.000 C 
BRANCH  18  19
ATOM     19  C   UNL     1     -21.628  -1.467 -37.502  1.00  0.00    -0.003 C 
ATOM     20  C   UNL     1     -20.894  -2.806 -37.427  1.00  0.00     0.004 C 
ENDBRANCH  18  19
ENDBRANCH  17  18
ENDBRANCH  16  17
ENDBRANCH  15  16
ENDBRANCH  14  15
ENDBRANCH  13  14
ENDBRANCH  12  13
ENDBRANCH   1  12
TORSDOF 16
ENDMDL
MODEL 6
REMARK VINA RESULT:    -0.376      2.870      5.311
REMARK INTER + INTRA:          -2.801
REMARK INTER:                  -0.546
REMARK INTRA:                  -2.255
REMARK UNBOUND:                -2.074
REMARK SMILES CCCCCCCCCCCCCCCCCC(=O)[O-]
REMARK SMILES IDX 10 1 11 2 12 3 13 4 14 5 15 6 16 7 17 8 18 9 19 10 20 11
REMARK SMILES IDX 9 12 8 13 7 14 6 15 5 16 4 17 3 18 2 19 1 20
REMARK H PARENT
REMARK Flexibility Score: inf
ROOT
ATOM      1  C   UNL     1     -23.887   1.676 -32.997  1.00  0.00     0.000 C 
ENDROOT
BRANCH   1   2
ATOM      2  C   UNL     1     -23.698   3.032 -32.295  1.00  0.00     0.000 C 
BRANCH   2   3
ATOM      3  C   UNL     1     -25.021   3.642 -31.800  1.00  0.00     0.000 C 
BRANCH   3   4
ATOM      4  C   UNL     1     -25.568   4.800 -32.655  1.00  0.00     0.000 C 
BRANCH   4   5
ATOM      5  C   UNL     1     -24.714   5.080 -33.902  1.00  0.00     0.000 C 
BRANCH   5   6
ATOM      6  C   UNL     1     -25.450   4.750 -35.212  1.00  0.00     0.000 C 
BRANCH   6   7
ATOM      7  C   UNL     1     -26.948   5.125 -35.191  1.00  0.00     0.006 C 
BRANCH   7   8
ATOM      8  C   UNL     1     -27.575   5.076 -36.591  1.00  0.00     0.053 C 
BRANCH   8   9
ATOM      9  C   UNL     1     -28.657   4.044 -36.644  1.00  0.00     0.041 C 
ATOM     10  O   UNL     1     -29.114   3.551 -35.580  1.00  0.00    -0.550 OA
ATOM     11  O   UNL     1     -29.125   3.588 -37.870  1.00  0.00    -0.550 OA
ENDBRANCH   8   9
ENDBRANCH   7   8
ENDBRANCH   6   7
ENDBRANCH   5   6
ENDBRANCH   4   5
ENDBRANCH   3   4
ENDBRANCH   2   3
ENDBRANCH   1   2
BRANCH   1  12
ATOM     12  C   UNL     1     -22.752   1.361 -33.983  1.00  0.00     0.000 C 
BRANCH  12  13
ATOM     13  C   UNL     1     -22.536   2.486 -35.011  1.00  0.00    -0.000 C 
BRANCH  13  14
ATOM     14  C   UNL     1     -23.175   2.177 -36.378  1.00  0.00    -0.000 C 
BRANCH  14  15
ATOM     15  C   UNL     1     -22.246   2.390 -37.587  1.00  0.00    -0.000 C 
BRANCH  15  16
ATOM     16  C   UNL     1     -21.659   3.811 -37.647  1.00  0.00    -0.000 C 
BRANCH  16  17
ATOM     17  C   UNL     1     -22.747   4.896 -37.683  1.00  0.00    -0.000 C 
BRANCH  17  18
ATOM     18  C   UNL     1     -23.339   5.089 -39.090  1.00  0.00    -0.000 C 
BRANCH  18  19
ATOM     19  C   UNL     1     -24.875   5.102 -39.085  1.00  0.00    -0.003 C 
ATOM     20  C   UNL     1     -25.477   3.697 -39.062  1.00  0.00     0.004 C 
ENDBRANCH  18  19
ENDBRANCH  17  18
ENDBRANCH  16  17
ENDBRANCH  15  16
ENDBRANCH  14  15
ENDBRANCH  13  14
ENDBRANCH  12  13
ENDBRANCH   1  12
TORSDOF 16
ENDMDL
MODEL 7
REMARK VINA RESULT:    -0.300      2.347      5.896
REMARK INTER + INTRA:          -2.654
REMARK INTER:                  -1.270
REMARK INTRA:                  -1.384
REMARK UNBOUND:                -2.074
REMARK SMILES CCCCCCCCCCCCCCCCCC(=O)[O-]
REMARK SMILES IDX 10 1 11 2 12 3 13 4 14 5 15 6 16 7 17 8 18 9 19 10 20 11
REMARK SMILES IDX 9 12 8 13 7 14 6 15 5 16 4 17 3 18 2 19 1 20
REMARK H PARENT
REMARK Flexibility Score: inf
ROOT
ATOM      1  C   UNL     1     -25.375   2.897 -33.189  1.00  0.00     0.000 C 
ENDROOT
BRANCH   1   2
ATOM      2  C   UNL     1     -25.979   4.309 -33.107  1.00  0.00     0.000 C 
BRANCH   2   3
ATOM      3  C   UNL     1     -27.510   4.300 -32.951  1.00  0.00     0.000 C 
BRANCH   3   4
ATOM      4  C   UNL     1     -28.217   3.052 -33.510  1.00  0.00     0.000 C 
BRANCH   4   5
ATOM      5  C   UNL     1     -28.985   3.329 -34.811  1.00  0.00     0.000 C 
BRANCH   5   6
ATOM      6  C   UNL     1     -29.017   4.822 -35.176  1.00  0.00     0.000 C 
BRANCH   6   7
ATOM      7  C   UNL     1     -28.499   5.123 -36.600  1.00  0.00     0.006 C 
BRANCH   7   8
ATOM      8  C   UNL     1     -27.005   4.808 -36.748  1.00  0.00     0.053 C 
BRANCH   8   9
ATOM      9  C   UNL     1     -26.560   5.032 -38.159  1.00  0.00     0.041 C 
ATOM     10  O   UNL     1     -27.410   5.117 -39.084  1.00  0.00    -0.550 OA
ATOM     11  O   UNL     1     -25.205   5.094 -38.461  1.00  0.00    -0.550 OA
ENDBRANCH   8   9
ENDBRANCH   7   8
ENDBRANCH   6   7
ENDBRANCH   5   6
ENDBRANCH   4   5
ENDBRANCH   3   4
ENDBRANCH   2   3
ENDBRANCH   1   2
BRANCH   1  12
ATOM     12  C   UNL     1     -25.138   2.443 -34.638  1.00  0.00     0.000 C 
BRANCH  12  13
ATOM     13  C   UNL     1     -24.264   3.432 -35.429  1.00  0.00    -0.000 C 
BRANCH  13  14
ATOM     14  C   UNL     1     -22.770   3.065 -35.401  1.00  0.00    -0.000 C 
BRANCH  14  15
ATOM     15  C   UNL     1     -22.478   1.560 -35.257  1.00  0.00    -0.000 C 
BRANCH  15  16
ATOM     16  C   UNL     1     -22.257   0.862 -36.610  1.00  0.00    -0.000 C 
BRANCH  16  17
ATOM     17  C   UNL     1     -22.540   1.789 -37.803  1.00  0.00    -0.000 C 
BRANCH  17  18
ATOM     18  C   UNL     1     -23.125   1.033 -39.009  1.00  0.00    -0.000 C 
BRANCH  18  19
ATOM     19  C   UNL     1     -22.588  -0.402 -39.121  1.00  0.00    -0.003 C 
ATOM     20  C   UNL     1     -23.638  -1.455 -38.764  1.00  0.00     0.004 C 
ENDBRANCH  18  19
ENDBRANCH  17  18
ENDBRANCH  16  17
ENDBRANCH  15  16
ENDBRANCH  14  15
ENDBRANCH  13  14
ENDBRANCH  12  13
ENDBRANCH   1  12
TORSDOF 16
ENDMDL
MODEL 8
REMARK VINA RESULT:    -0.229      2.925      5.537
REMARK INTER + INTRA:          -2.518
REMARK INTER:                  -1.052
REMARK INTRA:                  -1.466
REMARK UNBOUND:                -2.074
REMARK SMILES CCCCCCCCCCCCCCCCCC(=O)[O-]
REMARK SMILES IDX 10 1 11 2 12 3 13 4 14 5 15 6 16 7 17 8 18 9 19 10 20 11
REMARK SMILES IDX 9 12 8 13 7 14 6 15 5 16 4 17 3 18 2 19 1 20
REMARK H PARENT
REMARK Flexibility Score: inf
ROOT
ATOM      1  C   UNL     1     -22.709   0.954 -34.779  1.00  0.00     0.000 C 
ENDROOT
BRANCH   1   2
ATOM      2  C   UNL     1     -22.372   1.959 -33.665  1.00  0.00     0.000 C 
BRANCH   2   3
ATOM      3  C   UNL     1     -22.209   3.399 -34.183  1.00  0.00     0.000 C 
BRANCH   3   4
ATOM      4  C   UNL     1     -23.388   4.341 -33.878  1.00  0.00     0.000 C 
BRANCH   4   5
ATOM      5  C   UNL     1     -24.533   3.645 -33.126  1.00  0.00     0.000 C 
BRANCH   5   6
ATOM      6  C   UNL     1     -25.744   4.566 -32.902  1.00  0.00     0.000 C 
BRANCH   6   7
ATOM      7  C   UNL     1     -26.412   5.038 -34.212  1.00  0.00     0.006 C 
BRANCH   7   8
ATOM      8  C   UNL     1     -27.940   5.106 -34.089  1.00  0.00     0.053 C 
BRANCH   8   9
ATOM      9  C   UNL     1     -28.555   3.797 -34.471  1.00  0.00     0.041 C 
ATOM     10  O   UNL     1     -28.516   2.823 -33.674  1.00  0.00    -0.550 OA
ATOM     11  O   UNL     1     -29.125   3.635 -35.728  1.00  0.00    -0.550 OA
ENDBRANCH   8   9
ENDBRANCH   7   8
ENDBRANCH   6   7
ENDBRANCH   5   6
ENDBRANCH   4   5
ENDBRANCH   3   4
ENDBRANCH   2   3
ENDBRANCH   1   2
BRANCH   1  12
ATOM     12  C   UNL     1     -22.298   1.460 -36.171  1.00  0.00     0.000 C 
BRANCH  12  13
ATOM     13  C   UNL     1     -23.505   1.669 -37.101  1.00  0.00    -0.000 C 
BRANCH  13  14
ATOM     14  C   UNL     1     -23.154   2.476 -38.365  1.00  0.00    -0.000 C 
BRANCH  14  15
ATOM     15  C   UNL     1     -22.000   3.480 -38.189  1.00  0.00    -0.000 C 
BRANCH  15  16
ATOM     16  C   UNL     1     -22.468   4.944 -38.246  1.00  0.00    -0.000 C 
BRANCH  16  17
ATOM     17  C   UNL     1     -23.731   5.125 -39.103  1.00  0.00    -0.000 C 
BRANCH  17  18
ATOM     18  C   UNL     1     -25.020   5.102 -38.263  1.00  0.00    -0.000 C 
BRANCH  18  19
ATOM     19  C   UNL     1     -26.253   4.706 -39.089  1.00  0.00    -0.003 C 
ATOM     20  C   UNL     1     -27.561   4.873 -38.316  1.00  0.00     0.004 C 
ENDBRANCH  18  19
ENDBRANCH  17  18
ENDBRANCH  16  17
ENDBRANCH  15  16
ENDBRANCH  14  15
ENDBRANCH  13  14
ENDBRANCH  12  13
ENDBRANCH   1  12
TORSDOF 16
ENDMDL
