MODEL 1
REMARK VINA RESULT:    -4.742      0.000      0.000
REMARK INTER + INTRA:          -5.892
REMARK INTER:                  -5.574
REMARK INTRA:                  -0.318
REMARK UNBOUND:                -0.318
REMARK SMILES O=c1cc(-c2ccc(O)c(O)c2)oc2cc(O)cc(O)c12
REMARK SMILES IDX 4 1 3 2 2 3 1 4 21 5 19 6 18 7 16 8 15 9 14 10 13 11 5 12
REMARK SMILES IDX 6 13 7 14 8 15 12 16 10 17 9 18 11 20 20 22 17 24
REMARK H PARENT 9 19 11 21 20 23 17 25
REMARK Flexibility Score: inf
ROOT
ATOM      1  C   UNL     1       4.251  -6.760  13.710  1.00  0.00     0.138 A 
ATOM      2  C   UNL     1       4.044  -7.725  12.714  1.00  0.00     0.100 A 
ATOM      3  C   UNL     1       4.121  -9.080  13.038  1.00  0.00     0.197 A 
ATOM      4  O   UNL     1       3.875  -9.921  12.134  1.00  0.00    -0.289 OA
ATOM      5  C   UNL     1       4.442  -9.470  14.360  1.00  0.00     0.107 A 
ATOM      6  C   UNL     1       4.581 -10.822  14.799  1.00  0.00     0.134 A 
ATOM      7  C   UNL     1       4.804 -11.086  16.156  1.00  0.00     0.093 A 
ATOM      8  C   UNL     1       4.952 -10.052  17.079  1.00  0.00     0.123 A 
ATOM      9  C   UNL     1       4.867  -8.726  16.652  1.00  0.00     0.094 A 
ATOM     10  C   UNL     1       4.610  -8.429  15.312  1.00  0.00     0.146 A 
ATOM     11  O   UNL     1       4.520  -7.154  14.950  1.00  0.00    -0.456 OA
ENDROOT
BRANCH   1  12
ATOM     12  C   UNL     1       4.184  -5.306  13.420  1.00  0.00     0.021 A 
ATOM     13  C   UNL     1       3.981  -4.819  12.115  1.00  0.00     0.016 A 
ATOM     14  C   UNL     1       3.912  -3.443  11.875  1.00  0.00     0.051 A 
ATOM     15  C   UNL     1       4.038  -2.533  12.928  1.00  0.00     0.157 A 
ATOM     16  C   UNL     1       4.295  -4.385  14.477  1.00  0.00     0.062 A 
ATOM     17  C   UNL     1       4.228  -3.005  14.236  1.00  0.00     0.158 A 
BRANCH  15  18
ATOM     18  O   UNL     1       3.966  -1.167  12.655  1.00  0.00    -0.504 OA
ATOM     19  H   UNL     1       3.320  -0.556  13.138  1.00  0.00     0.293 HD
ENDBRANCH  15  18
BRANCH  17  20
ATOM     20  O   UNL     1       4.350  -2.103  15.292  1.00  0.00    -0.504 OA
ATOM     21  H   UNL     1       3.672  -2.072  16.045  1.00  0.00     0.293 HD
ENDBRANCH  17  20
ENDBRANCH   1  12
BRANCH   6  22
ATOM     22  O   UNL     1       4.531 -11.931  13.949  1.00  0.00    -0.507 OA
ATOM     23  H   UNL     1       3.687 -12.378  13.630  1.00  0.00     0.293 HD
ENDBRANCH   6  22
BRANCH   8  24
ATOM     24  O   UNL     1       5.189 -10.353  18.418  1.00  0.00    -0.508 OA
ATOM     25  H   UNL     1       5.120  -9.647  19.141  1.00  0.00     0.293 HD
ENDBRANCH   8  24
TORSDOF 5
ENDMDL
MODEL 2
REMARK VINA RESULT:    -4.064     16.464     18.930
REMARK INTER + INTRA:          -5.094
REMARK INTER:                  -4.831
REMARK INTRA:                  -0.263
REMARK UNBOUND:                -0.318
REMARK SMILES O=c1cc(-c2ccc(O)c(O)c2)oc2cc(O)cc(O)c12
REMARK SMILES IDX 4 1 3 2 2 3 1 4 21 5 19 6 18 7 16 8 15 9 14 10 13 11 5 12
REMARK SMILES IDX 6 13 7 14 8 15 12 16 10 17 9 18 11 20 20 22 17 24
REMARK H PARENT 9 19 11 21 20 23 17 25
REMARK Flexibility Score: inf
ROOT
ATOM      1  C   UNL     1      12.782 -12.692  29.070  1.00  0.00     0.138 A 
ATOM      2  C   UNL     1      13.510 -11.914  29.981  1.00  0.00     0.100 A 
ATOM      3  C   UNL     1      12.892 -10.839  30.622  1.00  0.00     0.197 A 
ATOM      4  O   UNL     1      13.556 -10.195  31.474  1.00  0.00    -0.289 OA
ATOM      5  C   UNL     1      11.545 -10.522  30.322  1.00  0.00     0.107 A 
ATOM      6  C   UNL     1      10.821  -9.429  30.887  1.00  0.00     0.134 A 
ATOM      7  C   UNL     1       9.463  -9.274  30.588  1.00  0.00     0.093 A 
ATOM      8  C   UNL     1       8.816 -10.133  29.700  1.00  0.00     0.123 A 
ATOM      9  C   UNL     1       9.526 -11.175  29.103  1.00  0.00     0.094 A 
ATOM     10  C   UNL     1      10.874 -11.377  29.408  1.00  0.00     0.146 A 
ATOM     11  O   UNL     1      11.510 -12.392  28.831  1.00  0.00    -0.456 OA
ENDROOT
BRANCH   1  12
ATOM     12  C   UNL     1      13.390 -13.844  28.359  1.00  0.00     0.021 A 
ATOM     13  C   UNL     1      13.524 -13.863  26.958  1.00  0.00     0.016 A 
ATOM     14  C   UNL     1      14.111 -14.959  26.317  1.00  0.00     0.051 A 
ATOM     15  C   UNL     1      14.578 -16.046  27.059  1.00  0.00     0.157 A 
ATOM     16  C   UNL     1      13.876 -14.936  29.101  1.00  0.00     0.062 A 
ATOM     17  C   UNL     1      14.463 -16.036  28.458  1.00  0.00     0.158 A 
BRANCH  15  18
ATOM     18  O   UNL     1      15.157 -17.125  26.390  1.00  0.00    -0.504 OA
ATOM     19  H   UNL     1      14.635 -17.964  26.170  1.00  0.00     0.293 HD
ENDBRANCH  15  18
BRANCH  17  20
ATOM     20  O   UNL     1      14.931 -17.115  29.205  1.00  0.00    -0.504 OA
ATOM     21  H   UNL     1      14.737 -17.200  30.196  1.00  0.00     0.293 HD
ENDBRANCH  17  20
ENDBRANCH   1  12
BRANCH   6  22
ATOM     22  O   UNL     1      11.388  -8.463  31.724  1.00  0.00    -0.507 OA
ATOM     23  H   UNL     1      11.411  -8.510  32.730  1.00  0.00     0.293 HD
ENDBRANCH   6  22
BRANCH   8  24
ATOM     24  O   UNL     1       7.467  -9.938  29.414  1.00  0.00    -0.508 OA
ATOM     25  H   UNL     1       7.099 -10.063  28.478  1.00  0.00     0.293 HD
ENDBRANCH   8  24
TORSDOF 5
ENDMDL
MODEL 3
REMARK VINA RESULT:    -3.369     16.424     18.700
REMARK INTER + INTRA:          -4.278
REMARK INTER:                  -4.009
REMARK INTRA:                  -0.269
REMARK UNBOUND:                -0.318
REMARK SMILES O=c1cc(-c2ccc(O)c(O)c2)oc2cc(O)cc(O)c12
REMARK SMILES IDX 4 1 3 2 2 3 1 4 21 5 19 6 18 7 16 8 15 9 14 10 13 11 5 12
REMARK SMILES IDX 6 13 7 14 8 15 12 16 10 17 9 18 11 20 20 22 17 24
REMARK H PARENT 9 19 11 21 20 23 17 25
REMARK Flexibility Score: inf
ROOT
ATOM      1  C   UNL     1      12.047 -12.952  28.650  1.00  0.00     0.138 A 
ATOM      2  C   UNL     1      10.697 -12.875  28.282  1.00  0.00     0.100 A 
ATOM      3  C   UNL     1       9.905 -11.835  28.771  1.00  0.00     0.197 A 
ATOM      4  O   UNL     1       8.712 -11.762  28.377  1.00  0.00    -0.289 OA
ATOM      5  C   UNL     1      10.461 -10.887  29.663  1.00  0.00     0.107 A 
ATOM      6  C   UNL     1       9.742  -9.804  30.253  1.00  0.00     0.134 A 
ATOM      7  C   UNL     1      10.424  -8.872  31.044  1.00  0.00     0.093 A 
ATOM      8  C   UNL     1      11.785  -9.014  31.315  1.00  0.00     0.123 A 
ATOM      9  C   UNL     1      12.488 -10.096  30.785  1.00  0.00     0.094 A 
ATOM     10  C   UNL     1      11.843 -11.024  29.963  1.00  0.00     0.146 A 
ATOM     11  O   UNL     1      12.553 -12.031  29.464  1.00  0.00    -0.456 OA
ENDROOT
BRANCH   1  12
ATOM     12  C   UNL     1      12.934 -14.037  28.162  1.00  0.00     0.021 A 
ATOM     13  C   UNL     1      13.435 -14.049  26.846  1.00  0.00     0.016 A 
ATOM     14  C   UNL     1      14.276 -15.080  26.418  1.00  0.00     0.051 A 
ATOM     15  C   UNL     1      14.637 -16.109  27.292  1.00  0.00     0.157 A 
ATOM     16  C   UNL     1      13.312 -15.069  29.040  1.00  0.00     0.062 A 
ATOM     17  C   UNL     1      14.155 -16.104  28.610  1.00  0.00     0.158 A 
BRANCH  15  18
ATOM     18  O   UNL     1      15.476 -17.125  26.834  1.00  0.00    -0.504 OA
ATOM     19  H   UNL     1      15.368 -18.087  27.131  1.00  0.00     0.293 HD
ENDBRANCH  15  18
BRANCH  17  20
ATOM     20  O   UNL     1      14.514 -17.125  29.489  1.00  0.00    -0.504 OA
ATOM     21  H   UNL     1      13.821 -17.737  29.903  1.00  0.00     0.293 HD
ENDBRANCH  17  20
ENDBRANCH   1  12
BRANCH   6  22
ATOM     22  O   UNL     1       8.364  -9.611  30.113  1.00  0.00    -0.507 OA
ATOM     23  H   UNL     1       7.904  -8.714  30.090  1.00  0.00     0.293 HD
ENDBRANCH   6  22
BRANCH   8  24
ATOM     24  O   UNL     1      12.427  -8.076  32.119  1.00  0.00    -0.508 OA
ATOM     25  H   UNL     1      13.376  -8.217  32.445  1.00  0.00     0.293 HD
ENDBRANCH   8  24
TORSDOF 5
ENDMDL
