MODEL 1
REMARK VINA RESULT:    -6.004      0.000      0.000
REMARK INTER + INTRA:          -9.775
REMARK INTER:                  -8.285
REMARK INTRA:                  -1.489
REMARK UNBOUND:                -1.489
REMARK SMILES CC[C@@H](CC[C@@H](C)[C@H]1CC[C@@H]2[C@@H]3CC=C4C[C@@H](O)CC[C@]4(C)[C@H]3CC[C@@]21C)C(C)C
REMARK SMILES IDX 5 1 4 2 3 3 2 4 1 5 28 6 29 7 30 8 6 9 7 10 8 11 9 12 26 13
REMARK SMILES IDX 10 14 11 15 25 16 27 17 12 18 24 19 23 20 13 21 21 22 14 23
REMARK SMILES IDX 15 24 20 25 22 26 16 27 19 28 17 29 18 30
REMARK H PARENT 18 31
REMARK Flexibility Score: inf
ROOT
ATOM      1  C   UNL     1     127.939 124.125 144.909  1.00  0.00     0.004 C 
ENDROOT
BRANCH   1   2
ATOM      2  C   UNL     1     128.393 123.975 146.382  1.00  0.00     0.004 C 
BRANCH   2   3
ATOM      3  C   UNL     1     129.683 123.124 146.591  1.00  0.00    -0.009 C 
BRANCH   3   4
ATOM      4  C   UNL     1     129.357 121.619 146.832  1.00  0.00     0.000 C 
ATOM      5  C   UNL     1     130.293 120.939 147.838  1.00  0.00     0.004 C 
ENDBRANCH   3   4
BRANCH   3   6
ATOM      6  C   UNL     1     130.627 123.736 147.690  1.00  0.00    -0.014 C 
ATOM      7  C   UNL     1     131.703 124.673 147.109  1.00  0.00     0.007 C 
ATOM      8  C   UNL     1     129.826 124.525 148.745  1.00  0.00     0.007 C 
ENDBRANCH   3   6
ENDBRANCH   2   3
ENDBRANCH   1   2
BRANCH   1   9
ATOM      9  C   UNL     1     128.422 125.468 144.268  1.00  0.00    -0.011 C 
ATOM     10  C   UNL     1     128.865 126.416 145.404  1.00  0.00     0.008 C 
BRANCH   9  11
ATOM     11  C   UNL     1     129.596 125.289 143.234  1.00  0.00    -0.002 C 
ATOM     12  C   UNL     1     129.868 123.837 142.809  1.00  0.00     0.005 C 
ATOM     13  C   UNL     1     129.529 126.111 141.874  1.00  0.00    -0.026 C 
ATOM     14  C   UNL     1     130.511 123.921 141.441  1.00  0.00     0.005 C 
ATOM     15  C   UNL     1     129.740 125.042 140.759  1.00  0.00    -0.001 C 
ATOM     16  C   UNL     1     130.689 127.150 141.882  1.00  0.00     0.007 C 
ATOM     17  C   UNL     1     128.174 126.826 141.602  1.00  0.00     0.012 C 
ATOM     18  C   UNL     1     130.303 125.567 139.395  1.00  0.00     0.000 C 
ATOM     19  C   UNL     1     131.025 127.710 140.504  1.00  0.00     0.005 C 
ATOM     20  C   UNL     1     131.465 126.583 139.539  1.00  0.00     0.003 C 
ATOM     21  C   UNL     1     130.667 124.410 138.445  1.00  0.00     0.031 C 
ATOM     22  C   UNL     1     131.948 127.120 138.131  1.00  0.00    -0.008 C 
ATOM     23  C   UNL     1     131.491 124.807 137.253  1.00  0.00    -0.027 C 
ATOM     24  C   UNL     1     132.214 125.943 137.188  1.00  0.00    -0.065 C 
ATOM     25  C   UNL     1     133.281 127.908 138.298  1.00  0.00     0.014 C 
ATOM     26  C   UNL     1     130.882 128.045 137.479  1.00  0.00     0.016 C 
ATOM     27  C   UNL     1     133.407 125.964 136.250  1.00  0.00     0.063 C 
ATOM     28  C   UNL     1     133.910 128.385 136.973  1.00  0.00     0.033 C 
ATOM     29  C   UNL     1     133.812 127.377 135.803  1.00  0.00     0.118 C 
BRANCH  29  30
ATOM     30  O   UNL     1     132.913 127.853 134.833  1.00  0.00    -0.393 OA
ATOM     31  H   UNL     1     132.348 127.086 134.555  1.00  0.00     0.210 HD
ENDBRANCH  29  30
ENDBRANCH   9  11
ENDBRANCH   1   9
TORSDOF 7
ENDMDL
MODEL 2
REMARK VINA RESULT:    -5.914     10.406     12.499
REMARK INTER + INTRA:          -9.650
REMARK INTER:                  -8.760
REMARK INTRA:                  -0.890
REMARK UNBOUND:                -1.489
REMARK SMILES CC[C@@H](CC[C@@H](C)[C@H]1CC[C@@H]2[C@@H]3CC=C4C[C@@H](O)CC[C@]4(C)[C@H]3CC[C@@]21C)C(C)C
REMARK SMILES IDX 5 1 4 2 3 3 2 4 1 5 28 6 29 7 30 8 6 9 7 10 8 11 9 12 26 13
REMARK SMILES IDX 10 14 11 15 25 16 27 17 12 18 24 19 23 20 13 21 21 22 14 23
REMARK SMILES IDX 15 24 20 25 22 26 16 27 19 28 17 29 18 30
REMARK H PARENT 18 31
REMARK Flexibility Score: inf
ROOT
ATOM      1  C   UNL     1     139.191 135.271 140.509  1.00  0.00     0.004 C 
ENDROOT
BRANCH   1   2
ATOM      2  C   UNL     1     138.875 135.662 141.974  1.00  0.00     0.004 C 
BRANCH   2   3
ATOM      3  C   UNL     1     138.935 137.192 142.276  1.00  0.00    -0.009 C 
BRANCH   3   4
ATOM      4  C   UNL     1     140.270 137.597 142.970  1.00  0.00     0.000 C 
ATOM      5  C   UNL     1     141.245 138.335 142.045  1.00  0.00     0.004 C 
ENDBRANCH   3   4
BRANCH   3   6
ATOM      6  C   UNL     1     137.659 137.695 143.047  1.00  0.00    -0.014 C 
ATOM      7  C   UNL     1     136.366 136.986 142.602  1.00  0.00     0.007 C 
ATOM      8  C   UNL     1     137.809 137.505 144.570  1.00  0.00     0.007 C 
ENDBRANCH   3   6
ENDBRANCH   2   3
ENDBRANCH   1   2
BRANCH   1   9
ATOM      9  C   UNL     1     138.447 133.969 140.063  1.00  0.00    -0.011 C 
ATOM     10  C   UNL     1     137.065 133.940 140.752  1.00  0.00     0.008 C 
BRANCH   9  11
ATOM     11  C   UNL     1     138.268 133.845 138.503  1.00  0.00    -0.002 C 
ATOM     12  C   UNL     1     139.416 134.439 137.672  1.00  0.00     0.005 C 
ATOM     13  C   UNL     1     138.020 132.399 137.891  1.00  0.00    -0.026 C 
ATOM     14  C   UNL     1     139.396 133.698 136.352  1.00  0.00     0.005 C 
ATOM     15  C   UNL     1     139.084 132.265 136.759  1.00  0.00    -0.001 C 
ATOM     16  C   UNL     1     136.575 132.364 137.310  1.00  0.00     0.007 C 
ATOM     17  C   UNL     1     138.225 131.217 138.882  1.00  0.00     0.012 C 
ATOM     18  C   UNL     1     138.747 131.255 135.610  1.00  0.00     0.000 C 
ATOM     19  C   UNL     1     136.333 131.224 136.326  1.00  0.00     0.005 C 
ATOM     20  C   UNL     1     137.283 131.332 135.108  1.00  0.00     0.003 C 
ATOM     21  C   UNL     1     139.757 131.355 134.449  1.00  0.00     0.031 C 
ATOM     22  C   UNL     1     136.991 130.248 133.992  1.00  0.00    -0.008 C 
ATOM     23  C   UNL     1     139.340 130.653 133.188  1.00  0.00    -0.027 C 
ATOM     24  C   UNL     1     138.065 130.320 132.903  1.00  0.00    -0.065 C 
ATOM     25  C   UNL     1     135.614 130.539 133.325  1.00  0.00     0.014 C 
ATOM     26  C   UNL     1     136.982 128.810 134.584  1.00  0.00     0.016 C 
ATOM     27  C   UNL     1     137.689 130.166 131.441  1.00  0.00     0.063 C 
ATOM     28  C   UNL     1     135.272 129.611 132.140  1.00  0.00     0.033 C 
ATOM     29  C   UNL     1     136.462 129.269 131.213  1.00  0.00     0.118 C 
BRANCH  29  30
ATOM     30  O   UNL     1     136.817 127.918 131.368  1.00  0.00    -0.393 OA
ATOM     31  H   UNL     1     137.549 127.731 130.725  1.00  0.00     0.210 HD
ENDBRANCH  29  30
ENDBRANCH   9  11
ENDBRANCH   1   9
TORSDOF 7
ENDMDL
MODEL 3
REMARK VINA RESULT:    -5.797      4.830      7.662
REMARK INTER + INTRA:          -9.489
REMARK INTER:                  -7.376
REMARK INTRA:                  -2.113
REMARK UNBOUND:                -1.489
REMARK SMILES CC[C@@H](CC[C@@H](C)[C@H]1CC[C@@H]2[C@@H]3CC=C4C[C@@H](O)CC[C@]4(C)[C@H]3CC[C@@]21C)C(C)C
REMARK SMILES IDX 5 1 4 2 3 3 2 4 1 5 28 6 29 7 30 8 6 9 7 10 8 11 9 12 26 13
REMARK SMILES IDX 10 14 11 15 25 16 27 17 12 18 24 19 23 20 13 21 21 22 14 23
REMARK SMILES IDX 15 24 20 25 22 26 16 27 19 28 17 29 18 30
REMARK H PARENT 18 31
REMARK Flexibility Score: inf
ROOT
ATOM      1  C   UNL     1     135.840 129.817 144.741  1.00  0.00     0.004 C 
ENDROOT
BRANCH   1   2
ATOM      2  C   UNL     1     134.596 130.734 144.841  1.00  0.00     0.004 C 
BRANCH   2   3
ATOM      3  C   UNL     1     133.239 130.044 144.498  1.00  0.00    -0.009 C 
BRANCH   3   4
ATOM      4  C   UNL     1     133.236 128.536 144.890  1.00  0.00     0.000 C 
ATOM      5  C   UNL     1     132.103 128.152 145.849  1.00  0.00     0.004 C 
ENDBRANCH   3   4
BRANCH   3   6
ATOM      6  C   UNL     1     132.805 130.296 143.007  1.00  0.00    -0.014 C 
ATOM      7  C   UNL     1     132.418 129.004 142.264  1.00  0.00     0.007 C 
ATOM      8  C   UNL     1     131.613 131.271 142.924  1.00  0.00     0.007 C 
ENDBRANCH   3   6
ENDBRANCH   2   3
ENDBRANCH   1   2
BRANCH   1   9
ATOM      9  C   UNL     1     136.955 130.419 143.823  1.00  0.00    -0.011 C 
ATOM     10  C   UNL     1     138.320 130.201 144.512  1.00  0.00     0.008 C 
BRANCH   9  11
ATOM     11  C   UNL     1     136.983 129.802 142.375  1.00  0.00    -0.002 C 
ATOM     12  C   UNL     1     136.011 128.635 142.149  1.00  0.00     0.005 C 
ATOM     13  C   UNL     1     136.749 130.778 141.141  1.00  0.00    -0.026 C 
ATOM     14  C   UNL     1     135.721 128.618 140.663  1.00  0.00     0.005 C 
ATOM     15  C   UNL     1     135.620 130.095 140.310  1.00  0.00    -0.001 C 
ATOM     16  C   UNL     1     138.076 130.853 140.328  1.00  0.00     0.007 C 
ATOM     17  C   UNL     1     136.269 132.210 141.513  1.00  0.00     0.012 C 
ATOM     18  C   UNL     1     135.563 130.461 138.788  1.00  0.00     0.000 C 
ATOM     19  C   UNL     1     137.902 131.389 138.911  1.00  0.00     0.005 C 
ATOM     20  C   UNL     1     136.947 130.487 138.091  1.00  0.00     0.003 C 
ATOM     21  C   UNL     1     134.554 129.580 138.027  1.00  0.00     0.031 C 
ATOM     22  C   UNL     1     136.828 130.921 136.574  1.00  0.00    -0.008 C 
ATOM     23  C   UNL     1     134.658 129.650 136.530  1.00  0.00    -0.027 C 
ATOM     24  C   UNL     1     135.753 130.083 135.876  1.00  0.00    -0.065 C 
ATOM     25  C   UNL     1     138.182 130.665 135.846  1.00  0.00     0.014 C 
ATOM     26  C   UNL     1     136.449 132.423 136.440  1.00  0.00     0.016 C 
ATOM     27  C   UNL     1     135.968 129.585 134.458  1.00  0.00     0.063 C 
ATOM     28  C   UNL     1     138.152 130.945 134.329  1.00  0.00     0.033 C 
ATOM     29  C   UNL     1     136.854 130.509 133.609  1.00  0.00     0.118 C 
BRANCH  29  30
ATOM     30  O   UNL     1     136.125 131.642 133.208  1.00  0.00    -0.393 OA
ATOM     31  H   UNL     1     135.165 131.395 133.227  1.00  0.00     0.210 HD
ENDBRANCH  29  30
ENDBRANCH   9  11
ENDBRANCH   1   9
TORSDOF 7
ENDMDL
MODEL 4
REMARK VINA RESULT:    -5.779      9.335     11.412
REMARK INTER + INTRA:          -9.465
REMARK INTER:                  -7.755
REMARK INTRA:                  -1.709
REMARK UNBOUND:                -1.489
REMARK SMILES CC[C@@H](CC[C@@H](C)[C@H]1CC[C@@H]2[C@@H]3CC=C4C[C@@H](O)CC[C@]4(C)[C@H]3CC[C@@]21C)C(C)C
REMARK SMILES IDX 5 1 4 2 3 3 2 4 1 5 28 6 29 7 30 8 6 9 7 10 8 11 9 12 26 13
REMARK SMILES IDX 10 14 11 15 25 16 27 17 12 18 24 19 23 20 13 21 21 22 14 23
REMARK SMILES IDX 15 24 20 25 22 26 16 27 19 28 17 29 18 30
REMARK H PARENT 18 31
REMARK Flexibility Score: inf
ROOT
ATOM      1  C   UNL     1     138.636 134.276 142.138  1.00  0.00     0.004 C 
ENDROOT
BRANCH   1   2
ATOM      2  C   UNL     1     137.631 135.095 142.984  1.00  0.00     0.004 C 
BRANCH   2   3
ATOM      3  C   UNL     1     137.109 136.400 142.306  1.00  0.00    -0.009 C 
BRANCH   3   4
ATOM      4  C   UNL     1     137.643 137.680 143.017  1.00  0.00     0.000 C 
ATOM      5  C   UNL     1     138.400 137.391 144.319  1.00  0.00     0.004 C 
ENDBRANCH   3   4
BRANCH   3   6
ATOM      6  C   UNL     1     135.546 136.395 142.134  1.00  0.00    -0.014 C 
ATOM      7  C   UNL     1     135.085 135.732 140.822  1.00  0.00     0.007 C 
ATOM      8  C   UNL     1     134.852 135.671 143.305  1.00  0.00     0.007 C 
ENDBRANCH   3   6
ENDBRANCH   2   3
ENDBRANCH   1   2
BRANCH   1   9
ATOM      9  C   UNL     1     137.982 133.010 141.491  1.00  0.00    -0.011 C 
ATOM     10  C   UNL     1     136.734 132.633 142.319  1.00  0.00     0.008 C 
BRANCH   9  11
ATOM     11  C   UNL     1     137.581 133.208 139.981  1.00  0.00    -0.002 C 
ATOM     12  C   UNL     1     138.400 134.267 139.227  1.00  0.00     0.005 C 
ATOM     13  C   UNL     1     137.584 131.931 139.032  1.00  0.00    -0.026 C 
ATOM     14  C   UNL     1     138.336 133.875 137.766  1.00  0.00     0.005 C 
ATOM     15  C   UNL     1     138.445 132.358 137.805  1.00  0.00    -0.001 C 
ATOM     16  C   UNL     1     136.113 131.641 138.612  1.00  0.00     0.007 C 
ATOM     17  C   UNL     1     138.226 130.654 139.646  1.00  0.00     0.012 C 
ATOM     18  C   UNL     1     138.171 131.590 136.467  1.00  0.00     0.000 C 
ATOM     19  C   UNL     1     135.988 130.738 137.388  1.00  0.00     0.005 C 
ATOM     20  C   UNL     1     136.668 131.379 136.154  1.00  0.00     0.003 C 
ATOM     21  C   UNL     1     138.920 132.227 135.280  1.00  0.00     0.031 C 
ATOM     22  C   UNL     1     136.460 130.546 134.825  1.00  0.00    -0.008 C 
ATOM     23  C   UNL     1     138.478 131.750 133.926  1.00  0.00    -0.027 C 
ATOM     24  C   UNL     1     137.290 131.158 133.693  1.00  0.00    -0.065 C 
ATOM     25  C   UNL     1     134.962 130.598 134.401  1.00  0.00     0.014 C 
ATOM     26  C   UNL     1     136.892 129.064 135.008  1.00  0.00     0.016 C 
ATOM     27  C   UNL     1     136.722 131.251 132.288  1.00  0.00     0.063 C 
ATOM     28  C   UNL     1     134.657 129.913 133.053  1.00  0.00     0.033 C 
ATOM     29  C   UNL     1     135.724 130.132 131.953  1.00  0.00     0.118 C 
BRANCH  29  30
ATOM     30  O   UNL     1     136.410 128.931 131.705  1.00  0.00    -0.393 OA
ATOM     31  H   UNL     1     135.860 128.405 131.069  1.00  0.00     0.210 HD
ENDBRANCH  29  30
ENDBRANCH   9  11
ENDBRANCH   1   9
TORSDOF 7
ENDMDL
MODEL 5
REMARK VINA RESULT:    -5.779      8.948     11.162
REMARK INTER + INTRA:          -9.464
REMARK INTER:                  -7.198
REMARK INTRA:                  -2.267
REMARK UNBOUND:                -1.489
REMARK SMILES CC[C@@H](CC[C@@H](C)[C@H]1CC[C@@H]2[C@@H]3CC=C4C[C@@H](O)CC[C@]4(C)[C@H]3CC[C@@]21C)C(C)C
REMARK SMILES IDX 5 1 4 2 3 3 2 4 1 5 28 6 29 7 30 8 6 9 7 10 8 11 9 12 26 13
REMARK SMILES IDX 10 14 11 15 25 16 27 17 12 18 24 19 23 20 13 21 21 22 14 23
REMARK SMILES IDX 15 24 20 25 22 26 16 27 19 28 17 29 18 30
REMARK H PARENT 18 31
REMARK Flexibility Score: inf
ROOT
ATOM      1  C   UNL     1     138.129 133.878 143.743  1.00  0.00     0.004 C 
ENDROOT
BRANCH   1   2
ATOM      2  C   UNL     1     137.050 134.955 144.014  1.00  0.00     0.004 C 
BRANCH   2   3
ATOM      3  C   UNL     1     136.715 135.874 142.798  1.00  0.00    -0.009 C 
BRANCH   3   4
ATOM      4  C   UNL     1     137.138 137.352 143.051  1.00  0.00     0.000 C 
ATOM      5  C   UNL     1     138.128 137.520 144.209  1.00  0.00     0.004 C 
ENDBRANCH   3   4
BRANCH   3   6
ATOM      6  C   UNL     1     135.219 135.728 142.338  1.00  0.00    -0.014 C 
ATOM      7  C   UNL     1     134.870 136.612 141.126  1.00  0.00     0.007 C 
ATOM      8  C   UNL     1     134.879 134.268 141.978  1.00  0.00     0.007 C 
ENDBRANCH   3   6
ENDBRANCH   2   3
ENDBRANCH   1   2
BRANCH   1   9
ATOM      9  C   UNL     1     138.824 134.064 142.354  1.00  0.00    -0.011 C 
ATOM     10  C   UNL     1     140.327 134.323 142.594  1.00  0.00     0.008 C 
BRANCH   9  11
ATOM     11  C   UNL     1     138.642 132.834 141.387  1.00  0.00    -0.002 C 
ATOM     12  C   UNL     1     137.698 131.738 141.904  1.00  0.00     0.005 C 
ATOM     13  C   UNL     1     138.167 133.118 139.895  1.00  0.00    -0.026 C 
ATOM     14  C   UNL     1     137.170 131.032 140.673  1.00  0.00     0.005 C 
ATOM     15  C   UNL     1     136.949 132.168 139.685  1.00  0.00    -0.001 C 
ATOM     16  C   UNL     1     139.339 132.747 138.939  1.00  0.00     0.007 C 
ATOM     17  C   UNL     1     137.693 134.574 139.620  1.00  0.00     0.012 C 
ATOM     18  C   UNL     1     136.628 131.772 138.204  1.00  0.00     0.000 C 
ATOM     19  C   UNL     1     138.913 132.554 137.487  1.00  0.00     0.005 C 
ATOM     20  C   UNL     1     137.878 131.410 137.361  1.00  0.00     0.003 C 
ATOM     21  C   UNL     1     135.547 130.676 138.128  1.00  0.00     0.031 C 
ATOM     22  C   UNL     1     137.493 131.079 135.862  1.00  0.00    -0.008 C 
ATOM     23  C   UNL     1     135.402 130.026 136.781  1.00  0.00    -0.027 C 
ATOM     24  C   UNL     1     136.357 130.054 135.830  1.00  0.00    -0.065 C 
ATOM     25  C   UNL     1     138.720 130.456 135.130  1.00  0.00     0.014 C 
ATOM     26  C   UNL     1     137.032 132.352 135.098  1.00  0.00     0.016 C 
ATOM     27  C   UNL     1     136.359 128.936 134.803  1.00  0.00     0.063 C 
ATOM     28  C   UNL     1     138.431 129.986 133.690  1.00  0.00     0.033 C 
ATOM     29  C   UNL     1     137.053 129.312 133.486  1.00  0.00     0.118 C 
BRANCH  29  30
ATOM     30  O   UNL     1     136.220 130.148 132.723  1.00  0.00    -0.393 OA
ATOM     31  H   UNL     1     136.216 131.038 133.161  1.00  0.00     0.210 HD
ENDBRANCH  29  30
ENDBRANCH   9  11
ENDBRANCH   1   9
TORSDOF 7
ENDMDL
MODEL 6
REMARK VINA RESULT:    -5.723      8.925     12.541
REMARK INTER + INTRA:          -9.386
REMARK INTER:                  -7.435
REMARK INTRA:                  -1.951
REMARK UNBOUND:                -1.489
REMARK SMILES CC[C@@H](CC[C@@H](C)[C@H]1CC[C@@H]2[C@@H]3CC=C4C[C@@H](O)CC[C@]4(C)[C@H]3CC[C@@]21C)C(C)C
REMARK SMILES IDX 5 1 4 2 3 3 2 4 1 5 28 6 29 7 30 8 6 9 7 10 8 11 9 12 26 13
REMARK SMILES IDX 10 14 11 15 25 16 27 17 12 18 24 19 23 20 13 21 21 22 14 23
REMARK SMILES IDX 15 24 20 25 22 26 16 27 19 28 17 29 18 30
REMARK H PARENT 18 31
REMARK Flexibility Score: inf
ROOT
ATOM      1  C   UNL     1     139.049 137.603 142.261  1.00  0.00     0.004 C 
ENDROOT
BRANCH   1   2
ATOM      2  C   UNL     1     140.409 137.715 142.993  1.00  0.00     0.004 C 
BRANCH   2   3
ATOM      3  C   UNL     1     141.377 136.510 142.774  1.00  0.00    -0.009 C 
BRANCH   3   4
ATOM      4  C   UNL     1     141.421 136.061 141.283  1.00  0.00     0.000 C 
ATOM      5  C   UNL     1     142.391 136.878 140.421  1.00  0.00     0.004 C 
ENDBRANCH   3   4
BRANCH   3   6
ATOM      6  C   UNL     1     141.087 135.327 143.769  1.00  0.00    -0.014 C 
ATOM      7  C   UNL     1     140.493 134.087 143.076  1.00  0.00     0.007 C 
ATOM      8  C   UNL     1     142.364 134.892 144.515  1.00  0.00     0.007 C 
ENDBRANCH   3   6
ENDBRANCH   2   3
ENDBRANCH   1   2
BRANCH   1   9
ATOM      9  C   UNL     1     137.921 137.029 143.181  1.00  0.00    -0.011 C 
ATOM     10  C   UNL     1     137.076 138.209 143.706  1.00  0.00     0.008 C 
BRANCH   9  11
ATOM     11  C   UNL     1     136.989 135.983 142.461  1.00  0.00    -0.002 C 
ATOM     12  C   UNL     1     137.569 135.378 141.174  1.00  0.00     0.005 C 
ATOM     13  C   UNL     1     136.468 134.739 143.304  1.00  0.00    -0.026 C 
ATOM     14  C   UNL     1     136.893 134.033 141.009  1.00  0.00     0.005 C 
ATOM     15  C   UNL     1     136.825 133.498 142.432  1.00  0.00    -0.001 C 
ATOM     16  C   UNL     1     134.926 134.883 143.470  1.00  0.00     0.007 C 
ATOM     17  C   UNL     1     137.139 134.556 144.695  1.00  0.00     0.012 C 
ATOM     18  C   UNL     1     135.961 132.213 142.669  1.00  0.00     0.000 C 
ATOM     19  C   UNL     1     134.225 133.588 143.869  1.00  0.00     0.005 C 
ATOM     20  C   UNL     1     134.441 132.489 142.801  1.00  0.00     0.003 C 
ATOM     21  C   UNL     1     136.257 131.124 141.620  1.00  0.00     0.031 C 
ATOM     22  C   UNL     1     133.632 131.162 143.099  1.00  0.00    -0.008 C 
ATOM     23  C   UNL     1     135.267 129.995 141.585  1.00  0.00    -0.027 C 
ATOM     24  C   UNL     1     134.020 130.078 142.090  1.00  0.00    -0.065 C 
ATOM     25  C   UNL     1     132.105 131.432 142.947  1.00  0.00     0.014 C 
ATOM     26  C   UNL     1     133.919 130.630 144.532  1.00  0.00     0.016 C 
ATOM     27  C   UNL     1     132.964 129.153 141.512  1.00  0.00     0.063 C 
ATOM     28  C   UNL     1     131.218 130.180 143.103  1.00  0.00     0.033 C 
ATOM     29  C   UNL     1     131.788 128.891 142.464  1.00  0.00     0.118 C 
BRANCH  29  30
ATOM     30  O   UNL     1     132.173 127.987 143.470  1.00  0.00    -0.393 OA
ATOM     31  H   UNL     1     132.923 127.449 143.109  1.00  0.00     0.210 HD
ENDBRANCH  29  30
ENDBRANCH   9  11
ENDBRANCH   1   9
TORSDOF 7
ENDMDL
MODEL 7
REMARK VINA RESULT:    -5.710      1.410      2.726
REMARK INTER + INTRA:          -9.369
REMARK INTER:                  -7.206
REMARK INTRA:                  -2.163
REMARK UNBOUND:                -1.489
REMARK SMILES CC[C@@H](CC[C@@H](C)[C@H]1CC[C@@H]2[C@@H]3CC=C4C[C@@H](O)CC[C@]4(C)[C@H]3CC[C@@]21C)C(C)C
REMARK SMILES IDX 5 1 4 2 3 3 2 4 1 5 28 6 29 7 30 8 6 9 7 10 8 11 9 12 26 13
REMARK SMILES IDX 10 14 11 15 25 16 27 17 12 18 24 19 23 20 13 21 21 22 14 23
REMARK SMILES IDX 15 24 20 25 22 26 16 27 19 28 17 29 18 30
REMARK H PARENT 18 31
REMARK Flexibility Score: inf
ROOT
ATOM      1  C   UNL     1     127.256 126.333 144.949  1.00  0.00     0.004 C 
ENDROOT
BRANCH   1   2
ATOM      2  C   UNL     1     128.166 125.533 145.914  1.00  0.00     0.004 C 
BRANCH   2   3
ATOM      3  C   UNL     1     129.068 124.458 145.232  1.00  0.00    -0.009 C 
BRANCH   3   4
ATOM      4  C   UNL     1     128.519 123.016 145.444  1.00  0.00     0.000 C 
ATOM      5  C   UNL     1     128.387 122.210 144.146  1.00  0.00     0.004 C 
ENDBRANCH   3   4
BRANCH   3   6
ATOM      6  C   UNL     1     130.581 124.611 145.635  1.00  0.00    -0.014 C 
ATOM      7  C   UNL     1     131.051 126.077 145.674  1.00  0.00     0.007 C 
ATOM      8  C   UNL     1     130.863 123.982 147.014  1.00  0.00     0.007 C 
ENDBRANCH   3   6
ENDBRANCH   2   3
ENDBRANCH   1   2
BRANCH   1   9
ATOM      9  C   UNL     1     127.375 125.840 143.469  1.00  0.00    -0.011 C 
ATOM     10  C   UNL     1     125.950 125.618 142.916  1.00  0.00     0.008 C 
BRANCH   9  11
ATOM     11  C   UNL     1     128.162 126.832 142.533  1.00  0.00    -0.002 C 
ATOM     12  C   UNL     1     129.044 127.853 143.269  1.00  0.00     0.005 C 
ATOM     13  C   UNL     1     129.100 126.213 141.407  1.00  0.00    -0.026 C 
ATOM     14  C   UNL     1     130.135 128.237 142.292  1.00  0.00     0.005 C 
ATOM     15  C   UNL     1     130.475 126.919 141.611  1.00  0.00    -0.001 C 
ATOM     16  C   UNL     1     128.486 126.571 140.021  1.00  0.00     0.007 C 
ATOM     17  C   UNL     1     129.331 124.678 141.509  1.00  0.00     0.012 C 
ATOM     18  C   UNL     1     131.410 126.987 140.356  1.00  0.00     0.000 C 
ATOM     19  C   UNL     1     129.464 126.431 138.859  1.00  0.00     0.005 C 
ATOM     20  C   UNL     1     130.682 127.368 139.043  1.00  0.00     0.003 C 
ATOM     21  C   UNL     1     132.641 127.880 140.610  1.00  0.00     0.031 C 
ATOM     22  C   UNL     1     131.668 127.359 137.805  1.00  0.00    -0.008 C 
ATOM     23  C   UNL     1     133.420 128.245 139.378  1.00  0.00    -0.027 C 
ATOM     24  C   UNL     1     132.917 128.184 138.129  1.00  0.00    -0.065 C 
ATOM     25  C   UNL     1     130.971 128.012 136.573  1.00  0.00     0.014 C 
ATOM     26  C   UNL     1     132.111 125.914 137.440  1.00  0.00     0.016 C 
ATOM     27  C   UNL     1     133.539 129.083 137.077  1.00  0.00     0.063 C 
ATOM     28  C   UNL     1     131.878 128.163 135.335  1.00  0.00     0.033 C 
ATOM     29  C   UNL     1     133.338 128.578 135.640  1.00  0.00     0.118 C 
BRANCH  29  30
ATOM     30  O   UNL     1     134.206 127.504 135.380  1.00  0.00    -0.393 OA
ATOM     31  H   UNL     1     134.851 127.808 134.690  1.00  0.00     0.210 HD
ENDBRANCH  29  30
ENDBRANCH   9  11
ENDBRANCH   1   9
TORSDOF 7
ENDMDL
MODEL 8
REMARK VINA RESULT:    -5.708      1.199      2.017
REMARK INTER + INTRA:          -9.366
REMARK INTER:                  -7.776
REMARK INTRA:                  -1.590
REMARK UNBOUND:                -1.489
REMARK SMILES CC[C@@H](CC[C@@H](C)[C@H]1CC[C@@H]2[C@@H]3CC=C4C[C@@H](O)CC[C@]4(C)[C@H]3CC[C@@]21C)C(C)C
REMARK SMILES IDX 5 1 4 2 3 3 2 4 1 5 28 6 29 7 30 8 6 9 7 10 8 11 9 12 26 13
REMARK SMILES IDX 10 14 11 15 25 16 27 17 12 18 24 19 23 20 13 21 21 22 14 23
REMARK SMILES IDX 15 24 20 25 22 26 16 27 19 28 17 29 18 30
REMARK H PARENT 18 31
REMARK Flexibility Score: inf
ROOT
ATOM      1  C   UNL     1     127.435 124.397 144.368  1.00  0.00     0.004 C 
ENDROOT
BRANCH   1   2
ATOM      2  C   UNL     1     127.308 123.745 145.766  1.00  0.00     0.004 C 
BRANCH   2   3
ATOM      3  C   UNL     1     127.689 122.233 145.827  1.00  0.00    -0.009 C 
BRANCH   3   4
ATOM      4  C   UNL     1     129.225 122.025 145.986  1.00  0.00     0.000 C 
ATOM      5  C   UNL     1     129.616 121.268 147.261  1.00  0.00     0.004 C 
ENDBRANCH   3   4
BRANCH   3   6
ATOM      6  C   UNL     1     127.073 121.417 144.632  1.00  0.00    -0.014 C 
ATOM      7  C   UNL     1     128.126 120.618 143.840  1.00  0.00     0.007 C 
ATOM      8  C   UNL     1     125.992 120.432 145.119  1.00  0.00     0.007 C 
ENDBRANCH   3   6
ENDBRANCH   2   3
ENDBRANCH   1   2
BRANCH   1   9
ATOM      9  C   UNL     1     128.482 125.559 144.341  1.00  0.00    -0.011 C 
ATOM     10  C   UNL     1     129.083 125.702 145.756  1.00  0.00     0.008 C 
BRANCH   9  11
ATOM     11  C   UNL     1     129.635 125.348 143.290  1.00  0.00    -0.002 C 
ATOM     12  C   UNL     1     129.866 123.889 142.867  1.00  0.00     0.005 C 
ATOM     13  C   UNL     1     129.566 126.166 141.928  1.00  0.00    -0.026 C 
ATOM     14  C   UNL     1     130.489 123.952 141.488  1.00  0.00     0.005 C 
ATOM     15  C   UNL     1     129.734 125.088 140.814  1.00  0.00    -0.001 C 
ATOM     16  C   UNL     1     130.751 127.177 141.914  1.00  0.00     0.007 C 
ATOM     17  C   UNL     1     128.225 126.912 141.673  1.00  0.00     0.012 C 
ATOM     18  C   UNL     1     130.288 125.595 139.439  1.00  0.00     0.000 C 
ATOM     19  C   UNL     1     131.078 127.724 140.528  1.00  0.00     0.005 C 
ATOM     20  C   UNL     1     131.477 126.583 139.561  1.00  0.00     0.003 C 
ATOM     21  C   UNL     1     130.610 124.426 138.488  1.00  0.00     0.031 C 
ATOM     22  C   UNL     1     131.950 127.103 138.143  1.00  0.00    -0.008 C 
ATOM     23  C   UNL     1     131.425 124.799 137.282  1.00  0.00    -0.027 C 
ATOM     24  C   UNL     1     132.173 125.917 137.202  1.00  0.00    -0.065 C 
ATOM     25  C   UNL     1     133.304 127.861 138.287  1.00  0.00     0.014 C 
ATOM     26  C   UNL     1     130.896 128.051 137.504  1.00  0.00     0.016 C 
ATOM     27  C   UNL     1     133.352 125.906 136.245  1.00  0.00     0.063 C 
ATOM     28  C   UNL     1     133.923 128.317 136.950  1.00  0.00     0.033 C 
ATOM     29  C   UNL     1     133.783 127.307 135.786  1.00  0.00     0.118 C 
BRANCH  29  30
ATOM     30  O   UNL     1     132.881 127.801 134.828  1.00  0.00    -0.393 OA
ATOM     31  H   UNL     1     133.364 128.483 134.294  1.00  0.00     0.210 HD
ENDBRANCH  29  30
ENDBRANCH   9  11
ENDBRANCH   1   9
TORSDOF 7
ENDMDL
MODEL 9
REMARK VINA RESULT:    -5.622     10.539     13.824
REMARK INTER + INTRA:          -9.248
REMARK INTER:                  -7.651
REMARK INTRA:                  -1.597
REMARK UNBOUND:                -1.489
REMARK SMILES CC[C@@H](CC[C@@H](C)[C@H]1CC[C@@H]2[C@@H]3CC=C4C[C@@H](O)CC[C@]4(C)[C@H]3CC[C@@]21C)C(C)C
REMARK SMILES IDX 5 1 4 2 3 3 2 4 1 5 28 6 29 7 30 8 6 9 7 10 8 11 9 12 26 13
REMARK SMILES IDX 10 14 11 15 25 16 27 17 12 18 24 19 23 20 13 21 21 22 14 23
REMARK SMILES IDX 15 24 20 25 22 26 16 27 19 28 17 29 18 30
REMARK H PARENT 18 31
REMARK Flexibility Score: inf
ROOT
ATOM      1  C   UNL     1     137.776 129.904 135.499  1.00  0.00     0.004 C 
ENDROOT
BRANCH   1   2
ATOM      2  C   UNL     1     137.868 130.034 133.959  1.00  0.00     0.004 C 
BRANCH   2   3
ATOM      3  C   UNL     1     136.839 131.016 133.317  1.00  0.00    -0.009 C 
BRANCH   3   4
ATOM      4  C   UNL     1     135.607 130.267 132.728  1.00  0.00     0.000 C 
ATOM      5  C   UNL     1     134.369 130.311 133.632  1.00  0.00     0.004 C 
ENDBRANCH   3   4
BRANCH   3   6
ATOM      6  C   UNL     1     137.516 131.998 132.292  1.00  0.00    -0.014 C 
ATOM      7  C   UNL     1     137.883 133.360 132.911  1.00  0.00     0.007 C 
ATOM      8  C   UNL     1     138.796 131.387 131.686  1.00  0.00     0.007 C 
ENDBRANCH   3   6
ENDBRANCH   2   3
ENDBRANCH   1   2
BRANCH   1   9
ATOM      9  C   UNL     1     138.909 130.693 136.235  1.00  0.00    -0.011 C 
ATOM     10  C   UNL     1     140.056 130.943 135.231  1.00  0.00     0.008 C 
BRANCH   9  11
ATOM     11  C   UNL     1     138.430 132.061 136.850  1.00  0.00    -0.002 C 
ATOM     12  C   UNL     1     136.987 132.456 136.503  1.00  0.00     0.005 C 
ATOM     13  C   UNL     1     138.544 132.254 138.425  1.00  0.00    -0.026 C 
ATOM     14  C   UNL     1     136.527 133.367 137.623  1.00  0.00     0.005 C 
ATOM     15  C   UNL     1     137.124 132.722 138.865  1.00  0.00    -0.001 C 
ATOM     16  C   UNL     1     139.608 133.357 138.698  1.00  0.00     0.007 C 
ATOM     17  C   UNL     1     138.892 130.966 139.225  1.00  0.00     0.012 C 
ATOM     18  C   UNL     1     137.048 133.542 140.198  1.00  0.00     0.000 C 
ATOM     19  C   UNL     1     139.530 133.956 140.099  1.00  0.00     0.005 C 
ATOM     20  C   UNL     1     138.153 134.619 140.343  1.00  0.00     0.003 C 
ATOM     21  C   UNL     1     135.641 134.128 140.429  1.00  0.00     0.031 C 
ATOM     22  C   UNL     1     138.059 135.369 141.733  1.00  0.00    -0.008 C 
ATOM     23  C   UNL     1     135.561 135.170 141.508  1.00  0.00    -0.027 C 
ATOM     24  C   UNL     1     136.626 135.858 141.965  1.00  0.00    -0.065 C 
ATOM     25  C   UNL     1     138.994 136.615 141.723  1.00  0.00     0.014 C 
ATOM     26  C   UNL     1     138.459 134.436 142.911  1.00  0.00     0.016 C 
ATOM     27  C   UNL     1     136.370 137.219 142.586  1.00  0.00     0.063 C 
ATOM     28  C   UNL     1     138.900 137.492 142.989  1.00  0.00     0.033 C 
ATOM     29  C   UNL     1     137.472 137.668 143.558  1.00  0.00     0.118 C 
BRANCH  29  30
ATOM     30  O   UNL     1     137.352 136.977 144.776  1.00  0.00    -0.393 OA
ATOM     31  H   UNL     1     136.384 136.902 144.977  1.00  0.00     0.210 HD
ENDBRANCH  29  30
ENDBRANCH   9  11
ENDBRANCH   1   9
TORSDOF 7
ENDMDL
