MODEL 1
REMARK VINA RESULT:    31.609      0.000      0.000
REMARK INTER + INTRA:          38.691
REMARK INTER:                  39.001
REMARK INTRA:                  -0.310
REMARK UNBOUND:                -0.310
REMARK SMILES Oc1cc(O)c2cc(O)c(-c3cc(O)c(O)c(O)c3)[o+]c2c1
REMARK SMILES IDX 10 1 20 2 21 3 22 4 2 5 3 6 4 7 6 8 7 9 8 10 11 11 12 12
REMARK SMILES IDX 13 13 19 14 15 15 17 16 14 17 16 19 18 21 9 23 1 25 5 27
REMARK H PARENT 14 18 16 20 18 22 9 24 1 26 5 28
REMARK Flexibility Score: inf
ROOT
ATOM      1  C   UNL     1     -22.903  28.143  -7.267  1.00  0.00     0.402 A 
ATOM      2  O   UNL     1     -22.573  29.380  -7.631  1.00  0.00    -0.202 OA
ATOM      3  C   UNL     1     -23.439  30.243  -8.150  1.00  0.00     0.368 A 
ATOM      4  C   UNL     1     -22.998  31.522  -8.499  1.00  0.00     0.162 A 
ATOM      5  C   UNL     1     -23.885  32.450  -9.044  1.00  0.00     0.128 A 
ATOM      6  C   UNL     1     -25.226  32.099  -9.243  1.00  0.00     0.093 A 
ATOM      7  C   UNL     1     -25.693  30.824  -8.901  1.00  0.00     0.136 A 
ATOM      8  C   UNL     1     -24.792  29.876  -8.349  1.00  0.00     0.125 A 
ATOM      9  C   UNL     1     -25.168  28.572  -7.990  1.00  0.00     0.078 A 
ATOM     10  C   UNL     1     -24.222  27.691  -7.455  1.00  0.00     0.223 A 
ENDROOT
BRANCH   1  11
ATOM     11  C   UNL     1     -21.848  27.278  -6.689  1.00  0.00     0.091 A 
ATOM     12  C   UNL     1     -20.849  26.705  -7.495  1.00  0.00     0.068 A 
ATOM     13  C   UNL     1     -19.874  25.872  -6.932  1.00  0.00     0.162 A 
ATOM     14  C   UNL     1     -21.876  26.977  -5.318  1.00  0.00     0.068 A 
ATOM     15  C   UNL     1     -19.894  25.594  -5.560  1.00  0.00     0.200 A 
ATOM     16  C   UNL     1     -20.902  26.146  -4.750  1.00  0.00     0.162 A 
BRANCH  13  17
ATOM     17  O   UNL     1     -18.880  25.310  -7.734  1.00  0.00    -0.504 OA
ATOM     18  H   UNL     1     -18.421  25.845  -8.462  1.00  0.00     0.293 HD
ENDBRANCH  13  17
BRANCH  15  19
ATOM     19  O   UNL     1     -18.912  24.765  -5.017  1.00  0.00    -0.502 OA
ATOM     20  H   UNL     1     -18.035  24.586  -5.492  1.00  0.00     0.293 HD
ENDBRANCH  15  19
BRANCH  16  21
ATOM     21  O   UNL     1     -20.931  25.866  -3.385  1.00  0.00    -0.504 OA
ATOM     22  H   UNL     1     -21.711  26.145  -2.802  1.00  0.00     0.293 HD
ENDBRANCH  16  21
ENDBRANCH   1  11
BRANCH  10  23
ATOM     23  O   UNL     1     -24.583  26.380  -7.145  1.00  0.00    -0.500 OA
ATOM     24  H   UNL     1     -23.890  25.670  -6.943  1.00  0.00     0.294 HD
ENDBRANCH  10  23
BRANCH   5  25
ATOM     25  O   UNL     1     -23.427  33.720  -9.386  1.00  0.00    -0.507 OA
ATOM     26  H   UNL     1     -23.725  34.546  -8.879  1.00  0.00     0.293 HD
ENDBRANCH   5  25
BRANCH   7  27
ATOM     27  O   UNL     1     -27.045  30.552  -9.127  1.00  0.00    -0.507 OA
ATOM     28  H   UNL     1     -27.723  30.385  -8.397  1.00  0.00     0.293 HD
ENDBRANCH   7  27
TORSDOF 7
ENDMDL
MODEL 2
REMARK VINA RESULT:    34.367      1.121      3.069
REMARK INTER + INTRA:          42.094
REMARK INTER:                  42.037
REMARK INTRA:                   0.056
REMARK UNBOUND:                -0.310
REMARK SMILES Oc1cc(O)c2cc(O)c(-c3cc(O)c(O)c(O)c3)[o+]c2c1
REMARK SMILES IDX 10 1 20 2 21 3 22 4 2 5 3 6 4 7 6 8 7 9 8 10 11 11 12 12
REMARK SMILES IDX 13 13 19 14 15 15 17 16 14 17 16 19 18 21 9 23 1 25 5 27
REMARK H PARENT 14 18 16 20 18 22 9 24 1 26 5 28
REMARK Flexibility Score: inf
ROOT
ATOM      1  C   UNL     1     -22.505  28.671  -7.385  1.00  0.00     0.402 A 
ATOM      2  O   UNL     1     -23.811  28.669  -7.130  1.00  0.00    -0.202 OA
ATOM      3  C   UNL     1     -24.651  29.575  -7.621  1.00  0.00     0.368 A 
ATOM      4  C   UNL     1     -26.007  29.489  -7.298  1.00  0.00     0.162 A 
ATOM      5  C   UNL     1     -26.913  30.424  -7.800  1.00  0.00     0.128 A 
ATOM      6  C   UNL     1     -26.461  31.455  -8.632  1.00  0.00     0.093 A 
ATOM      7  C   UNL     1     -25.106  31.563  -8.971  1.00  0.00     0.136 A 
ATOM      8  C   UNL     1     -24.182  30.615  -8.459  1.00  0.00     0.125 A 
ATOM      9  C   UNL     1     -22.806  30.653  -8.734  1.00  0.00     0.078 A 
ATOM     10  C   UNL     1     -21.955  29.686  -8.189  1.00  0.00     0.223 A 
ENDROOT
BRANCH   1  11
ATOM     11  C   UNL     1     -21.674  27.601  -6.788  1.00  0.00     0.091 A 
ATOM     12  C   UNL     1     -21.830  27.217  -5.444  1.00  0.00     0.068 A 
ATOM     13  C   UNL     1     -21.018  26.218  -4.892  1.00  0.00     0.162 A 
ATOM     14  C   UNL     1     -20.671  26.993  -7.559  1.00  0.00     0.068 A 
ATOM     15  C   UNL     1     -20.035  25.600  -5.675  1.00  0.00     0.200 A 
ATOM     16  C   UNL     1     -19.858  25.992  -7.013  1.00  0.00     0.162 A 
BRANCH  13  17
ATOM     17  O   UNL     1     -21.180  25.835  -3.561  1.00  0.00    -0.504 OA
ATOM     18  H   UNL     1     -21.223  26.519  -2.814  1.00  0.00     0.293 HD
ENDBRANCH  13  17
BRANCH  15  19
ATOM     19  O   UNL     1     -19.239  24.603  -5.108  1.00  0.00    -0.502 OA
ATOM     20  H   UNL     1     -18.727  23.936  -5.673  1.00  0.00     0.293 HD
ENDBRANCH  15  19
BRANCH  16  21
ATOM     21  O   UNL     1     -18.875  25.385  -7.793  1.00  0.00    -0.504 OA
ATOM     22  H   UNL     1     -19.088  24.985  -8.700  1.00  0.00     0.293 HD
ENDBRANCH  16  21
ENDBRANCH   1  11
BRANCH  10  23
ATOM     23  O   UNL     1     -20.581  29.753  -8.421  1.00  0.00    -0.500 OA
ATOM     24  H   UNL     1     -20.027  28.920  -8.582  1.00  0.00     0.294 HD
ENDBRANCH  10  23
BRANCH   5  25
ATOM     25  O   UNL     1     -28.262  30.321  -7.467  1.00  0.00    -0.507 OA
ATOM     26  H   UNL     1     -28.584  30.446  -6.513  1.00  0.00     0.293 HD
ENDBRANCH   5  25
BRANCH   7  27
ATOM     27  O   UNL     1     -24.735  32.617  -9.809  1.00  0.00    -0.507 OA
ATOM     28  H   UNL     1     -24.303  32.501 -10.714  1.00  0.00     0.293 HD
ENDBRANCH   7  27
TORSDOF 7
ENDMDL
MODEL 3
REMARK VINA RESULT:    34.453      1.164      2.517
REMARK INTER + INTRA:          42.200
REMARK INTER:                  42.193
REMARK INTRA:                   0.006
REMARK UNBOUND:                -0.310
REMARK SMILES Oc1cc(O)c2cc(O)c(-c3cc(O)c(O)c(O)c3)[o+]c2c1
REMARK SMILES IDX 10 1 20 2 21 3 22 4 2 5 3 6 4 7 6 8 7 9 8 10 11 11 12 12
REMARK SMILES IDX 13 13 19 14 15 15 17 16 14 17 16 19 18 21 9 23 1 25 5 27
REMARK H PARENT 14 18 16 20 18 22 9 24 1 26 5 28
REMARK Flexibility Score: inf
ROOT
ATOM      1  C   UNL     1     -22.523  28.809  -7.473  1.00  0.00     0.402 A 
ATOM      2  O   UNL     1     -23.824  28.795  -7.193  1.00  0.00    -0.202 OA
ATOM      3  C   UNL     1     -24.686  29.683  -7.679  1.00  0.00     0.368 A 
ATOM      4  C   UNL     1     -26.034  29.583  -7.329  1.00  0.00     0.162 A 
ATOM      5  C   UNL     1     -26.961  30.500  -7.825  1.00  0.00     0.128 A 
ATOM      6  C   UNL     1     -26.539  31.525  -8.679  1.00  0.00     0.093 A 
ATOM      7  C   UNL     1     -25.192  31.646  -9.046  1.00  0.00     0.136 A 
ATOM      8  C   UNL     1     -24.246  30.717  -8.539  1.00  0.00     0.125 A 
ATOM      9  C   UNL     1     -22.876  30.770  -8.842  1.00  0.00     0.078 A 
ATOM     10  C   UNL     1     -22.002  29.820  -8.301  1.00  0.00     0.223 A 
ENDROOT
BRANCH   1  11
ATOM     11  C   UNL     1     -21.667  27.758  -6.878  1.00  0.00     0.091 A 
ATOM     12  C   UNL     1     -20.661  27.122  -7.627  1.00  0.00     0.068 A 
ATOM     13  C   UNL     1     -19.877  26.114  -7.052  1.00  0.00     0.162 A 
ATOM     14  C   UNL     1     -21.898  27.345  -5.557  1.00  0.00     0.068 A 
ATOM     15  C   UNL     1     -20.099  25.723  -5.725  1.00  0.00     0.200 A 
ATOM     16  C   UNL     1     -21.116  26.338  -4.976  1.00  0.00     0.162 A 
BRANCH  13  17
ATOM     17  O   UNL     1     -18.876  25.491  -7.796  1.00  0.00    -0.504 OA
ATOM     18  H   UNL     1     -17.929  25.852  -7.818  1.00  0.00     0.293 HD
ENDBRANCH  13  17
BRANCH  15  19
ATOM     19  O   UNL     1     -19.305  24.720  -5.168  1.00  0.00    -0.502 OA
ATOM     20  H   UNL     1     -18.349  24.560  -5.467  1.00  0.00     0.293 HD
ENDBRANCH  15  19
BRANCH  16  21
ATOM     21  O   UNL     1     -21.345  25.947  -3.658  1.00  0.00    -0.504 OA
ATOM     22  H   UNL     1     -22.261  26.028  -3.231  1.00  0.00     0.293 HD
ENDBRANCH  16  21
ENDBRANCH   1  11
BRANCH  10  23
ATOM     23  O   UNL     1     -20.634  29.901  -8.561  1.00  0.00    -0.500 OA
ATOM     24  H   UNL     1     -20.048  29.075  -8.596  1.00  0.00     0.294 HD
ENDBRANCH  10  23
BRANCH   5  25
ATOM     25  O   UNL     1     -28.302  30.384  -7.465  1.00  0.00    -0.507 OA
ATOM     26  H   UNL     1     -28.598  29.770  -6.714  1.00  0.00     0.293 HD
ENDBRANCH   5  25
BRANCH   7  27
ATOM     27  O   UNL     1     -24.851  32.694  -9.905  1.00  0.00    -0.507 OA
ATOM     28  H   UNL     1     -23.938  33.123  -9.947  1.00  0.00     0.293 HD
ENDBRANCH   7  27
TORSDOF 7
ENDMDL
