MODEL 1
REMARK VINA RESULT:    16.624      0.000      0.000
REMARK INTER + INTRA:          31.460
REMARK INTER:                  32.173
REMARK INTRA:                  -0.713
REMARK UNBOUND:                -0.713
REMARK SMILES CCCCCCCCCCCCCCCCCC(=O)[O-]
REMARK SMILES IDX 10 1 11 2 12 3 13 4 14 5 15 6 16 7 17 8 18 9 19 10 20 11
REMARK SMILES IDX 9 12 8 13 7 14 6 15 5 16 4 17 3 18 2 19 1 20
REMARK H PARENT
REMARK Flexibility Score: inf
ROOT
ATOM      1  C   UNL     1     -15.430 -12.316 -22.297  1.00  0.00     0.000 C 
ENDROOT
BRANCH   1   2
ATOM      2  C   UNL     1     -16.265 -13.593 -22.478  1.00  0.00     0.000 C 
BRANCH   2   3
ATOM      3  C   UNL     1     -17.032 -13.620 -23.809  1.00  0.00     0.000 C 
BRANCH   3   4
ATOM      4  C   UNL     1     -18.458 -13.055 -23.683  1.00  0.00     0.000 C 
BRANCH   4   5
ATOM      5  C   UNL     1     -19.222 -13.092 -25.017  1.00  0.00     0.000 C 
BRANCH   5   6
ATOM      6  C   UNL     1     -20.748 -13.094 -24.815  1.00  0.00     0.000 C 
BRANCH   6   7
ATOM      7  C   UNL     1     -21.335 -14.512 -24.751  1.00  0.00     0.006 C 
BRANCH   7   8
ATOM      8  C   UNL     1     -22.639 -14.579 -23.945  1.00  0.00     0.053 C 
BRANCH   8   9
ATOM      9  C   UNL     1     -22.348 -14.578 -22.478  1.00  0.00     0.041 C 
ATOM     10  O   UNL     1     -21.861 -13.555 -21.928  1.00  0.00    -0.550 OA
ATOM     11  O   UNL     1     -22.573 -15.723 -21.723  1.00  0.00    -0.550 OA
ENDBRANCH   8   9
ENDBRANCH   7   8
ENDBRANCH   6   7
ENDBRANCH   5   6
ENDBRANCH   4   5
ENDBRANCH   3   4
ENDBRANCH   2   3
ENDBRANCH   1   2
BRANCH   1  12
ATOM     12  C   UNL     1     -14.237 -12.301 -23.266  1.00  0.00     0.000 C 
BRANCH  12  13
ATOM     13  C   UNL     1     -14.252 -11.088 -24.211  1.00  0.00    -0.000 C 
BRANCH  13  14
ATOM     14  C   UNL     1     -13.707  -9.783 -23.599  1.00  0.00    -0.000 C 
BRANCH  14  15
ATOM     15  C   UNL     1     -14.749  -8.645 -23.529  1.00  0.00    -0.000 C 
BRANCH  15  16
ATOM     16  C   UNL     1     -14.229  -7.422 -22.753  1.00  0.00    -0.000 C 
BRANCH  16  17
ATOM     17  C   UNL     1     -13.058  -7.779 -21.814  1.00  0.00    -0.000 C 
BRANCH  17  18
ATOM     18  C   UNL     1     -13.431  -7.753 -20.319  1.00  0.00    -0.000 C 
BRANCH  18  19
ATOM     19  C   UNL     1     -12.315  -8.222 -19.371  1.00  0.00    -0.003 C 
ATOM     20  C   UNL     1     -12.838  -8.626 -17.993  1.00  0.00     0.004 C 
ENDBRANCH  18  19
ENDBRANCH  17  18
ENDBRANCH  16  17
ENDBRANCH  15  16
ENDBRANCH  14  15
ENDBRANCH  13  14
ENDBRANCH  12  13
ENDBRANCH   1  12
TORSDOF 16
ENDMDL
MODEL 2
REMARK VINA RESULT:    17.907      3.677      9.064
REMARK INTER + INTRA:          33.944
REMARK INTER:                  33.882
REMARK INTRA:                   0.062
REMARK UNBOUND:                -0.713
REMARK SMILES CCCCCCCCCCCCCCCCCC(=O)[O-]
REMARK SMILES IDX 10 1 11 2 12 3 13 4 14 5 15 6 16 7 17 8 18 9 19 10 20 11
REMARK SMILES IDX 9 12 8 13 7 14 6 15 5 16 4 17 3 18 2 19 1 20
REMARK H PARENT
REMARK Flexibility Score: inf
ROOT
ATOM      1  C   UNL     1     -15.434 -12.447 -22.433  1.00  0.00     0.000 C 
ENDROOT
BRANCH   1   2
ATOM      2  C   UNL     1     -14.663 -12.034 -23.695  1.00  0.00     0.000 C 
BRANCH   2   3
ATOM      3  C   UNL     1     -13.664 -10.895 -23.438  1.00  0.00     0.000 C 
BRANCH   3   4
ATOM      4  C   UNL     1     -14.252  -9.508 -23.748  1.00  0.00     0.000 C 
BRANCH   4   5
ATOM      5  C   UNL     1     -13.949  -8.483 -22.642  1.00  0.00     0.000 C 
BRANCH   5   6
ATOM      6  C   UNL     1     -12.461  -8.477 -22.245  1.00  0.00     0.000 C 
BRANCH   6   7
ATOM      7  C   UNL     1     -12.233  -8.921 -20.792  1.00  0.00     0.006 C 
BRANCH   7   8
ATOM      8  C   UNL     1     -12.581  -7.825 -19.776  1.00  0.00     0.053 C 
BRANCH   8   9
ATOM      9  C   UNL     1     -13.054  -8.432 -18.493  1.00  0.00     0.041 C 
ATOM     10  O   UNL     1     -12.628  -9.561 -18.130  1.00  0.00    -0.550 OA
ATOM     11  O   UNL     1     -13.998  -7.772 -17.716  1.00  0.00    -0.550 OA
ENDBRANCH   8   9
ENDBRANCH   7   8
ENDBRANCH   6   7
ENDBRANCH   5   6
ENDBRANCH   4   5
ENDBRANCH   3   4
ENDBRANCH   2   3
ENDBRANCH   1   2
BRANCH   1  12
ATOM     12  C   UNL     1     -16.276 -13.706 -22.695  1.00  0.00     0.000 C 
BRANCH  12  13
ATOM     13  C   UNL     1     -17.164 -13.580 -23.944  1.00  0.00    -0.000 C 
BRANCH  13  14
ATOM     14  C   UNL     1     -18.490 -12.828 -23.725  1.00  0.00    -0.000 C 
BRANCH  14  15
ATOM     15  C   UNL     1     -19.465 -12.922 -24.918  1.00  0.00    -0.000 C 
BRANCH  15  16
ATOM     16  C   UNL     1     -20.926 -13.106 -24.469  1.00  0.00    -0.000 C 
BRANCH  16  17
ATOM     17  C   UNL     1     -21.460 -14.519 -24.781  1.00  0.00    -0.000 C 
BRANCH  17  18
ATOM     18  C   UNL     1     -22.759 -14.870 -24.031  1.00  0.00    -0.000 C 
BRANCH  18  19
ATOM     19  C   UNL     1     -22.630 -14.887 -22.499  1.00  0.00    -0.003 C 
ATOM     20  C   UNL     1     -21.670 -13.820 -21.972  1.00  0.00     0.004 C 
ENDBRANCH  18  19
ENDBRANCH  17  18
ENDBRANCH  16  17
ENDBRANCH  15  16
ENDBRANCH  14  15
ENDBRANCH  13  14
ENDBRANCH  12  13
ENDBRANCH   1  12
TORSDOF 16
ENDMDL
MODEL 3
REMARK VINA RESULT:    18.114      1.295      2.652
REMARK INTER + INTRA:          34.344
REMARK INTER:                  33.646
REMARK INTRA:                   0.698
REMARK UNBOUND:                -0.713
REMARK SMILES CCCCCCCCCCCCCCCCCC(=O)[O-]
REMARK SMILES IDX 10 1 11 2 12 3 13 4 14 5 15 6 16 7 17 8 18 9 19 10 20 11
REMARK SMILES IDX 9 12 8 13 7 14 6 15 5 16 4 17 3 18 2 19 1 20
REMARK H PARENT
REMARK Flexibility Score: inf
ROOT
ATOM      1  C   UNL     1     -15.165 -12.039 -22.238  1.00  0.00     0.000 C 
ENDROOT
BRANCH   1   2
ATOM      2  C   UNL     1     -16.378 -12.974 -22.364  1.00  0.00     0.000 C 
BRANCH   2   3
ATOM      3  C   UNL     1     -16.244 -13.971 -23.525  1.00  0.00     0.000 C 
BRANCH   3   4
ATOM      4  C   UNL     1     -17.420 -13.892 -24.514  1.00  0.00     0.000 C 
BRANCH   4   5
ATOM      5  C   UNL     1     -18.566 -13.009 -23.990  1.00  0.00     0.000 C 
BRANCH   5   6
ATOM      6  C   UNL     1     -19.801 -13.051 -24.909  1.00  0.00     0.000 C 
BRANCH   6   7
ATOM      7  C   UNL     1     -21.118 -12.877 -24.138  1.00  0.00     0.006 C 
BRANCH   7   8
ATOM      8  C   UNL     1     -21.938 -14.172 -24.064  1.00  0.00     0.053 C 
BRANCH   8   9
ATOM      9  C   UNL     1     -22.237 -14.521 -22.640  1.00  0.00     0.041 C 
ATOM     10  O   UNL     1     -21.833 -13.778 -21.707  1.00  0.00    -0.550 OA
ATOM     11  O   UNL     1     -22.925 -15.690 -22.339  1.00  0.00    -0.550 OA
ENDBRANCH   8   9
ENDBRANCH   7   8
ENDBRANCH   6   7
ENDBRANCH   5   6
ENDBRANCH   4   5
ENDBRANCH   3   4
ENDBRANCH   2   3
ENDBRANCH   1   2
BRANCH   1  12
ATOM     12  C   UNL     1     -14.225 -12.197 -23.444  1.00  0.00     0.000 C 
BRANCH  12  13
ATOM     13  C   UNL     1     -14.004 -10.879 -24.205  1.00  0.00    -0.000 C 
BRANCH  13  14
ATOM     14  C   UNL     1     -14.306  -9.605 -23.394  1.00  0.00    -0.000 C 
BRANCH  14  15
ATOM     15  C   UNL     1     -13.075  -9.024 -22.664  1.00  0.00    -0.000 C 
BRANCH  15  16
ATOM     16  C   UNL     1     -13.402  -7.730 -21.899  1.00  0.00    -0.000 C 
BRANCH  16  17
ATOM     17  C   UNL     1     -14.445  -6.863 -22.636  1.00  0.00    -0.000 C 
BRANCH  17  18
ATOM     18  C   UNL     1     -14.978  -7.504 -23.932  1.00  0.00    -0.000 C 
BRANCH  18  19
ATOM     19  C   UNL     1     -15.089  -6.539 -25.125  1.00  0.00    -0.003 C 
ATOM     20  C   UNL     1     -14.191  -5.311 -24.981  1.00  0.00     0.004 C 
ENDBRANCH  18  19
ENDBRANCH  17  18
ENDBRANCH  16  17
ENDBRANCH  15  16
ENDBRANCH  14  15
ENDBRANCH  13  14
ENDBRANCH  12  13
ENDBRANCH   1  12
TORSDOF 16
ENDMDL
MODEL 4
REMARK VINA RESULT:    18.389      3.576      8.821
REMARK INTER + INTRA:          34.875
REMARK INTER:                  35.704
REMARK INTRA:                  -0.828
REMARK UNBOUND:                -0.713
REMARK SMILES CCCCCCCCCCCCCCCCCC(=O)[O-]
REMARK SMILES IDX 10 1 11 2 12 3 13 4 14 5 15 6 16 7 17 8 18 9 19 10 20 11
REMARK SMILES IDX 9 12 8 13 7 14 6 15 5 16 4 17 3 18 2 19 1 20
REMARK H PARENT
REMARK Flexibility Score: inf
ROOT
ATOM      1  C   UNL     1     -13.872 -11.083 -24.297  1.00  0.00     0.000 C 
ENDROOT
BRANCH   1   2
ATOM      2  C   UNL     1     -13.998  -9.875 -23.357  1.00  0.00     0.000 C 
BRANCH   2   3
ATOM      3  C   UNL     1     -14.755  -8.699 -23.995  1.00  0.00     0.000 C 
BRANCH   3   4
ATOM      4  C   UNL     1     -14.947  -7.521 -23.024  1.00  0.00     0.000 C 
BRANCH   4   5
ATOM      5  C   UNL     1     -13.619  -7.048 -22.409  1.00  0.00     0.000 C 
BRANCH   5   6
ATOM      6  C   UNL     1     -13.579  -7.249 -20.883  1.00  0.00     0.000 C 
BRANCH   6   7
ATOM      7  C   UNL     1     -12.520  -8.274 -20.449  1.00  0.00     0.006 C 
BRANCH   7   8
ATOM      8  C   UNL     1     -12.106  -8.112 -18.980  1.00  0.00     0.053 C 
BRANCH   8   9
ATOM      9  C   UNL     1     -13.161  -8.667 -18.075  1.00  0.00     0.041 C 
ATOM     10  O   UNL     1     -14.178  -7.980 -17.791  1.00  0.00    -0.550 OA
ATOM     11  O   UNL     1     -13.002  -9.925 -17.510  1.00  0.00    -0.550 OA
ENDBRANCH   8   9
ENDBRANCH   7   8
ENDBRANCH   6   7
ENDBRANCH   5   6
ENDBRANCH   4   5
ENDBRANCH   3   4
ENDBRANCH   2   3
ENDBRANCH   1   2
BRANCH   1  12
ATOM     12  C   UNL     1     -14.222 -12.386 -23.561  1.00  0.00     0.000 C 
BRANCH  12  13
ATOM     13  C   UNL     1     -15.418 -12.230 -22.608  1.00  0.00    -0.000 C 
BRANCH  13  14
ATOM     14  C   UNL     1     -16.363 -13.446 -22.550  1.00  0.00    -0.000 C 
BRANCH  14  15
ATOM     15  C   UNL     1     -17.230 -13.622 -23.816  1.00  0.00    -0.000 C 
BRANCH  15  16
ATOM     16  C   UNL     1     -18.621 -12.982 -23.669  1.00  0.00    -0.000 C 
BRANCH  16  17
ATOM     17  C   UNL     1     -19.504 -13.207 -24.914  1.00  0.00    -0.000 C 
BRANCH  17  18
ATOM     18  C   UNL     1     -21.010 -13.022 -24.648  1.00  0.00    -0.000 C 
BRANCH  18  19
ATOM     19  C   UNL     1     -21.727 -14.275 -24.119  1.00  0.00    -0.003 C 
ATOM     20  C   UNL     1     -22.041 -14.194 -22.625  1.00  0.00     0.004 C 
ENDBRANCH  18  19
ENDBRANCH  17  18
ENDBRANCH  16  17
ENDBRANCH  15  16
ENDBRANCH  14  15
ENDBRANCH  13  14
ENDBRANCH  12  13
ENDBRANCH   1  12
TORSDOF 16
ENDMDL
MODEL 5
REMARK VINA RESULT:    18.643      4.340      7.199
REMARK INTER + INTRA:          35.368
REMARK INTER:                  35.817
REMARK INTRA:                  -0.449
REMARK UNBOUND:                -0.713
REMARK SMILES CCCCCCCCCCCCCCCCCC(=O)[O-]
REMARK SMILES IDX 10 1 11 2 12 3 13 4 14 5 15 6 16 7 17 8 18 9 19 10 20 11
REMARK SMILES IDX 9 12 8 13 7 14 6 15 5 16 4 17 3 18 2 19 1 20
REMARK H PARENT
REMARK Flexibility Score: inf
ROOT
ATOM      1  C   UNL     1     -16.973 -14.144 -21.252  1.00  0.00     0.000 C 
ENDROOT
BRANCH   1   2
ATOM      2  C   UNL     1     -16.183 -13.266 -22.234  1.00  0.00     0.000 C 
BRANCH   2   3
ATOM      3  C   UNL     1     -16.543 -13.541 -23.702  1.00  0.00     0.000 C 
BRANCH   3   4
ATOM      4  C   UNL     1     -18.046 -13.799 -23.906  1.00  0.00     0.000 C 
BRANCH   4   5
ATOM      5  C   UNL     1     -18.714 -12.717 -24.771  1.00  0.00     0.000 C 
BRANCH   5   6
ATOM      6  C   UNL     1     -20.246 -12.711 -24.617  1.00  0.00     0.000 C 
BRANCH   6   7
ATOM      7  C   UNL     1     -20.860 -14.113 -24.752  1.00  0.00     0.006 C 
BRANCH   7   8
ATOM      8  C   UNL     1     -22.303 -14.179 -24.235  1.00  0.00     0.053 C 
BRANCH   8   9
ATOM      9  C   UNL     1     -22.320 -14.437 -22.762  1.00  0.00     0.041 C 
ATOM     10  O   UNL     1     -21.840 -13.589 -21.964  1.00  0.00    -0.550 OA
ATOM     11  O   UNL     1     -22.827 -15.634 -22.270  1.00  0.00    -0.550 OA
ENDBRANCH   8   9
ENDBRANCH   7   8
ENDBRANCH   6   7
ENDBRANCH   5   6
ENDBRANCH   4   5
ENDBRANCH   3   4
ENDBRANCH   2   3
ENDBRANCH   1   2
BRANCH   1  12
ATOM     12  C   UNL     1     -16.047 -14.725 -20.172  1.00  0.00     0.000 C 
BRANCH  12  13
ATOM     13  C   UNL     1     -16.641 -15.964 -19.480  1.00  0.00    -0.000 C 
BRANCH  13  14
ATOM     14  C   UNL     1     -17.403 -15.673 -18.173  1.00  0.00    -0.000 C 
BRANCH  14  15
ATOM     15  C   UNL     1     -16.524 -15.764 -16.906  1.00  0.00    -0.000 C 
BRANCH  15  16
ATOM     16  C   UNL     1     -17.150 -16.658 -15.821  1.00  0.00    -0.000 C 
BRANCH  16  17
ATOM     17  C   UNL     1     -18.672 -16.437 -15.687  1.00  0.00    -0.000 C 
BRANCH  17  18
ATOM     18  C   UNL     1     -19.517 -17.440 -16.495  1.00  0.00    -0.000 C 
BRANCH  18  19
ATOM     19  C   UNL     1     -20.494 -18.278 -15.654  1.00  0.00    -0.003 C 
ATOM     20  C   UNL     1     -21.816 -17.559 -15.386  1.00  0.00     0.004 C 
ENDBRANCH  18  19
ENDBRANCH  17  18
ENDBRANCH  16  17
ENDBRANCH  15  16
ENDBRANCH  14  15
ENDBRANCH  13  14
ENDBRANCH  12  13
ENDBRANCH   1  12
TORSDOF 16
ENDMDL
MODEL 6
REMARK VINA RESULT:    18.773      5.064      9.087
REMARK INTER + INTRA:          35.619
REMARK INTER:                  36.346
REMARK INTRA:                  -0.727
REMARK UNBOUND:                -0.713
REMARK SMILES CCCCCCCCCCCCCCCCCC(=O)[O-]
REMARK SMILES IDX 10 1 11 2 12 3 13 4 14 5 15 6 16 7 17 8 18 9 19 10 20 11
REMARK SMILES IDX 9 12 8 13 7 14 6 15 5 16 4 17 3 18 2 19 1 20
REMARK H PARENT
REMARK Flexibility Score: inf
ROOT
ATOM      1  C   UNL     1     -15.529 -13.108 -23.438  1.00  0.00     0.000 C 
ENDROOT
BRANCH   1   2
ATOM      2  C   UNL     1     -14.409 -12.176 -22.952  1.00  0.00     0.000 C 
BRANCH   2   3
ATOM      3  C   UNL     1     -14.079 -11.063 -23.958  1.00  0.00     0.000 C 
BRANCH   3   4
ATOM      4  C   UNL     1     -13.744  -9.726 -23.275  1.00  0.00     0.000 C 
BRANCH   4   5
ATOM      5  C   UNL     1     -14.791  -8.639 -23.572  1.00  0.00     0.000 C 
BRANCH   5   6
ATOM      6  C   UNL     1     -14.604  -7.392 -22.688  1.00  0.00     0.000 C 
BRANCH   6   7
ATOM      7  C   UNL     1     -13.310  -7.442 -21.860  1.00  0.00     0.006 C 
BRANCH   7   8
ATOM      8  C   UNL     1     -13.561  -7.265 -20.357  1.00  0.00     0.053 C 
BRANCH   8   9
ATOM      9  C   UNL     1     -12.756  -8.253 -19.572  1.00  0.00     0.041 C 
ATOM     10  O   UNL     1     -11.926  -9.000 -20.155  1.00  0.00    -0.550 OA
ATOM     11  O   UNL     1     -12.953  -8.381 -18.203  1.00  0.00    -0.550 OA
ENDBRANCH   8   9
ENDBRANCH   7   8
ENDBRANCH   6   7
ENDBRANCH   5   6
ENDBRANCH   4   5
ENDBRANCH   3   4
ENDBRANCH   2   3
ENDBRANCH   1   2
BRANCH   1  12
ATOM     12  C   UNL     1     -16.534 -13.389 -22.311  1.00  0.00     0.000 C 
BRANCH  12  13
ATOM     13  C   UNL     1     -15.895 -14.095 -21.104  1.00  0.00    -0.000 C 
BRANCH  13  14
ATOM     14  C   UNL     1     -16.816 -15.088 -20.371  1.00  0.00    -0.000 C 
BRANCH  14  15
ATOM     15  C   UNL     1     -16.406 -15.354 -18.905  1.00  0.00    -0.000 C 
BRANCH  15  16
ATOM     16  C   UNL     1     -17.537 -16.005 -18.089  1.00  0.00    -0.000 C 
BRANCH  16  17
ATOM     17  C   UNL     1     -17.211 -16.064 -16.582  1.00  0.00    -0.000 C 
BRANCH  17  18
ATOM     18  C   UNL     1     -18.363 -16.614 -15.720  1.00  0.00    -0.000 C 
BRANCH  18  19
ATOM     19  C   UNL     1     -19.313 -17.573 -16.456  1.00  0.00    -0.003 C 
ATOM     20  C   UNL     1     -20.598 -17.851 -15.677  1.00  0.00     0.004 C 
ENDBRANCH  18  19
ENDBRANCH  17  18
ENDBRANCH  16  17
ENDBRANCH  15  16
ENDBRANCH  14  15
ENDBRANCH  13  14
ENDBRANCH  12  13
ENDBRANCH   1  12
TORSDOF 16
ENDMDL
MODEL 7
REMARK VINA RESULT:    19.321      3.777      4.875
REMARK INTER + INTRA:          36.679
REMARK INTER:                  37.404
REMARK INTRA:                  -0.725
REMARK UNBOUND:                -0.713
REMARK SMILES CCCCCCCCCCCCCCCCCC(=O)[O-]
REMARK SMILES IDX 10 1 11 2 12 3 13 4 14 5 15 6 16 7 17 8 18 9 19 10 20 11
REMARK SMILES IDX 9 12 8 13 7 14 6 15 5 16 4 17 3 18 2 19 1 20
REMARK H PARENT
REMARK Flexibility Score: inf
ROOT
ATOM      1  C   UNL     1     -14.764 -12.244 -22.857  1.00  0.00     0.000 C 
ENDROOT
BRANCH   1   2
ATOM      2  C   UNL     1     -15.785 -13.321 -23.256  1.00  0.00     0.000 C 
BRANCH   2   3
ATOM      3  C   UNL     1     -16.678 -13.759 -22.085  1.00  0.00     0.000 C 
BRANCH   3   4
ATOM      4  C   UNL     1     -15.885 -13.992 -20.788  1.00  0.00     0.000 C 
BRANCH   4   5
ATOM      5  C   UNL     1     -16.235 -15.333 -20.121  1.00  0.00     0.000 C 
BRANCH   5   6
ATOM      6  C   UNL     1     -17.529 -15.251 -19.291  1.00  0.00     0.000 C 
BRANCH   6   7
ATOM      7  C   UNL     1     -17.609 -16.338 -18.208  1.00  0.00     0.006 C 
BRANCH   7   8
ATOM      8  C   UNL     1     -16.983 -15.897 -16.878  1.00  0.00     0.053 C 
BRANCH   8   9
ATOM      9  C   UNL     1     -17.561 -16.681 -15.743  1.00  0.00     0.041 C 
ATOM     10  O   UNL     1     -16.845 -16.983 -14.752  1.00  0.00    -0.550 OA
ATOM     11  O   UNL     1     -18.879 -17.116 -15.797  1.00  0.00    -0.550 OA
ENDBRANCH   8   9
ENDBRANCH   7   8
ENDBRANCH   6   7
ENDBRANCH   5   6
ENDBRANCH   4   5
ENDBRANCH   3   4
ENDBRANCH   2   3
ENDBRANCH   1   2
BRANCH   1  12
ATOM     12  C   UNL     1     -14.251 -11.493 -24.096  1.00  0.00     0.000 C 
BRANCH  12  13
ATOM     13  C   UNL     1     -13.719 -10.089 -23.764  1.00  0.00    -0.000 C 
BRANCH  13  14
ATOM     14  C   UNL     1     -14.806  -9.034 -23.482  1.00  0.00    -0.000 C 
BRANCH  14  15
ATOM     15  C   UNL     1     -14.260  -7.728 -22.864  1.00  0.00    -0.000 C 
BRANCH  15  16
ATOM     16  C   UNL     1     -13.090  -7.981 -21.897  1.00  0.00    -0.000 C 
BRANCH  16  17
ATOM     17  C   UNL     1     -13.414  -7.533 -20.456  1.00  0.00    -0.000 C 
BRANCH  17  18
ATOM     18  C   UNL     1     -12.264  -7.773 -19.460  1.00  0.00    -0.000 C 
BRANCH  18  19
ATOM     19  C   UNL     1     -12.713  -8.209 -18.055  1.00  0.00    -0.003 C 
ATOM     20  C   UNL     1     -12.978  -9.711 -17.956  1.00  0.00     0.004 C 
ENDBRANCH  18  19
ENDBRANCH  17  18
ENDBRANCH  16  17
ENDBRANCH  15  16
ENDBRANCH  14  15
ENDBRANCH  13  14
ENDBRANCH  12  13
ENDBRANCH   1  12
TORSDOF 16
ENDMDL
MODEL 8
REMARK VINA RESULT:    19.340      4.441      7.970
REMARK INTER + INTRA:          36.716
REMARK INTER:                  37.546
REMARK INTRA:                  -0.830
REMARK UNBOUND:                -0.713
REMARK SMILES CCCCCCCCCCCCCCCCCC(=O)[O-]
REMARK SMILES IDX 10 1 11 2 12 3 13 4 14 5 15 6 16 7 17 8 18 9 19 10 20 11
REMARK SMILES IDX 9 12 8 13 7 14 6 15 5 16 4 17 3 18 2 19 1 20
REMARK H PARENT
REMARK Flexibility Score: inf
ROOT
ATOM      1  C   UNL     1     -16.408 -13.368 -21.970  1.00  0.00     0.000 C 
ENDROOT
BRANCH   1   2
ATOM      2  C   UNL     1     -16.988 -14.483 -21.087  1.00  0.00     0.000 C 
BRANCH   2   3
ATOM      3  C   UNL     1     -16.057 -14.872 -19.928  1.00  0.00     0.000 C 
BRANCH   3   4
ATOM      4  C   UNL     1     -16.585 -16.070 -19.120  1.00  0.00     0.000 C 
BRANCH   4   5
ATOM      5  C   UNL     1     -17.573 -15.645 -18.022  1.00  0.00     0.000 C 
BRANCH   5   6
ATOM      6  C   UNL     1     -16.999 -15.854 -16.608  1.00  0.00     0.000 C 
BRANCH   6   7
ATOM      7  C   UNL     1     -17.781 -16.900 -15.799  1.00  0.00     0.006 C 
BRANCH   7   8
ATOM      8  C   UNL     1     -19.239 -16.489 -15.553  1.00  0.00     0.053 C 
BRANCH   8   9
ATOM      9  C   UNL     1     -20.166 -17.603 -15.926  1.00  0.00     0.041 C 
ATOM     10  O   UNL     1     -21.307 -17.681 -15.399  1.00  0.00    -0.550 OA
ATOM     11  O   UNL     1     -19.754 -18.581 -16.823  1.00  0.00    -0.550 OA
ENDBRANCH   8   9
ENDBRANCH   7   8
ENDBRANCH   6   7
ENDBRANCH   5   6
ENDBRANCH   4   5
ENDBRANCH   3   4
ENDBRANCH   2   3
ENDBRANCH   1   2
BRANCH   1  12
ATOM     12  C   UNL     1     -16.020 -13.913 -23.354  1.00  0.00     0.000 C 
BRANCH  12  13
ATOM     13  C   UNL     1     -17.125 -13.714 -24.404  1.00  0.00    -0.000 C 
BRANCH  13  14
ATOM     14  C   UNL     1     -18.400 -13.023 -23.881  1.00  0.00    -0.000 C 
BRANCH  14  15
ATOM     15  C   UNL     1     -19.445 -12.730 -24.980  1.00  0.00    -0.000 C 
BRANCH  15  16
ATOM     16  C   UNL     1     -20.889 -12.863 -24.466  1.00  0.00    -0.000 C 
BRANCH  16  17
ATOM     17  C   UNL     1     -21.514 -14.228 -24.826  1.00  0.00    -0.000 C 
BRANCH  17  18
ATOM     18  C   UNL     1     -22.431 -14.798 -23.727  1.00  0.00    -0.000 C 
BRANCH  18  19
ATOM     19  C   UNL     1     -22.107 -14.310 -22.305  1.00  0.00    -0.003 C 
ATOM     20  C   UNL     1     -22.487 -15.326 -21.227  1.00  0.00     0.004 C 
ENDBRANCH  18  19
ENDBRANCH  17  18
ENDBRANCH  16  17
ENDBRANCH  15  16
ENDBRANCH  14  15
ENDBRANCH  13  14
ENDBRANCH  12  13
ENDBRANCH   1  12
TORSDOF 16
ENDMDL
