MODEL 1
REMARK VINA RESULT:     2.731      0.000      0.000
REMARK INTER + INTRA:           6.044
REMARK INTER:                   5.285
REMARK INTRA:                   0.759
REMARK UNBOUND:                 0.759
REMARK SMILES CCCCCCCCCCCCCCCCCC(=O)[O-]
REMARK SMILES IDX 10 1 11 2 12 3 13 4 14 5 15 6 16 7 17 8 18 9 19 10 20 11
REMARK SMILES IDX 9 12 8 13 7 14 6 15 5 16 4 17 3 18 2 19 1 20
REMARK H PARENT
REMARK Flexibility Score: inf
ROOT
ATOM      1  C   UNL     1     -14.617  -2.057 -14.013  1.00  0.00     0.000 C 
ENDROOT
BRANCH   1   2
ATOM      2  C   UNL     1     -14.276  -2.802 -12.709  1.00  0.00     0.000 C 
BRANCH   2   3
ATOM      3  C   UNL     1     -13.160  -3.846 -12.893  1.00  0.00     0.000 C 
BRANCH   3   4
ATOM      4  C   UNL     1     -11.875  -3.564 -12.092  1.00  0.00     0.000 C 
BRANCH   4   5
ATOM      5  C   UNL     1     -11.989  -2.425 -11.060  1.00  0.00     0.000 C 
BRANCH   5   6
ATOM      6  C   UNL     1     -12.042  -2.915  -9.596  1.00  0.00     0.000 C 
BRANCH   6   7
ATOM      7  C   UNL     1     -13.409  -2.665  -8.943  1.00  0.00     0.006 C 
BRANCH   7   8
ATOM      8  C   UNL     1     -14.373  -3.823  -9.217  1.00  0.00     0.053 C 
BRANCH   8   9
ATOM      9  C   UNL     1     -13.624  -5.114  -9.329  1.00  0.00     0.041 C 
ATOM     10  O   UNL     1     -12.488  -5.143  -9.871  1.00  0.00    -0.550 OA
ATOM     11  O   UNL     1     -14.203  -6.294  -8.875  1.00  0.00    -0.550 OA
ENDBRANCH   8   9
ENDBRANCH   7   8
ENDBRANCH   6   7
ENDBRANCH   5   6
ENDBRANCH   4   5
ENDBRANCH   3   4
ENDBRANCH   2   3
ENDBRANCH   1   2
BRANCH   1  12
ATOM     12  C   UNL     1     -13.384  -1.363 -14.628  1.00  0.00     0.000 C 
BRANCH  12  13
ATOM     13  C   UNL     1     -13.107  -1.778 -16.084  1.00  0.00    -0.000 C 
BRANCH  13  14
ATOM     14  C   UNL     1     -14.186  -2.708 -16.656  1.00  0.00    -0.000 C 
BRANCH  14  15
ATOM     15  C   UNL     1     -13.587  -4.050 -17.091  1.00  0.00    -0.000 C 
BRANCH  15  16
ATOM     16  C   UNL     1     -14.419  -5.221 -16.549  1.00  0.00    -0.000 C 
BRANCH  16  17
ATOM     17  C   UNL     1     -14.147  -5.505 -15.063  1.00  0.00    -0.000 C 
BRANCH  17  18
ATOM     18  C   UNL     1     -13.915  -7.001 -14.779  1.00  0.00    -0.000 C 
BRANCH  18  19
ATOM     19  C   UNL     1     -13.665  -7.811 -16.060  1.00  0.00    -0.003 C 
ATOM     20  C   UNL     1     -12.180  -8.074 -16.312  1.00  0.00     0.004 C 
ENDBRANCH  18  19
ENDBRANCH  17  18
ENDBRANCH  16  17
ENDBRANCH  15  16
ENDBRANCH  14  15
ENDBRANCH  13  14
ENDBRANCH  12  13
ENDBRANCH   1  12
TORSDOF 16
ENDMDL
MODEL 2
REMARK VINA RESULT:     3.183      1.233      2.479
REMARK INTER + INTRA:           6.919
REMARK INTER:                   3.883
REMARK INTRA:                   3.035
REMARK UNBOUND:                 0.759
REMARK SMILES CCCCCCCCCCCCCCCCCC(=O)[O-]
REMARK SMILES IDX 10 1 11 2 12 3 13 4 14 5 15 6 16 7 17 8 18 9 19 10 20 11
REMARK SMILES IDX 9 12 8 13 7 14 6 15 5 16 4 17 3 18 2 19 1 20
REMARK H PARENT
REMARK Flexibility Score: inf
ROOT
ATOM      1  C   UNL     1     -12.581  -3.232 -12.007  1.00  0.00     0.000 C 
ENDROOT
BRANCH   1   2
ATOM      2  C   UNL     1     -11.994  -3.240 -10.583  1.00  0.00     0.000 C 
BRANCH   2   3
ATOM      3  C   UNL     1     -11.875  -1.829  -9.979  1.00  0.00     0.000 C 
BRANCH   3   4
ATOM      4  C   UNL     1     -12.906  -1.509  -8.881  1.00  0.00     0.000 C 
BRANCH   4   5
ATOM      5  C   UNL     1     -14.204  -2.338  -8.944  1.00  0.00     0.000 C 
BRANCH   5   6
ATOM      6  C   UNL     1     -13.977  -3.818  -9.326  1.00  0.00     0.000 C 
BRANCH   6   7
ATOM      7  C   UNL     1     -15.133  -4.723  -8.876  1.00  0.00     0.006 C 
BRANCH   7   8
ATOM      8  C   UNL     1     -14.770  -6.203  -9.032  1.00  0.00     0.053 C 
BRANCH   8   9
ATOM      9  C   UNL     1     -13.284  -6.378  -9.062  1.00  0.00     0.041 C 
ATOM     10  O   UNL     1     -12.783  -7.524  -9.211  1.00  0.00    -0.550 OA
ATOM     11  O   UNL     1     -12.452  -5.279  -8.879  1.00  0.00    -0.550 OA
ENDBRANCH   8   9
ENDBRANCH   7   8
ENDBRANCH   6   7
ENDBRANCH   5   6
ENDBRANCH   4   5
ENDBRANCH   3   4
ENDBRANCH   2   3
ENDBRANCH   1   2
BRANCH   1  12
ATOM     12  C   UNL     1     -12.092  -2.024 -12.834  1.00  0.00     0.000 C 
BRANCH  12  13
ATOM     13  C   UNL     1     -12.032  -2.298 -14.347  1.00  0.00    -0.000 C 
BRANCH  13  14
ATOM     14  C   UNL     1     -13.096  -1.524 -15.138  1.00  0.00    -0.000 C 
BRANCH  14  15
ATOM     15  C   UNL     1     -14.184  -2.464 -15.668  1.00  0.00    -0.000 C 
BRANCH  15  16
ATOM     16  C   UNL     1     -14.692  -3.395 -14.557  1.00  0.00    -0.000 C 
BRANCH  16  17
ATOM     17  C   UNL     1     -14.730  -4.870 -14.988  1.00  0.00    -0.000 C 
BRANCH  17  18
ATOM     18  C   UNL     1     -13.921  -5.782 -14.048  1.00  0.00    -0.000 C 
BRANCH  18  19
ATOM     19  C   UNL     1     -13.799  -7.217 -14.581  1.00  0.00    -0.003 C 
ATOM     20  C   UNL     1     -13.394  -7.268 -16.054  1.00  0.00     0.004 C 
ENDBRANCH  18  19
ENDBRANCH  17  18
ENDBRANCH  16  17
ENDBRANCH  15  16
ENDBRANCH  14  15
ENDBRANCH  13  14
ENDBRANCH  12  13
ENDBRANCH   1  12
TORSDOF 16
ENDMDL
MODEL 3
REMARK VINA RESULT:     3.260     17.824     20.683
REMARK INTER + INTRA:           7.068
REMARK INTER:                   7.713
REMARK INTRA:                  -0.645
REMARK UNBOUND:                 0.759
REMARK SMILES CCCCCCCCCCCCCCCCCC(=O)[O-]
REMARK SMILES IDX 10 1 11 2 12 3 13 4 14 5 15 6 16 7 17 8 18 9 19 10 20 11
REMARK SMILES IDX 9 12 8 13 7 14 6 15 5 16 4 17 3 18 2 19 1 20
REMARK H PARENT
REMARK Flexibility Score: inf
ROOT
ATOM      1  C   UNL     1     -26.579  -2.676 -28.118  1.00  0.00     0.000 C 
ENDROOT
BRANCH   1   2
ATOM      2  C   UNL     1     -25.743  -3.437 -27.073  1.00  0.00     0.000 C 
BRANCH   2   3
ATOM      3  C   UNL     1     -24.336  -2.844 -26.886  1.00  0.00     0.000 C 
BRANCH   3   4
ATOM      4  C   UNL     1     -24.118  -1.476 -27.558  1.00  0.00     0.000 C 
BRANCH   4   5
ATOM      5  C   UNL     1     -22.982  -0.628 -26.954  1.00  0.00     0.000 C 
BRANCH   5   6
ATOM      6  C   UNL     1     -22.472   0.488 -27.893  1.00  0.00     0.000 C 
BRANCH   6   7
ATOM      7  C   UNL     1     -21.539   1.476 -27.177  1.00  0.00     0.006 C 
BRANCH   7   8
ATOM      8  C   UNL     1     -22.191   2.857 -27.049  1.00  0.00     0.053 C 
BRANCH   8   9
ATOM      9  C   UNL     1     -21.231   3.930 -27.456  1.00  0.00     0.041 C 
ATOM     10  O   UNL     1     -21.656   5.007 -27.951  1.00  0.00    -0.550 OA
ATOM     11  O   UNL     1     -19.862   3.720 -27.332  1.00  0.00    -0.550 OA
ENDBRANCH   8   9
ENDBRANCH   7   8
ENDBRANCH   6   7
ENDBRANCH   5   6
ENDBRANCH   4   5
ENDBRANCH   3   4
ENDBRANCH   2   3
ENDBRANCH   1   2
BRANCH   1  12
ATOM     12  C   UNL     1     -28.080  -2.647 -27.760  1.00  0.00     0.000 C 
BRANCH  12  13
ATOM     13  C   UNL     1     -29.006  -2.756 -28.984  1.00  0.00    -0.000 C 
BRANCH  13  14
ATOM     14  C   UNL     1     -30.495  -2.725 -28.610  1.00  0.00    -0.000 C 
BRANCH  14  15
ATOM     15  C   UNL     1     -30.690  -2.345 -27.138  1.00  0.00    -0.000 C 
BRANCH  15  16
ATOM     16  C   UNL     1     -31.660  -1.162 -27.004  1.00  0.00    -0.000 C 
BRANCH  16  17
ATOM     17  C   UNL     1     -31.277  -0.205 -25.863  1.00  0.00    -0.000 C 
BRANCH  17  18
ATOM     18  C   UNL     1     -31.829   1.216 -26.072  1.00  0.00    -0.000 C 
BRANCH  18  19
ATOM     19  C   UNL     1     -31.080   2.268 -25.240  1.00  0.00    -0.003 C 
ATOM     20  C   UNL     1     -30.281   3.245 -26.102  1.00  0.00     0.004 C 
ENDBRANCH  18  19
ENDBRANCH  17  18
ENDBRANCH  16  17
ENDBRANCH  15  16
ENDBRANCH  14  15
ENDBRANCH  13  14
ENDBRANCH  12  13
ENDBRANCH   1  12
TORSDOF 16
ENDMDL
MODEL 4
REMARK VINA RESULT:     3.373     18.304     21.250
REMARK INTER + INTRA:           7.288
REMARK INTER:                   7.885
REMARK INTRA:                  -0.597
REMARK UNBOUND:                 0.759
REMARK SMILES CCCCCCCCCCCCCCCCCC(=O)[O-]
REMARK SMILES IDX 10 1 11 2 12 3 13 4 14 5 15 6 16 7 17 8 18 9 19 10 20 11
REMARK SMILES IDX 9 12 8 13 7 14 6 15 5 16 4 17 3 18 2 19 1 20
REMARK H PARENT
REMARK Flexibility Score: inf
ROOT
ATOM      1  C   UNL     1     -28.560  -2.478 -27.684  1.00  0.00     0.000 C 
ENDROOT
BRANCH   1   2
ATOM      2  C   UNL     1     -27.420  -2.659 -28.704  1.00  0.00     0.000 C 
BRANCH   2   3
ATOM      3  C   UNL     1     -26.024  -2.535 -28.067  1.00  0.00     0.000 C 
BRANCH   3   4
ATOM      4  C   UNL     1     -25.221  -1.298 -28.508  1.00  0.00     0.000 C 
BRANCH   4   5
ATOM      5  C   UNL     1     -23.965  -1.003 -27.665  1.00  0.00     0.000 C 
BRANCH   5   6
ATOM      6  C   UNL     1     -22.952  -0.070 -28.364  1.00  0.00     0.000 C 
BRANCH   6   7
ATOM      7  C   UNL     1     -22.116   0.742 -27.364  1.00  0.00     0.006 C 
BRANCH   7   8
ATOM      8  C   UNL     1     -22.495   2.227 -27.404  1.00  0.00     0.053 C 
BRANCH   8   9
ATOM      9  C   UNL     1     -21.294   3.082 -27.145  1.00  0.00     0.041 C 
ATOM     10  O   UNL     1     -21.344   4.323 -27.350  1.00  0.00    -0.550 OA
ATOM     11  O   UNL     1     -20.106   2.499 -26.721  1.00  0.00    -0.550 OA
ENDBRANCH   8   9
ENDBRANCH   7   8
ENDBRANCH   6   7
ENDBRANCH   5   6
ENDBRANCH   4   5
ENDBRANCH   3   4
ENDBRANCH   2   3
ENDBRANCH   1   2
BRANCH   1  12
ATOM     12  C   UNL     1     -29.953  -2.558 -28.344  1.00  0.00     0.000 C 
BRANCH  12  13
ATOM     13  C   UNL     1     -31.105  -2.705 -27.335  1.00  0.00    -0.000 C 
BRANCH  13  14
ATOM     14  C   UNL     1     -31.869  -1.393 -27.105  1.00  0.00    -0.000 C 
BRANCH  14  15
ATOM     15  C   UNL     1     -31.176  -0.526 -26.049  1.00  0.00    -0.000 C 
BRANCH  15  16
ATOM     16  C   UNL     1     -31.707   0.915 -26.091  1.00  0.00    -0.000 C 
BRANCH  16  17
ATOM     17  C   UNL     1     -31.021   1.832 -25.065  1.00  0.00    -0.000 C 
BRANCH  17  18
ATOM     18  C   UNL     1     -31.093   3.318 -25.460  1.00  0.00    -0.000 C 
BRANCH  18  19
ATOM     19  C   UNL     1     -30.064   3.692 -26.537  1.00  0.00    -0.003 C 
ATOM     20  C   UNL     1     -30.697   4.384 -27.745  1.00  0.00     0.004 C 
ENDBRANCH  18  19
ENDBRANCH  17  18
ENDBRANCH  16  17
ENDBRANCH  15  16
ENDBRANCH  14  15
ENDBRANCH  13  14
ENDBRANCH  12  13
ENDBRANCH   1  12
TORSDOF 16
ENDMDL
MODEL 5
REMARK VINA RESULT:     3.496     20.454     22.591
REMARK INTER + INTRA:           7.525
REMARK INTER:                   8.486
REMARK INTRA:                  -0.961
REMARK UNBOUND:                 0.759
REMARK SMILES CCCCCCCCCCCCCCCCCC(=O)[O-]
REMARK SMILES IDX 10 1 11 2 12 3 13 4 14 5 15 6 16 7 17 8 18 9 19 10 20 11
REMARK SMILES IDX 9 12 8 13 7 14 6 15 5 16 4 17 3 18 2 19 1 20
REMARK H PARENT
REMARK Flexibility Score: inf
ROOT
ATOM      1  C   UNL     1     -31.703   2.345 -26.951  1.00  0.00     0.000 C 
ENDROOT
BRANCH   1   2
ATOM      2  C   UNL     1     -31.248   3.753 -27.376  1.00  0.00     0.000 C 
BRANCH   2   3
ATOM      3  C   UNL     1     -31.264   4.762 -26.214  1.00  0.00     0.000 C 
BRANCH   3   4
ATOM      4  C   UNL     1     -32.124   4.342 -25.007  1.00  0.00     0.000 C 
BRANCH   4   5
ATOM      5  C   UNL     1     -31.354   3.642 -23.871  1.00  0.00     0.000 C 
BRANCH   5   6
ATOM      6  C   UNL     1     -31.794   2.182 -23.628  1.00  0.00     0.000 C 
BRANCH   6   7
ATOM      7  C   UNL     1     -30.683   1.173 -23.955  1.00  0.00     0.006 C 
BRANCH   7   8
ATOM      8  C   UNL     1     -31.191  -0.267 -23.831  1.00  0.00     0.053 C 
BRANCH   8   9
ATOM      9  C   UNL     1     -30.700  -0.890 -22.562  1.00  0.00     0.041 C 
ATOM     10  O   UNL     1     -31.509  -1.171 -21.639  1.00  0.00    -0.550 OA
ATOM     11  O   UNL     1     -29.340  -1.117 -22.381  1.00  0.00    -0.550 OA
ENDBRANCH   8   9
ENDBRANCH   7   8
ENDBRANCH   6   7
ENDBRANCH   5   6
ENDBRANCH   4   5
ENDBRANCH   3   4
ENDBRANCH   2   3
ENDBRANCH   1   2
BRANCH   1  12
ATOM     12  C   UNL     1     -32.112   1.473 -28.157  1.00  0.00     0.000 C 
BRANCH  12  13
ATOM     13  C   UNL     1     -32.117  -0.035 -27.853  1.00  0.00    -0.000 C 
BRANCH  13  14
ATOM     14  C   UNL     1     -30.718  -0.664 -27.924  1.00  0.00    -0.000 C 
BRANCH  14  15
ATOM     15  C   UNL     1     -30.626  -1.911 -27.039  1.00  0.00    -0.000 C 
BRANCH  15  16
ATOM     16  C   UNL     1     -30.450  -3.176 -27.893  1.00  0.00    -0.000 C 
BRANCH  16  17
ATOM     17  C   UNL     1     -31.523  -3.309 -28.986  1.00  0.00    -0.000 C 
BRANCH  17  18
ATOM     18  C   UNL     1     -32.124  -4.724 -29.055  1.00  0.00    -0.000 C 
BRANCH  18  19
ATOM     19  C   UNL     1     -31.050  -5.821 -29.070  1.00  0.00    -0.003 C 
ATOM     20  C   UNL     1     -31.637  -7.226 -28.935  1.00  0.00     0.004 C 
ENDBRANCH  18  19
ENDBRANCH  17  18
ENDBRANCH  16  17
ENDBRANCH  15  16
ENDBRANCH  14  15
ENDBRANCH  13  14
ENDBRANCH  12  13
ENDBRANCH   1  12
TORSDOF 16
ENDMDL
MODEL 6
REMARK VINA RESULT:     3.661     18.387     21.168
REMARK INTER + INTRA:           7.844
REMARK INTER:                   8.508
REMARK INTRA:                  -0.663
REMARK UNBOUND:                 0.759
REMARK SMILES CCCCCCCCCCCCCCCCCC(=O)[O-]
REMARK SMILES IDX 10 1 11 2 12 3 13 4 14 5 15 6 16 7 17 8 18 9 19 10 20 11
REMARK SMILES IDX 9 12 8 13 7 14 6 15 5 16 4 17 3 18 2 19 1 20
REMARK H PARENT
REMARK Flexibility Score: inf
ROOT
ATOM      1  C   UNL     1     -27.972  -2.711 -27.625  1.00  0.00     0.000 C 
ENDROOT
BRANCH   1   2
ATOM      2  C   UNL     1     -28.850  -2.614 -28.886  1.00  0.00     0.000 C 
BRANCH   2   3
ATOM      3  C   UNL     1     -30.326  -2.955 -28.613  1.00  0.00     0.000 C 
BRANCH   3   4
ATOM      4  C   UNL     1     -30.816  -2.611 -27.194  1.00  0.00     0.000 C 
BRANCH   4   5
ATOM      5  C   UNL     1     -31.664  -1.328 -27.091  1.00  0.00     0.000 C 
BRANCH   5   6
ATOM      6  C   UNL     1     -31.199  -0.363 -25.978  1.00  0.00     0.000 C 
BRANCH   6   7
ATOM      7  C   UNL     1     -31.764   1.053 -26.157  1.00  0.00     0.006 C 
BRANCH   7   8
ATOM      8  C   UNL     1     -31.234   2.000 -25.076  1.00  0.00     0.053 C 
BRANCH   8   9
ATOM      9  C   UNL     1     -31.378   3.426 -25.509  1.00  0.00     0.041 C 
ATOM     10  O   UNL     1     -31.908   4.271 -24.742  1.00  0.00    -0.550 OA
ATOM     11  O   UNL     1     -30.967   3.809 -26.781  1.00  0.00    -0.550 OA
ENDBRANCH   8   9
ENDBRANCH   7   8
ENDBRANCH   6   7
ENDBRANCH   5   6
ENDBRANCH   4   5
ENDBRANCH   3   4
ENDBRANCH   2   3
ENDBRANCH   1   2
BRANCH   1  12
ATOM     12  C   UNL     1     -26.465  -2.699 -27.960  1.00  0.00     0.000 C 
BRANCH  12  13
ATOM     13  C   UNL     1     -25.613  -3.535 -26.989  1.00  0.00    -0.000 C 
BRANCH  13  14
ATOM     14  C   UNL     1     -24.310  -2.834 -26.582  1.00  0.00    -0.000 C 
BRANCH  14  15
ATOM     15  C   UNL     1     -23.983  -1.677 -27.532  1.00  0.00    -0.000 C 
BRANCH  15  16
ATOM     16  C   UNL     1     -23.074  -0.646 -26.846  1.00  0.00    -0.000 C 
BRANCH  16  17
ATOM     17  C   UNL     1     -22.541   0.418 -27.819  1.00  0.00    -0.000 C 
BRANCH  17  18
ATOM     18  C   UNL     1     -21.449   1.302 -27.189  1.00  0.00    -0.000 C 
BRANCH  18  19
ATOM     19  C   UNL     1     -21.964   2.702 -26.821  1.00  0.00    -0.003 C 
ATOM     20  C   UNL     1     -21.259   3.813 -27.598  1.00  0.00     0.004 C 
ENDBRANCH  18  19
ENDBRANCH  17  18
ENDBRANCH  16  17
ENDBRANCH  15  16
ENDBRANCH  14  15
ENDBRANCH  13  14
ENDBRANCH  12  13
ENDBRANCH   1  12
TORSDOF 16
ENDMDL
MODEL 7
REMARK VINA RESULT:     3.846     17.455     20.285
REMARK INTER + INTRA:           8.203
REMARK INTER:                   9.009
REMARK INTRA:                  -0.806
REMARK UNBOUND:                 0.759
REMARK SMILES CCCCCCCCCCCCCCCCCC(=O)[O-]
REMARK SMILES IDX 10 1 11 2 12 3 13 4 14 5 15 6 16 7 17 8 18 9 19 10 20 11
REMARK SMILES IDX 9 12 8 13 7 14 6 15 5 16 4 17 3 18 2 19 1 20
REMARK H PARENT
REMARK Flexibility Score: inf
ROOT
ATOM      1  C   UNL     1     -24.595  -3.014 -26.084  1.00  0.00     0.000 C 
ENDROOT
BRANCH   1   2
ATOM      2  C   UNL     1     -25.725  -3.542 -26.987  1.00  0.00     0.000 C 
BRANCH   2   3
ATOM      3  C   UNL     1     -26.197  -2.503 -28.021  1.00  0.00     0.000 C 
BRANCH   3   4
ATOM      4  C   UNL     1     -27.607  -2.751 -28.587  1.00  0.00     0.000 C 
BRANCH   4   5
ATOM      5  C   UNL     1     -28.764  -2.366 -27.644  1.00  0.00     0.000 C 
BRANCH   5   6
ATOM      6  C   UNL     1     -30.143  -2.883 -28.109  1.00  0.00     0.000 C 
BRANCH   6   7
ATOM      7  C   UNL     1     -31.253  -2.593 -27.087  1.00  0.00     0.006 C 
BRANCH   7   8
ATOM      8  C   UNL     1     -31.801  -1.172 -27.254  1.00  0.00     0.053 C 
BRANCH   8   9
ATOM      9  C   UNL     1     -31.490  -0.345 -26.047  1.00  0.00     0.041 C 
ATOM     10  O   UNL     1     -31.642   0.905 -26.079  1.00  0.00    -0.550 OA
ATOM     11  O   UNL     1     -30.988  -0.950 -24.901  1.00  0.00    -0.550 OA
ENDBRANCH   8   9
ENDBRANCH   7   8
ENDBRANCH   6   7
ENDBRANCH   5   6
ENDBRANCH   4   5
ENDBRANCH   3   4
ENDBRANCH   2   3
ENDBRANCH   1   2
BRANCH   1  12
ATOM     12  C   UNL     1     -23.431  -2.408 -26.896  1.00  0.00     0.000 C 
BRANCH  12  13
ATOM     13  C   UNL     1     -23.279  -0.887 -26.715  1.00  0.00    -0.000 C 
BRANCH  13  14
ATOM     14  C   UNL     1     -22.759  -0.184 -27.976  1.00  0.00    -0.000 C 
BRANCH  14  15
ATOM     15  C   UNL     1     -22.443   1.290 -27.698  1.00  0.00    -0.000 C 
BRANCH  15  16
ATOM     16  C   UNL     1     -21.404   1.423 -26.575  1.00  0.00    -0.000 C 
BRANCH  16  17
ATOM     17  C   UNL     1     -20.864   2.855 -26.431  1.00  0.00    -0.000 C 
BRANCH  17  18
ATOM     18  C   UNL     1     -21.286   3.766 -27.599  1.00  0.00    -0.000 C 
BRANCH  18  19
ATOM     19  C   UNL     1     -20.558   5.119 -27.583  1.00  0.00    -0.003 C 
ATOM     20  C   UNL     1     -19.037   4.972 -27.589  1.00  0.00     0.004 C 
ENDBRANCH  18  19
ENDBRANCH  17  18
ENDBRANCH  16  17
ENDBRANCH  15  16
ENDBRANCH  14  15
ENDBRANCH  13  14
ENDBRANCH  12  13
ENDBRANCH   1  12
TORSDOF 16
ENDMDL
MODEL 8
REMARK VINA RESULT:     4.339      2.221      6.042
REMARK INTER + INTRA:           9.157
REMARK INTER:                  10.510
REMARK INTRA:                  -1.353
REMARK UNBOUND:                 0.759
REMARK SMILES CCCCCCCCCCCCCCCCCC(=O)[O-]
REMARK SMILES IDX 10 1 11 2 12 3 13 4 14 5 15 6 16 7 17 8 18 9 19 10 20 11
REMARK SMILES IDX 9 12 8 13 7 14 6 15 5 16 4 17 3 18 2 19 1 20
REMARK H PARENT
REMARK Flexibility Score: inf
ROOT
ATOM      1  C   UNL     1     -15.202  -2.419 -13.156  1.00  0.00     0.000 C 
ENDROOT
BRANCH   1   2
ATOM      2  C   UNL     1     -14.980  -1.595 -14.437  1.00  0.00     0.000 C 
BRANCH   2   3
ATOM      3  C   UNL     1     -13.492  -1.441 -14.797  1.00  0.00     0.000 C 
BRANCH   3   4
ATOM      4  C   UNL     1     -13.089  -2.052 -16.152  1.00  0.00     0.000 C 
BRANCH   4   5
ATOM      5  C   UNL     1     -14.239  -2.716 -16.934  1.00  0.00     0.000 C 
BRANCH   5   6
ATOM      6  C   UNL     1     -13.867  -4.086 -17.542  1.00  0.00     0.000 C 
BRANCH   6   7
ATOM      7  C   UNL     1     -14.398  -5.262 -16.709  1.00  0.00     0.006 C 
BRANCH   7   8
ATOM      8  C   UNL     1     -13.263  -6.204 -16.296  1.00  0.00     0.053 C 
BRANCH   8   9
ATOM      9  C   UNL     1     -13.797  -7.351 -15.496  1.00  0.00     0.041 C 
ATOM     10  O   UNL     1     -14.282  -7.154 -14.351  1.00  0.00    -0.550 OA
ATOM     11  O   UNL     1     -13.717  -8.644 -15.999  1.00  0.00    -0.550 OA
ENDBRANCH   8   9
ENDBRANCH   7   8
ENDBRANCH   6   7
ENDBRANCH   5   6
ENDBRANCH   4   5
ENDBRANCH   3   4
ENDBRANCH   2   3
ENDBRANCH   1   2
BRANCH   1  12
ATOM     12  C   UNL     1     -14.799  -3.898 -13.334  1.00  0.00     0.000 C 
BRANCH  12  13
ATOM     13  C   UNL     1     -13.320  -4.177 -13.012  1.00  0.00    -0.000 C 
BRANCH  13  14
ATOM     14  C   UNL     1     -12.628  -2.996 -12.316  1.00  0.00    -0.000 C 
BRANCH  14  15
ATOM     15  C   UNL     1     -11.875  -3.457 -11.062  1.00  0.00    -0.000 C 
BRANCH  15  16
ATOM     16  C   UNL     1     -12.612  -3.013  -9.789  1.00  0.00    -0.000 C 
BRANCH  16  17
ATOM     17  C   UNL     1     -13.091  -4.198  -8.936  1.00  0.00    -0.000 C 
BRANCH  17  18
ATOM     18  C   UNL     1     -12.071  -5.349  -8.897  1.00  0.00    -0.000 C 
BRANCH  18  19
ATOM     19  C   UNL     1     -12.742  -6.731  -8.876  1.00  0.00    -0.003 C 
ATOM     20  C   UNL     1     -14.263  -6.651  -9.004  1.00  0.00     0.004 C 
ENDBRANCH  18  19
ENDBRANCH  17  18
ENDBRANCH  16  17
ENDBRANCH  15  16
ENDBRANCH  14  15
ENDBRANCH  13  14
ENDBRANCH  12  13
ENDBRANCH   1  12
TORSDOF 16
ENDMDL
MODEL 9
REMARK VINA RESULT:     4.428     19.266     21.547
REMARK INTER + INTRA:           9.329
REMARK INTER:                   9.577
REMARK INTRA:                  -0.248
REMARK UNBOUND:                 0.759
REMARK SMILES CCCCCCCCCCCCCCCCCC(=O)[O-]
REMARK SMILES IDX 10 1 11 2 12 3 13 4 14 5 15 6 16 7 17 8 18 9 19 10 20 11
REMARK SMILES IDX 9 12 8 13 7 14 6 15 5 16 4 17 3 18 2 19 1 20
REMARK H PARENT
REMARK Flexibility Score: inf
ROOT
ATOM      1  C   UNL     1     -31.854   1.089 -27.413  1.00  0.00     0.000 C 
ENDROOT
BRANCH   1   2
ATOM      2  C   UNL     1     -31.887   2.378 -28.255  1.00  0.00     0.000 C 
BRANCH   2   3
ATOM      3  C   UNL     1     -31.946   3.652 -27.393  1.00  0.00     0.000 C 
BRANCH   3   4
ATOM      4  C   UNL     1     -32.065   3.402 -25.878  1.00  0.00     0.000 C 
BRANCH   4   5
ATOM      5  C   UNL     1     -30.904   2.602 -25.257  1.00  0.00     0.000 C 
BRANCH   5   6
ATOM      6  C   UNL     1     -31.364   1.400 -24.403  1.00  0.00     0.000 C 
BRANCH   6   7
ATOM      7  C   UNL     1     -30.201   0.472 -24.022  1.00  0.00     0.006 C 
BRANCH   7   8
ATOM      8  C   UNL     1     -30.716  -0.849 -23.441  1.00  0.00     0.053 C 
BRANCH   8   9
ATOM      9  C   UNL     1     -30.313  -0.983 -22.006  1.00  0.00     0.041 C 
ATOM     10  O   UNL     1     -31.002  -0.443 -21.101  1.00  0.00    -0.550 OA
ATOM     11  O   UNL     1     -29.150  -1.667 -21.672  1.00  0.00    -0.550 OA
ENDBRANCH   8   9
ENDBRANCH   7   8
ENDBRANCH   6   7
ENDBRANCH   5   6
ENDBRANCH   4   5
ENDBRANCH   3   4
ENDBRANCH   2   3
ENDBRANCH   1   2
BRANCH   1  12
ATOM     12  C   UNL     1     -32.125  -0.171 -28.262  1.00  0.00     0.000 C 
BRANCH  12  13
ATOM     13  C   UNL     1     -32.073  -1.480 -27.455  1.00  0.00    -0.000 C 
BRANCH  13  14
ATOM     14  C   UNL     1     -30.674  -1.786 -26.902  1.00  0.00    -0.000 C 
BRANCH  14  15
ATOM     15  C   UNL     1     -30.067  -3.019 -27.580  1.00  0.00    -0.000 C 
BRANCH  15  16
ATOM     16  C   UNL     1     -28.900  -2.620 -28.496  1.00  0.00    -0.000 C 
BRANCH  16  17
ATOM     17  C   UNL     1     -27.641  -2.216 -27.712  1.00  0.00    -0.000 C 
BRANCH  17  18
ATOM     18  C   UNL     1     -26.421  -3.087 -28.063  1.00  0.00    -0.000 C 
BRANCH  18  19
ATOM     19  C   UNL     1     -25.872  -3.849 -26.847  1.00  0.00    -0.003 C 
ATOM     20  C   UNL     1     -24.532  -3.298 -26.360  1.00  0.00     0.004 C 
ENDBRANCH  18  19
ENDBRANCH  17  18
ENDBRANCH  16  17
ENDBRANCH  15  16
ENDBRANCH  14  15
ENDBRANCH  13  14
ENDBRANCH  12  13
ENDBRANCH   1  12
TORSDOF 16
ENDMDL
