MODEL 1
REMARK VINA RESULT:    -3.574      0.000      0.000
REMARK INTER + INTRA:         -15.326
REMARK INTER:                  -9.424
REMARK INTRA:                  -5.901
REMARK UNBOUND:                -5.901
REMARK SMILES CCCCCCCCCCCCCCCCCCCCCCCCCCCCCC(=O)[O-]
REMARK SMILES IDX 16 1 17 2 18 3 19 4 20 5 21 6 22 7 23 8 24 9 25 10 26 11
REMARK SMILES IDX 27 12 28 13 29 14 30 15 31 16 32 17 15 18 14 19 13 20 12 21
REMARK SMILES IDX 11 22 10 23 9 24 8 25 7 26 6 27 5 28 4 29 3 30 2 31 1 32
REMARK H PARENT
REMARK Flexibility Score: inf
ROOT
ATOM      1  C   UNL     1       3.131 125.283 110.624  1.00  0.00     0.000 C 
ENDROOT
BRANCH   1   2
ATOM      2  C   UNL     1       2.908 126.768 110.269  1.00  0.00     0.000 C 
BRANCH   2   3
ATOM      3  C   UNL     1       1.541 127.313 110.726  1.00  0.00     0.000 C 
BRANCH   3   4
ATOM      4  C   UNL     1       1.584 128.720 111.343  1.00  0.00     0.000 C 
BRANCH   4   5
ATOM      5  C   UNL     1       2.972 129.370 111.246  1.00  0.00     0.000 C 
BRANCH   5   6
ATOM      6  C   UNL     1       3.506 129.739 112.634  1.00  0.00     0.000 C 
BRANCH   6   7
ATOM      7  C   UNL     1       4.511 128.689 113.130  1.00  0.00     0.000 C 
BRANCH   7   8
ATOM      8  C   UNL     1       4.494 128.529 114.658  1.00  0.00     0.000 C 
BRANCH   8   9
ATOM      9  C   UNL     1       3.221 129.110 115.298  1.00  0.00     0.000 C 
BRANCH   9  10
ATOM     10  C   UNL     1       3.393 129.409 116.798  1.00  0.00     0.000 C 
BRANCH  10  11
ATOM     11  C   UNL     1       4.355 130.569 117.123  1.00  0.00     0.000 C 
BRANCH  11  12
ATOM     12  C   UNL     1       4.175 131.834 116.264  1.00  0.00     0.000 C 
BRANCH  12  13
ATOM     13  C   UNL     1       5.350 132.163 115.323  1.00  0.00     0.006 C 
BRANCH  13  14
ATOM     14  C   UNL     1       6.712 131.637 115.814  1.00  0.00     0.053 C 
BRANCH  14  15
ATOM     15  C   UNL     1       7.451 130.870 114.760  1.00  0.00     0.041 C 
ATOM     16  O   UNL     1       8.447 130.165 115.071  1.00  0.00    -0.550 OA
ATOM     17  O   UNL     1       7.021 130.907 113.440  1.00  0.00    -0.550 OA
ENDBRANCH  14  15
ENDBRANCH  13  14
ENDBRANCH  12  13
ENDBRANCH  11  12
ENDBRANCH  10  11
ENDBRANCH   9  10
ENDBRANCH   8   9
ENDBRANCH   7   8
ENDBRANCH   6   7
ENDBRANCH   5   6
ENDBRANCH   4   5
ENDBRANCH   3   4
ENDBRANCH   2   3
ENDBRANCH   1   2
BRANCH   1  18
ATOM     18  C   UNL     1       4.435 125.059 111.413  1.00  0.00     0.000 C 
BRANCH  18  19
ATOM     19  C   UNL     1       4.648 123.579 111.796  1.00  0.00     0.000 C 
BRANCH  19  20
ATOM     20  C   UNL     1       5.391 123.378 113.130  1.00  0.00     0.000 C 
BRANCH  20  21
ATOM     21  C   UNL     1       4.600 122.620 114.208  1.00  0.00     0.000 C 
BRANCH  21  22
ATOM     22  C   UNL     1       3.470 121.757 113.626  1.00  0.00     0.000 C 
BRANCH  22  23
ATOM     23  C   UNL     1       2.282 121.682 114.596  1.00  0.00     0.000 C 
BRANCH  23  24
ATOM     24  C   UNL     1       0.967 122.178 113.960  1.00  0.00    -0.000 C 
BRANCH  24  25
ATOM     25  C   UNL     1       1.108 123.507 113.199  1.00  0.00    -0.000 C 
BRANCH  25  26
ATOM     26  C   UNL     1       0.724 124.730 114.048  1.00  0.00    -0.000 C 
BRANCH  26  27
ATOM     27  C   UNL     1       1.820 125.806 114.062  1.00  0.00    -0.000 C 
BRANCH  27  28
ATOM     28  C   UNL     1       2.940 125.492 115.070  1.00  0.00    -0.000 C 
BRANCH  28  29
ATOM     29  C   UNL     1       2.451 125.551 116.526  1.00  0.00    -0.000 C 
BRANCH  29  30
ATOM     30  C   UNL     1       2.505 124.178 117.221  1.00  0.00    -0.000 C 
BRANCH  30  31
ATOM     31  C   UNL     1       1.155 123.775 117.832  1.00  0.00    -0.003 C 
ATOM     32  C   UNL     1       1.003 122.260 117.980  1.00  0.00     0.004 C 
ENDBRANCH  30  31
ENDBRANCH  29  30
ENDBRANCH  28  29
ENDBRANCH  27  28
ENDBRANCH  26  27
ENDBRANCH  25  26
ENDBRANCH  24  25
ENDBRANCH  23  24
ENDBRANCH  22  23
ENDBRANCH  21  22
ENDBRANCH  20  21
ENDBRANCH  19  20
ENDBRANCH  18  19
ENDBRANCH   1  18
TORSDOF 28
ENDMDL
MODEL 2
REMARK VINA RESULT:    -3.570      2.681      6.235
REMARK INTER + INTRA:         -15.315
REMARK INTER:                  -9.113
REMARK INTRA:                  -6.201
REMARK UNBOUND:                -5.901
REMARK SMILES CCCCCCCCCCCCCCCCCCCCCCCCCCCCCC(=O)[O-]
REMARK SMILES IDX 16 1 17 2 18 3 19 4 20 5 21 6 22 7 23 8 24 9 25 10 26 11
REMARK SMILES IDX 27 12 28 13 29 14 30 15 31 16 32 17 15 18 14 19 13 20 12 21
REMARK SMILES IDX 11 22 10 23 9 24 8 25 7 26 6 27 5 28 4 29 3 30 2 31 1 32
REMARK H PARENT
REMARK Flexibility Score: inf
ROOT
ATOM      1  C   UNL     1       0.347 128.853 114.001  1.00  0.00     0.000 C 
ENDROOT
BRANCH   1   2
ATOM      2  C   UNL     1       0.483 129.882 112.858  1.00  0.00     0.000 C 
BRANCH   2   3
ATOM      3  C   UNL     1       0.911 129.259 111.515  1.00  0.00     0.000 C 
BRANCH   3   4
ATOM      4  C   UNL     1       2.422 129.309 111.236  1.00  0.00     0.000 C 
BRANCH   4   5
ATOM      5  C   UNL     1       3.068 127.916 111.210  1.00  0.00     0.000 C 
BRANCH   5   6
ATOM      6  C   UNL     1       2.199 126.922 110.431  1.00  0.00     0.000 C 
BRANCH   6   7
ATOM      7  C   UNL     1       2.369 125.499 110.983  1.00  0.00     0.000 C 
BRANCH   7   8
ATOM      8  C   UNL     1       1.943 125.382 112.455  1.00  0.00     0.000 C 
BRANCH   8   9
ATOM      9  C   UNL     1       2.539 124.142 113.145  1.00  0.00     0.000 C 
BRANCH   9  10
ATOM     10  C   UNL     1       4.077 124.149 113.152  1.00  0.00     0.000 C 
BRANCH  10  11
ATOM     11  C   UNL     1       4.719 125.341 113.890  1.00  0.00     0.000 C 
BRANCH  11  12
ATOM     12  C   UNL     1       5.679 126.198 113.043  1.00  0.00     0.000 C 
BRANCH  12  13
ATOM     13  C   UNL     1       6.020 125.626 111.653  1.00  0.00     0.006 C 
BRANCH  13  14
ATOM     14  C   UNL     1       7.519 125.344 111.442  1.00  0.00     0.053 C 
BRANCH  14  15
ATOM     15  C   UNL     1       7.948 124.030 112.022  1.00  0.00     0.041 C 
ATOM     16  O   UNL     1       9.032 123.941 112.657  1.00  0.00    -0.550 OA
ATOM     17  O   UNL     1       7.135 122.912 111.891  1.00  0.00    -0.550 OA
ENDBRANCH  14  15
ENDBRANCH  13  14
ENDBRANCH  12  13
ENDBRANCH  11  12
ENDBRANCH  10  11
ENDBRANCH   9  10
ENDBRANCH   8   9
ENDBRANCH   7   8
ENDBRANCH   6   7
ENDBRANCH   5   6
ENDBRANCH   4   5
ENDBRANCH   3   4
ENDBRANCH   2   3
ENDBRANCH   1   2
BRANCH   1  18
ATOM     18  C   UNL     1       0.677 129.461 115.377  1.00  0.00     0.000 C 
BRANCH  18  19
ATOM     19  C   UNL     1       1.857 128.746 116.071  1.00  0.00     0.000 C 
BRANCH  19  20
ATOM     20  C   UNL     1       2.220 127.387 115.444  1.00  0.00     0.000 C 
BRANCH  20  21
ATOM     21  C   UNL     1       1.549 126.168 116.098  1.00  0.00     0.000 C 
BRANCH  21  22
ATOM     22  C   UNL     1       2.556 125.206 116.747  1.00  0.00     0.000 C 
BRANCH  22  23
ATOM     23  C   UNL     1       3.350 125.911 117.857  1.00  0.00     0.000 C 
BRANCH  23  24
ATOM     24  C   UNL     1       4.839 125.507 117.867  1.00  0.00    -0.000 C 
BRANCH  24  25
ATOM     25  C   UNL     1       5.806 126.701 117.939  1.00  0.00    -0.000 C 
BRANCH  25  26
ATOM     26  C   UNL     1       5.467 127.811 116.931  1.00  0.00    -0.000 C 
BRANCH  26  27
ATOM     27  C   UNL     1       5.301 129.183 117.601  1.00  0.00    -0.000 C 
BRANCH  27  28
ATOM     28  C   UNL     1       5.737 130.341 116.685  1.00  0.00    -0.000 C 
BRANCH  28  29
ATOM     29  C   UNL     1       6.470 129.849 115.426  1.00  0.00    -0.000 C 
BRANCH  29  30
ATOM     30  C   UNL     1       5.907 130.475 114.137  1.00  0.00    -0.000 C 
BRANCH  30  31
ATOM     31  C   UNL     1       4.386 130.299 114.013  1.00  0.00    -0.003 C 
ATOM     32  C   UNL     1       3.631 131.627 114.075  1.00  0.00     0.004 C 
ENDBRANCH  30  31
ENDBRANCH  29  30
ENDBRANCH  28  29
ENDBRANCH  27  28
ENDBRANCH  26  27
ENDBRANCH  25  26
ENDBRANCH  24  25
ENDBRANCH  23  24
ENDBRANCH  22  23
ENDBRANCH  21  22
ENDBRANCH  20  21
ENDBRANCH  19  20
ENDBRANCH  18  19
ENDBRANCH   1  18
TORSDOF 28
ENDMDL
MODEL 3
REMARK VINA RESULT:    -3.568      2.606      5.153
REMARK INTER + INTRA:         -15.311
REMARK INTER:                  -9.743
REMARK INTRA:                  -5.567
REMARK UNBOUND:                -5.901
REMARK SMILES CCCCCCCCCCCCCCCCCCCCCCCCCCCCCC(=O)[O-]
REMARK SMILES IDX 16 1 17 2 18 3 19 4 20 5 21 6 22 7 23 8 24 9 25 10 26 11
REMARK SMILES IDX 27 12 28 13 29 14 30 15 31 16 32 17 15 18 14 19 13 20 12 21
REMARK SMILES IDX 11 22 10 23 9 24 8 25 7 26 6 27 5 28 4 29 3 30 2 31 1 32
REMARK H PARENT
REMARK Flexibility Score: inf
ROOT
ATOM      1  C   UNL     1       2.622 129.036 110.581  1.00  0.00     0.000 C 
ENDROOT
BRANCH   1   2
ATOM      2  C   UNL     1       1.806 129.118 111.888  1.00  0.00     0.000 C 
BRANCH   2   3
ATOM      3  C   UNL     1       2.592 129.718 113.070  1.00  0.00     0.000 C 
BRANCH   3   4
ATOM      4  C   UNL     1       4.115 129.778 112.864  1.00  0.00     0.000 C 
BRANCH   4   5
ATOM      5  C   UNL     1       4.845 128.573 113.473  1.00  0.00     0.000 C 
BRANCH   5   6
ATOM      6  C   UNL     1       5.813 129.015 114.576  1.00  0.00     0.000 C 
BRANCH   6   7
ATOM      7  C   UNL     1       6.100 130.521 114.480  1.00  0.00     0.000 C 
BRANCH   7   8
ATOM      8  C   UNL     1       6.224 131.188 115.859  1.00  0.00     0.000 C 
BRANCH   8   9
ATOM      9  C   UNL     1       4.991 130.943 116.747  1.00  0.00     0.000 C 
BRANCH   9  10
ATOM     10  C   UNL     1       5.356 130.364 118.124  1.00  0.00     0.000 C 
BRANCH  10  11
ATOM     11  C   UNL     1       5.322 128.825 118.213  1.00  0.00     0.000 C 
BRANCH  11  12
ATOM     12  C   UNL     1       3.925 128.210 118.426  1.00  0.00     0.000 C 
BRANCH  12  13
ATOM     13  C   UNL     1       3.299 127.554 117.180  1.00  0.00     0.006 C 
BRANCH  13  14
ATOM     14  C   UNL     1       2.455 128.516 116.323  1.00  0.00     0.053 C 
BRANCH  14  15
ATOM     15  C   UNL     1       0.982 128.318 116.512  1.00  0.00     0.041 C 
ATOM     16  O   UNL     1       0.457 128.506 117.641  1.00  0.00    -0.550 OA
ATOM     17  O   UNL     1       0.182 127.961 115.434  1.00  0.00    -0.550 OA
ENDBRANCH  14  15
ENDBRANCH  13  14
ENDBRANCH  12  13
ENDBRANCH  11  12
ENDBRANCH  10  11
ENDBRANCH   9  10
ENDBRANCH   8   9
ENDBRANCH   7   8
ENDBRANCH   6   7
ENDBRANCH   5   6
ENDBRANCH   4   5
ENDBRANCH   3   4
ENDBRANCH   2   3
ENDBRANCH   1   2
BRANCH   1  18
ATOM     18  C   UNL     1       2.592 127.626 109.961  1.00  0.00     0.000 C 
BRANCH  18  19
ATOM     19  C   UNL     1       3.376 126.595 110.801  1.00  0.00     0.000 C 
BRANCH  19  20
ATOM     20  C   UNL     1       2.695 125.216 110.892  1.00  0.00     0.000 C 
BRANCH  20  21
ATOM     21  C   UNL     1       1.915 124.960 112.192  1.00  0.00     0.000 C 
BRANCH  21  22
ATOM     22  C   UNL     1       2.460 125.759 113.385  1.00  0.00     0.000 C 
BRANCH  22  23
ATOM     23  C   UNL     1       2.137 125.054 114.711  1.00  0.00     0.000 C 
BRANCH  23  24
ATOM     24  C   UNL     1       2.415 123.537 114.657  1.00  0.00    -0.000 C 
BRANCH  24  25
ATOM     25  C   UNL     1       3.910 123.184 114.575  1.00  0.00    -0.000 C 
BRANCH  25  26
ATOM     26  C   UNL     1       4.283 122.445 113.279  1.00  0.00    -0.000 C 
BRANCH  26  27
ATOM     27  C   UNL     1       5.414 123.142 112.508  1.00  0.00    -0.000 C 
BRANCH  27  28
ATOM     28  C   UNL     1       5.893 124.429 113.202  1.00  0.00    -0.000 C 
BRANCH  28  29
ATOM     29  C   UNL     1       6.639 125.370 112.243  1.00  0.00    -0.000 C 
BRANCH  29  30
ATOM     30  C   UNL     1       7.781 124.661 111.493  1.00  0.00    -0.000 C 
BRANCH  30  31
ATOM     31  C   UNL     1       8.154 125.370 110.183  1.00  0.00    -0.003 C 
ATOM     32  C   UNL     1       7.240 124.982 109.021  1.00  0.00     0.004 C 
ENDBRANCH  30  31
ENDBRANCH  29  30
ENDBRANCH  28  29
ENDBRANCH  27  28
ENDBRANCH  26  27
ENDBRANCH  25  26
ENDBRANCH  24  25
ENDBRANCH  23  24
ENDBRANCH  22  23
ENDBRANCH  21  22
ENDBRANCH  20  21
ENDBRANCH  19  20
ENDBRANCH  18  19
ENDBRANCH   1  18
TORSDOF 28
ENDMDL
MODEL 4
REMARK VINA RESULT:    -3.536      1.620      2.725
REMARK INTER + INTRA:         -15.225
REMARK INTER:                  -8.986
REMARK INTRA:                  -6.239
REMARK UNBOUND:                -5.901
REMARK SMILES CCCCCCCCCCCCCCCCCCCCCCCCCCCCCC(=O)[O-]
REMARK SMILES IDX 16 1 17 2 18 3 19 4 20 5 21 6 22 7 23 8 24 9 25 10 26 11
REMARK SMILES IDX 27 12 28 13 29 14 30 15 31 16 32 17 15 18 14 19 13 20 12 21
REMARK SMILES IDX 11 22 10 23 9 24 8 25 7 26 6 27 5 28 4 29 3 30 2 31 1 32
REMARK H PARENT
REMARK Flexibility Score: inf
ROOT
ATOM      1  C   UNL     1       1.924 126.509 110.941  1.00  0.00     0.000 C 
ENDROOT
BRANCH   1   2
ATOM      2  C   UNL     1       2.686 127.662 110.254  1.00  0.00     0.000 C 
BRANCH   2   3
ATOM      3  C   UNL     1       2.349 129.052 110.826  1.00  0.00     0.000 C 
BRANCH   3   4
ATOM      4  C   UNL     1       1.020 129.126 111.595  1.00  0.00     0.000 C 
BRANCH   4   5
ATOM      5  C   UNL     1       1.200 129.584 113.050  1.00  0.00     0.000 C 
BRANCH   5   6
ATOM      6  C   UNL     1       1.035 128.410 114.021  1.00  0.00     0.000 C 
BRANCH   6   7
ATOM      7  C   UNL     1       1.792 128.673 115.331  1.00  0.00     0.000 C 
BRANCH   7   8
ATOM      8  C   UNL     1       2.828 127.582 115.645  1.00  0.00     0.000 C 
BRANCH   8   9
ATOM      9  C   UNL     1       3.445 126.971 114.374  1.00  0.00     0.000 C 
BRANCH   9  10
ATOM     10  C   UNL     1       4.914 127.379 114.172  1.00  0.00     0.000 C 
BRANCH  10  11
ATOM     11  C   UNL     1       5.166 128.337 112.990  1.00  0.00     0.000 C 
BRANCH  11  12
ATOM     12  C   UNL     1       5.657 129.745 113.378  1.00  0.00     0.000 C 
BRANCH  12  13
ATOM     13  C   UNL     1       4.617 130.631 114.092  1.00  0.00     0.006 C 
BRANCH  13  14
ATOM     14  C   UNL     1       5.198 131.475 115.242  1.00  0.00     0.053 C 
BRANCH  14  15
ATOM     15  C   UNL     1       4.989 130.845 116.586  1.00  0.00     0.041 C 
ATOM     16  O   UNL     1       4.275 131.418 117.450  1.00  0.00    -0.550 OA
ATOM     17  O   UNL     1       5.555 129.609 116.872  1.00  0.00    -0.550 OA
ENDBRANCH  14  15
ENDBRANCH  13  14
ENDBRANCH  12  13
ENDBRANCH  11  12
ENDBRANCH  10  11
ENDBRANCH   9  10
ENDBRANCH   8   9
ENDBRANCH   7   8
ENDBRANCH   6   7
ENDBRANCH   5   6
ENDBRANCH   4   5
ENDBRANCH   3   4
ENDBRANCH   2   3
ENDBRANCH   1   2
BRANCH   1  18
ATOM     18  C   UNL     1       2.730 125.197 110.947  1.00  0.00     0.000 C 
BRANCH  18  19
ATOM     19  C   UNL     1       4.176 125.390 110.440  1.00  0.00     0.000 C 
BRANCH  19  20
ATOM     20  C   UNL     1       5.239 124.677 111.297  1.00  0.00     0.000 C 
BRANCH  20  21
ATOM     21  C   UNL     1       4.732 123.453 112.078  1.00  0.00     0.000 C 
BRANCH  21  22
ATOM     22  C   UNL     1       4.753 123.663 113.599  1.00  0.00     0.000 C 
BRANCH  22  23
ATOM     23  C   UNL     1       4.516 122.338 114.339  1.00  0.00     0.000 C 
BRANCH  23  24
ATOM     24  C   UNL     1       3.231 121.622 113.873  1.00  0.00    -0.000 C 
BRANCH  24  25
ATOM     25  C   UNL     1       2.081 121.686 114.893  1.00  0.00    -0.000 C 
BRANCH  25  26
ATOM     26  C   UNL     1       0.732 122.054 114.256  1.00  0.00    -0.000 C 
BRANCH  26  27
ATOM     27  C   UNL     1       0.831 123.280 113.335  1.00  0.00    -0.000 C 
BRANCH  27  28
ATOM     28  C   UNL     1       1.011 124.592 114.119  1.00  0.00    -0.000 C 
BRANCH  28  29
ATOM     29  C   UNL     1      -0.013 124.741 115.255  1.00  0.00    -0.000 C 
BRANCH  29  30
ATOM     30  C   UNL     1       0.651 124.774 116.644  1.00  0.00    -0.000 C 
BRANCH  30  31
ATOM     31  C   UNL     1      -0.259 124.207 117.744  1.00  0.00    -0.003 C 
ATOM     32  C   UNL     1      -1.160 123.079 117.241  1.00  0.00     0.004 C 
ENDBRANCH  30  31
ENDBRANCH  29  30
ENDBRANCH  28  29
ENDBRANCH  27  28
ENDBRANCH  26  27
ENDBRANCH  25  26
ENDBRANCH  24  25
ENDBRANCH  23  24
ENDBRANCH  22  23
ENDBRANCH  21  22
ENDBRANCH  20  21
ENDBRANCH  19  20
ENDBRANCH  18  19
ENDBRANCH   1  18
TORSDOF 28
ENDMDL
MODEL 5
REMARK VINA RESULT:    -3.517      1.949      3.532
REMARK INTER + INTRA:         -15.176
REMARK INTER:                  -8.422
REMARK INTRA:                  -6.753
REMARK UNBOUND:                -5.901
REMARK SMILES CCCCCCCCCCCCCCCCCCCCCCCCCCCCCC(=O)[O-]
REMARK SMILES IDX 16 1 17 2 18 3 19 4 20 5 21 6 22 7 23 8 24 9 25 10 26 11
REMARK SMILES IDX 27 12 28 13 29 14 30 15 31 16 32 17 15 18 14 19 13 20 12 21
REMARK SMILES IDX 11 22 10 23 9 24 8 25 7 26 6 27 5 28 4 29 3 30 2 31 1 32
REMARK H PARENT
REMARK Flexibility Score: inf
ROOT
ATOM      1  C   UNL     1       2.789 125.088 111.587  1.00  0.00     0.000 C 
ENDROOT
BRANCH   1   2
ATOM      2  C   UNL     1       2.967 125.987 110.346  1.00  0.00     0.000 C 
BRANCH   2   3
ATOM      3  C   UNL     1       1.947 127.139 110.266  1.00  0.00     0.000 C 
BRANCH   3   4
ATOM      4  C   UNL     1       2.567 128.539 110.134  1.00  0.00     0.000 C 
BRANCH   4   5
ATOM      5  C   UNL     1       2.504 129.343 111.440  1.00  0.00     0.000 C 
BRANCH   5   6
ATOM      6  C   UNL     1       3.632 128.933 112.394  1.00  0.00     0.000 C 
BRANCH   6   7
ATOM      7  C   UNL     1       3.841 129.995 113.483  1.00  0.00     0.000 C 
BRANCH   7   8
ATOM      8  C   UNL     1       5.299 130.474 113.570  1.00  0.00     0.000 C 
BRANCH   8   9
ATOM      9  C   UNL     1       6.098 129.735 114.657  1.00  0.00     0.000 C 
BRANCH   9  10
ATOM     10  C   UNL     1       6.038 130.441 116.023  1.00  0.00     0.000 C 
BRANCH  10  11
ATOM     11  C   UNL     1       5.155 129.744 117.077  1.00  0.00     0.000 C 
BRANCH  11  12
ATOM     12  C   UNL     1       3.714 130.277 117.184  1.00  0.00     0.000 C 
BRANCH  12  13
ATOM     13  C   UNL     1       3.573 131.810 117.109  1.00  0.00     0.006 C 
BRANCH  13  14
ATOM     14  C   UNL     1       2.816 132.308 115.864  1.00  0.00     0.053 C 
BRANCH  14  15
ATOM     15  C   UNL     1       3.570 133.362 115.111  1.00  0.00     0.041 C 
ATOM     16  O   UNL     1       4.739 133.676 115.461  1.00  0.00    -0.550 OA
ATOM     17  O   UNL     1       2.997 133.974 114.004  1.00  0.00    -0.550 OA
ENDBRANCH  14  15
ENDBRANCH  13  14
ENDBRANCH  12  13
ENDBRANCH  11  12
ENDBRANCH  10  11
ENDBRANCH   9  10
ENDBRANCH   8   9
ENDBRANCH   7   8
ENDBRANCH   6   7
ENDBRANCH   5   6
ENDBRANCH   4   5
ENDBRANCH   3   4
ENDBRANCH   2   3
ENDBRANCH   1   2
BRANCH   1  18
ATOM     18  C   UNL     1       1.578 125.505 112.442  1.00  0.00     0.000 C 
BRANCH  18  19
ATOM     19  C   UNL     1       1.214 124.448 113.507  1.00  0.00     0.000 C 
BRANCH  19  20
ATOM     20  C   UNL     1       2.222 123.286 113.605  1.00  0.00     0.000 C 
BRANCH  20  21
ATOM     21  C   UNL     1       2.728 122.982 115.024  1.00  0.00     0.000 C 
BRANCH  21  22
ATOM     22  C   UNL     1       4.232 122.673 115.069  1.00  0.00     0.000 C 
BRANCH  22  23
ATOM     23  C   UNL     1       4.912 123.061 113.748  1.00  0.00     0.000 C 
BRANCH  23  24
ATOM     24  C   UNL     1       6.056 124.076 113.947  1.00  0.00    -0.000 C 
BRANCH  24  25
ATOM     25  C   UNL     1       5.614 125.544 113.819  1.00  0.00    -0.000 C 
BRANCH  25  26
ATOM     26  C   UNL     1       5.231 126.176 115.167  1.00  0.00    -0.000 C 
BRANCH  26  27
ATOM     27  C   UNL     1       3.813 126.767 115.158  1.00  0.00    -0.000 C 
BRANCH  27  28
ATOM     28  C   UNL     1       3.017 126.405 116.424  1.00  0.00    -0.000 C 
BRANCH  28  29
ATOM     29  C   UNL     1       1.553 126.867 116.350  1.00  0.00    -0.000 C 
BRANCH  29  30
ATOM     30  C   UNL     1       1.290 127.795 115.149  1.00  0.00    -0.000 C 
BRANCH  30  31
ATOM     31  C   UNL     1       0.582 129.096 115.555  1.00  0.00    -0.003 C 
ATOM     32  C   UNL     1       0.196 129.958 114.353  1.00  0.00     0.004 C 
ENDBRANCH  30  31
ENDBRANCH  29  30
ENDBRANCH  28  29
ENDBRANCH  27  28
ENDBRANCH  26  27
ENDBRANCH  25  26
ENDBRANCH  24  25
ENDBRANCH  23  24
ENDBRANCH  22  23
ENDBRANCH  21  22
ENDBRANCH  20  21
ENDBRANCH  19  20
ENDBRANCH  18  19
ENDBRANCH   1  18
TORSDOF 28
ENDMDL
MODEL 6
REMARK VINA RESULT:    -3.492      1.572      4.096
REMARK INTER + INTRA:         -15.108
REMARK INTER:                  -8.645
REMARK INTRA:                  -6.463
REMARK UNBOUND:                -5.901
REMARK SMILES CCCCCCCCCCCCCCCCCCCCCCCCCCCCCC(=O)[O-]
REMARK SMILES IDX 16 1 17 2 18 3 19 4 20 5 21 6 22 7 23 8 24 9 25 10 26 11
REMARK SMILES IDX 27 12 28 13 29 14 30 15 31 16 32 17 15 18 14 19 13 20 12 21
REMARK SMILES IDX 11 22 10 23 9 24 8 25 7 26 6 27 5 28 4 29 3 30 2 31 1 32
REMARK H PARENT
REMARK Flexibility Score: inf
ROOT
ATOM      1  C   UNL     1       3.914 125.598 110.067  1.00  0.00     0.000 C 
ENDROOT
BRANCH   1   2
ATOM      2  C   UNL     1       5.194 125.223 110.845  1.00  0.00     0.000 C 
BRANCH   2   3
ATOM      3  C   UNL     1       5.046 125.346 112.373  1.00  0.00     0.000 C 
BRANCH   3   4
ATOM      4  C   UNL     1       5.588 126.656 112.969  1.00  0.00     0.000 C 
BRANCH   4   5
ATOM      5  C   UNL     1       5.029 126.948 114.368  1.00  0.00     0.000 C 
BRANCH   5   6
ATOM      6  C   UNL     1       4.622 125.653 115.081  1.00  0.00     0.000 C 
BRANCH   6   7
ATOM      7  C   UNL     1       4.501 125.878 116.595  1.00  0.00     0.000 C 
BRANCH   7   8
ATOM      8  C   UNL     1       5.523 126.896 117.125  1.00  0.00     0.000 C 
BRANCH   8   9
ATOM      9  C   UNL     1       4.930 127.823 118.200  1.00  0.00     0.000 C 
BRANCH   9  10
ATOM     10  C   UNL     1       3.416 128.037 118.031  1.00  0.00     0.000 C 
BRANCH  10  11
ATOM     11  C   UNL     1       3.021 129.325 117.282  1.00  0.00     0.000 C 
BRANCH  11  12
ATOM     12  C   UNL     1       4.197 130.224 116.854  1.00  0.00     0.000 C 
BRANCH  12  13
ATOM     13  C   UNL     1       4.466 130.277 115.337  1.00  0.00     0.006 C 
BRANCH  13  14
ATOM     14  C   UNL     1       5.582 131.259 114.933  1.00  0.00     0.053 C 
BRANCH  14  15
ATOM     15  C   UNL     1       6.886 130.573 114.660  1.00  0.00     0.041 C 
ATOM     16  O   UNL     1       7.100 129.417 115.110  1.00  0.00    -0.550 OA
ATOM     17  O   UNL     1       7.852 131.197 113.881  1.00  0.00    -0.550 OA
ENDBRANCH  14  15
ENDBRANCH  13  14
ENDBRANCH  12  13
ENDBRANCH  11  12
ENDBRANCH  10  11
ENDBRANCH   9  10
ENDBRANCH   8   9
ENDBRANCH   7   8
ENDBRANCH   6   7
ENDBRANCH   5   6
ENDBRANCH   4   5
ENDBRANCH   3   4
ENDBRANCH   2   3
ENDBRANCH   1   2
BRANCH   1  18
ATOM     18  C   UNL     1       2.645 125.456 110.928  1.00  0.00     0.000 C 
BRANCH  18  19
ATOM     19  C   UNL     1       1.792 126.743 110.938  1.00  0.00     0.000 C 
BRANCH  19  20
ATOM     20  C   UNL     1       2.357 127.875 110.060  1.00  0.00     0.000 C 
BRANCH  20  21
ATOM     21  C   UNL     1       2.754 129.152 110.819  1.00  0.00     0.000 C 
BRANCH  21  22
ATOM     22  C   UNL     1       2.691 128.985 112.345  1.00  0.00     0.000 C 
BRANCH  22  23
ATOM     23  C   UNL     1       1.510 129.771 112.934  1.00  0.00     0.000 C 
BRANCH  23  24
ATOM     24  C   UNL     1       0.733 128.964 113.994  1.00  0.00    -0.000 C 
BRANCH  24  25
ATOM     25  C   UNL     1       1.514 127.764 114.557  1.00  0.00    -0.000 C 
BRANCH  25  26
ATOM     26  C   UNL     1       0.723 126.448 114.491  1.00  0.00    -0.000 C 
BRANCH  26  27
ATOM     27  C   UNL     1       0.869 125.608 115.769  1.00  0.00    -0.000 C 
BRANCH  27  28
ATOM     28  C   UNL     1       1.323 124.167 115.478  1.00  0.00    -0.000 C 
BRANCH  28  29
ATOM     29  C   UNL     1       1.442 123.882 113.972  1.00  0.00    -0.000 C 
BRANCH  29  30
ATOM     30  C   UNL     1       2.605 122.928 113.645  1.00  0.00    -0.000 C 
BRANCH  30  31
ATOM     31  C   UNL     1       2.880 121.927 114.776  1.00  0.00    -0.003 C 
ATOM     32  C   UNL     1       4.352 121.895 115.191  1.00  0.00     0.004 C 
ENDBRANCH  30  31
ENDBRANCH  29  30
ENDBRANCH  28  29
ENDBRANCH  27  28
ENDBRANCH  26  27
ENDBRANCH  25  26
ENDBRANCH  24  25
ENDBRANCH  23  24
ENDBRANCH  22  23
ENDBRANCH  21  22
ENDBRANCH  20  21
ENDBRANCH  19  20
ENDBRANCH  18  19
ENDBRANCH   1  18
TORSDOF 28
ENDMDL
MODEL 7
REMARK VINA RESULT:    -3.488      2.913      6.974
REMARK INTER + INTRA:         -15.098
REMARK INTER:                  -8.894
REMARK INTRA:                  -6.205
REMARK UNBOUND:                -5.901
REMARK SMILES CCCCCCCCCCCCCCCCCCCCCCCCCCCCCC(=O)[O-]
REMARK SMILES IDX 16 1 17 2 18 3 19 4 20 5 21 6 22 7 23 8 24 9 25 10 26 11
REMARK SMILES IDX 27 12 28 13 29 14 30 15 31 16 32 17 15 18 14 19 13 20 12 21
REMARK SMILES IDX 11 22 10 23 9 24 8 25 7 26 6 27 5 28 4 29 3 30 2 31 1 32
REMARK H PARENT
REMARK Flexibility Score: inf
ROOT
ATOM      1  C   UNL     1       1.236 131.721 117.768  1.00  0.00     0.000 C 
ENDROOT
BRANCH   1   2
ATOM      2  C   UNL     1       0.463 131.927 116.448  1.00  0.00     0.000 C 
BRANCH   2   3
ATOM      3  C   UNL     1       1.366 132.302 115.256  1.00  0.00     0.000 C 
BRANCH   3   4
ATOM      4  C   UNL     1       1.130 131.470 113.985  1.00  0.00     0.000 C 
BRANCH   4   5
ATOM      5  C   UNL     1      -0.091 130.546 114.097  1.00  0.00     0.000 C 
BRANCH   5   6
ATOM      6  C   UNL     1       0.040 129.343 113.157  1.00  0.00     0.000 C 
BRANCH   6   7
ATOM      7  C   UNL     1       0.343 129.800 111.723  1.00  0.00     0.000 C 
BRANCH   7   8
ATOM      8  C   UNL     1       1.398 128.921 111.033  1.00  0.00     0.000 C 
BRANCH   8   9
ATOM      9  C   UNL     1       1.120 127.417 111.209  1.00  0.00     0.000 C 
BRANCH   9  10
ATOM     10  C   UNL     1       2.256 126.536 110.661  1.00  0.00     0.000 C 
BRANCH  10  11
ATOM     11  C   UNL     1       2.770 125.458 111.637  1.00  0.00     0.000 C 
BRANCH  11  12
ATOM     12  C   UNL     1       3.829 124.500 111.059  1.00  0.00     0.000 C 
BRANCH  12  13
ATOM     13  C   UNL     1       5.289 124.839 111.419  1.00  0.00     0.006 C 
BRANCH  13  14
ATOM     14  C   UNL     1       6.131 123.617 111.833  1.00  0.00     0.053 C 
BRANCH  14  15
ATOM     15  C   UNL     1       7.473 123.998 112.381  1.00  0.00     0.041 C 
ATOM     16  O   UNL     1       7.817 125.208 112.429  1.00  0.00    -0.550 OA
ATOM     17  O   UNL     1       8.330 123.019 112.868  1.00  0.00    -0.550 OA
ENDBRANCH  14  15
ENDBRANCH  13  14
ENDBRANCH  12  13
ENDBRANCH  11  12
ENDBRANCH  10  11
ENDBRANCH   9  10
ENDBRANCH   8   9
ENDBRANCH   7   8
ENDBRANCH   6   7
ENDBRANCH   5   6
ENDBRANCH   4   5
ENDBRANCH   3   4
ENDBRANCH   2   3
ENDBRANCH   1   2
BRANCH   1  18
ATOM     18  C   UNL     1       1.736 130.274 117.933  1.00  0.00     0.000 C 
BRANCH  18  19
ATOM     19  C   UNL     1       0.680 129.231 117.508  1.00  0.00     0.000 C 
BRANCH  19  20
ATOM     20  C   UNL     1       1.214 128.157 116.543  1.00  0.00     0.000 C 
BRANCH  20  21
ATOM     21  C   UNL     1       2.534 128.513 115.839  1.00  0.00     0.000 C 
BRANCH  21  22
ATOM     22  C   UNL     1       2.796 127.658 114.590  1.00  0.00     0.000 C 
BRANCH  22  23
ATOM     23  C   UNL     1       4.272 127.736 114.172  1.00  0.00     0.000 C 
BRANCH  23  24
ATOM     24  C   UNL     1       4.480 128.562 112.886  1.00  0.00    -0.000 C 
BRANCH  24  25
ATOM     25  C   UNL     1       4.502 130.082 113.122  1.00  0.00    -0.000 C 
BRANCH  25  26
ATOM     26  C   UNL     1       5.380 130.492 114.315  1.00  0.00    -0.000 C 
BRANCH  26  27
ATOM     27  C   UNL     1       4.854 131.747 115.029  1.00  0.00    -0.000 C 
BRANCH  27  28
ATOM     28  C   UNL     1       4.862 131.599 116.561  1.00  0.00    -0.000 C 
BRANCH  28  29
ATOM     29  C   UNL     1       5.504 130.280 117.020  1.00  0.00    -0.000 C 
BRANCH  29  30
ATOM     30  C   UNL     1       5.397 130.073 118.542  1.00  0.00    -0.000 C 
BRANCH  30  31
ATOM     31  C   UNL     1       5.002 128.636 118.913  1.00  0.00    -0.003 C 
ATOM     32  C   UNL     1       5.408 127.617 117.848  1.00  0.00     0.004 C 
ENDBRANCH  30  31
ENDBRANCH  29  30
ENDBRANCH  28  29
ENDBRANCH  27  28
ENDBRANCH  26  27
ENDBRANCH  25  26
ENDBRANCH  24  25
ENDBRANCH  23  24
ENDBRANCH  22  23
ENDBRANCH  21  22
ENDBRANCH  20  21
ENDBRANCH  19  20
ENDBRANCH  18  19
ENDBRANCH   1  18
TORSDOF 28
ENDMDL
MODEL 8
REMARK VINA RESULT:    -3.482      2.053      4.501
REMARK INTER + INTRA:         -15.084
REMARK INTER:                  -9.110
REMARK INTRA:                  -5.973
REMARK UNBOUND:                -5.901
REMARK SMILES CCCCCCCCCCCCCCCCCCCCCCCCCCCCCC(=O)[O-]
REMARK SMILES IDX 16 1 17 2 18 3 19 4 20 5 21 6 22 7 23 8 24 9 25 10 26 11
REMARK SMILES IDX 27 12 28 13 29 14 30 15 31 16 32 17 15 18 14 19 13 20 12 21
REMARK SMILES IDX 11 22 10 23 9 24 8 25 7 26 6 27 5 28 4 29 3 30 2 31 1 32
REMARK H PARENT
REMARK Flexibility Score: inf
ROOT
ATOM      1  C   UNL     1       3.423 126.080 110.271  1.00  0.00     0.000 C 
ENDROOT
BRANCH   1   2
ATOM      2  C   UNL     1       3.628 127.212 111.300  1.00  0.00     0.000 C 
BRANCH   2   3
ATOM      3  C   UNL     1       2.897 128.518 110.934  1.00  0.00     0.000 C 
BRANCH   3   4
ATOM      4  C   UNL     1       1.425 128.339 110.528  1.00  0.00     0.000 C 
BRANCH   4   5
ATOM      5  C   UNL     1       0.499 128.123 111.733  1.00  0.00     0.000 C 
BRANCH   5   6
ATOM      6  C   UNL     1       0.801 129.131 112.847  1.00  0.00     0.000 C 
BRANCH   6   7
ATOM      7  C   UNL     1       0.531 128.516 114.228  1.00  0.00     0.000 C 
BRANCH   7   8
ATOM      8  C   UNL     1       1.729 127.713 114.762  1.00  0.00     0.000 C 
BRANCH   8   9
ATOM      9  C   UNL     1       3.030 128.535 114.779  1.00  0.00     0.000 C 
BRANCH   9  10
ATOM     10  C   UNL     1       4.290 127.654 114.726  1.00  0.00     0.000 C 
BRANCH  10  11
ATOM     11  C   UNL     1       5.548 128.352 114.171  1.00  0.00     0.000 C 
BRANCH  11  12
ATOM     12  C   UNL     1       5.311 129.747 113.562  1.00  0.00     0.000 C 
BRANCH  12  13
ATOM     13  C   UNL     1       5.811 130.930 114.414  1.00  0.00     0.006 C 
BRANCH  13  14
ATOM     14  C   UNL     1       6.419 130.515 115.767  1.00  0.00     0.053 C 
BRANCH  14  15
ATOM     15  C   UNL     1       5.475 130.718 116.912  1.00  0.00     0.041 C 
ATOM     16  O   UNL     1       5.402 129.861 117.833  1.00  0.00    -0.550 OA
ATOM     17  O   UNL     1       4.699 131.868 116.982  1.00  0.00    -0.550 OA
ENDBRANCH  14  15
ENDBRANCH  13  14
ENDBRANCH  12  13
ENDBRANCH  11  12
ENDBRANCH  10  11
ENDBRANCH   9  10
ENDBRANCH   8   9
ENDBRANCH   7   8
ENDBRANCH   6   7
ENDBRANCH   5   6
ENDBRANCH   4   5
ENDBRANCH   3   4
ENDBRANCH   2   3
ENDBRANCH   1   2
BRANCH   1  18
ATOM     18  C   UNL     1       2.887 124.790 110.920  1.00  0.00     0.000 C 
BRANCH  18  19
ATOM     19  C   UNL     1       2.483 124.995 112.396  1.00  0.00     0.000 C 
BRANCH  19  20
ATOM     20  C   UNL     1       1.332 124.082 112.861  1.00  0.00     0.000 C 
BRANCH  20  21
ATOM     21  C   UNL     1       0.888 124.286 114.318  1.00  0.00     0.000 C 
BRANCH  21  22
ATOM     22  C   UNL     1       1.133 123.051 115.198  1.00  0.00     0.000 C 
BRANCH  22  23
ATOM     23  C   UNL     1       2.633 122.853 115.461  1.00  0.00     0.000 C 
BRANCH  23  24
ATOM     24  C   UNL     1       3.341 124.164 115.864  1.00  0.00    -0.000 C 
BRANCH  24  25
ATOM     25  C   UNL     1       4.790 124.268 115.358  1.00  0.00    -0.000 C 
BRANCH  25  26
ATOM     26  C   UNL     1       5.205 123.080 114.474  1.00  0.00    -0.000 C 
BRANCH  26  27
ATOM     27  C   UNL     1       5.624 123.516 113.062  1.00  0.00    -0.000 C 
BRANCH  27  28
ATOM     28  C   UNL     1       6.721 124.594 113.080  1.00  0.00    -0.000 C 
BRANCH  28  29
ATOM     29  C   UNL     1       6.774 125.400 111.772  1.00  0.00    -0.000 C 
BRANCH  29  30
ATOM     30  C   UNL     1       6.890 124.498 110.530  1.00  0.00    -0.000 C 
BRANCH  30  31
ATOM     31  C   UNL     1       7.079 125.302 109.235  1.00  0.00    -0.003 C 
ATOM     32  C   UNL     1       7.902 124.549 108.188  1.00  0.00     0.004 C 
ENDBRANCH  30  31
ENDBRANCH  29  30
ENDBRANCH  28  29
ENDBRANCH  27  28
ENDBRANCH  26  27
ENDBRANCH  25  26
ENDBRANCH  24  25
ENDBRANCH  23  24
ENDBRANCH  22  23
ENDBRANCH  21  22
ENDBRANCH  20  21
ENDBRANCH  19  20
ENDBRANCH  18  19
ENDBRANCH   1  18
TORSDOF 28
ENDMDL
MODEL 9
REMARK VINA RESULT:    -3.469      1.505      3.573
REMARK INTER + INTRA:         -15.047
REMARK INTER:                  -9.045
REMARK INTRA:                  -6.002
REMARK UNBOUND:                -5.901
REMARK SMILES CCCCCCCCCCCCCCCCCCCCCCCCCCCCCC(=O)[O-]
REMARK SMILES IDX 16 1 17 2 18 3 19 4 20 5 21 6 22 7 23 8 24 9 25 10 26 11
REMARK SMILES IDX 27 12 28 13 29 14 30 15 31 16 32 17 15 18 14 19 13 20 12 21
REMARK SMILES IDX 11 22 10 23 9 24 8 25 7 26 6 27 5 28 4 29 3 30 2 31 1 32
REMARK H PARENT
REMARK Flexibility Score: inf
ROOT
ATOM      1  C   UNL     1       1.679 128.635 111.008  1.00  0.00     0.000 C 
ENDROOT
BRANCH   1   2
ATOM      2  C   UNL     1       2.997 129.304 111.454  1.00  0.00     0.000 C 
BRANCH   2   3
ATOM      3  C   UNL     1       2.965 129.825 112.904  1.00  0.00     0.000 C 
BRANCH   3   4
ATOM      4  C   UNL     1       2.633 128.761 113.962  1.00  0.00     0.000 C 
BRANCH   4   5
ATOM      5  C   UNL     1       3.886 128.098 114.551  1.00  0.00     0.000 C 
BRANCH   5   6
ATOM      6  C   UNL     1       3.611 127.550 115.956  1.00  0.00     0.000 C 
BRANCH   6   7
ATOM      7  C   UNL     1       4.880 127.597 116.820  1.00  0.00     0.000 C 
BRANCH   7   8
ATOM      8  C   UNL     1       4.616 128.151 118.229  1.00  0.00     0.000 C 
BRANCH   8   9
ATOM      9  C   UNL     1       3.300 128.944 118.315  1.00  0.00     0.000 C 
BRANCH   9  10
ATOM     10  C   UNL     1       3.528 130.458 118.468  1.00  0.00     0.000 C 
BRANCH  10  11
ATOM     11  C   UNL     1       4.613 131.049 117.545  1.00  0.00     0.000 C 
BRANCH  11  12
ATOM     12  C   UNL     1       4.087 131.773 116.291  1.00  0.00     0.000 C 
BRANCH  12  13
ATOM     13  C   UNL     1       5.056 131.802 115.093  1.00  0.00     0.006 C 
BRANCH  13  14
ATOM     14  C   UNL     1       6.539 131.658 115.483  1.00  0.00     0.053 C 
BRANCH  14  15
ATOM     15  C   UNL     1       7.229 130.556 114.738  1.00  0.00     0.041 C 
ATOM     16  O   UNL     1       7.138 129.365 115.139  1.00  0.00    -0.550 OA
ATOM     17  O   UNL     1       7.946 130.839 113.582  1.00  0.00    -0.550 OA
ENDBRANCH  14  15
ENDBRANCH  13  14
ENDBRANCH  12  13
ENDBRANCH  11  12
ENDBRANCH  10  11
ENDBRANCH   9  10
ENDBRANCH   8   9
ENDBRANCH   7   8
ENDBRANCH   6   7
ENDBRANCH   5   6
ENDBRANCH   4   5
ENDBRANCH   3   4
ENDBRANCH   2   3
ENDBRANCH   1   2
BRANCH   1  18
ATOM     18  C   UNL     1       1.863 127.141 110.684  1.00  0.00     0.000 C 
BRANCH  18  19
ATOM     19  C   UNL     1       3.349 126.727 110.627  1.00  0.00     0.000 C 
BRANCH  19  20
ATOM     20  C   UNL     1       3.570 125.230 110.337  1.00  0.00     0.000 C 
BRANCH  20  21
ATOM     21  C   UNL     1       4.781 124.602 111.047  1.00  0.00     0.000 C 
BRANCH  21  22
ATOM     22  C   UNL     1       5.669 125.641 111.749  1.00  0.00     0.000 C 
BRANCH  22  23
ATOM     23  C   UNL     1       7.015 125.025 112.158  1.00  0.00     0.000 C 
BRANCH  23  24
ATOM     24  C   UNL     1       6.960 124.354 113.546  1.00  0.00    -0.000 C 
BRANCH  24  25
ATOM     25  C   UNL     1       5.961 125.011 114.514  1.00  0.00    -0.000 C 
BRANCH  25  26
ATOM     26  C   UNL     1       5.511 124.070 115.643  1.00  0.00    -0.000 C 
BRANCH  26  27
ATOM     27  C   UNL     1       4.014 123.731 115.566  1.00  0.00    -0.000 C 
BRANCH  27  28
ATOM     28  C   UNL     1       3.661 122.910 114.314  1.00  0.00    -0.000 C 
BRANCH  28  29
ATOM     29  C   UNL     1       2.414 123.446 113.593  1.00  0.00    -0.000 C 
BRANCH  29  30
ATOM     30  C   UNL     1       2.271 124.974 113.722  1.00  0.00    -0.000 C 
BRANCH  30  31
ATOM     31  C   UNL     1       0.814 125.413 113.930  1.00  0.00    -0.003 C 
ATOM     32  C   UNL     1       0.472 125.644 115.402  1.00  0.00     0.004 C 
ENDBRANCH  30  31
ENDBRANCH  29  30
ENDBRANCH  28  29
ENDBRANCH  27  28
ENDBRANCH  26  27
ENDBRANCH  25  26
ENDBRANCH  24  25
ENDBRANCH  23  24
ENDBRANCH  22  23
ENDBRANCH  21  22
ENDBRANCH  20  21
ENDBRANCH  19  20
ENDBRANCH  18  19
ENDBRANCH   1  18
TORSDOF 28
ENDMDL
