MODEL 1
REMARK VINA RESULT:    -5.878      0.000      0.000
REMARK INTER + INTRA:         -18.577
REMARK INTER:                 -14.813
REMARK INTRA:                  -3.764
REMARK UNBOUND:                -3.764
REMARK SMILES CCCCCCCCCCCCCCCCCCCCCCCCCCCC(=O)[O-]
REMARK SMILES IDX 15 1 16 2 17 3 18 4 19 5 20 6 21 7 22 8 23 9 24 10 25 11
REMARK SMILES IDX 26 12 27 13 28 14 29 15 30 16 14 17 13 18 12 19 11 20 10 21
REMARK SMILES IDX 9 22 8 23 7 24 6 25 5 26 4 27 3 28 2 29 1 30
REMARK H PARENT
REMARK Flexibility Score: inf
ROOT
ATOM      1  C   UNL     1      22.606  12.044   0.787  1.00  0.00     0.000 C 
ENDROOT
BRANCH   1   2
ATOM      2  C   UNL     1      22.679  10.506   0.885  1.00  0.00     0.000 C 
BRANCH   2   3
ATOM      3  C   UNL     1      21.837   9.812  -0.201  1.00  0.00     0.000 C 
BRANCH   3   4
ATOM      4  C   UNL     1      22.067   8.292  -0.242  1.00  0.00     0.000 C 
BRANCH   4   5
ATOM      5  C   UNL     1      22.919   7.792   0.936  1.00  0.00     0.000 C 
BRANCH   5   6
ATOM      6  C   UNL     1      22.874   6.264   1.099  1.00  0.00     0.000 C 
BRANCH   6   7
ATOM      7  C   UNL     1      21.714   5.594   0.331  1.00  0.00     0.000 C 
BRANCH   7   8
ATOM      8  C   UNL     1      21.021   4.500   1.162  1.00  0.00     0.000 C 
BRANCH   8   9
ATOM      9  C   UNL     1      21.688   4.286   2.530  1.00  0.00     0.000 C 
BRANCH   9  10
ATOM     10  C   UNL     1      20.789   4.719   3.701  1.00  0.00     0.000 C 
BRANCH  10  11
ATOM     11  C   UNL     1      21.391   5.877   4.512  1.00  0.00     0.000 C 
BRANCH  11  12
ATOM     12  C   UNL     1      22.830   5.595   4.971  1.00  0.00     0.006 C 
BRANCH  12  13
ATOM     13  C   UNL     1      23.730   6.809   4.728  1.00  0.00     0.053 C 
BRANCH  13  14
ATOM     14  C   UNL     1      25.090   6.373   4.281  1.00  0.00     0.041 C 
ATOM     15  O   UNL     1      25.216   5.393   3.502  1.00  0.00    -0.550 OA
ATOM     16  O   UNL     1      26.220   7.024   4.760  1.00  0.00    -0.550 OA
ENDBRANCH  13  14
ENDBRANCH  12  13
ENDBRANCH  11  12
ENDBRANCH  10  11
ENDBRANCH   9  10
ENDBRANCH   8   9
ENDBRANCH   7   8
ENDBRANCH   6   7
ENDBRANCH   5   6
ENDBRANCH   4   5
ENDBRANCH   3   4
ENDBRANCH   2   3
ENDBRANCH   1   2
BRANCH   1  17
ATOM     17  C   UNL     1      23.984  12.727   0.685  1.00  0.00     0.000 C 
BRANCH  17  18
ATOM     18  C   UNL     1      24.369  13.602   1.890  1.00  0.00     0.000 C 
BRANCH  18  19
ATOM     19  C   UNL     1      23.236  13.723   2.923  1.00  0.00     0.000 C 
BRANCH  19  20
ATOM     20  C   UNL     1      22.583  15.115   2.927  1.00  0.00     0.000 C 
BRANCH  20  21
ATOM     21  C   UNL     1      22.917  15.929   1.666  1.00  0.00     0.000 C 
BRANCH  21  22
ATOM     22  C   UNL     1      21.672  16.248   0.821  1.00  0.00    -0.000 C 
BRANCH  22  23
ATOM     23  C   UNL     1      20.487  15.324   1.139  1.00  0.00    -0.000 C 
BRANCH  23  24
ATOM     24  C   UNL     1      19.864  14.764  -0.146  1.00  0.00    -0.000 C 
BRANCH  24  25
ATOM     25  C   UNL     1      19.315  13.348   0.082  1.00  0.00    -0.000 C 
BRANCH  25  26
ATOM     26  C   UNL     1      19.367  12.475  -1.186  1.00  0.00    -0.000 C 
BRANCH  26  27
ATOM     27  C   UNL     1      20.099  13.114  -2.382  1.00  0.00    -0.000 C 
BRANCH  27  28
ATOM     28  C   UNL     1      21.178  12.228  -3.034  1.00  0.00    -0.000 C 
BRANCH  28  29
ATOM     29  C   UNL     1      22.620  12.716  -2.776  1.00  0.00    -0.003 C 
ATOM     30  C   UNL     1      23.240  13.390  -4.000  1.00  0.00     0.004 C 
ENDBRANCH  28  29
ENDBRANCH  27  28
ENDBRANCH  26  27
ENDBRANCH  25  26
ENDBRANCH  24  25
ENDBRANCH  23  24
ENDBRANCH  22  23
ENDBRANCH  21  22
ENDBRANCH  20  21
ENDBRANCH  19  20
ENDBRANCH  18  19
ENDBRANCH  17  18
ENDBRANCH   1  17
TORSDOF 26
ENDMDL
MODEL 2
REMARK VINA RESULT:    -5.855      5.001      9.186
REMARK INTER + INTRA:         -18.519
REMARK INTER:                 -15.480
REMARK INTRA:                  -3.039
REMARK UNBOUND:                -3.764
REMARK SMILES CCCCCCCCCCCCCCCCCCCCCCCCCCCC(=O)[O-]
REMARK SMILES IDX 15 1 16 2 17 3 18 4 19 5 20 6 21 7 22 8 23 9 24 10 25 11
REMARK SMILES IDX 26 12 27 13 28 14 29 15 30 16 14 17 13 18 12 19 11 20 10 21
REMARK SMILES IDX 9 22 8 23 7 24 6 25 5 26 4 27 3 28 2 29 1 30
REMARK H PARENT
REMARK Flexibility Score: inf
ROOT
ATOM      1  C   UNL     1      20.769  12.221  -3.016  1.00  0.00     0.000 C 
ENDROOT
BRANCH   1   2
ATOM      2  C   UNL     1      20.218  13.355  -2.126  1.00  0.00     0.000 C 
BRANCH   2   3
ATOM      3  C   UNL     1      19.209  12.840  -1.084  1.00  0.00     0.000 C 
BRANCH   3   4
ATOM      4  C   UNL     1      19.166  13.718   0.177  1.00  0.00     0.000 C 
BRANCH   4   5
ATOM      5  C   UNL     1      19.901  15.055  -0.008  1.00  0.00     0.000 C 
BRANCH   5   6
ATOM      6  C   UNL     1      20.634  15.515   1.263  1.00  0.00     0.000 C 
BRANCH   6   7
ATOM      7  C   UNL     1      21.957  16.258   0.979  1.00  0.00     0.000 C 
BRANCH   7   8
ATOM      8  C   UNL     1      23.178  15.324   1.055  1.00  0.00     0.000 C 
BRANCH   8   9
ATOM      9  C   UNL     1      23.144  14.222  -0.017  1.00  0.00     0.000 C 
BRANCH   9  10
ATOM     10  C   UNL     1      23.449  12.827   0.558  1.00  0.00     0.000 C 
BRANCH  10  11
ATOM     11  C   UNL     1      22.177  12.056   0.942  1.00  0.00     0.000 C 
BRANCH  11  12
ATOM     12  C   UNL     1      21.858  12.147   2.442  1.00  0.00     0.006 C 
BRANCH  12  13
ATOM     13  C   UNL     1      23.111  12.500   3.247  1.00  0.00     0.053 C 
BRANCH  13  14
ATOM     14  C   UNL     1      22.753  13.333   4.438  1.00  0.00     0.041 C 
ATOM     15  O   UNL     1      22.693  12.809   5.581  1.00  0.00    -0.550 OA
ATOM     16  O   UNL     1      22.443  14.677   4.278  1.00  0.00    -0.550 OA
ENDBRANCH  13  14
ENDBRANCH  12  13
ENDBRANCH  11  12
ENDBRANCH  10  11
ENDBRANCH   9  10
ENDBRANCH   8   9
ENDBRANCH   7   8
ENDBRANCH   6   7
ENDBRANCH   5   6
ENDBRANCH   4   5
ENDBRANCH   3   4
ENDBRANCH   2   3
ENDBRANCH   1   2
BRANCH   1  17
ATOM     17  C   UNL     1      22.306  12.108  -2.999  1.00  0.00     0.000 C 
BRANCH  17  18
ATOM     18  C   UNL     1      23.038  13.012  -4.005  1.00  0.00     0.000 C 
BRANCH  18  19
ATOM     19  C   UNL     1      22.907  12.514  -5.455  1.00  0.00     0.000 C 
BRANCH  19  20
ATOM     20  C   UNL     1      23.937  11.426  -5.804  1.00  0.00     0.000 C 
BRANCH  20  21
ATOM     21  C   UNL     1      23.606  10.697  -7.118  1.00  0.00     0.000 C 
BRANCH  21  22
ATOM     22  C   UNL     1      24.405  11.244  -8.313  1.00  0.00    -0.000 C 
BRANCH  22  23
ATOM     23  C   UNL     1      25.868  10.779  -8.311  1.00  0.00    -0.000 C 
BRANCH  23  24
ATOM     24  C   UNL     1      26.416  10.672  -9.739  1.00  0.00    -0.000 C 
BRANCH  24  25
ATOM     25  C   UNL     1      27.782  11.364  -9.857  1.00  0.00    -0.000 C 
BRANCH  25  26
ATOM     26  C   UNL     1      28.938  10.504  -9.312  1.00  0.00    -0.000 C 
BRANCH  26  27
ATOM     27  C   UNL     1      29.235   9.229 -10.125  1.00  0.00    -0.000 C 
BRANCH  27  28
ATOM     28  C   UNL     1      28.917   7.906  -9.402  1.00  0.00    -0.000 C 
BRANCH  28  29
ATOM     29  C   UNL     1      27.497   7.372  -9.680  1.00  0.00    -0.003 C 
ATOM     30  C   UNL     1      27.018   6.390  -8.611  1.00  0.00     0.004 C 
ENDBRANCH  28  29
ENDBRANCH  27  28
ENDBRANCH  26  27
ENDBRANCH  25  26
ENDBRANCH  24  25
ENDBRANCH  23  24
ENDBRANCH  22  23
ENDBRANCH  21  22
ENDBRANCH  20  21
ENDBRANCH  19  20
ENDBRANCH  18  19
ENDBRANCH  17  18
ENDBRANCH   1  17
TORSDOF 26
ENDMDL
MODEL 3
REMARK VINA RESULT:    -5.853      4.649      8.760
REMARK INTER + INTRA:         -18.514
REMARK INTER:                 -14.892
REMARK INTRA:                  -3.622
REMARK UNBOUND:                -3.764
REMARK SMILES CCCCCCCCCCCCCCCCCCCCCCCCCCCC(=O)[O-]
REMARK SMILES IDX 15 1 16 2 17 3 18 4 19 5 20 6 21 7 22 8 23 9 24 10 25 11
REMARK SMILES IDX 26 12 27 13 28 14 29 15 30 16 14 17 13 18 12 19 11 20 10 21
REMARK SMILES IDX 9 22 8 23 7 24 6 25 5 26 4 27 3 28 2 29 1 30
REMARK H PARENT
REMARK Flexibility Score: inf
ROOT
ATOM      1  C   UNL     1      21.020  11.954  -3.145  1.00  0.00     0.000 C 
ENDROOT
BRANCH   1   2
ATOM      2  C   UNL     1      20.012  12.193  -2.000  1.00  0.00     0.000 C 
BRANCH   2   3
ATOM      3  C   UNL     1      20.590  11.813  -0.625  1.00  0.00     0.000 C 
BRANCH   3   4
ATOM      4  C   UNL     1      20.034  12.689   0.509  1.00  0.00     0.000 C 
BRANCH   4   5
ATOM      5  C   UNL     1      19.094  13.792  -0.003  1.00  0.00     0.000 C 
BRANCH   5   6
ATOM      6  C   UNL     1      19.221  15.102   0.793  1.00  0.00     0.000 C 
BRANCH   6   7
ATOM      7  C   UNL     1      20.429  15.967   0.371  1.00  0.00     0.000 C 
BRANCH   7   8
ATOM      8  C   UNL     1      21.457  16.125   1.504  1.00  0.00     0.000 C 
BRANCH   8   9
ATOM      9  C   UNL     1      22.886  15.776   1.057  1.00  0.00     0.000 C 
BRANCH   9  10
ATOM     10  C   UNL     1      22.922  14.623   0.039  1.00  0.00     0.000 C 
BRANCH  10  11
ATOM     11  C   UNL     1      23.765  13.433   0.524  1.00  0.00     0.000 C 
BRANCH  11  12
ATOM     12  C   UNL     1      24.153  13.546   2.005  1.00  0.00     0.006 C 
BRANCH  12  13
ATOM     13  C   UNL     1      23.262  12.656   2.875  1.00  0.00     0.053 C 
BRANCH  13  14
ATOM     14  C   UNL     1      22.794  13.403   4.085  1.00  0.00     0.041 C 
ATOM     15  O   UNL     1      23.121  14.607   4.250  1.00  0.00    -0.550 OA
ATOM     16  O   UNL     1      22.033  12.756   5.050  1.00  0.00    -0.550 OA
ENDBRANCH  13  14
ENDBRANCH  12  13
ENDBRANCH  11  12
ENDBRANCH  10  11
ENDBRANCH   9  10
ENDBRANCH   8   9
ENDBRANCH   7   8
ENDBRANCH   6   7
ENDBRANCH   5   6
ENDBRANCH   4   5
ENDBRANCH   3   4
ENDBRANCH   2   3
ENDBRANCH   1   2
BRANCH   1  17
ATOM     17  C   UNL     1      22.482  12.249  -2.757  1.00  0.00     0.000 C 
BRANCH  17  18
ATOM     18  C   UNL     1      23.351  12.832  -3.884  1.00  0.00     0.000 C 
BRANCH  18  19
ATOM     19  C   UNL     1      23.010  12.240  -5.263  1.00  0.00     0.000 C 
BRANCH  19  20
ATOM     20  C   UNL     1      24.092  11.276  -5.778  1.00  0.00     0.000 C 
BRANCH  20  21
ATOM     21  C   UNL     1      23.776  10.727  -7.181  1.00  0.00     0.000 C 
BRANCH  21  22
ATOM     22  C   UNL     1      24.445  11.543  -8.299  1.00  0.00    -0.000 C 
BRANCH  22  23
ATOM     23  C   UNL     1      25.444  10.715  -9.121  1.00  0.00    -0.000 C 
BRANCH  23  24
ATOM     24  C   UNL     1      26.826  10.698  -8.456  1.00  0.00    -0.000 C 
BRANCH  24  25
ATOM     25  C   UNL     1      27.450   9.296  -8.522  1.00  0.00    -0.000 C 
BRANCH  25  26
ATOM     26  C   UNL     1      26.462   8.182  -8.129  1.00  0.00    -0.000 C 
BRANCH  26  27
ATOM     27  C   UNL     1      26.252   8.008  -6.612  1.00  0.00    -0.000 C 
BRANCH  27  28
ATOM     28  C   UNL     1      27.544   7.831  -5.791  1.00  0.00    -0.000 C 
BRANCH  28  29
ATOM     29  C   UNL     1      27.610   8.728  -4.537  1.00  0.00    -0.003 C 
ATOM     30  C   UNL     1      27.473  10.214  -4.870  1.00  0.00     0.004 C 
ENDBRANCH  28  29
ENDBRANCH  27  28
ENDBRANCH  26  27
ENDBRANCH  25  26
ENDBRANCH  24  25
ENDBRANCH  23  24
ENDBRANCH  22  23
ENDBRANCH  21  22
ENDBRANCH  20  21
ENDBRANCH  19  20
ENDBRANCH  18  19
ENDBRANCH  17  18
ENDBRANCH   1  17
TORSDOF 26
ENDMDL
MODEL 4
REMARK VINA RESULT:    -5.838      5.089      8.907
REMARK INTER + INTRA:         -18.476
REMARK INTER:                 -15.274
REMARK INTRA:                  -3.202
REMARK UNBOUND:                -3.764
REMARK SMILES CCCCCCCCCCCCCCCCCCCCCCCCCCCC(=O)[O-]
REMARK SMILES IDX 15 1 16 2 17 3 18 4 19 5 20 6 21 7 22 8 23 9 24 10 25 11
REMARK SMILES IDX 26 12 27 13 28 14 29 15 30 16 14 17 13 18 12 19 11 20 10 21
REMARK SMILES IDX 9 22 8 23 7 24 6 25 5 26 4 27 3 28 2 29 1 30
REMARK H PARENT
REMARK Flexibility Score: inf
ROOT
ATOM      1  C   UNL     1      22.345  13.289  -2.073  1.00  0.00     0.000 C 
ENDROOT
BRANCH   1   2
ATOM      2  C   UNL     1      23.533  13.176  -3.053  1.00  0.00     0.000 C 
BRANCH   2   3
ATOM      3  C   UNL     1      23.097  13.340  -4.519  1.00  0.00     0.000 C 
BRANCH   3   4
ATOM      4  C   UNL     1      23.211  12.031  -5.317  1.00  0.00     0.000 C 
BRANCH   4   5
ATOM      5  C   UNL     1      24.597  11.379  -5.186  1.00  0.00     0.000 C 
BRANCH   5   6
ATOM      6  C   UNL     1      24.925  10.433  -6.354  1.00  0.00     0.000 C 
BRANCH   6   7
ATOM      7  C   UNL     1      23.950  10.561  -7.545  1.00  0.00     0.000 C 
BRANCH   7   8
ATOM      8  C   UNL     1      24.639  11.113  -8.805  1.00  0.00     0.000 C 
BRANCH   8   9
ATOM      9  C   UNL     1      26.173  11.065  -8.707  1.00  0.00     0.000 C 
BRANCH   9  10
ATOM     10  C   UNL     1      26.834  10.572 -10.006  1.00  0.00     0.000 C 
BRANCH  10  11
ATOM     11  C   UNL     1      27.159   9.070  -9.971  1.00  0.00     0.000 C 
BRANCH  11  12
ATOM     12  C   UNL     1      27.380   8.545  -8.544  1.00  0.00     0.006 C 
BRANCH  12  13
ATOM     13  C   UNL     1      28.369   7.377  -8.538  1.00  0.00     0.053 C 
BRANCH  13  14
ATOM     14  C   UNL     1      27.647   6.079  -8.352  1.00  0.00     0.041 C 
ATOM     15  O   UNL     1      27.730   5.460  -7.259  1.00  0.00    -0.550 OA
ATOM     16  O   UNL     1      26.918   5.532  -9.400  1.00  0.00    -0.550 OA
ENDBRANCH  13  14
ENDBRANCH  12  13
ENDBRANCH  11  12
ENDBRANCH  10  11
ENDBRANCH   9  10
ENDBRANCH   8   9
ENDBRANCH   7   8
ENDBRANCH   6   7
ENDBRANCH   5   6
ENDBRANCH   4   5
ENDBRANCH   3   4
ENDBRANCH   2   3
ENDBRANCH   1   2
BRANCH   1  17
ATOM     17  C   UNL     1      21.044  12.649  -2.596  1.00  0.00     0.000 C 
BRANCH  17  18
ATOM     18  C   UNL     1      19.748  13.237  -2.014  1.00  0.00     0.000 C 
BRANCH  18  19
ATOM     19  C   UNL     1      19.340  12.575  -0.686  1.00  0.00     0.000 C 
BRANCH  19  20
ATOM     20  C   UNL     1      18.766  13.581   0.326  1.00  0.00     0.000 C 
BRANCH  20  21
ATOM     21  C   UNL     1      19.509  14.928   0.308  1.00  0.00     0.000 C 
BRANCH  21  22
ATOM     22  C   UNL     1      20.830  14.885   1.094  1.00  0.00    -0.000 C 
BRANCH  22  23
ATOM     23  C   UNL     1      21.618  16.200   1.003  1.00  0.00    -0.000 C 
BRANCH  23  24
ATOM     24  C   UNL     1      23.107  15.973   1.294  1.00  0.00    -0.000 C 
BRANCH  24  25
ATOM     25  C   UNL     1      23.350  14.558   1.841  1.00  0.00    -0.000 C 
BRANCH  25  26
ATOM     26  C   UNL     1      24.491  13.823   1.112  1.00  0.00    -0.000 C 
BRANCH  26  27
ATOM     27  C   UNL     1      24.146  12.396   0.644  1.00  0.00    -0.000 C 
BRANCH  27  28
ATOM     28  C   UNL     1      22.753  11.889   1.068  1.00  0.00    -0.000 C 
BRANCH  28  29
ATOM     29  C   UNL     1      22.592  10.358   0.962  1.00  0.00    -0.003 C 
ATOM     30  C   UNL     1      21.875   9.931  -0.319  1.00  0.00     0.004 C 
ENDBRANCH  28  29
ENDBRANCH  27  28
ENDBRANCH  26  27
ENDBRANCH  25  26
ENDBRANCH  24  25
ENDBRANCH  23  24
ENDBRANCH  22  23
ENDBRANCH  21  22
ENDBRANCH  20  21
ENDBRANCH  19  20
ENDBRANCH  18  19
ENDBRANCH  17  18
ENDBRANCH   1  17
TORSDOF 26
ENDMDL
MODEL 5
REMARK VINA RESULT:    -5.827      1.574      4.159
REMARK INTER + INTRA:         -18.449
REMARK INTER:                 -15.080
REMARK INTRA:                  -3.369
REMARK UNBOUND:                -3.764
REMARK SMILES CCCCCCCCCCCCCCCCCCCCCCCCCCCC(=O)[O-]
REMARK SMILES IDX 15 1 16 2 17 3 18 4 19 5 20 6 21 7 22 8 23 9 24 10 25 11
REMARK SMILES IDX 26 12 27 13 28 14 29 15 30 16 14 17 13 18 12 19 11 20 10 21
REMARK SMILES IDX 9 22 8 23 7 24 6 25 5 26 4 27 3 28 2 29 1 30
REMARK H PARENT
REMARK Flexibility Score: inf
ROOT
ATOM      1  C   UNL     1      22.518   9.981   0.748  1.00  0.00     0.000 C 
ENDROOT
BRANCH   1   2
ATOM      2  C   UNL     1      22.410   8.498   0.334  1.00  0.00     0.000 C 
BRANCH   2   3
ATOM      3  C   UNL     1      23.121   7.562   1.328  1.00  0.00     0.000 C 
BRANCH   3   4
ATOM      4  C   UNL     1      23.257   6.128   0.792  1.00  0.00     0.000 C 
BRANCH   4   5
ATOM      5  C   UNL     1      21.966   5.310   0.959  1.00  0.00     0.000 C 
BRANCH   5   6
ATOM      6  C   UNL     1      22.035   4.319   2.133  1.00  0.00     0.000 C 
BRANCH   6   7
ATOM      7  C   UNL     1      20.795   4.363   3.053  1.00  0.00     0.000 C 
BRANCH   7   8
ATOM      8  C   UNL     1      21.154   4.765   4.494  1.00  0.00     0.000 C 
BRANCH   8   9
ATOM      9  C   UNL     1      21.720   6.191   4.584  1.00  0.00     0.000 C 
BRANCH   9  10
ATOM     10  C   UNL     1      23.004   6.265   5.430  1.00  0.00     0.000 C 
BRANCH  10  11
ATOM     11  C   UNL     1      24.181   6.890   4.665  1.00  0.00     0.000 C 
BRANCH  11  12
ATOM     12  C   UNL     1      25.266   7.447   5.598  1.00  0.00     0.006 C 
BRANCH  12  13
ATOM     13  C   UNL     1      24.655   7.955   6.907  1.00  0.00     0.053 C 
BRANCH  13  14
ATOM     14  C   UNL     1      24.803   9.440   7.014  1.00  0.00     0.041 C 
ATOM     15  O   UNL     1      24.459  10.182   6.057  1.00  0.00    -0.550 OA
ATOM     16  O   UNL     1      25.363  10.002   8.155  1.00  0.00    -0.550 OA
ENDBRANCH  13  14
ENDBRANCH  12  13
ENDBRANCH  11  12
ENDBRANCH  10  11
ENDBRANCH   9  10
ENDBRANCH   8   9
ENDBRANCH   7   8
ENDBRANCH   6   7
ENDBRANCH   5   6
ENDBRANCH   4   5
ENDBRANCH   3   4
ENDBRANCH   2   3
ENDBRANCH   1   2
BRANCH   1  17
ATOM     17  C   UNL     1      21.980  10.963  -0.311  1.00  0.00     0.000 C 
BRANCH  17  18
ATOM     18  C   UNL     1      22.865  12.195  -0.568  1.00  0.00     0.000 C 
BRANCH  18  19
ATOM     19  C   UNL     1      22.562  12.872  -1.916  1.00  0.00     0.000 C 
BRANCH  19  20
ATOM     20  C   UNL     1      21.202  12.453  -2.499  1.00  0.00     0.000 C 
BRANCH  20  21
ATOM     21  C   UNL     1      20.097  13.488  -2.225  1.00  0.00     0.000 C 
BRANCH  21  22
ATOM     22  C   UNL     1      19.056  12.985  -1.212  1.00  0.00    -0.000 C 
BRANCH  22  23
ATOM     23  C   UNL     1      18.916  13.912   0.005  1.00  0.00    -0.000 C 
BRANCH  23  24
ATOM     24  C   UNL     1      20.268  14.121   0.698  1.00  0.00    -0.000 C 
BRANCH  24  25
ATOM     25  C   UNL     1      20.591  15.616   0.834  1.00  0.00    -0.000 C 
BRANCH  25  26
ATOM     26  C   UNL     1      22.099  15.914   0.727  1.00  0.00    -0.000 C 
BRANCH  26  27
ATOM     27  C   UNL     1      22.988  15.106   1.691  1.00  0.00    -0.000 C 
BRANCH  27  28
ATOM     28  C   UNL     1      22.701  15.333   3.188  1.00  0.00    -0.000 C 
BRANCH  28  29
ATOM     29  C   UNL     1      22.617  14.029   4.009  1.00  0.00    -0.003 C 
ATOM     30  C   UNL     1      22.907  12.786   3.168  1.00  0.00     0.004 C 
ENDBRANCH  28  29
ENDBRANCH  27  28
ENDBRANCH  26  27
ENDBRANCH  25  26
ENDBRANCH  24  25
ENDBRANCH  23  24
ENDBRANCH  22  23
ENDBRANCH  21  22
ENDBRANCH  20  21
ENDBRANCH  19  20
ENDBRANCH  18  19
ENDBRANCH  17  18
ENDBRANCH   1  17
TORSDOF 26
ENDMDL
MODEL 6
REMARK VINA RESULT:    -5.738      5.290      8.627
REMARK INTER + INTRA:         -18.224
REMARK INTER:                 -15.075
REMARK INTRA:                  -3.149
REMARK UNBOUND:                -3.764
REMARK SMILES CCCCCCCCCCCCCCCCCCCCCCCCCCCC(=O)[O-]
REMARK SMILES IDX 15 1 16 2 17 3 18 4 19 5 20 6 21 7 22 8 23 9 24 10 25 11
REMARK SMILES IDX 26 12 27 13 28 14 29 15 30 16 14 17 13 18 12 19 11 20 10 21
REMARK SMILES IDX 9 22 8 23 7 24 6 25 5 26 4 27 3 28 2 29 1 30
REMARK H PARENT
REMARK Flexibility Score: inf
ROOT
ATOM      1  C   UNL     1      23.218  13.245  -0.771  1.00  0.00     0.000 C 
ENDROOT
BRANCH   1   2
ATOM      2  C   UNL     1      24.020  12.873  -2.037  1.00  0.00     0.000 C 
BRANCH   2   3
ATOM      3  C   UNL     1      23.486  13.581  -3.294  1.00  0.00     0.000 C 
BRANCH   3   4
ATOM      4  C   UNL     1      22.578  12.673  -4.140  1.00  0.00     0.000 C 
BRANCH   4   5
ATOM      5  C   UNL     1      22.958  12.680  -5.629  1.00  0.00     0.000 C 
BRANCH   5   6
ATOM      6  C   UNL     1      23.526  11.334  -6.107  1.00  0.00     0.000 C 
BRANCH   6   7
ATOM      7  C   UNL     1      24.939  11.031  -5.563  1.00  0.00     0.000 C 
BRANCH   7   8
ATOM      8  C   UNL     1      25.605   9.853  -6.296  1.00  0.00     0.000 C 
BRANCH   8   9
ATOM      9  C   UNL     1      25.141   9.729  -7.756  1.00  0.00     0.000 C 
BRANCH   9  10
ATOM     10  C   UNL     1      25.548  10.942  -8.612  1.00  0.00     0.000 C 
BRANCH  10  11
ATOM     11  C   UNL     1      26.770  10.655  -9.499  1.00  0.00     0.000 C 
BRANCH  11  12
ATOM     12  C   UNL     1      27.966  11.563  -9.171  1.00  0.00     0.006 C 
BRANCH  12  13
ATOM     13  C   UNL     1      28.679  11.091  -7.901  1.00  0.00     0.053 C 
BRANCH  13  14
ATOM     14  C   UNL     1      30.127  11.467  -7.943  1.00  0.00     0.041 C 
ATOM     15  O   UNL     1      30.949  10.751  -8.573  1.00  0.00    -0.550 OA
ATOM     16  O   UNL     1      30.575  12.583  -7.248  1.00  0.00    -0.550 OA
ENDBRANCH  13  14
ENDBRANCH  12  13
ENDBRANCH  11  12
ENDBRANCH  10  11
ENDBRANCH   9  10
ENDBRANCH   8   9
ENDBRANCH   7   8
ENDBRANCH   6   7
ENDBRANCH   5   6
ENDBRANCH   4   5
ENDBRANCH   3   4
ENDBRANCH   2   3
ENDBRANCH   1   2
BRANCH   1  17
ATOM     17  C   UNL     1      23.527  12.351   0.446  1.00  0.00     0.000 C 
BRANCH  17  18
ATOM     18  C   UNL     1      22.322  11.584   1.014  1.00  0.00     0.000 C 
BRANCH  18  19
ATOM     19  C   UNL     1      21.852  12.136   2.371  1.00  0.00     0.000 C 
BRANCH  19  20
ATOM     20  C   UNL     1      23.022  12.498   3.301  1.00  0.00     0.000 C 
BRANCH  20  21
ATOM     21  C   UNL     1      22.624  13.517   4.384  1.00  0.00     0.000 C 
BRANCH  21  22
ATOM     22  C   UNL     1      23.114  14.939   4.066  1.00  0.00    -0.000 C 
BRANCH  22  23
ATOM     23  C   UNL     1      22.114  15.734   3.214  1.00  0.00    -0.000 C 
BRANCH  23  24
ATOM     24  C   UNL     1      22.738  16.154   1.878  1.00  0.00    -0.000 C 
BRANCH  24  25
ATOM     25  C   UNL     1      21.714  16.056   0.737  1.00  0.00    -0.000 C 
BRANCH  25  26
ATOM     26  C   UNL     1      20.509  15.163   1.090  1.00  0.00    -0.000 C 
BRANCH  26  27
ATOM     27  C   UNL     1      19.567  14.852  -0.088  1.00  0.00    -0.000 C 
BRANCH  27  28
ATOM     28  C   UNL     1      18.872  13.478  -0.022  1.00  0.00    -0.000 C 
BRANCH  28  29
ATOM     29  C   UNL     1      19.479  12.428  -0.975  1.00  0.00    -0.003 C 
ATOM     30  C   UNL     1      19.587  12.933  -2.414  1.00  0.00     0.004 C 
ENDBRANCH  28  29
ENDBRANCH  27  28
ENDBRANCH  26  27
ENDBRANCH  25  26
ENDBRANCH  24  25
ENDBRANCH  23  24
ENDBRANCH  22  23
ENDBRANCH  21  22
ENDBRANCH  20  21
ENDBRANCH  19  20
ENDBRANCH  18  19
ENDBRANCH  17  18
ENDBRANCH   1  17
TORSDOF 26
ENDMDL
MODEL 7
REMARK VINA RESULT:    -5.735      3.139      5.828
REMARK INTER + INTRA:         -18.216
REMARK INTER:                 -14.611
REMARK INTRA:                  -3.605
REMARK UNBOUND:                -3.764
REMARK SMILES CCCCCCCCCCCCCCCCCCCCCCCCCCCC(=O)[O-]
REMARK SMILES IDX 15 1 16 2 17 3 18 4 19 5 20 6 21 7 22 8 23 9 24 10 25 11
REMARK SMILES IDX 26 12 27 13 28 14 29 15 30 16 14 17 13 18 12 19 11 20 10 21
REMARK SMILES IDX 9 22 8 23 7 24 6 25 5 26 4 27 3 28 2 29 1 30
REMARK H PARENT
REMARK Flexibility Score: inf
ROOT
ATOM      1  C   UNL     1      22.806  15.760   1.962  1.00  0.00     0.000 C 
ENDROOT
BRANCH   1   2
ATOM      2  C   UNL     1      22.047  15.180   3.175  1.00  0.00     0.000 C 
BRANCH   2   3
ATOM      3  C   UNL     1      22.978  14.423   4.137  1.00  0.00     0.000 C 
BRANCH   3   4
ATOM      4  C   UNL     1      22.301  13.195   4.767  1.00  0.00     0.000 C 
BRANCH   4   5
ATOM      5  C   UNL     1      23.301  12.269   5.479  1.00  0.00     0.000 C 
BRANCH   5   6
ATOM      6  C   UNL     1      22.972  12.066   6.967  1.00  0.00     0.000 C 
BRANCH   6   7
ATOM      7  C   UNL     1      24.195  11.662   7.820  1.00  0.00     0.000 C 
BRANCH   7   8
ATOM      8  C   UNL     1      23.791  11.179   9.224  1.00  0.00     0.000 C 
BRANCH   8   9
ATOM      9  C   UNL     1      23.396   9.693   9.245  1.00  0.00     0.000 C 
BRANCH   9  10
ATOM     10  C   UNL     1      24.578   8.762   8.920  1.00  0.00     0.000 C 
BRANCH  10  11
ATOM     11  C   UNL     1      24.352   7.946   7.638  1.00  0.00     0.000 C 
BRANCH  11  12
ATOM     12  C   UNL     1      25.623   7.817   6.785  1.00  0.00     0.006 C 
BRANCH  12  13
ATOM     13  C   UNL     1      26.602   8.954   7.088  1.00  0.00     0.053 C 
BRANCH  13  14
ATOM     14  C   UNL     1      27.909   8.406   7.570  1.00  0.00     0.041 C 
ATOM     15  O   UNL     1      28.728   7.910   6.752  1.00  0.00    -0.550 OA
ATOM     16  O   UNL     1      28.203   8.403   8.928  1.00  0.00    -0.550 OA
ENDBRANCH  13  14
ENDBRANCH  12  13
ENDBRANCH  11  12
ENDBRANCH  10  11
ENDBRANCH   9  10
ENDBRANCH   8   9
ENDBRANCH   7   8
ENDBRANCH   6   7
ENDBRANCH   5   6
ENDBRANCH   4   5
ENDBRANCH   3   4
ENDBRANCH   2   3
ENDBRANCH   1   2
BRANCH   1  17
ATOM     17  C   UNL     1      21.885  16.242   0.824  1.00  0.00     0.000 C 
BRANCH  17  18
ATOM     18  C   UNL     1      20.413  15.816   0.951  1.00  0.00     0.000 C 
BRANCH  18  19
ATOM     19  C   UNL     1      19.982  14.833  -0.151  1.00  0.00     0.000 C 
BRANCH  19  20
ATOM     20  C   UNL     1      19.698  13.422   0.391  1.00  0.00     0.000 C 
BRANCH  20  21
ATOM     21  C   UNL     1      19.158  12.470  -0.690  1.00  0.00     0.000 C 
BRANCH  21  22
ATOM     22  C   UNL     1      19.377  13.008  -2.114  1.00  0.00    -0.000 C 
BRANCH  22  23
ATOM     23  C   UNL     1      20.305  12.114  -2.950  1.00  0.00    -0.000 C 
BRANCH  23  24
ATOM     24  C   UNL     1      21.520  12.901  -3.456  1.00  0.00    -0.000 C 
BRANCH  24  25
ATOM     25  C   UNL     1      22.826  12.149  -3.158  1.00  0.00    -0.000 C 
BRANCH  25  26
ATOM     26  C   UNL     1      23.760  12.925  -2.210  1.00  0.00    -0.000 C 
BRANCH  26  27
ATOM     27  C   UNL     1      23.133  13.310  -0.856  1.00  0.00    -0.000 C 
BRANCH  27  28
ATOM     28  C   UNL     1      23.749  12.609   0.370  1.00  0.00    -0.000 C 
BRANCH  28  29
ATOM     29  C   UNL     1      22.811  11.575   1.030  1.00  0.00    -0.003 C 
ATOM     30  C   UNL     1      22.169  10.632   0.013  1.00  0.00     0.004 C 
ENDBRANCH  28  29
ENDBRANCH  27  28
ENDBRANCH  26  27
ENDBRANCH  25  26
ENDBRANCH  24  25
ENDBRANCH  23  24
ENDBRANCH  22  23
ENDBRANCH  21  22
ENDBRANCH  20  21
ENDBRANCH  19  20
ENDBRANCH  18  19
ENDBRANCH  17  18
ENDBRANCH   1  17
TORSDOF 26
ENDMDL
MODEL 8
REMARK VINA RESULT:    -5.695      1.597      3.031
REMARK INTER + INTRA:         -18.114
REMARK INTER:                 -14.769
REMARK INTRA:                  -3.345
REMARK UNBOUND:                -3.764
REMARK SMILES CCCCCCCCCCCCCCCCCCCCCCCCCCCC(=O)[O-]
REMARK SMILES IDX 15 1 16 2 17 3 18 4 19 5 20 6 21 7 22 8 23 9 24 10 25 11
REMARK SMILES IDX 26 12 27 13 28 14 29 15 30 16 14 17 13 18 12 19 11 20 10 21
REMARK SMILES IDX 9 22 8 23 7 24 6 25 5 26 4 27 3 28 2 29 1 30
REMARK H PARENT
REMARK Flexibility Score: inf
ROOT
ATOM      1  C   UNL     1      23.072  13.342   2.867  1.00  0.00     0.000 C 
ENDROOT
BRANCH   1   2
ATOM      2  C   UNL     1      22.110  12.155   2.649  1.00  0.00     0.000 C 
BRANCH   2   3
ATOM      3  C   UNL     1      22.151  11.628   1.204  1.00  0.00     0.000 C 
BRANCH   3   4
ATOM      4  C   UNL     1      22.824  10.250   1.099  1.00  0.00     0.000 C 
BRANCH   4   5
ATOM      5  C   UNL     1      22.166   9.350   0.040  1.00  0.00     0.000 C 
BRANCH   5   6
ATOM      6  C   UNL     1      22.450   7.856   0.266  1.00  0.00     0.000 C 
BRANCH   6   7
ATOM      7  C   UNL     1      23.039   7.542   1.659  1.00  0.00     0.000 C 
BRANCH   7   8
ATOM      8  C   UNL     1      24.265   6.616   1.577  1.00  0.00     0.000 C 
BRANCH   8   9
ATOM      9  C   UNL     1      23.879   5.146   1.344  1.00  0.00     0.000 C 
BRANCH   9  10
ATOM     10  C   UNL     1      23.132   4.534   2.543  1.00  0.00     0.000 C 
BRANCH  10  11
ATOM     11  C   UNL     1      21.661   4.221   2.225  1.00  0.00     0.000 C 
BRANCH  11  12
ATOM     12  C   UNL     1      20.716   4.581   3.382  1.00  0.00     0.006 C 
BRANCH  12  13
ATOM     13  C   UNL     1      21.355   5.618   4.309  1.00  0.00     0.053 C 
BRANCH  13  14
ATOM     14  C   UNL     1      21.503   5.066   5.692  1.00  0.00     0.041 C 
ATOM     15  O   UNL     1      20.526   5.077   6.485  1.00  0.00    -0.550 OA
ATOM     16  O   UNL     1      22.733   4.578   6.117  1.00  0.00    -0.550 OA
ENDBRANCH  13  14
ENDBRANCH  12  13
ENDBRANCH  11  12
ENDBRANCH  10  11
ENDBRANCH   9  10
ENDBRANCH   8   9
ENDBRANCH   7   8
ENDBRANCH   6   7
ENDBRANCH   5   6
ENDBRANCH   4   5
ENDBRANCH   3   4
ENDBRANCH   2   3
ENDBRANCH   1   2
BRANCH   1  17
ATOM     17  C   UNL     1      23.524  14.024   1.560  1.00  0.00     0.000 C 
BRANCH  17  18
ATOM     18  C   UNL     1      23.207  15.526   1.465  1.00  0.00     0.000 C 
BRANCH  18  19
ATOM     19  C   UNL     1      21.702  15.807   1.311  1.00  0.00     0.000 C 
BRANCH  19  20
ATOM     20  C   UNL     1      21.032  14.895   0.269  1.00  0.00     0.000 C 
BRANCH  20  21
ATOM     21  C   UNL     1      19.497  14.901   0.377  1.00  0.00     0.000 C 
BRANCH  21  22
ATOM     22  C   UNL     1      18.907  13.486   0.488  1.00  0.00    -0.000 C 
BRANCH  22  23
ATOM     23  C   UNL     1      19.450  12.531  -0.586  1.00  0.00    -0.000 C 
BRANCH  23  24
ATOM     24  C   UNL     1      19.100  13.027  -1.994  1.00  0.00    -0.000 C 
BRANCH  24  25
ATOM     25  C   UNL     1      20.213  12.677  -2.993  1.00  0.00    -0.000 C 
BRANCH  25  26
ATOM     26  C   UNL     1      21.525  12.257  -2.303  1.00  0.00    -0.000 C 
BRANCH  26  27
ATOM     27  C   UNL     1      22.721  13.193  -2.562  1.00  0.00    -0.000 C 
BRANCH  27  28
ATOM     28  C   UNL     1      23.205  13.243  -4.025  1.00  0.00    -0.000 C 
BRANCH  28  29
ATOM     29  C   UNL     1      23.755  11.898  -4.543  1.00  0.00    -0.003 C 
ATOM     30  C   UNL     1      23.526  11.708  -6.042  1.00  0.00     0.004 C 
ENDBRANCH  28  29
ENDBRANCH  27  28
ENDBRANCH  26  27
ENDBRANCH  25  26
ENDBRANCH  24  25
ENDBRANCH  23  24
ENDBRANCH  22  23
ENDBRANCH  21  22
ENDBRANCH  20  21
ENDBRANCH  19  20
ENDBRANCH  18  19
ENDBRANCH  17  18
ENDBRANCH   1  17
TORSDOF 26
ENDMDL
MODEL 9
REMARK VINA RESULT:    -5.683      4.977      7.378
REMARK INTER + INTRA:         -18.084
REMARK INTER:                 -14.546
REMARK INTRA:                  -3.538
REMARK UNBOUND:                -3.764
REMARK SMILES CCCCCCCCCCCCCCCCCCCCCCCCCCCC(=O)[O-]
REMARK SMILES IDX 15 1 16 2 17 3 18 4 19 5 20 6 21 7 22 8 23 9 24 10 25 11
REMARK SMILES IDX 26 12 27 13 28 14 29 15 30 16 14 17 13 18 12 19 11 20 10 21
REMARK SMILES IDX 9 22 8 23 7 24 6 25 5 26 4 27 3 28 2 29 1 30
REMARK H PARENT
REMARK Flexibility Score: inf
ROOT
ATOM      1  C   UNL     1      23.152  12.534   0.559  1.00  0.00     0.000 C 
ENDROOT
BRANCH   1   2
ATOM      2  C   UNL     1      24.660  12.506   0.228  1.00  0.00     0.000 C 
BRANCH   2   3
ATOM      3  C   UNL     1      25.469  13.471   1.112  1.00  0.00     0.000 C 
BRANCH   3   4
ATOM      4  C   UNL     1      26.968  13.133   1.133  1.00  0.00     0.000 C 
BRANCH   4   5
ATOM      5  C   UNL     1      27.388  12.234  -0.042  1.00  0.00     0.000 C 
BRANCH   5   6
ATOM      6  C   UNL     1      28.888  11.901  -0.033  1.00  0.00     0.000 C 
BRANCH   6   7
ATOM      7  C   UNL     1      29.314  10.934  -1.159  1.00  0.00     0.000 C 
BRANCH   7   8
ATOM      8  C   UNL     1      28.487  11.133  -2.441  1.00  0.00     0.000 C 
BRANCH   8   9
ATOM      9  C   UNL     1      29.029  10.315  -3.625  1.00  0.00     0.000 C 
BRANCH   9  10
ATOM     10  C   UNL     1      27.922   9.544  -4.367  1.00  0.00     0.000 C 
BRANCH  10  11
ATOM     11  C   UNL     1      27.351  10.330  -5.557  1.00  0.00     0.000 C 
BRANCH  11  12
ATOM     12  C   UNL     1      25.815  10.342  -5.576  1.00  0.00     0.006 C 
BRANCH  12  13
ATOM     13  C   UNL     1      25.286  10.524  -7.002  1.00  0.00     0.053 C 
BRANCH  13  14
ATOM     14  C   UNL     1      25.697   9.371  -7.864  1.00  0.00     0.041 C 
ATOM     15  O   UNL     1      25.507   8.189  -7.474  1.00  0.00    -0.550 OA
ATOM     16  O   UNL     1      26.329   9.603  -9.079  1.00  0.00    -0.550 OA
ENDBRANCH  13  14
ENDBRANCH  12  13
ENDBRANCH  11  12
ENDBRANCH  10  11
ENDBRANCH   9  10
ENDBRANCH   8   9
ENDBRANCH   7   8
ENDBRANCH   6   7
ENDBRANCH   5   6
ENDBRANCH   4   5
ENDBRANCH   3   4
ENDBRANCH   2   3
ENDBRANCH   1   2
BRANCH   1  17
ATOM     17  C   UNL     1      22.782  11.760   1.840  1.00  0.00     0.000 C 
BRANCH  17  18
ATOM     18  C   UNL     1      21.850  12.508   2.808  1.00  0.00     0.000 C 
BRANCH  18  19
ATOM     19  C   UNL     1      22.603  13.122   4.002  1.00  0.00     0.000 C 
BRANCH  19  20
ATOM     20  C   UNL     1      23.066  14.564   3.733  1.00  0.00     0.000 C 
BRANCH  20  21
ATOM     21  C   UNL     1      22.002  15.401   3.003  1.00  0.00     0.000 C 
BRANCH  21  22
ATOM     22  C   UNL     1      22.527  16.014   1.694  1.00  0.00    -0.000 C 
BRANCH  22  23
ATOM     23  C   UNL     1      21.576  15.789   0.510  1.00  0.00    -0.000 C 
BRANCH  23  24
ATOM     24  C   UNL     1      20.271  15.127   0.967  1.00  0.00    -0.000 C 
BRANCH  24  25
ATOM     25  C   UNL     1      19.540  14.476  -0.216  1.00  0.00    -0.000 C 
BRANCH  25  26
ATOM     26  C   UNL     1      19.417  12.947  -0.076  1.00  0.00    -0.000 C 
BRANCH  26  27
ATOM     27  C   UNL     1      20.098  12.137  -1.195  1.00  0.00    -0.000 C 
BRANCH  27  28
ATOM     28  C   UNL     1      20.538  12.961  -2.421  1.00  0.00    -0.000 C 
BRANCH  28  29
ATOM     29  C   UNL     1      22.045  12.851  -2.734  1.00  0.00    -0.003 C 
ATOM     30  C   UNL     1      22.320  12.577  -4.213  1.00  0.00     0.004 C 
ENDBRANCH  28  29
ENDBRANCH  27  28
ENDBRANCH  26  27
ENDBRANCH  25  26
ENDBRANCH  24  25
ENDBRANCH  23  24
ENDBRANCH  22  23
ENDBRANCH  21  22
ENDBRANCH  20  21
ENDBRANCH  19  20
ENDBRANCH  18  19
ENDBRANCH  17  18
ENDBRANCH   1  17
TORSDOF 26
ENDMDL
