MODEL 1
REMARK VINA RESULT:    -4.933      0.000      0.000
REMARK INTER + INTRA:         -16.088
REMARK INTER:                 -12.430
REMARK INTRA:                  -3.657
REMARK UNBOUND:                -3.657
REMARK SMILES CCCCCCCCCCCCCCCCCCCCCCCCCCCC(=O)[O-]
REMARK SMILES IDX 15 1 16 2 17 3 18 4 19 5 20 6 21 7 22 8 23 9 24 10 25 11
REMARK SMILES IDX 26 12 27 13 28 14 29 15 30 16 14 17 13 18 12 19 11 20 10 21
REMARK SMILES IDX 9 22 8 23 7 24 6 25 5 26 4 27 3 28 2 29 1 30
REMARK H PARENT
REMARK Flexibility Score: inf
ROOT
ATOM      1  C   UNL     1     -15.406 -23.368  20.332  1.00  0.00     0.000 C 
ENDROOT
BRANCH   1   2
ATOM      2  C   UNL     1     -14.513 -22.137  20.577  1.00  0.00     0.000 C 
BRANCH   2   3
ATOM      3  C   UNL     1     -14.514 -21.149  19.401  1.00  0.00     0.000 C 
BRANCH   3   4
ATOM      4  C   UNL     1     -14.540 -21.896  18.059  1.00  0.00     0.000 C 
BRANCH   4   5
ATOM      5  C   UNL     1     -15.154 -21.060  16.923  1.00  0.00     0.000 C 
BRANCH   5   6
ATOM      6  C   UNL     1     -16.340 -21.770  16.246  1.00  0.00     0.000 C 
BRANCH   6   7
ATOM      7  C   UNL     1     -16.647 -23.140  16.874  1.00  0.00     0.000 C 
BRANCH   7   8
ATOM      8  C   UNL     1     -18.152 -23.440  16.937  1.00  0.00     0.000 C 
BRANCH   8   9
ATOM      9  C   UNL     1     -18.905 -22.305  17.649  1.00  0.00     0.000 C 
BRANCH   9  10
ATOM     10  C   UNL     1     -18.426 -22.088  19.095  1.00  0.00     0.000 C 
BRANCH  10  11
ATOM     11  C   UNL     1     -18.657 -20.647  19.581  1.00  0.00     0.000 C 
BRANCH  11  12
ATOM     12  C   UNL     1     -18.327 -19.602  18.503  1.00  0.00     0.006 C 
BRANCH  12  13
ATOM     13  C   UNL     1     -17.166 -18.681  18.905  1.00  0.00     0.053 C 
BRANCH  13  14
ATOM     14  C   UNL     1     -17.658 -17.571  19.779  1.00  0.00     0.041 C 
ATOM     15  O   UNL     1     -18.064 -16.495  19.270  1.00  0.00    -0.550 OA
ATOM     16  O   UNL     1     -17.714 -17.745  21.157  1.00  0.00    -0.550 OA
ENDBRANCH  13  14
ENDBRANCH  12  13
ENDBRANCH  11  12
ENDBRANCH  10  11
ENDBRANCH   9  10
ENDBRANCH   8   9
ENDBRANCH   7   8
ENDBRANCH   6   7
ENDBRANCH   5   6
ENDBRANCH   4   5
ENDBRANCH   3   4
ENDBRANCH   2   3
ENDBRANCH   1   2
BRANCH   1  17
ATOM     17  C   UNL     1     -15.635 -24.270  21.560  1.00  0.00     0.000 C 
BRANCH  17  18
ATOM     18  C   UNL     1     -14.591 -24.140  22.685  1.00  0.00     0.000 C 
BRANCH  18  19
ATOM     19  C   UNL     1     -14.845 -25.062  23.897  1.00  0.00     0.000 C 
BRANCH  19  20
ATOM     20  C   UNL     1     -13.860 -26.244  23.967  1.00  0.00     0.000 C 
BRANCH  20  21
ATOM     21  C   UNL     1     -12.934 -26.170  25.189  1.00  0.00     0.000 C 
BRANCH  21  22
ATOM     22  C   UNL     1     -11.651 -25.365  24.917  1.00  0.00    -0.000 C 
BRANCH  22  23
ATOM     23  C   UNL     1     -11.709 -23.938  25.488  1.00  0.00    -0.000 C 
BRANCH  23  24
ATOM     24  C   UNL     1     -10.763 -23.673  26.677  1.00  0.00    -0.000 C 
BRANCH  24  25
ATOM     25  C   UNL     1      -9.979 -24.902  27.175  1.00  0.00    -0.000 C 
BRANCH  25  26
ATOM     26  C   UNL     1     -10.357 -25.315  28.605  1.00  0.00    -0.000 C 
BRANCH  26  27
ATOM     27  C   UNL     1     -10.275 -26.840  28.775  1.00  0.00    -0.000 C 
BRANCH  27  28
ATOM     28  C   UNL     1     -11.464 -27.572  28.133  1.00  0.00    -0.000 C 
BRANCH  28  29
ATOM     29  C   UNL     1     -11.022 -28.720  27.212  1.00  0.00    -0.003 C 
ATOM     30  C   UNL     1      -9.631 -28.458  26.640  1.00  0.00     0.004 C 
ENDBRANCH  28  29
ENDBRANCH  27  28
ENDBRANCH  26  27
ENDBRANCH  25  26
ENDBRANCH  24  25
ENDBRANCH  23  24
ENDBRANCH  22  23
ENDBRANCH  21  22
ENDBRANCH  20  21
ENDBRANCH  19  20
ENDBRANCH  18  19
ENDBRANCH  17  18
ENDBRANCH   1  17
TORSDOF 26
ENDMDL
MODEL 2
REMARK VINA RESULT:    -4.913      6.120     10.292
REMARK INTER + INTRA:         -16.038
REMARK INTER:                 -12.375
REMARK INTRA:                  -3.663
REMARK UNBOUND:                -3.657
REMARK SMILES CCCCCCCCCCCCCCCCCCCCCCCCCCCC(=O)[O-]
REMARK SMILES IDX 15 1 16 2 17 3 18 4 19 5 20 6 21 7 22 8 23 9 24 10 25 11
REMARK SMILES IDX 26 12 27 13 28 14 29 15 30 16 14 17 13 18 12 19 11 20 10 21
REMARK SMILES IDX 9 22 8 23 7 24 6 25 5 26 4 27 3 28 2 29 1 30
REMARK H PARENT
REMARK Flexibility Score: inf
ROOT
ATOM      1  C   UNL     1     -10.019 -25.188  29.184  1.00  0.00     0.000 C 
ENDROOT
BRANCH   1   2
ATOM      2  C   UNL     1      -8.851 -25.790  28.378  1.00  0.00     0.000 C 
BRANCH   2   3
ATOM      3  C   UNL     1      -8.932 -27.318  28.253  1.00  0.00     0.000 C 
BRANCH   3   4
ATOM      4  C   UNL     1      -9.651 -27.724  26.958  1.00  0.00     0.000 C 
BRANCH   4   5
ATOM      5  C   UNL     1     -11.139 -28.048  27.180  1.00  0.00     0.000 C 
BRANCH   5   6
ATOM      6  C   UNL     1     -12.070 -27.000  26.543  1.00  0.00     0.000 C 
BRANCH   6   7
ATOM      7  C   UNL     1     -11.298 -25.893  25.806  1.00  0.00     0.000 C 
BRANCH   7   8
ATOM      8  C   UNL     1     -12.220 -24.951  25.017  1.00  0.00     0.000 C 
BRANCH   8   9
ATOM      9  C   UNL     1     -13.443 -25.709  24.478  1.00  0.00     0.000 C 
BRANCH   9  10
ATOM     10  C   UNL     1     -14.573 -24.770  24.022  1.00  0.00     0.000 C 
BRANCH  10  11
ATOM     11  C   UNL     1     -15.908 -25.070  24.724  1.00  0.00     0.000 C 
BRANCH  11  12
ATOM     12  C   UNL     1     -16.230 -26.573  24.759  1.00  0.00     0.006 C 
BRANCH  12  13
ATOM     13  C   UNL     1     -17.403 -26.907  25.691  1.00  0.00     0.053 C 
BRANCH  13  14
ATOM     14  C   UNL     1     -16.916 -27.633  26.905  1.00  0.00     0.041 C 
ATOM     15  O   UNL     1     -17.737 -28.149  27.707  1.00  0.00    -0.550 OA
ATOM     16  O   UNL     1     -15.552 -27.782  27.125  1.00  0.00    -0.550 OA
ENDBRANCH  13  14
ENDBRANCH  12  13
ENDBRANCH  11  12
ENDBRANCH  10  11
ENDBRANCH   9  10
ENDBRANCH   8   9
ENDBRANCH   7   8
ENDBRANCH   6   7
ENDBRANCH   5   6
ENDBRANCH   4   5
ENDBRANCH   3   4
ENDBRANCH   2   3
ENDBRANCH   1   2
BRANCH   1  17
ATOM     17  C   UNL     1     -10.648 -26.126  30.232  1.00  0.00     0.000 C 
BRANCH  17  18
ATOM     18  C   UNL     1      -9.898 -26.223  31.575  1.00  0.00     0.000 C 
BRANCH  18  19
ATOM     19  C   UNL     1      -9.058 -27.507  31.741  1.00  0.00     0.000 C 
BRANCH  19  20
ATOM     20  C   UNL     1      -7.591 -27.218  32.111  1.00  0.00     0.000 C 
BRANCH  20  21
ATOM     21  C   UNL     1      -6.600 -28.084  31.319  1.00  0.00     0.000 C 
BRANCH  21  22
ATOM     22  C   UNL     1      -5.829 -27.283  30.255  1.00  0.00    -0.000 C 
BRANCH  22  23
ATOM     23  C   UNL     1      -4.305 -27.335  30.460  1.00  0.00    -0.000 C 
BRANCH  23  24
ATOM     24  C   UNL     1      -3.805 -28.492  31.348  1.00  0.00    -0.000 C 
BRANCH  24  25
ATOM     25  C   UNL     1      -3.154 -28.063  32.676  1.00  0.00    -0.000 C 
BRANCH  25  26
ATOM     26  C   UNL     1      -4.017 -28.396  33.902  1.00  0.00    -0.000 C 
BRANCH  26  27
ATOM     27  C   UNL     1      -4.650 -27.124  34.488  1.00  0.00    -0.000 C 
BRANCH  27  28
ATOM     28  C   UNL     1      -4.022 -25.838  33.929  1.00  0.00    -0.000 C 
BRANCH  28  29
ATOM     29  C   UNL     1      -5.044 -24.951  33.201  1.00  0.00    -0.003 C 
ATOM     30  C   UNL     1      -6.069 -24.382  34.178  1.00  0.00     0.004 C 
ENDBRANCH  28  29
ENDBRANCH  27  28
ENDBRANCH  26  27
ENDBRANCH  25  26
ENDBRANCH  24  25
ENDBRANCH  23  24
ENDBRANCH  22  23
ENDBRANCH  21  22
ENDBRANCH  20  21
ENDBRANCH  19  20
ENDBRANCH  18  19
ENDBRANCH  17  18
ENDBRANCH   1  17
TORSDOF 26
ENDMDL
MODEL 3
REMARK VINA RESULT:    -4.882      6.174      9.844
REMARK INTER + INTRA:         -15.960
REMARK INTER:                 -12.686
REMARK INTRA:                  -3.274
REMARK UNBOUND:                -3.657
REMARK SMILES CCCCCCCCCCCCCCCCCCCCCCCCCCCC(=O)[O-]
REMARK SMILES IDX 15 1 16 2 17 3 18 4 19 5 20 6 21 7 22 8 23 9 24 10 25 11
REMARK SMILES IDX 26 12 27 13 28 14 29 15 30 16 14 17 13 18 12 19 11 20 10 21
REMARK SMILES IDX 9 22 8 23 7 24 6 25 5 26 4 27 3 28 2 29 1 30
REMARK H PARENT
REMARK Flexibility Score: inf
ROOT
ATOM      1  C   UNL     1      -8.469 -27.285  27.899  1.00  0.00     0.000 C 
ENDROOT
BRANCH   1   2
ATOM      2  C   UNL     1      -9.939 -27.646  28.190  1.00  0.00     0.000 C 
BRANCH   2   3
ATOM      3  C   UNL     1     -10.922 -26.540  27.782  1.00  0.00     0.000 C 
BRANCH   3   4
ATOM      4  C   UNL     1     -10.301 -25.151  27.991  1.00  0.00     0.000 C 
BRANCH   4   5
ATOM      5  C   UNL     1     -10.533 -24.207  26.799  1.00  0.00     0.000 C 
BRANCH   5   6
ATOM      6  C   UNL     1     -10.835 -24.970  25.496  1.00  0.00     0.000 C 
BRANCH   6   7
ATOM      7  C   UNL     1     -12.254 -24.703  24.968  1.00  0.00     0.000 C 
BRANCH   7   8
ATOM      8  C   UNL     1     -13.051 -25.993  24.726  1.00  0.00     0.000 C 
BRANCH   8   9
ATOM      9  C   UNL     1     -14.050 -25.810  23.573  1.00  0.00     0.000 C 
BRANCH   9  10
ATOM     10  C   UNL     1     -15.357 -25.134  24.019  1.00  0.00     0.000 C 
BRANCH  10  11
ATOM     11  C   UNL     1     -16.478 -26.149  24.305  1.00  0.00     0.000 C 
BRANCH  11  12
ATOM     12  C   UNL     1     -16.754 -26.313  25.808  1.00  0.00     0.006 C 
BRANCH  12  13
ATOM     13  C   UNL     1     -16.067 -27.548  26.406  1.00  0.00     0.053 C 
BRANCH  13  14
ATOM     14  C   UNL     1     -16.751 -27.966  27.669  1.00  0.00     0.041 C 
ATOM     15  O   UNL     1     -17.959 -28.320  27.650  1.00  0.00    -0.550 OA
ATOM     16  O   UNL     1     -16.040 -28.013  28.862  1.00  0.00    -0.550 OA
ENDBRANCH  13  14
ENDBRANCH  12  13
ENDBRANCH  11  12
ENDBRANCH  10  11
ENDBRANCH   9  10
ENDBRANCH   8   9
ENDBRANCH   7   8
ENDBRANCH   6   7
ENDBRANCH   5   6
ENDBRANCH   4   5
ENDBRANCH   3   4
ENDBRANCH   2   3
ENDBRANCH   1   2
BRANCH   1  17
ATOM     17  C   UNL     1      -7.575 -27.115  29.142  1.00  0.00     0.000 C 
BRANCH  17  18
ATOM     18  C   UNL     1      -6.061 -27.267  28.898  1.00  0.00     0.000 C 
BRANCH  18  19
ATOM     19  C   UNL     1      -5.263 -27.735  30.134  1.00  0.00     0.000 C 
BRANCH  19  20
ATOM     20  C   UNL     1      -6.166 -28.244  31.272  1.00  0.00     0.000 C 
BRANCH  20  21
ATOM     21  C   UNL     1      -6.032 -27.406  32.552  1.00  0.00     0.000 C 
BRANCH  21  22
ATOM     22  C   UNL     1      -5.388 -26.031  32.300  1.00  0.00    -0.000 C 
BRANCH  22  23
ATOM     23  C   UNL     1      -5.826 -24.971  33.325  1.00  0.00    -0.000 C 
BRANCH  23  24
ATOM     24  C   UNL     1      -7.261 -24.437  33.137  1.00  0.00    -0.000 C 
BRANCH  24  25
ATOM     25  C   UNL     1      -7.733 -24.332  31.675  1.00  0.00    -0.000 C 
BRANCH  25  26
ATOM     26  C   UNL     1      -9.208 -24.722  31.492  1.00  0.00    -0.000 C 
BRANCH  26  27
ATOM     27  C   UNL     1      -9.390 -26.244  31.601  1.00  0.00    -0.000 C 
BRANCH  27  28
ATOM     28  C   UNL     1     -10.595 -26.636  32.471  1.00  0.00    -0.000 C 
BRANCH  28  29
ATOM     29  C   UNL     1     -10.972 -25.544  33.484  1.00  0.00    -0.003 C 
ATOM     30  C   UNL     1     -10.961 -26.093  34.908  1.00  0.00     0.004 C 
ENDBRANCH  28  29
ENDBRANCH  27  28
ENDBRANCH  26  27
ENDBRANCH  25  26
ENDBRANCH  24  25
ENDBRANCH  23  24
ENDBRANCH  22  23
ENDBRANCH  21  22
ENDBRANCH  20  21
ENDBRANCH  19  20
ENDBRANCH  18  19
ENDBRANCH  17  18
ENDBRANCH   1  17
TORSDOF 26
ENDMDL
MODEL 4
REMARK VINA RESULT:    -4.857      5.335      9.210
REMARK INTER + INTRA:         -15.898
REMARK INTER:                 -12.669
REMARK INTRA:                  -3.229
REMARK UNBOUND:                -3.657
REMARK SMILES CCCCCCCCCCCCCCCCCCCCCCCCCCCC(=O)[O-]
REMARK SMILES IDX 15 1 16 2 17 3 18 4 19 5 20 6 21 7 22 8 23 9 24 10 25 11
REMARK SMILES IDX 26 12 27 13 28 14 29 15 30 16 14 17 13 18 12 19 11 20 10 21
REMARK SMILES IDX 9 22 8 23 7 24 6 25 5 26 4 27 3 28 2 29 1 30
REMARK H PARENT
REMARK Flexibility Score: inf
ROOT
ATOM      1  C   UNL     1     -10.081 -27.501  28.553  1.00  0.00     0.000 C 
ENDROOT
BRANCH   1   2
ATOM      2  C   UNL     1     -10.823 -26.245  28.057  1.00  0.00     0.000 C 
BRANCH   2   3
ATOM      3  C   UNL     1      -9.876 -25.100  27.671  1.00  0.00     0.000 C 
BRANCH   3   4
ATOM      4  C   UNL     1     -10.341 -24.418  26.375  1.00  0.00     0.000 C 
BRANCH   4   5
ATOM      5  C   UNL     1     -11.006 -23.053  26.626  1.00  0.00     0.000 C 
BRANCH   5   6
ATOM      6  C   UNL     1     -12.078 -22.719  25.573  1.00  0.00     0.000 C 
BRANCH   6   7
ATOM      7  C   UNL     1     -12.583 -23.965  24.827  1.00  0.00     0.000 C 
BRANCH   7   8
ATOM      8  C   UNL     1     -14.066 -23.864  24.439  1.00  0.00     0.000 C 
BRANCH   8   9
ATOM      9  C   UNL     1     -14.409 -24.869  23.328  1.00  0.00     0.000 C 
BRANCH   9  10
ATOM     10  C   UNL     1     -13.928 -26.295  23.646  1.00  0.00     0.000 C 
BRANCH  10  11
ATOM     11  C   UNL     1     -14.645 -26.900  24.865  1.00  0.00     0.000 C 
BRANCH  11  12
ATOM     12  C   UNL     1     -16.176 -26.844  24.736  1.00  0.00     0.006 C 
BRANCH  12  13
ATOM     13  C   UNL     1     -16.842 -26.101  25.902  1.00  0.00     0.053 C 
BRANCH  13  14
ATOM     14  C   UNL     1     -17.524 -24.863  25.411  1.00  0.00     0.041 C 
ATOM     15  O   UNL     1     -17.658 -23.868  26.171  1.00  0.00    -0.550 OA
ATOM     16  O   UNL     1     -17.967 -24.788  24.096  1.00  0.00    -0.550 OA
ENDBRANCH  13  14
ENDBRANCH  12  13
ENDBRANCH  11  12
ENDBRANCH  10  11
ENDBRANCH   9  10
ENDBRANCH   8   9
ENDBRANCH   7   8
ENDBRANCH   6   7
ENDBRANCH   5   6
ENDBRANCH   4   5
ENDBRANCH   3   4
ENDBRANCH   2   3
ENDBRANCH   1   2
BRANCH   1  17
ATOM     17  C   UNL     1      -8.773 -27.233  29.320  1.00  0.00     0.000 C 
BRANCH  17  18
ATOM     18  C   UNL     1      -8.817 -27.522  30.833  1.00  0.00     0.000 C 
BRANCH  18  19
ATOM     19  C   UNL     1      -8.948 -26.264  31.717  1.00  0.00     0.000 C 
BRANCH  19  20
ATOM     20  C   UNL     1      -8.577 -24.969  30.972  1.00  0.00     0.000 C 
BRANCH  20  21
ATOM     21  C   UNL     1      -7.189 -24.440  31.361  1.00  0.00     0.000 C 
BRANCH  21  22
ATOM     22  C   UNL     1      -6.679 -25.025  32.690  1.00  0.00    -0.000 C 
BRANCH  22  23
ATOM     23  C   UNL     1      -5.144 -25.012  32.797  1.00  0.00    -0.000 C 
BRANCH  23  24
ATOM     24  C   UNL     1      -4.581 -25.520  34.140  1.00  0.00    -0.000 C 
BRANCH  24  25
ATOM     25  C   UNL     1      -3.639 -26.734  34.037  1.00  0.00    -0.000 C 
BRANCH  25  26
ATOM     26  C   UNL     1      -4.277 -27.926  33.307  1.00  0.00    -0.000 C 
BRANCH  26  27
ATOM     27  C   UNL     1      -3.264 -28.598  32.367  1.00  0.00    -0.000 C 
BRANCH  27  28
ATOM     28  C   UNL     1      -3.813 -28.789  30.944  1.00  0.00    -0.000 C 
BRANCH  28  29
ATOM     29  C   UNL     1      -5.180 -28.116  30.743  1.00  0.00    -0.003 C 
ATOM     30  C   UNL     1      -5.116 -27.064  29.640  1.00  0.00     0.004 C 
ENDBRANCH  28  29
ENDBRANCH  27  28
ENDBRANCH  26  27
ENDBRANCH  25  26
ENDBRANCH  24  25
ENDBRANCH  23  24
ENDBRANCH  22  23
ENDBRANCH  21  22
ENDBRANCH  20  21
ENDBRANCH  19  20
ENDBRANCH  18  19
ENDBRANCH  17  18
ENDBRANCH   1  17
TORSDOF 26
ENDMDL
MODEL 5
REMARK VINA RESULT:    -4.816      1.823      3.144
REMARK INTER + INTRA:         -15.793
REMARK INTER:                 -13.051
REMARK INTRA:                  -2.743
REMARK UNBOUND:                -3.657
REMARK SMILES CCCCCCCCCCCCCCCCCCCCCCCCCCCC(=O)[O-]
REMARK SMILES IDX 15 1 16 2 17 3 18 4 19 5 20 6 21 7 22 8 23 9 24 10 25 11
REMARK SMILES IDX 26 12 27 13 28 14 29 15 30 16 14 17 13 18 12 19 11 20 10 21
REMARK SMILES IDX 9 22 8 23 7 24 6 25 5 26 4 27 3 28 2 29 1 30
REMARK H PARENT
REMARK Flexibility Score: inf
ROOT
ATOM      1  C   UNL     1     -14.551 -24.034  22.852  1.00  0.00     0.000 C 
ENDROOT
BRANCH   1   2
ATOM      2  C   UNL     1     -15.161 -23.911  21.442  1.00  0.00     0.000 C 
BRANCH   2   3
ATOM      3  C   UNL     1     -14.721 -22.638  20.705  1.00  0.00     0.000 C 
BRANCH   3   4
ATOM      4  C   UNL     1     -14.937 -22.780  19.191  1.00  0.00     0.000 C 
BRANCH   4   5
ATOM      5  C   UNL     1     -16.349 -23.276  18.835  1.00  0.00     0.000 C 
BRANCH   5   6
ATOM      6  C   UNL     1     -16.539 -23.470  17.319  1.00  0.00     0.000 C 
BRANCH   6   7
ATOM      7  C   UNL     1     -17.926 -23.017  16.835  1.00  0.00     0.000 C 
BRANCH   7   8
ATOM      8  C   UNL     1     -18.911 -22.783  17.990  1.00  0.00     0.000 C 
BRANCH   8   9
ATOM      9  C   UNL     1     -19.389 -21.322  18.012  1.00  0.00     0.000 C 
BRANCH   9  10
ATOM     10  C   UNL     1     -18.428 -20.370  17.279  1.00  0.00     0.000 C 
BRANCH  10  11
ATOM     11  C   UNL     1     -17.975 -19.195  18.161  1.00  0.00     0.000 C 
BRANCH  11  12
ATOM     12  C   UNL     1     -17.038 -19.638  19.297  1.00  0.00     0.006 C 
BRANCH  12  13
ATOM     13  C   UNL     1     -15.588 -19.184  19.080  1.00  0.00     0.053 C 
BRANCH  13  14
ATOM     14  C   UNL     1     -15.477 -17.700  19.231  1.00  0.00     0.041 C 
ATOM     15  O   UNL     1     -15.928 -17.131  20.259  1.00  0.00    -0.550 OA
ATOM     16  O   UNL     1     -14.830 -16.948  18.257  1.00  0.00    -0.550 OA
ENDBRANCH  13  14
ENDBRANCH  12  13
ENDBRANCH  11  12
ENDBRANCH  10  11
ENDBRANCH   9  10
ENDBRANCH   8   9
ENDBRANCH   7   8
ENDBRANCH   6   7
ENDBRANCH   5   6
ENDBRANCH   4   5
ENDBRANCH   3   4
ENDBRANCH   2   3
ENDBRANCH   1   2
BRANCH   1  17
ATOM     17  C   UNL     1     -14.537 -25.457  23.441  1.00  0.00     0.000 C 
BRANCH  17  18
ATOM     18  C   UNL     1     -13.383 -25.762  24.416  1.00  0.00     0.000 C 
BRANCH  18  19
ATOM     19  C   UNL     1     -12.600 -24.517  24.882  1.00  0.00     0.000 C 
BRANCH  19  20
ATOM     20  C   UNL     1     -11.132 -24.828  25.226  1.00  0.00     0.000 C 
BRANCH  20  21
ATOM     21  C   UNL     1     -10.675 -24.157  26.530  1.00  0.00     0.000 C 
BRANCH  21  22
ATOM     22  C   UNL     1      -9.801 -25.079  27.399  1.00  0.00    -0.000 C 
BRANCH  22  23
ATOM     23  C   UNL     1     -10.582 -26.276  27.969  1.00  0.00    -0.000 C 
BRANCH  23  24
ATOM     24  C   UNL     1      -9.711 -27.373  28.617  1.00  0.00    -0.000 C 
BRANCH  24  25
ATOM     25  C   UNL     1      -8.231 -27.367  28.192  1.00  0.00    -0.000 C 
BRANCH  25  26
ATOM     26  C   UNL     1      -7.278 -27.036  29.351  1.00  0.00    -0.000 C 
BRANCH  26  27
ATOM     27  C   UNL     1      -8.031 -27.011  30.690  1.00  0.00    -0.000 C 
BRANCH  27  28
ATOM     28  C   UNL     1      -7.899 -25.664  31.419  1.00  0.00    -0.000 C 
BRANCH  28  29
ATOM     29  C   UNL     1      -9.262 -25.051  31.777  1.00  0.00    -0.003 C 
ATOM     30  C   UNL     1     -10.272 -26.137  32.137  1.00  0.00     0.004 C 
ENDBRANCH  28  29
ENDBRANCH  27  28
ENDBRANCH  26  27
ENDBRANCH  25  26
ENDBRANCH  24  25
ENDBRANCH  23  24
ENDBRANCH  22  23
ENDBRANCH  21  22
ENDBRANCH  20  21
ENDBRANCH  19  20
ENDBRANCH  18  19
ENDBRANCH  17  18
ENDBRANCH   1  17
TORSDOF 26
ENDMDL
MODEL 6
REMARK VINA RESULT:    -4.815     10.130     14.056
REMARK INTER + INTRA:         -15.791
REMARK INTER:                 -12.430
REMARK INTRA:                  -3.360
REMARK UNBOUND:                -3.657
REMARK SMILES CCCCCCCCCCCCCCCCCCCCCCCCCCCC(=O)[O-]
REMARK SMILES IDX 15 1 16 2 17 3 18 4 19 5 20 6 21 7 22 8 23 9 24 10 25 11
REMARK SMILES IDX 26 12 27 13 28 14 29 15 30 16 14 17 13 18 12 19 11 20 10 21
REMARK SMILES IDX 9 22 8 23 7 24 6 25 5 26 4 27 3 28 2 29 1 30
REMARK H PARENT
REMARK Flexibility Score: inf
ROOT
ATOM      1  C   UNL     1     -10.824 -26.036  32.937  1.00  0.00     0.000 C 
ENDROOT
BRANCH   1   2
ATOM      2  C   UNL     1      -9.354 -25.982  32.480  1.00  0.00     0.000 C 
BRANCH   2   3
ATOM      3  C   UNL     1      -9.029 -24.733  31.647  1.00  0.00     0.000 C 
BRANCH   3   4
ATOM      4  C   UNL     1      -7.598 -24.248  31.925  1.00  0.00     0.000 C 
BRANCH   4   5
ATOM      5  C   UNL     1      -6.955 -24.950  33.133  1.00  0.00     0.000 C 
BRANCH   5   6
ATOM      6  C   UNL     1      -5.418 -24.980  33.046  1.00  0.00     0.000 C 
BRANCH   6   7
ATOM      7  C   UNL     1      -4.892 -26.204  32.279  1.00  0.00     0.000 C 
BRANCH   7   8
ATOM      8  C   UNL     1      -5.752 -27.458  32.500  1.00  0.00     0.000 C 
BRANCH   8   9
ATOM      9  C   UNL     1      -6.414 -27.904  31.187  1.00  0.00     0.000 C 
BRANCH   9  10
ATOM     10  C   UNL     1      -5.970 -27.061  29.979  1.00  0.00     0.000 C 
BRANCH  10  11
ATOM     11  C   UNL     1      -6.836 -27.313  28.734  1.00  0.00     0.000 C 
BRANCH  11  12
ATOM     12  C   UNL     1      -8.336 -27.116  29.010  1.00  0.00     0.006 C 
BRANCH  12  13
ATOM     13  C   UNL     1      -9.204 -27.359  27.768  1.00  0.00     0.053 C 
BRANCH  13  14
ATOM     14  C   UNL     1     -10.624 -27.614  28.164  1.00  0.00     0.041 C 
ATOM     15  O   UNL     1     -11.189 -28.692  27.844  1.00  0.00    -0.550 OA
ATOM     16  O   UNL     1     -11.310 -26.680  28.932  1.00  0.00    -0.550 OA
ENDBRANCH  13  14
ENDBRANCH  12  13
ENDBRANCH  11  12
ENDBRANCH  10  11
ENDBRANCH   9  10
ENDBRANCH   8   9
ENDBRANCH   7   8
ENDBRANCH   6   7
ENDBRANCH   5   6
ENDBRANCH   4   5
ENDBRANCH   3   4
ENDBRANCH   2   3
ENDBRANCH   1   2
BRANCH   1  17
ATOM     17  C   UNL     1     -11.052 -25.829  34.447  1.00  0.00     0.000 C 
BRANCH  17  18
ATOM     18  C   UNL     1     -12.524 -25.797  34.900  1.00  0.00     0.000 C 
BRANCH  18  19
ATOM     19  C   UNL     1     -13.544 -25.780  33.742  1.00  0.00     0.000 C 
BRANCH  19  20
ATOM     20  C   UNL     1     -15.002 -25.698  34.230  1.00  0.00     0.000 C 
BRANCH  20  21
ATOM     21  C   UNL     1     -16.018 -25.854  33.088  1.00  0.00     0.000 C 
BRANCH  21  22
ATOM     22  C   UNL     1     -15.417 -26.536  31.846  1.00  0.00    -0.000 C 
BRANCH  22  23
ATOM     23  C   UNL     1     -16.309 -27.661  31.293  1.00  0.00    -0.000 C 
BRANCH  23  24
ATOM     24  C   UNL     1     -17.299 -27.225  30.194  1.00  0.00    -0.000 C 
BRANCH  24  25
ATOM     25  C   UNL     1     -18.669 -27.927  30.232  1.00  0.00    -0.000 C 
BRANCH  25  26
ATOM     26  C   UNL     1     -19.799 -27.008  30.721  1.00  0.00    -0.000 C 
BRANCH  26  27
ATOM     27  C   UNL     1     -19.758 -26.854  32.249  1.00  0.00    -0.000 C 
BRANCH  27  28
ATOM     28  C   UNL     1     -19.871 -28.200  32.984  1.00  0.00    -0.000 C 
BRANCH  28  29
ATOM     29  C   UNL     1     -18.709 -28.437  33.961  1.00  0.00    -0.003 C 
ATOM     30  C   UNL     1     -18.762 -27.450  35.124  1.00  0.00     0.004 C 
ENDBRANCH  28  29
ENDBRANCH  27  28
ENDBRANCH  26  27
ENDBRANCH  25  26
ENDBRANCH  24  25
ENDBRANCH  23  24
ENDBRANCH  22  23
ENDBRANCH  21  22
ENDBRANCH  20  21
ENDBRANCH  19  20
ENDBRANCH  18  19
ENDBRANCH  17  18
ENDBRANCH   1  17
TORSDOF 26
ENDMDL
MODEL 7
REMARK VINA RESULT:    -4.781      6.627     10.440
REMARK INTER + INTRA:         -15.706
REMARK INTER:                 -11.911
REMARK INTRA:                  -3.795
REMARK UNBOUND:                -3.657
REMARK SMILES CCCCCCCCCCCCCCCCCCCCCCCCCCCC(=O)[O-]
REMARK SMILES IDX 15 1 16 2 17 3 18 4 19 5 20 6 21 7 22 8 23 9 24 10 25 11
REMARK SMILES IDX 26 12 27 13 28 14 29 15 30 16 14 17 13 18 12 19 11 20 10 21
REMARK SMILES IDX 9 22 8 23 7 24 6 25 5 26 4 27 3 28 2 29 1 30
REMARK H PARENT
REMARK Flexibility Score: inf
ROOT
ATOM      1  C   UNL     1      -9.846 -25.169  29.889  1.00  0.00     0.000 C 
ENDROOT
BRANCH   1   2
ATOM      2  C   UNL     1      -9.194 -25.430  28.517  1.00  0.00     0.000 C 
BRANCH   2   3
ATOM      3  C   UNL     1      -8.889 -26.914  28.268  1.00  0.00     0.000 C 
BRANCH   3   4
ATOM      4  C   UNL     1      -9.550 -27.398  26.968  1.00  0.00     0.000 C 
BRANCH   4   5
ATOM      5  C   UNL     1     -10.858 -28.168  27.216  1.00  0.00     0.000 C 
BRANCH   5   6
ATOM      6  C   UNL     1     -12.098 -27.390  26.737  1.00  0.00     0.000 C 
BRANCH   6   7
ATOM      7  C   UNL     1     -11.774 -25.935  26.360  1.00  0.00     0.000 C 
BRANCH   7   8
ATOM      8  C   UNL     1     -11.924 -25.662  24.856  1.00  0.00     0.000 C 
BRANCH   8   9
ATOM      9  C   UNL     1     -13.377 -25.301  24.509  1.00  0.00     0.000 C 
BRANCH   9  10
ATOM     10  C   UNL     1     -14.048 -26.340  23.595  1.00  0.00     0.000 C 
BRANCH  10  11
ATOM     11  C   UNL     1     -15.441 -26.754  24.098  1.00  0.00     0.000 C 
BRANCH  11  12
ATOM     12  C   UNL     1     -15.500 -26.886  25.628  1.00  0.00     0.006 C 
BRANCH  12  13
ATOM     13  C   UNL     1     -16.935 -27.016  26.157  1.00  0.00     0.053 C 
BRANCH  13  14
ATOM     14  C   UNL     1     -16.961 -27.849  27.400  1.00  0.00     0.041 C 
ATOM     15  O   UNL     1     -15.907 -28.035  28.061  1.00  0.00    -0.550 OA
ATOM     16  O   UNL     1     -18.162 -28.378  27.857  1.00  0.00    -0.550 OA
ENDBRANCH  13  14
ENDBRANCH  12  13
ENDBRANCH  11  12
ENDBRANCH  10  11
ENDBRANCH   9  10
ENDBRANCH   8   9
ENDBRANCH   7   8
ENDBRANCH   6   7
ENDBRANCH   5   6
ENDBRANCH   4   5
ENDBRANCH   3   4
ENDBRANCH   2   3
ENDBRANCH   1   2
BRANCH   1  17
ATOM     17  C   UNL     1     -10.493 -26.398  30.555  1.00  0.00     0.000 C 
BRANCH  17  18
ATOM     18  C   UNL     1      -9.814 -26.890  31.848  1.00  0.00     0.000 C 
BRANCH  18  19
ATOM     19  C   UNL     1      -8.654 -27.882  31.618  1.00  0.00     0.000 C 
BRANCH  19  20
ATOM     20  C   UNL     1      -7.298 -27.340  32.104  1.00  0.00     0.000 C 
BRANCH  20  21
ATOM     21  C   UNL     1      -6.576 -26.509  31.033  1.00  0.00     0.000 C 
BRANCH  21  22
ATOM     22  C   UNL     1      -6.206 -25.098  31.522  1.00  0.00    -0.000 C 
BRANCH  22  23
ATOM     23  C   UNL     1      -7.239 -24.519  32.505  1.00  0.00    -0.000 C 
BRANCH  23  24
ATOM     24  C   UNL     1      -6.675 -24.126  33.886  1.00  0.00    -0.000 C 
BRANCH  24  25
ATOM     25  C   UNL     1      -6.899 -25.163  35.003  1.00  0.00    -0.000 C 
BRANCH  25  26
ATOM     26  C   UNL     1      -5.595 -25.589  35.695  1.00  0.00    -0.000 C 
BRANCH  26  27
ATOM     27  C   UNL     1      -5.001 -26.837  35.024  1.00  0.00    -0.000 C 
BRANCH  27  28
ATOM     28  C   UNL     1      -3.823 -26.507  34.094  1.00  0.00    -0.000 C 
BRANCH  28  29
ATOM     29  C   UNL     1      -3.635 -27.553  32.984  1.00  0.00    -0.003 C 
ATOM     30  C   UNL     1      -2.709 -28.676  33.442  1.00  0.00     0.004 C 
ENDBRANCH  28  29
ENDBRANCH  27  28
ENDBRANCH  26  27
ENDBRANCH  25  26
ENDBRANCH  24  25
ENDBRANCH  23  24
ENDBRANCH  22  23
ENDBRANCH  21  22
ENDBRANCH  20  21
ENDBRANCH  19  20
ENDBRANCH  18  19
ENDBRANCH  17  18
ENDBRANCH   1  17
TORSDOF 26
ENDMDL
MODEL 8
REMARK VINA RESULT:    -4.781      9.211     13.545
REMARK INTER + INTRA:         -15.705
REMARK INTER:                 -12.430
REMARK INTRA:                  -3.275
REMARK UNBOUND:                -3.657
REMARK SMILES CCCCCCCCCCCCCCCCCCCCCCCCCCCC(=O)[O-]
REMARK SMILES IDX 15 1 16 2 17 3 18 4 19 5 20 6 21 7 22 8 23 9 24 10 25 11
REMARK SMILES IDX 26 12 27 13 28 14 29 15 30 16 14 17 13 18 12 19 11 20 10 21
REMARK SMILES IDX 9 22 8 23 7 24 6 25 5 26 4 27 3 28 2 29 1 30
REMARK H PARENT
REMARK Flexibility Score: inf
ROOT
ATOM      1  C   UNL     1     -11.096 -26.129  32.895  1.00  0.00     0.000 C 
ENDROOT
BRANCH   1   2
ATOM      2  C   UNL     1      -9.618 -26.065  32.464  1.00  0.00     0.000 C 
BRANCH   2   3
ATOM      3  C   UNL     1      -9.331 -24.932  31.468  1.00  0.00     0.000 C 
BRANCH   3   4
ATOM      4  C   UNL     1      -8.026 -24.206  31.827  1.00  0.00     0.000 C 
BRANCH   4   5
ATOM      5  C   UNL     1      -7.311 -24.830  33.038  1.00  0.00     0.000 C 
BRANCH   5   6
ATOM      6  C   UNL     1      -5.779 -24.821  32.884  1.00  0.00     0.000 C 
BRANCH   6   7
ATOM      7  C   UNL     1      -5.242 -26.109  32.238  1.00  0.00     0.000 C 
BRANCH   7   8
ATOM      8  C   UNL     1      -6.171 -27.313  32.454  1.00  0.00     0.000 C 
BRANCH   8   9
ATOM      9  C   UNL     1      -6.692 -27.848  31.110  1.00  0.00     0.000 C 
BRANCH   9  10
ATOM     10  C   UNL     1      -6.279 -26.968  29.918  1.00  0.00     0.000 C 
BRANCH  10  11
ATOM     11  C   UNL     1      -7.131 -27.234  28.666  1.00  0.00     0.000 C 
BRANCH  11  12
ATOM     12  C   UNL     1      -8.638 -27.245  28.971  1.00  0.00     0.006 C 
BRANCH  12  13
ATOM     13  C   UNL     1      -9.476 -26.624  27.845  1.00  0.00     0.053 C 
BRANCH  13  14
ATOM     14  C   UNL     1     -10.931 -26.886  28.070  1.00  0.00     0.041 C 
ATOM     15  O   UNL     1     -11.418 -26.808  29.228  1.00  0.00    -0.550 OA
ATOM     16  O   UNL     1     -11.761 -27.168  26.992  1.00  0.00    -0.550 OA
ENDBRANCH  13  14
ENDBRANCH  12  13
ENDBRANCH  11  12
ENDBRANCH  10  11
ENDBRANCH   9  10
ENDBRANCH   8   9
ENDBRANCH   7   8
ENDBRANCH   6   7
ENDBRANCH   5   6
ENDBRANCH   4   5
ENDBRANCH   3   4
ENDBRANCH   2   3
ENDBRANCH   1   2
BRANCH   1  17
ATOM     17  C   UNL     1     -11.365 -25.803  34.377  1.00  0.00     0.000 C 
BRANCH  17  18
ATOM     18  C   UNL     1     -12.846 -25.809  34.801  1.00  0.00     0.000 C 
BRANCH  18  19
ATOM     19  C   UNL     1     -13.844 -25.781  33.624  1.00  0.00     0.000 C 
BRANCH  19  20
ATOM     20  C   UNL     1     -15.276 -25.420  34.062  1.00  0.00     0.000 C 
BRANCH  20  21
ATOM     21  C   UNL     1     -16.268 -25.413  32.890  1.00  0.00     0.000 C 
BRANCH  21  22
ATOM     22  C   UNL     1     -16.353 -26.772  32.173  1.00  0.00    -0.000 C 
BRANCH  22  23
ATOM     23  C   UNL     1     -17.518 -27.640  32.677  1.00  0.00    -0.000 C 
BRANCH  23  24
ATOM     24  C   UNL     1     -18.296 -28.390  31.577  1.00  0.00    -0.000 C 
BRANCH  24  25
ATOM     25  C   UNL     1     -18.857 -27.500  30.452  1.00  0.00    -0.000 C 
BRANCH  25  26
ATOM     26  C   UNL     1     -19.218 -28.292  29.185  1.00  0.00    -0.000 C 
BRANCH  26  27
ATOM     27  C   UNL     1     -18.240 -27.974  28.044  1.00  0.00    -0.000 C 
BRANCH  27  28
ATOM     28  C   UNL     1     -17.013 -27.179  28.518  1.00  0.00    -0.000 C 
BRANCH  28  29
ATOM     29  C   UNL     1     -15.688 -27.863  28.150  1.00  0.00    -0.003 C 
ATOM     30  C   UNL     1     -14.865 -28.167  29.399  1.00  0.00     0.004 C 
ENDBRANCH  28  29
ENDBRANCH  27  28
ENDBRANCH  26  27
ENDBRANCH  25  26
ENDBRANCH  24  25
ENDBRANCH  23  24
ENDBRANCH  22  23
ENDBRANCH  21  22
ENDBRANCH  20  21
ENDBRANCH  19  20
ENDBRANCH  18  19
ENDBRANCH  17  18
ENDBRANCH   1  17
TORSDOF 26
ENDMDL
MODEL 9
REMARK VINA RESULT:    -4.756      8.703     13.399
REMARK INTER + INTRA:         -15.643
REMARK INTER:                 -12.051
REMARK INTRA:                  -3.592
REMARK UNBOUND:                -3.657
REMARK SMILES CCCCCCCCCCCCCCCCCCCCCCCCCCCC(=O)[O-]
REMARK SMILES IDX 15 1 16 2 17 3 18 4 19 5 20 6 21 7 22 8 23 9 24 10 25 11
REMARK SMILES IDX 26 12 27 13 28 14 29 15 30 16 14 17 13 18 12 19 11 20 10 21
REMARK SMILES IDX 9 22 8 23 7 24 6 25 5 26 4 27 3 28 2 29 1 30
REMARK H PARENT
REMARK Flexibility Score: inf
ROOT
ATOM      1  C   UNL     1     -12.803 -25.761  34.720  1.00  0.00     0.000 C 
ENDROOT
BRANCH   1   2
ATOM      2  C   UNL     1     -11.346 -26.036  34.300  1.00  0.00     0.000 C 
BRANCH   2   3
ATOM      3  C   UNL     1     -11.168 -26.138  32.778  1.00  0.00     0.000 C 
BRANCH   3   4
ATOM      4  C   UNL     1      -9.690 -25.983  32.389  1.00  0.00     0.000 C 
BRANCH   4   5
ATOM      5  C   UNL     1      -9.431 -24.742  31.518  1.00  0.00     0.000 C 
BRANCH   5   6
ATOM      6  C   UNL     1      -7.979 -24.240  31.625  1.00  0.00     0.000 C 
BRANCH   6   7
ATOM      7  C   UNL     1      -7.034 -25.291  32.230  1.00  0.00     0.000 C 
BRANCH   7   8
ATOM      8  C   UNL     1      -5.951 -25.752  31.244  1.00  0.00     0.000 C 
BRANCH   8   9
ATOM      9  C   UNL     1      -6.284 -27.141  30.676  1.00  0.00     0.000 C 
BRANCH   9  10
ATOM     10  C   UNL     1      -6.805 -27.085  29.230  1.00  0.00     0.000 C 
BRANCH  10  11
ATOM     11  C   UNL     1      -8.333 -27.242  29.147  1.00  0.00     0.000 C 
BRANCH  11  12
ATOM     12  C   UNL     1      -8.913 -26.683  27.837  1.00  0.00     0.006 C 
BRANCH  12  13
ATOM     13  C   UNL     1     -10.055 -25.685  28.073  1.00  0.00     0.053 C 
BRANCH  13  14
ATOM     14  C   UNL     1     -10.521 -25.108  26.773  1.00  0.00     0.041 C 
ATOM     15  O   UNL     1     -11.377 -25.715  26.080  1.00  0.00    -0.550 OA
ATOM     16  O   UNL     1     -10.044 -23.872  26.352  1.00  0.00    -0.550 OA
ENDBRANCH  13  14
ENDBRANCH  12  13
ENDBRANCH  11  12
ENDBRANCH  10  11
ENDBRANCH   9  10
ENDBRANCH   8   9
ENDBRANCH   7   8
ENDBRANCH   6   7
ENDBRANCH   5   6
ENDBRANCH   4   5
ENDBRANCH   3   4
ENDBRANCH   2   3
ENDBRANCH   1   2
BRANCH   1  17
ATOM     17  C   UNL     1     -13.833 -25.777  33.575  1.00  0.00     0.000 C 
BRANCH  17  18
ATOM     18  C   UNL     1     -15.281 -25.434  33.976  1.00  0.00     0.000 C 
BRANCH  18  19
ATOM     19  C   UNL     1     -15.633 -25.782  35.438  1.00  0.00     0.000 C 
BRANCH  19  20
ATOM     20  C   UNL     1     -17.093 -26.241  35.608  1.00  0.00     0.000 C 
BRANCH  20  21
ATOM     21  C   UNL     1     -17.803 -26.464  34.265  1.00  0.00     0.000 C 
BRANCH  21  22
ATOM     22  C   UNL     1     -18.862 -27.579  34.329  1.00  0.00    -0.000 C 
BRANCH  22  23
ATOM     23  C   UNL     1     -18.483 -28.810  33.487  1.00  0.00    -0.000 C 
BRANCH  23  24
ATOM     24  C   UNL     1     -18.186 -28.518  32.002  1.00  0.00    -0.000 C 
BRANCH  24  25
ATOM     25  C   UNL     1     -16.696 -28.548  31.615  1.00  0.00    -0.000 C 
BRANCH  25  26
ATOM     26  C   UNL     1     -16.247 -27.284  30.865  1.00  0.00    -0.000 C 
BRANCH  26  27
ATOM     27  C   UNL     1     -17.452 -26.401  30.508  1.00  0.00    -0.000 C 
BRANCH  27  28
ATOM     28  C   UNL     1     -17.300 -24.957  31.011  1.00  0.00    -0.000 C 
BRANCH  28  29
ATOM     29  C   UNL     1     -18.653 -24.276  31.269  1.00  0.00    -0.003 C 
ATOM     30  C   UNL     1     -19.786 -25.298  31.278  1.00  0.00     0.004 C 
ENDBRANCH  28  29
ENDBRANCH  27  28
ENDBRANCH  26  27
ENDBRANCH  25  26
ENDBRANCH  24  25
ENDBRANCH  23  24
ENDBRANCH  22  23
ENDBRANCH  21  22
ENDBRANCH  20  21
ENDBRANCH  19  20
ENDBRANCH  18  19
ENDBRANCH  17  18
ENDBRANCH   1  17
TORSDOF 26
ENDMDL
