MODEL 1
REMARK VINA RESULT:    -6.754      0.000      0.000
REMARK INTER + INTRA:          -8.058
REMARK INTER:                  -8.136
REMARK INTRA:                   0.077
REMARK UNBOUND:                 0.077
REMARK SMILES Oc1cc(O)c2cc(O)c(-c3ccc(O)c(O)c3)[o+]c2c1.[Cl-]
REMARK SMILES IDX 10 1 19 2 20 3 21 4 2 5 3 6 4 7 6 8 7 9 8 10 11 11 12 12
REMARK SMILES IDX 13 13 14 14 18 15 16 16 15 17 17 19 9 21 1 23 5 25
REMARK H PARENT 15 18 17 20 9 22 1 24 5 26
REMARK Flexibility Score: inf
ROOT
ATOM      1  C   UNL     1      20.763  49.588  45.797  1.00  0.00     0.402 A 
ATOM      2  O   UNL     1      21.227  48.347  45.691  1.00  0.00    -0.202 OA
ATOM      3  C   UNL     1      20.830  47.496  44.750  1.00  0.00     0.368 A 
ATOM      4  C   UNL     1      21.378  46.211  44.717  1.00  0.00     0.162 A 
ATOM      5  C   UNL     1      20.979  45.298  43.737  1.00  0.00     0.128 A 
ATOM      6  C   UNL     1      20.028  45.672  42.785  1.00  0.00     0.093 A 
ATOM      7  C   UNL     1      19.463  46.953  42.795  1.00  0.00     0.136 A 
ATOM      8  C   UNL     1      19.863  47.883  43.791  1.00  0.00     0.125 A 
ATOM      9  C   UNL     1      19.340  49.183  43.887  1.00  0.00     0.078 A 
ATOM     10  C   UNL     1      19.780  50.042  44.898  1.00  0.00     0.223 A 
ENDROOT
BRANCH   1  11
ATOM     11  C   UNL     1      21.293  50.444  46.882  1.00  0.00     0.087 A 
ATOM     12  C   UNL     1      22.678  50.488  47.112  1.00  0.00     0.022 A 
ATOM     13  C   UNL     1      23.203  51.304  48.118  1.00  0.00     0.051 A 
ATOM     14  C   UNL     1      22.356  52.098  48.898  1.00  0.00     0.157 A 
ATOM     15  C   UNL     1      20.446  51.260  47.654  1.00  0.00     0.068 A 
ATOM     16  C   UNL     1      20.972  52.081  48.663  1.00  0.00     0.158 A 
BRANCH  14  17
ATOM     17  O   UNL     1      22.909  52.900  49.896  1.00  0.00    -0.504 OA
ATOM     18  H   UNL     1      22.618  52.832  50.864  1.00  0.00     0.293 HD
ENDBRANCH  14  17
BRANCH  16  19
ATOM     19  O   UNL     1      20.124  52.881  49.427  1.00  0.00    -0.504 OA
ATOM     20  H   UNL     1      19.120  52.874  49.289  1.00  0.00     0.293 HD
ENDBRANCH  16  19
ENDBRANCH   1  11
BRANCH  10  21
ATOM     21  O   UNL     1      19.225  51.316  45.023  1.00  0.00    -0.500 OA
ATOM     22  H   UNL     1      19.343  52.022  44.306  1.00  0.00     0.294 HD
ENDBRANCH  10  21
BRANCH   5  23
ATOM     23  O   UNL     1      21.523  44.016  43.699  1.00  0.00    -0.507 OA
ATOM     24  H   UNL     1      21.160  43.269  44.280  1.00  0.00     0.293 HD
ENDBRANCH   5  23
BRANCH   7  25
ATOM     25  O   UNL     1      18.520  47.249  41.807  1.00  0.00    -0.507 OA
ATOM     26  H   UNL     1      18.368  48.169  41.421  1.00  0.00     0.293 HD
ENDBRANCH   7  25
TORSDOF 6
ENDMDL
MODEL 2
REMARK VINA RESULT:    -6.726      5.105     10.311
REMARK INTER + INTRA:          -8.025
REMARK INTER:                  -7.724
REMARK INTRA:                  -0.301
REMARK UNBOUND:                 0.077
REMARK SMILES Oc1cc(O)c2cc(O)c(-c3ccc(O)c(O)c3)[o+]c2c1.[Cl-]
REMARK SMILES IDX 10 1 19 2 20 3 21 4 2 5 3 6 4 7 6 8 7 9 8 10 11 11 12 12
REMARK SMILES IDX 13 13 14 14 18 15 16 16 15 17 17 19 9 21 1 23 5 25
REMARK H PARENT 15 18 17 20 9 22 1 24 5 26
REMARK Flexibility Score: inf
ROOT
ATOM      1  C   UNL     1      17.586  45.832  39.573  1.00  0.00     0.402 A 
ATOM      2  O   UNL     1      16.972  46.921  40.025  1.00  0.00    -0.202 OA
ATOM      3  C   UNL     1      17.103  47.370  41.270  1.00  0.00     0.368 A 
ATOM      4  C   UNL     1      16.419  48.527  41.652  1.00  0.00     0.162 A 
ATOM      5  C   UNL     1      16.541  49.021  42.954  1.00  0.00     0.128 A 
ATOM      6  C   UNL     1      17.350  48.355  43.877  1.00  0.00     0.093 A 
ATOM      7  C   UNL     1      18.045  47.194  43.520  1.00  0.00     0.136 A 
ATOM      8  C   UNL     1      17.923  46.686  42.200  1.00  0.00     0.125 A 
ATOM      9  C   UNL     1      18.571  45.521  41.757  1.00  0.00     0.078 A 
ATOM     10  C   UNL     1      18.399  45.080  40.442  1.00  0.00     0.223 A 
ENDROOT
BRANCH   1  11
ATOM     11  C   UNL     1      17.369  45.440  38.162  1.00  0.00     0.087 A 
ATOM     12  C   UNL     1      16.119  44.933  37.771  1.00  0.00     0.022 A 
ATOM     13  C   UNL     1      15.885  44.576  36.440  1.00  0.00     0.051 A 
ATOM     14  C   UNL     1      16.888  44.734  35.479  1.00  0.00     0.157 A 
ATOM     15  C   UNL     1      18.369  45.617  37.189  1.00  0.00     0.068 A 
ATOM     16  C   UNL     1      18.135  45.261  35.852  1.00  0.00     0.158 A 
BRANCH  14  17
ATOM     17  O   UNL     1      16.626  44.366  34.159  1.00  0.00    -0.504 OA
ATOM     18  H   UNL     1      16.453  45.052  33.434  1.00  0.00     0.293 HD
ENDBRANCH  14  17
BRANCH  16  19
ATOM     19  O   UNL     1      19.135  45.434  34.896  1.00  0.00    -0.504 OA
ATOM     20  H   UNL     1      19.732  46.252  34.895  1.00  0.00     0.293 HD
ENDBRANCH  16  19
ENDBRANCH   1  11
BRANCH  10  21
ATOM     21  O   UNL     1      19.003  43.897  40.017  1.00  0.00    -0.500 OA
ATOM     22  H   UNL     1      18.814  43.500  39.104  1.00  0.00     0.294 HD
ENDBRANCH  10  21
BRANCH   5  23
ATOM     23  O   UNL     1      15.863  50.175  43.341  1.00  0.00    -0.507 OA
ATOM     24  H   UNL     1      15.799  50.451  44.314  1.00  0.00     0.293 HD
ENDBRANCH   5  23
BRANCH   7  25
ATOM     25  O   UNL     1      18.835  46.589  44.502  1.00  0.00    -0.507 OA
ATOM     26  H   UNL     1      18.471  46.057  45.279  1.00  0.00     0.293 HD
ENDBRANCH   7  25
TORSDOF 6
ENDMDL
MODEL 3
REMARK VINA RESULT:    -6.681      2.352      4.014
REMARK INTER + INTRA:          -7.971
REMARK INTER:                  -7.635
REMARK INTRA:                  -0.335
REMARK UNBOUND:                 0.077
REMARK SMILES Oc1cc(O)c2cc(O)c(-c3ccc(O)c(O)c3)[o+]c2c1.[Cl-]
REMARK SMILES IDX 10 1 19 2 20 3 21 4 2 5 3 6 4 7 6 8 7 9 8 10 11 11 12 12
REMARK SMILES IDX 13 13 14 14 18 15 16 16 15 17 17 19 9 21 1 23 5 25
REMARK H PARENT 15 18 17 20 9 22 1 24 5 26
REMARK Flexibility Score: inf
ROOT
ATOM      1  C   UNL     1      19.670  47.511  44.437  1.00  0.00     0.402 A 
ATOM      2  O   UNL     1      18.544  47.846  43.814  1.00  0.00    -0.202 OA
ATOM      3  C   UNL     1      18.110  47.240  42.713  1.00  0.00     0.368 A 
ATOM      4  C   UNL     1      16.912  47.661  42.131  1.00  0.00     0.162 A 
ATOM      5  C   UNL     1      16.433  47.039  40.974  1.00  0.00     0.128 A 
ATOM      6  C   UNL     1      17.154  45.991  40.398  1.00  0.00     0.093 A 
ATOM      7  C   UNL     1      18.358  45.550  40.962  1.00  0.00     0.136 A 
ATOM      8  C   UNL     1      18.850  46.181  42.134  1.00  0.00     0.125 A 
ATOM      9  C   UNL     1      20.054  45.815  42.760  1.00  0.00     0.078 A 
ATOM     10  C   UNL     1      20.477  46.485  43.911  1.00  0.00     0.223 A 
ENDROOT
BRANCH   1  11
ATOM     11  C   UNL     1      20.040  48.255  45.662  1.00  0.00     0.087 A 
ATOM     12  C   UNL     1      20.903  49.359  45.565  1.00  0.00     0.022 A 
ATOM     13  C   UNL     1      21.251  50.088  46.706  1.00  0.00     0.051 A 
ATOM     14  C   UNL     1      20.731  49.737  47.955  1.00  0.00     0.157 A 
ATOM     15  C   UNL     1      19.502  47.917  46.917  1.00  0.00     0.068 A 
ATOM     16  C   UNL     1      19.849  48.650  48.063  1.00  0.00     0.158 A 
BRANCH  14  17
ATOM     17  O   UNL     1      21.097  50.482  49.075  1.00  0.00    -0.504 OA
ATOM     18  H   UNL     1      20.443  51.086  49.557  1.00  0.00     0.293 HD
ENDBRANCH  14  17
BRANCH  16  19
ATOM     19  O   UNL     1      19.315  48.303  49.303  1.00  0.00    -0.504 OA
ATOM     20  H   UNL     1      19.270  48.968  50.066  1.00  0.00     0.293 HD
ENDBRANCH  16  19
ENDBRANCH   1  11
BRANCH  10  21
ATOM     21  O   UNL     1      21.696  46.155  44.505  1.00  0.00    -0.500 OA
ATOM     22  H   UNL     1      21.843  46.240  45.503  1.00  0.00     0.294 HD
ENDBRANCH  10  21
BRANCH   5  23
ATOM     23  O   UNL     1      15.238  47.454  40.389  1.00  0.00    -0.507 OA
ATOM     24  H   UNL     1      14.449  47.753  40.950  1.00  0.00     0.293 HD
ENDBRANCH   5  23
BRANCH   7  25
ATOM     25  O   UNL     1      19.018  44.495  40.326  1.00  0.00    -0.507 OA
ATOM     26  H   UNL     1      18.795  43.520  40.460  1.00  0.00     0.293 HD
ENDBRANCH   7  25
TORSDOF 6
ENDMDL
MODEL 4
REMARK VINA RESULT:    -6.602      2.271      3.858
REMARK INTER + INTRA:          -7.875
REMARK INTER:                  -7.624
REMARK INTRA:                  -0.251
REMARK UNBOUND:                 0.077
REMARK SMILES Oc1cc(O)c2cc(O)c(-c3ccc(O)c(O)c3)[o+]c2c1.[Cl-]
REMARK SMILES IDX 10 1 19 2 20 3 21 4 2 5 3 6 4 7 6 8 7 9 8 10 11 11 12 12
REMARK SMILES IDX 13 13 14 14 18 15 16 16 15 17 17 19 9 21 1 23 5 25
REMARK H PARENT 15 18 17 20 9 22 1 24 5 26
REMARK Flexibility Score: inf
ROOT
ATOM      1  C   UNL     1      20.127  48.283  44.301  1.00  0.00     0.402 A 
ATOM      2  O   UNL     1      19.093  48.938  43.782  1.00  0.00    -0.202 OA
ATOM      3  C   UNL     1      18.170  48.359  43.020  1.00  0.00     0.368 A 
ATOM      4  C   UNL     1      17.116  49.131  42.522  1.00  0.00     0.162 A 
ATOM      5  C   UNL     1      16.132  48.547  41.720  1.00  0.00     0.128 A 
ATOM      6  C   UNL     1      16.200  47.186  41.415  1.00  0.00     0.093 A 
ATOM      7  C   UNL     1      17.245  46.391  41.902  1.00  0.00     0.136 A 
ATOM      8  C   UNL     1      18.249  46.979  42.713  1.00  0.00     0.125 A 
ATOM      9  C   UNL     1      19.341  46.263  43.233  1.00  0.00     0.078 A 
ATOM     10  C   UNL     1      20.293  46.913  44.023  1.00  0.00     0.223 A 
ENDROOT
BRANCH   1  11
ATOM     11  C   UNL     1      21.082  49.037  45.143  1.00  0.00     0.087 A 
ATOM     12  C   UNL     1      22.356  49.344  44.637  1.00  0.00     0.022 A 
ATOM     13  C   UNL     1      23.267  50.073  45.407  1.00  0.00     0.051 A 
ATOM     14  C   UNL     1      22.916  50.517  46.685  1.00  0.00     0.157 A 
ATOM     15  C   UNL     1      20.725  49.504  46.421  1.00  0.00     0.068 A 
ATOM     16  C   UNL     1      21.637  50.236  47.195  1.00  0.00     0.158 A 
BRANCH  14  17
ATOM     17  O   UNL     1      23.847  51.240  47.431  1.00  0.00    -0.504 OA
ATOM     18  H   UNL     1      23.752  51.369  48.431  1.00  0.00     0.293 HD
ENDBRANCH  14  17
BRANCH  16  19
ATOM     19  O   UNL     1      21.276  50.689  48.463  1.00  0.00    -0.504 OA
ATOM     20  H   UNL     1      21.219  50.060  49.255  1.00  0.00     0.293 HD
ENDBRANCH  16  19
ENDBRANCH   1  11
BRANCH  10  21
ATOM     21  O   UNL     1      21.403  46.214  44.498  1.00  0.00    -0.500 OA
ATOM     22  H   UNL     1      21.711  46.292  45.460  1.00  0.00     0.294 HD
ENDBRANCH  10  21
BRANCH   5  23
ATOM     23  O   UNL     1      15.078  49.310  41.221  1.00  0.00    -0.507 OA
ATOM     24  H   UNL     1      15.027  49.568  40.243  1.00  0.00     0.293 HD
ENDBRANCH   5  23
BRANCH   7  25
ATOM     25  O   UNL     1      17.240  45.037  41.553  1.00  0.00    -0.507 OA
ATOM     26  H   UNL     1      17.136  44.279  42.211  1.00  0.00     0.293 HD
ENDBRANCH   7  25
TORSDOF 6
ENDMDL
MODEL 5
REMARK VINA RESULT:    -6.488      2.537      3.535
REMARK INTER + INTRA:          -7.738
REMARK INTER:                  -7.489
REMARK INTRA:                  -0.249
REMARK UNBOUND:                 0.077
REMARK SMILES Oc1cc(O)c2cc(O)c(-c3ccc(O)c(O)c3)[o+]c2c1.[Cl-]
REMARK SMILES IDX 10 1 19 2 20 3 21 4 2 5 3 6 4 7 6 8 7 9 8 10 11 11 12 12
REMARK SMILES IDX 13 13 14 14 18 15 16 16 15 17 17 19 9 21 1 23 5 25
REMARK H PARENT 15 18 17 20 9 22 1 24 5 26
REMARK Flexibility Score: inf
ROOT
ATOM      1  C   UNL     1      19.123  49.491  43.961  1.00  0.00     0.402 A 
ATOM      2  O   UNL     1      18.911  48.264  43.495  1.00  0.00    -0.202 OA
ATOM      3  C   UNL     1      17.877  47.944  42.722  1.00  0.00     0.368 A 
ATOM      4  C   UNL     1      17.741  46.626  42.279  1.00  0.00     0.162 A 
ATOM      5  C   UNL     1      16.665  46.264  41.464  1.00  0.00     0.128 A 
ATOM      6  C   UNL     1      15.721  47.224  41.091  1.00  0.00     0.093 A 
ATOM      7  C   UNL     1      15.835  48.551  41.522  1.00  0.00     0.136 A 
ATOM      8  C   UNL     1      16.924  48.923  42.352  1.00  0.00     0.125 A 
ATOM      9  C   UNL     1      17.111  50.226  42.843  1.00  0.00     0.078 A 
ATOM     10  C   UNL     1      18.207  50.517  43.660  1.00  0.00     0.223 A 
ENDROOT
BRANCH   1  11
ATOM     11  C   UNL     1      20.317  49.724  44.803  1.00  0.00     0.087 A 
ATOM     12  C   UNL     1      21.588  49.757  44.205  1.00  0.00     0.022 A 
ATOM     13  C   UNL     1      22.728  49.996  44.977  1.00  0.00     0.051 A 
ATOM     14  C   UNL     1      22.616  50.219  46.353  1.00  0.00     0.157 A 
ATOM     15  C   UNL     1      20.206  49.970  46.184  1.00  0.00     0.068 A 
ATOM     16  C   UNL     1      21.350  50.211  46.960  1.00  0.00     0.158 A 
BRANCH  14  17
ATOM     17  O   UNL     1      23.772  50.452  47.098  1.00  0.00    -0.504 OA
ATOM     18  H   UNL     1      24.698  50.348  46.701  1.00  0.00     0.293 HD
ENDBRANCH  14  17
BRANCH  16  19
ATOM     19  O   UNL     1      21.230  50.447  48.329  1.00  0.00    -0.504 OA
ATOM     20  H   UNL     1      20.343  50.701  48.748  1.00  0.00     0.293 HD
ENDBRANCH  16  19
ENDBRANCH   1  11
BRANCH  10  21
ATOM     21  O   UNL     1      18.366  51.799  44.188  1.00  0.00    -0.500 OA
ATOM     22  H   UNL     1      18.417  51.961  45.187  1.00  0.00     0.294 HD
ENDBRANCH  10  21
BRANCH   5  23
ATOM     23  O   UNL     1      16.523  44.952  41.017  1.00  0.00    -0.507 OA
ATOM     24  H   UNL     1      17.327  44.352  40.872  1.00  0.00     0.293 HD
ENDBRANCH   5  23
BRANCH   7  25
ATOM     25  O   UNL     1      14.850  49.451  41.103  1.00  0.00    -0.507 OA
ATOM     26  H   UNL     1      15.040  50.342  40.669  1.00  0.00     0.293 HD
ENDBRANCH   7  25
TORSDOF 6
ENDMDL
MODEL 6
REMARK VINA RESULT:    -6.467      1.337      7.010
REMARK INTER + INTRA:          -7.713
REMARK INTER:                  -7.590
REMARK INTRA:                  -0.123
REMARK UNBOUND:                 0.077
REMARK SMILES Oc1cc(O)c2cc(O)c(-c3ccc(O)c(O)c3)[o+]c2c1.[Cl-]
REMARK SMILES IDX 10 1 19 2 20 3 21 4 2 5 3 6 4 7 6 8 7 9 8 10 11 11 12 12
REMARK SMILES IDX 13 13 14 14 18 15 16 16 15 17 17 19 9 21 1 23 5 25
REMARK H PARENT 15 18 17 20 9 22 1 24 5 26
REMARK Flexibility Score: inf
ROOT
ATOM      1  C   UNL     1      20.300  48.701  45.958  1.00  0.00     0.402 A 
ATOM      2  O   UNL     1      21.500  49.254  46.106  1.00  0.00    -0.202 OA
ATOM      3  C   UNL     1      21.780  50.151  47.046  1.00  0.00     0.368 A 
ATOM      4  C   UNL     1      23.074  50.673  47.125  1.00  0.00     0.162 A 
ATOM      5  C   UNL     1      23.395  51.617  48.105  1.00  0.00     0.128 A 
ATOM      6  C   UNL     1      22.419  52.040  49.010  1.00  0.00     0.093 A 
ATOM      7  C   UNL     1      21.115  51.532  48.952  1.00  0.00     0.136 A 
ATOM      8  C   UNL     1      20.783  50.576  47.957  1.00  0.00     0.125 A 
ATOM      9  C   UNL     1      19.499  50.024  47.815  1.00  0.00     0.078 A 
ATOM     10  C   UNL     1      19.246  49.089  46.807  1.00  0.00     0.223 A 
ENDROOT
BRANCH   1  11
ATOM     11  C   UNL     1      20.116  47.704  44.879  1.00  0.00     0.087 A 
ATOM     12  C   UNL     1      19.186  47.957  43.857  1.00  0.00     0.022 A 
ATOM     13  C   UNL     1      19.011  47.040  42.817  1.00  0.00     0.051 A 
ATOM     14  C   UNL     1      19.768  45.865  42.775  1.00  0.00     0.157 A 
ATOM     15  C   UNL     1      20.891  46.532  44.823  1.00  0.00     0.068 A 
ATOM     16  C   UNL     1      20.717  45.611  43.779  1.00  0.00     0.158 A 
BRANCH  14  17
ATOM     17  O   UNL     1      19.569  44.967  41.727  1.00  0.00    -0.504 OA
ATOM     18  H   UNL     1      19.631  43.965  41.858  1.00  0.00     0.293 HD
ENDBRANCH  14  17
BRANCH  16  19
ATOM     19  O   UNL     1      21.486  44.449  43.735  1.00  0.00    -0.504 OA
ATOM     20  H   UNL     1      21.120  43.558  44.050  1.00  0.00     0.293 HD
ENDBRANCH  16  19
ENDBRANCH   1  11
BRANCH  10  21
ATOM     21  O   UNL     1      17.960  48.578  46.634  1.00  0.00    -0.500 OA
ATOM     22  H   UNL     1      17.277  49.039  46.045  1.00  0.00     0.294 HD
ENDBRANCH  10  21
BRANCH   5  23
ATOM     23  O   UNL     1      24.684  52.141  48.190  1.00  0.00    -0.507 OA
ATOM     24  H   UNL     1      25.019  52.589  49.034  1.00  0.00     0.293 HD
ENDBRANCH   5  23
BRANCH   7  25
ATOM     25  O   UNL     1      20.198  52.005  49.895  1.00  0.00    -0.507 OA
ATOM     26  H   UNL     1      20.080  51.617  50.819  1.00  0.00     0.293 HD
ENDBRANCH   7  25
TORSDOF 6
ENDMDL
MODEL 7
REMARK VINA RESULT:    -6.449      3.924      5.763
REMARK INTER + INTRA:          -7.692
REMARK INTER:                  -7.399
REMARK INTRA:                  -0.292
REMARK UNBOUND:                 0.077
REMARK SMILES Oc1cc(O)c2cc(O)c(-c3ccc(O)c(O)c3)[o+]c2c1.[Cl-]
REMARK SMILES IDX 10 1 19 2 20 3 21 4 2 5 3 6 4 7 6 8 7 9 8 10 11 11 12 12
REMARK SMILES IDX 13 13 14 14 18 15 16 16 15 17 17 19 9 21 1 23 5 25
REMARK H PARENT 15 18 17 20 9 22 1 24 5 26
REMARK Flexibility Score: inf
ROOT
ATOM      1  C   UNL     1      18.280  48.143  45.236  1.00  0.00     0.402 A 
ATOM      2  O   UNL     1      17.297  48.734  44.563  1.00  0.00    -0.202 OA
ATOM      3  C   UNL     1      16.022  48.370  44.660  1.00  0.00     0.368 A 
ATOM      4  C   UNL     1      15.060  49.055  43.913  1.00  0.00     0.162 A 
ATOM      5  C   UNL     1      13.713  48.693  43.998  1.00  0.00     0.128 A 
ATOM      6  C   UNL     1      13.326  47.642  44.833  1.00  0.00     0.093 A 
ATOM      7  C   UNL     1      14.271  46.940  45.592  1.00  0.00     0.136 A 
ATOM      8  C   UNL     1      15.641  47.301  45.506  1.00  0.00     0.125 A 
ATOM      9  C   UNL     1      16.659  46.645  46.219  1.00  0.00     0.078 A 
ATOM     10  C   UNL     1      17.987  47.055  46.080  1.00  0.00     0.223 A 
ENDROOT
BRANCH   1  11
ATOM     11  C   UNL     1      19.658  48.648  45.052  1.00  0.00     0.087 A 
ATOM     12  C   UNL     1      20.259  49.404  46.073  1.00  0.00     0.022 A 
ATOM     13  C   UNL     1      21.567  49.874  45.929  1.00  0.00     0.051 A 
ATOM     14  C   UNL     1      22.299  49.586  44.774  1.00  0.00     0.157 A 
ATOM     15  C   UNL     1      20.405  48.342  43.900  1.00  0.00     0.068 A 
ATOM     16  C   UNL     1      21.719  48.812  43.755  1.00  0.00     0.158 A 
BRANCH  14  17
ATOM     17  O   UNL     1      23.602  50.071  44.658  1.00  0.00    -0.504 OA
ATOM     18  H   UNL     1      23.979  50.757  45.300  1.00  0.00     0.293 HD
ENDBRANCH  14  17
BRANCH  16  19
ATOM     19  O   UNL     1      22.449  48.509  42.607  1.00  0.00    -0.504 OA
ATOM     20  H   UNL     1      23.423  48.236  42.654  1.00  0.00     0.293 HD
ENDBRANCH  16  19
ENDBRANCH   1  11
BRANCH  10  21
ATOM     21  O   UNL     1      19.003  46.372  46.749  1.00  0.00    -0.500 OA
ATOM     22  H   UNL     1      19.190  46.525  47.733  1.00  0.00     0.294 HD
ENDBRANCH  10  21
BRANCH   5  23
ATOM     23  O   UNL     1      12.748  49.372  43.257  1.00  0.00    -0.507 OA
ATOM     24  H   UNL     1      12.863  50.346  43.003  1.00  0.00     0.293 HD
ENDBRANCH   5  23
BRANCH   7  25
ATOM     25  O   UNL     1      13.802  45.903  46.404  1.00  0.00    -0.507 OA
ATOM     26  H   UNL     1      14.296  45.541  47.207  1.00  0.00     0.293 HD
ENDBRANCH   7  25
TORSDOF 6
ENDMDL
MODEL 8
REMARK VINA RESULT:    -6.414      1.925      3.069
REMARK INTER + INTRA:          -7.649
REMARK INTER:                  -7.466
REMARK INTRA:                  -0.183
REMARK UNBOUND:                 0.077
REMARK SMILES Oc1cc(O)c2cc(O)c(-c3ccc(O)c(O)c3)[o+]c2c1.[Cl-]
REMARK SMILES IDX 10 1 19 2 20 3 21 4 2 5 3 6 4 7 6 8 7 9 8 10 11 11 12 12
REMARK SMILES IDX 13 13 14 14 18 15 16 16 15 17 17 19 9 21 1 23 5 25
REMARK H PARENT 15 18 17 20 9 22 1 24 5 26
REMARK Flexibility Score: inf
ROOT
ATOM      1  C   UNL     1      21.111  50.112  47.502  1.00  0.00     0.402 A 
ATOM      2  O   UNL     1      21.272  49.763  46.229  1.00  0.00    -0.202 OA
ATOM      3  C   UNL     1      20.633  48.743  45.665  1.00  0.00     0.368 A 
ATOM      4  C   UNL     1      20.866  48.455  44.317  1.00  0.00     0.162 A 
ATOM      5  C   UNL     1      20.206  47.389  43.700  1.00  0.00     0.128 A 
ATOM      6  C   UNL     1      19.308  46.608  44.432  1.00  0.00     0.093 A 
ATOM      7  C   UNL     1      19.058  46.876  45.783  1.00  0.00     0.136 A 
ATOM      8  C   UNL     1      19.728  47.955  46.416  1.00  0.00     0.125 A 
ATOM      9  C   UNL     1      19.549  48.288  47.769  1.00  0.00     0.078 A 
ATOM     10  C   UNL     1      20.248  49.364  48.324  1.00  0.00     0.223 A 
ENDROOT
BRANCH   1  11
ATOM     11  C   UNL     1      21.871  51.276  48.011  1.00  0.00     0.087 A 
ATOM     12  C   UNL     1      21.176  52.401  48.485  1.00  0.00     0.022 A 
ATOM     13  C   UNL     1      21.872  53.503  48.989  1.00  0.00     0.051 A 
ATOM     14  C   UNL     1      23.269  53.493  49.040  1.00  0.00     0.157 A 
ATOM     15  C   UNL     1      23.276  51.261  48.084  1.00  0.00     0.068 A 
ATOM     16  C   UNL     1      23.976  52.366  48.591  1.00  0.00     0.158 A 
BRANCH  14  17
ATOM     17  O   UNL     1      23.937  54.608  49.546  1.00  0.00    -0.504 OA
ATOM     18  H   UNL     1      24.937  54.611  49.704  1.00  0.00     0.293 HD
ENDBRANCH  14  17
BRANCH  16  19
ATOM     19  O   UNL     1      25.369  52.344  48.653  1.00  0.00    -0.504 OA
ATOM     20  H   UNL     1      25.861  52.362  49.538  1.00  0.00     0.293 HD
ENDBRANCH  16  19
ENDBRANCH   1  11
BRANCH  10  21
ATOM     21  O   UNL     1      20.108  49.664  49.680  1.00  0.00    -0.500 OA
ATOM     22  H   UNL     1      19.292  49.377  50.208  1.00  0.00     0.294 HD
ENDBRANCH  10  21
BRANCH   5  23
ATOM     23  O   UNL     1      20.433  47.097  42.356  1.00  0.00    -0.507 OA
ATOM     24  H   UNL     1      20.515  47.830  41.661  1.00  0.00     0.293 HD
ENDBRANCH   5  23
BRANCH   7  25
ATOM     25  O   UNL     1      18.145  46.049  46.444  1.00  0.00    -0.507 OA
ATOM     26  H   UNL     1      17.463  46.374  47.115  1.00  0.00     0.293 HD
ENDBRANCH   7  25
TORSDOF 6
ENDMDL
MODEL 9
REMARK VINA RESULT:    -6.384      2.919      7.817
REMARK INTER + INTRA:          -7.612
REMARK INTER:                  -7.301
REMARK INTRA:                  -0.312
REMARK UNBOUND:                 0.077
REMARK SMILES Oc1cc(O)c2cc(O)c(-c3ccc(O)c(O)c3)[o+]c2c1.[Cl-]
REMARK SMILES IDX 10 1 19 2 20 3 21 4 2 5 3 6 4 7 6 8 7 9 8 10 11 11 12 12
REMARK SMILES IDX 13 13 14 14 18 15 16 16 15 17 17 19 9 21 1 23 5 25
REMARK H PARENT 15 18 17 20 9 22 1 24 5 26
REMARK Flexibility Score: inf
ROOT
ATOM      1  C   UNL     1      17.981  47.719  43.194  1.00  0.00     0.402 A 
ATOM      2  O   UNL     1      18.384  47.360  44.409  1.00  0.00    -0.202 OA
ATOM      3  C   UNL     1      18.780  48.229  45.334  1.00  0.00     0.368 A 
ATOM      4  C   UNL     1      19.184  47.754  46.585  1.00  0.00     0.162 A 
ATOM      5  C   UNL     1      19.603  48.646  47.576  1.00  0.00     0.128 A 
ATOM      6  C   UNL     1      19.618  50.018  47.316  1.00  0.00     0.093 A 
ATOM      7  C   UNL     1      19.218  50.519  46.070  1.00  0.00     0.136 A 
ATOM      8  C   UNL     1      18.795  49.617  45.059  1.00  0.00     0.125 A 
ATOM      9  C   UNL     1      18.391  50.028  43.778  1.00  0.00     0.078 A 
ATOM     10  C   UNL     1      17.990  49.080  42.832  1.00  0.00     0.223 A 
ENDROOT
BRANCH   1  11
ATOM     11  C   UNL     1      17.553  46.658  42.255  1.00  0.00     0.087 A 
ATOM     12  C   UNL     1      16.182  46.457  42.020  1.00  0.00     0.022 A 
ATOM     13  C   UNL     1      15.755  45.474  41.122  1.00  0.00     0.051 A 
ATOM     14  C   UNL     1      16.687  44.690  40.437  1.00  0.00     0.157 A 
ATOM     15  C   UNL     1      18.488  45.882  41.548  1.00  0.00     0.068 A 
ATOM     16  C   UNL     1      18.061  44.896  40.646  1.00  0.00     0.158 A 
BRANCH  14  17
ATOM     17  O   UNL     1      16.231  43.716  39.549  1.00  0.00    -0.504 OA
ATOM     18  H   UNL     1      16.866  43.140  39.009  1.00  0.00     0.293 HD
ENDBRANCH  14  17
BRANCH  16  19
ATOM     19  O   UNL     1      18.996  44.127  39.954  1.00  0.00    -0.504 OA
ATOM     20  H   UNL     1      18.724  43.298  39.440  1.00  0.00     0.293 HD
ENDBRANCH  16  19
ENDBRANCH   1  11
BRANCH  10  21
ATOM     21  O   UNL     1      17.636  49.483  41.545  1.00  0.00    -0.500 OA
ATOM     22  H   UNL     1      18.126  49.142  40.726  1.00  0.00     0.294 HD
ENDBRANCH  10  21
BRANCH   5  23
ATOM     23  O   UNL     1      20.006  48.180  48.826  1.00  0.00    -0.507 OA
ATOM     24  H   UNL     1      20.737  47.485  48.922  1.00  0.00     0.293 HD
ENDBRANCH   5  23
BRANCH   7  25
ATOM     25  O   UNL     1      19.260  51.905  45.891  1.00  0.00    -0.507 OA
ATOM     26  H   UNL     1      19.857  52.376  45.226  1.00  0.00     0.293 HD
ENDBRANCH   7  25
TORSDOF 6
ENDMDL
