MODEL 1
REMARK VINA RESULT:    -8.764      0.000      0.000
REMARK INTER + INTRA:         -11.182
REMARK INTER:                 -10.813
REMARK INTRA:                  -0.368
REMARK UNBOUND:                -0.368
REMARK SMILES Oc1cc(O)c2cc(O)c(-c3cc(O)c(O)c(O)c3)[o+]c2c1.[Cl-]
REMARK SMILES IDX 10 1 20 2 21 3 22 4 2 5 3 6 4 7 6 8 7 9 8 10 11 11 12 12
REMARK SMILES IDX 13 13 19 14 15 15 17 16 14 17 16 19 18 21 9 23 1 25 5 27
REMARK H PARENT 14 18 16 20 18 22 9 24 1 26 5 28
REMARK Flexibility Score: inf
ROOT
ATOM      1  C   UNL     1      44.730 -13.335 -35.962  1.00  0.00     0.402 A 
ATOM      2  O   UNL     1      43.898 -14.374 -35.979  1.00  0.00    -0.202 OA
ATOM      3  C   UNL     1      43.877 -15.308 -35.035  1.00  0.00     0.368 A 
ATOM      4  C   UNL     1      42.968 -16.363 -35.142  1.00  0.00     0.162 A 
ATOM      5  C   UNL     1      42.927 -17.361 -34.167  1.00  0.00     0.128 A 
ATOM      6  C   UNL     1      43.800 -17.305 -33.077  1.00  0.00     0.093 A 
ATOM      7  C   UNL     1      44.721 -16.258 -32.945  1.00  0.00     0.136 A 
ATOM      8  C   UNL     1      44.765 -15.240 -33.933  1.00  0.00     0.125 A 
ATOM      9  C   UNL     1      45.645 -14.147 -33.878  1.00  0.00     0.078 A 
ATOM     10  C   UNL     1      45.626 -13.180 -34.888  1.00  0.00     0.223 A 
ENDROOT
BRANCH   1  11
ATOM     11  C   UNL     1      44.662 -12.365 -37.078  1.00  0.00     0.091 A 
ATOM     12  C   UNL     1      43.908 -11.185 -36.976  1.00  0.00     0.068 A 
ATOM     13  C   UNL     1      43.869 -10.262 -38.028  1.00  0.00     0.162 A 
ATOM     14  C   UNL     1      45.411 -12.594 -38.239  1.00  0.00     0.068 A 
ATOM     15  C   UNL     1      44.607 -10.515 -39.209  1.00  0.00     0.200 A 
ATOM     16  C   UNL     1      45.381 -11.686 -39.300  1.00  0.00     0.162 A 
BRANCH  13  17
ATOM     17  O   UNL     1      43.095  -9.112 -37.853  1.00  0.00    -0.504 OA
ATOM     18  H   UNL     1      43.475  -8.199 -37.649  1.00  0.00     0.293 HD
ENDBRANCH  13  17
BRANCH  15  19
ATOM     19  O   UNL     1      44.597  -9.637 -40.297  1.00  0.00    -0.502 OA
ATOM     20  H   UNL     1      45.330  -8.972 -40.495  1.00  0.00     0.293 HD
ENDBRANCH  15  19
BRANCH  16  21
ATOM     21  O   UNL     1      46.131 -11.967 -40.443  1.00  0.00    -0.504 OA
ATOM     22  H   UNL     1      46.121 -11.365 -41.258  1.00  0.00     0.293 HD
ENDBRANCH  16  21
ENDBRANCH   1  11
BRANCH  10  23
ATOM     23  O   UNL     1      46.465 -12.068 -34.808  1.00  0.00    -0.500 OA
ATOM     24  H   UNL     1      46.099 -11.135 -34.662  1.00  0.00     0.294 HD
ENDBRANCH  10  23
BRANCH   5  25
ATOM     25  O   UNL     1      42.012 -18.405 -34.292  1.00  0.00    -0.507 OA
ATOM     26  H   UNL     1      42.302 -19.373 -34.228  1.00  0.00     0.293 HD
ENDBRANCH   5  25
BRANCH   7  27
ATOM     27  O   UNL     1      45.562 -16.276 -31.829  1.00  0.00    -0.507 OA
ATOM     28  H   UNL     1      46.570 -16.279 -31.873  1.00  0.00     0.293 HD
ENDBRANCH   7  27
TORSDOF 7
ENDMDL
MODEL 2
REMARK VINA RESULT:    -8.511      3.571      8.439
REMARK INTER + INTRA:         -10.869
REMARK INTER:                 -10.490
REMARK INTRA:                  -0.379
REMARK UNBOUND:                -0.368
REMARK SMILES Oc1cc(O)c2cc(O)c(-c3cc(O)c(O)c(O)c3)[o+]c2c1.[Cl-]
REMARK SMILES IDX 10 1 20 2 21 3 22 4 2 5 3 6 4 7 6 8 7 9 8 10 11 11 12 12
REMARK SMILES IDX 13 13 19 14 15 15 17 16 14 17 16 19 18 21 9 23 1 25 5 27
REMARK H PARENT 14 18 16 20 18 22 9 24 1 26 5 28
REMARK Flexibility Score: inf
ROOT
ATOM      1  C   UNL     1      42.146 -10.519 -39.259  1.00  0.00     0.402 A 
ATOM      2  O   UNL     1      42.409 -11.225 -40.356  1.00  0.00    -0.202 OA
ATOM      3  C   UNL     1      42.136 -10.797 -41.583  1.00  0.00     0.368 A 
ATOM      4  C   UNL     1      42.447 -11.612 -42.673  1.00  0.00     0.162 A 
ATOM      5  C   UNL     1      42.167 -11.189 -43.973  1.00  0.00     0.128 A 
ATOM      6  C   UNL     1      41.572  -9.942 -44.187  1.00  0.00     0.093 A 
ATOM      7  C   UNL     1      41.250  -9.105 -43.111  1.00  0.00     0.136 A 
ATOM      8  C   UNL     1      41.535  -9.530 -41.787  1.00  0.00     0.125 A 
ATOM      9  C   UNL     1      41.259  -8.753 -40.650  1.00  0.00     0.078 A 
ATOM     10  C   UNL     1      41.574  -9.239 -39.377  1.00  0.00     0.223 A 
ENDROOT
BRANCH   1  11
ATOM     11  C   UNL     1      42.490 -11.110 -37.946  1.00  0.00     0.091 A 
ATOM     12  C   UNL     1      43.757 -10.923 -37.369  1.00  0.00     0.068 A 
ATOM     13  C   UNL     1      44.065 -11.466 -36.116  1.00  0.00     0.162 A 
ATOM     14  C   UNL     1      41.517 -11.821 -37.232  1.00  0.00     0.068 A 
ATOM     15  C   UNL     1      43.084 -12.208 -35.414  1.00  0.00     0.200 A 
ATOM     16  C   UNL     1      41.808 -12.374 -35.983  1.00  0.00     0.162 A 
BRANCH  13  17
ATOM     17  O   UNL     1      45.346 -11.239 -35.608  1.00  0.00    -0.504 OA
ATOM     18  H   UNL     1      45.576 -11.246 -34.626  1.00  0.00     0.293 HD
ENDBRANCH  13  17
BRANCH  15  19
ATOM     19  O   UNL     1      43.337 -12.784 -34.166  1.00  0.00    -0.502 OA
ATOM     20  H   UNL     1      43.909 -13.604 -34.025  1.00  0.00     0.293 HD
ENDBRANCH  15  19
BRANCH  16  21
ATOM     21  O   UNL     1      40.811 -13.089 -35.318  1.00  0.00    -0.504 OA
ATOM     22  H   UNL     1      40.504 -14.004 -35.627  1.00  0.00     0.293 HD
ENDBRANCH  16  21
ENDBRANCH   1  11
BRANCH  10  23
ATOM     23  O   UNL     1      41.347  -8.447 -38.251  1.00  0.00    -0.500 OA
ATOM     24  H   UNL     1      41.686  -7.495 -38.192  1.00  0.00     0.294 HD
ENDBRANCH  10  23
BRANCH   5  25
ATOM     25  O   UNL     1      42.485 -12.017 -45.048  1.00  0.00    -0.507 OA
ATOM     26  H   UNL     1      42.569 -13.020 -44.938  1.00  0.00     0.293 HD
ENDBRANCH   5  25
BRANCH   7  27
ATOM     27  O   UNL     1      40.655  -7.875 -43.407  1.00  0.00    -0.507 OA
ATOM     28  H   UNL     1      40.369  -7.198 -42.715  1.00  0.00     0.293 HD
ENDBRANCH   7  27
TORSDOF 7
ENDMDL
MODEL 3
REMARK VINA RESULT:    -8.501      1.893      7.149
REMARK INTER + INTRA:         -10.857
REMARK INTER:                 -10.473
REMARK INTRA:                  -0.384
REMARK UNBOUND:                -0.368
REMARK SMILES Oc1cc(O)c2cc(O)c(-c3cc(O)c(O)c(O)c3)[o+]c2c1.[Cl-]
REMARK SMILES IDX 10 1 20 2 21 3 22 4 2 5 3 6 4 7 6 8 7 9 8 10 11 11 12 12
REMARK SMILES IDX 13 13 19 14 15 15 17 16 14 17 16 19 18 21 9 23 1 25 5 27
REMARK H PARENT 14 18 16 20 18 22 9 24 1 26 5 28
REMARK Flexibility Score: inf
ROOT
ATOM      1  C   UNL     1      44.977 -12.667 -37.051  1.00  0.00     0.402 A 
ATOM      2  O   UNL     1      44.083 -11.686 -36.947  1.00  0.00    -0.202 OA
ATOM      3  C   UNL     1      43.620 -11.007 -37.990  1.00  0.00     0.368 A 
ATOM      4  C   UNL     1      42.684  -9.991 -37.779  1.00  0.00     0.162 A 
ATOM      5  C   UNL     1      42.183  -9.258 -38.856  1.00  0.00     0.128 A 
ATOM      6  C   UNL     1      42.620  -9.541 -40.154  1.00  0.00     0.093 A 
ATOM      7  C   UNL     1      43.558 -10.554 -40.393  1.00  0.00     0.136 A 
ATOM      8  C   UNL     1      44.068 -11.303 -39.300  1.00  0.00     0.125 A 
ATOM      9  C   UNL     1      45.000 -12.343 -39.446  1.00  0.00     0.078 A 
ATOM     10  C   UNL     1      45.453 -13.041 -38.321  1.00  0.00     0.223 A 
ENDROOT
BRANCH   1  11
ATOM     11  C   UNL     1      45.423 -13.343 -35.812  1.00  0.00     0.091 A 
ATOM     12  C   UNL     1      46.595 -12.951 -35.146  1.00  0.00     0.068 A 
ATOM     13  C   UNL     1      46.996 -13.581 -33.962  1.00  0.00     0.162 A 
ATOM     14  C   UNL     1      44.632 -14.357 -35.257  1.00  0.00     0.068 A 
ATOM     15  C   UNL     1      46.204 -14.625 -33.422  1.00  0.00     0.200 A 
ATOM     16  C   UNL     1      45.018 -15.000 -34.078  1.00  0.00     0.162 A 
BRANCH  13  17
ATOM     17  O   UNL     1      48.173 -13.137 -33.357  1.00  0.00    -0.504 OA
ATOM     18  H   UNL     1      48.204 -12.597 -32.504  1.00  0.00     0.293 HD
ENDBRANCH  13  17
BRANCH  15  19
ATOM     19  O   UNL     1      46.559 -15.299 -32.250  1.00  0.00    -0.502 OA
ATOM     20  H   UNL     1      46.665 -14.855 -31.350  1.00  0.00     0.293 HD
ENDBRANCH  15  19
BRANCH  16  21
ATOM     21  O   UNL     1      44.206 -16.016 -33.572  1.00  0.00    -0.504 OA
ATOM     22  H   UNL     1      43.228 -16.102 -33.823  1.00  0.00     0.293 HD
ENDBRANCH  16  21
ENDBRANCH   1  11
BRANCH  10  23
ATOM     23  O   UNL     1      46.340 -14.107 -38.470  1.00  0.00    -0.500 OA
ATOM     24  H   UNL     1      46.023 -15.028 -38.748  1.00  0.00     0.294 HD
ENDBRANCH  10  23
BRANCH   5  25
ATOM     25  O   UNL     1      41.250  -8.250 -38.625  1.00  0.00    -0.507 OA
ATOM     26  H   UNL     1      41.511  -7.271 -38.645  1.00  0.00     0.293 HD
ENDBRANCH   5  25
BRANCH   7  27
ATOM     27  O   UNL     1      43.946 -10.773 -41.717  1.00  0.00    -0.507 OA
ATOM     28  H   UNL     1      43.312 -11.007 -42.467  1.00  0.00     0.293 HD
ENDBRANCH   7  27
TORSDOF 7
ENDMDL
MODEL 4
REMARK VINA RESULT:    -8.467      1.869      7.106
REMARK INTER + INTRA:         -10.816
REMARK INTER:                 -10.441
REMARK INTRA:                  -0.375
REMARK UNBOUND:                -0.368
REMARK SMILES Oc1cc(O)c2cc(O)c(-c3cc(O)c(O)c(O)c3)[o+]c2c1.[Cl-]
REMARK SMILES IDX 10 1 20 2 21 3 22 4 2 5 3 6 4 7 6 8 7 9 8 10 11 11 12 12
REMARK SMILES IDX 13 13 19 14 15 15 17 16 14 17 16 19 18 21 9 23 1 25 5 27
REMARK H PARENT 14 18 16 20 18 22 9 24 1 26 5 28
REMARK Flexibility Score: inf
ROOT
ATOM      1  C   UNL     1      44.952 -12.640 -36.842  1.00  0.00     0.402 A 
ATOM      2  O   UNL     1      44.047 -11.667 -36.763  1.00  0.00    -0.202 OA
ATOM      3  C   UNL     1      43.605 -10.994 -37.819  1.00  0.00     0.368 A 
ATOM      4  C   UNL     1      42.656  -9.986 -37.634  1.00  0.00     0.162 A 
ATOM      5  C   UNL     1      42.176  -9.260 -38.725  1.00  0.00     0.128 A 
ATOM      6  C   UNL     1      42.647  -9.542 -40.011  1.00  0.00     0.093 A 
ATOM      7  C   UNL     1      43.599 -10.547 -40.224  1.00  0.00     0.136 A 
ATOM      8  C   UNL     1      44.088 -11.290 -39.117  1.00  0.00     0.125 A 
ATOM      9  C   UNL     1      45.031 -12.323 -39.237  1.00  0.00     0.078 A 
ATOM     10  C   UNL     1      45.462 -13.014 -38.099  1.00  0.00     0.223 A 
ENDROOT
BRANCH   1  11
ATOM     11  C   UNL     1      45.372 -13.310 -35.591  1.00  0.00     0.091 A 
ATOM     12  C   UNL     1      44.657 -14.400 -35.070  1.00  0.00     0.068 A 
ATOM     13  C   UNL     1      45.075 -15.042 -33.898  1.00  0.00     0.162 A 
ATOM     14  C   UNL     1      46.539 -12.889 -34.941  1.00  0.00     0.068 A 
ATOM     15  C   UNL     1      46.241 -14.592 -33.232  1.00  0.00     0.200 A 
ATOM     16  C   UNL     1      46.969 -13.515 -33.769  1.00  0.00     0.162 A 
BRANCH  13  17
ATOM     17  O   UNL     1      44.312 -16.119 -33.440  1.00  0.00    -0.504 OA
ATOM     18  H   UNL     1      43.495 -16.026 -32.855  1.00  0.00     0.293 HD
ENDBRANCH  13  17
BRANCH  15  19
ATOM     19  O   UNL     1      46.701 -15.185 -32.052  1.00  0.00    -0.502 OA
ATOM     20  H   UNL     1      46.128 -15.345 -31.237  1.00  0.00     0.293 HD
ENDBRANCH  15  19
BRANCH  16  21
ATOM     21  O   UNL     1      48.129 -13.050 -33.148  1.00  0.00    -0.504 OA
ATOM     22  H   UNL     1      49.010 -12.962 -33.642  1.00  0.00     0.293 HD
ENDBRANCH  16  21
ENDBRANCH   1  11
BRANCH  10  23
ATOM     23  O   UNL     1      46.361 -14.073 -38.223  1.00  0.00    -0.500 OA
ATOM     24  H   UNL     1      46.101 -15.022 -37.985  1.00  0.00     0.294 HD
ENDBRANCH  10  23
BRANCH   5  25
ATOM     25  O   UNL     1      41.229  -8.259 -38.521  1.00  0.00    -0.507 OA
ATOM     26  H   UNL     1      41.329  -7.340 -38.937  1.00  0.00     0.293 HD
ENDBRANCH   5  25
BRANCH   7  27
ATOM     27  O   UNL     1      44.022 -10.767 -41.538  1.00  0.00    -0.507 OA
ATOM     28  H   UNL     1      43.412 -10.764 -42.342  1.00  0.00     0.293 HD
ENDBRANCH   7  27
TORSDOF 7
ENDMDL
MODEL 5
REMARK VINA RESULT:    -8.426      2.117      3.418
REMARK INTER + INTRA:         -10.765
REMARK INTER:                 -10.523
REMARK INTRA:                  -0.242
REMARK UNBOUND:                -0.368
REMARK SMILES Oc1cc(O)c2cc(O)c(-c3cc(O)c(O)c(O)c3)[o+]c2c1.[Cl-]
REMARK SMILES IDX 10 1 20 2 21 3 22 4 2 5 3 6 4 7 6 8 7 9 8 10 11 11 12 12
REMARK SMILES IDX 13 13 19 14 15 15 17 16 14 17 16 19 18 21 9 23 1 25 5 27
REMARK H PARENT 14 18 16 20 18 22 9 24 1 26 5 28
REMARK Flexibility Score: inf
ROOT
ATOM      1  C   UNL     1      43.641 -12.039 -36.559  1.00  0.00     0.402 A 
ATOM      2  O   UNL     1      44.925 -12.124 -36.217  1.00  0.00    -0.202 OA
ATOM      3  C   UNL     1      45.365 -12.877 -35.215  1.00  0.00     0.368 A 
ATOM      4  C   UNL     1      46.731 -12.898 -34.929  1.00  0.00     0.162 A 
ATOM      5  C   UNL     1      47.222 -13.678 -33.881  1.00  0.00     0.128 A 
ATOM      6  C   UNL     1      46.339 -14.443 -33.111  1.00  0.00     0.093 A 
ATOM      7  C   UNL     1      44.964 -14.440 -33.376  1.00  0.00     0.136 A 
ATOM      8  C   UNL     1      44.462 -13.650 -34.443  1.00  0.00     0.125 A 
ATOM      9  C   UNL     1      43.103 -13.595 -34.790  1.00  0.00     0.078 A 
ATOM     10  C   UNL     1      42.683 -12.797 -35.860  1.00  0.00     0.223 A 
ENDROOT
BRANCH   1  11
ATOM     11  C   UNL     1      43.275 -11.157 -37.690  1.00  0.00     0.091 A 
ATOM     12  C   UNL     1      42.441 -10.042 -37.507  1.00  0.00     0.068 A 
ATOM     13  C   UNL     1      42.119  -9.199 -38.577  1.00  0.00     0.162 A 
ATOM     14  C   UNL     1      43.815 -11.400 -38.959  1.00  0.00     0.068 A 
ATOM     15  C   UNL     1      42.647  -9.469 -39.863  1.00  0.00     0.200 A 
ATOM     16  C   UNL     1      43.501 -10.572 -40.040  1.00  0.00     0.162 A 
BRANCH  13  17
ATOM     17  O   UNL     1      41.284  -8.111 -38.317  1.00  0.00    -0.504 OA
ATOM     18  H   UNL     1      40.966  -7.847 -37.396  1.00  0.00     0.293 HD
ENDBRANCH  13  17
BRANCH  15  19
ATOM     19  O   UNL     1      42.352  -8.671 -40.972  1.00  0.00    -0.502 OA
ATOM     20  H   UNL     1      42.594  -7.694 -41.048  1.00  0.00     0.293 HD
ENDBRANCH  15  19
BRANCH  16  21
ATOM     21  O   UNL     1      44.051 -10.865 -41.289  1.00  0.00    -0.504 OA
ATOM     22  H   UNL     1      43.944 -10.247 -42.085  1.00  0.00     0.293 HD
ENDBRANCH  16  21
ENDBRANCH   1  11
BRANCH  10  23
ATOM     23  O   UNL     1      41.341 -12.780 -36.236  1.00  0.00    -0.500 OA
ATOM     24  H   UNL     1      40.685 -12.118 -35.841  1.00  0.00     0.294 HD
ENDBRANCH  10  23
BRANCH   5  25
ATOM     25  O   UNL     1      48.588 -13.686 -33.611  1.00  0.00    -0.507 OA
ATOM     26  H   UNL     1      49.227 -14.282 -34.125  1.00  0.00     0.293 HD
ENDBRANCH   5  25
BRANCH   7  27
ATOM     27  O   UNL     1      44.149 -15.228 -32.560  1.00  0.00    -0.507 OA
ATOM     28  H   UNL     1      44.492 -15.883 -31.872  1.00  0.00     0.293 HD
ENDBRANCH   7  27
TORSDOF 7
ENDMDL
MODEL 6
REMARK VINA RESULT:    -8.421      3.371      7.953
REMARK INTER + INTRA:         -10.759
REMARK INTER:                 -10.595
REMARK INTRA:                  -0.163
REMARK UNBOUND:                -0.368
REMARK SMILES Oc1cc(O)c2cc(O)c(-c3cc(O)c(O)c(O)c3)[o+]c2c1.[Cl-]
REMARK SMILES IDX 10 1 20 2 21 3 22 4 2 5 3 6 4 7 6 8 7 9 8 10 11 11 12 12
REMARK SMILES IDX 13 13 19 14 15 15 17 16 14 17 16 19 18 21 9 23 1 25 5 27
REMARK H PARENT 14 18 16 20 18 22 9 24 1 26 5 28
REMARK Flexibility Score: inf
ROOT
ATOM      1  C   UNL     1      43.766 -11.000 -39.761  1.00  0.00     0.402 A 
ATOM      2  O   UNL     1      43.452 -11.354 -41.006  1.00  0.00    -0.202 OA
ATOM      3  C   UNL     1      42.536 -10.726 -41.734  1.00  0.00     0.368 A 
ATOM      4  C   UNL     1      42.274 -11.174 -43.030  1.00  0.00     0.162 A 
ATOM      5  C   UNL     1      41.314 -10.535 -43.817  1.00  0.00     0.128 A 
ATOM      6  C   UNL     1      40.610  -9.441 -43.305  1.00  0.00     0.093 A 
ATOM      7  C   UNL     1      40.854  -8.972 -42.008  1.00  0.00     0.136 A 
ATOM      8  C   UNL     1      41.831  -9.617 -41.206  1.00  0.00     0.125 A 
ATOM      9  C   UNL     1      42.151  -9.208 -39.901  1.00  0.00     0.078 A 
ATOM     10  C   UNL     1      43.130  -9.892 -39.172  1.00  0.00     0.223 A 
ENDROOT
BRANCH   1  11
ATOM     11  C   UNL     1      44.799 -11.786 -39.049  1.00  0.00     0.091 A 
ATOM     12  C   UNL     1      44.538 -12.379 -37.804  1.00  0.00     0.068 A 
ATOM     13  C   UNL     1      45.513 -13.140 -37.149  1.00  0.00     0.162 A 
ATOM     14  C   UNL     1      46.046 -11.995 -39.653  1.00  0.00     0.068 A 
ATOM     15  C   UNL     1      46.781 -13.322 -37.754  1.00  0.00     0.200 A 
ATOM     16  C   UNL     1      47.033 -12.748 -39.013  1.00  0.00     0.162 A 
BRANCH  13  17
ATOM     17  O   UNL     1      45.179 -13.697 -35.913  1.00  0.00    -0.504 OA
ATOM     18  H   UNL     1      44.788 -13.175 -35.142  1.00  0.00     0.293 HD
ENDBRANCH  13  17
BRANCH  15  19
ATOM     19  O   UNL     1      47.798 -14.061 -37.143  1.00  0.00    -0.502 OA
ATOM     20  H   UNL     1      48.248 -13.799 -36.279  1.00  0.00     0.293 HD
ENDBRANCH  15  19
BRANCH  16  21
ATOM     21  O   UNL     1      48.265 -12.914 -39.646  1.00  0.00    -0.504 OA
ATOM     22  H   UNL     1      48.996 -12.213 -39.600  1.00  0.00     0.293 HD
ENDBRANCH  16  21
ENDBRANCH   1  11
BRANCH  10  23
ATOM     23  O   UNL     1      43.484  -9.456 -37.896  1.00  0.00    -0.500 OA
ATOM     24  H   UNL     1      44.250  -8.810 -37.747  1.00  0.00     0.294 HD
ENDBRANCH  10  23
BRANCH   5  25
ATOM     25  O   UNL     1      41.066 -10.997 -45.108  1.00  0.00    -0.507 OA
ATOM     26  H   UNL     1      40.891 -10.358 -45.875  1.00  0.00     0.293 HD
ENDBRANCH   5  25
BRANCH   7  27
ATOM     27  O   UNL     1      40.107  -7.875 -41.568  1.00  0.00    -0.507 OA
ATOM     28  H   UNL     1      39.148  -7.697 -41.828  1.00  0.00     0.293 HD
ENDBRANCH   7  27
TORSDOF 7
ENDMDL
MODEL 7
REMARK VINA RESULT:    -8.411      1.979      7.178
REMARK INTER + INTRA:         -10.746
REMARK INTER:                 -10.646
REMARK INTRA:                  -0.100
REMARK UNBOUND:                -0.368
REMARK SMILES Oc1cc(O)c2cc(O)c(-c3cc(O)c(O)c(O)c3)[o+]c2c1.[Cl-]
REMARK SMILES IDX 10 1 20 2 21 3 22 4 2 5 3 6 4 7 6 8 7 9 8 10 11 11 12 12
REMARK SMILES IDX 13 13 19 14 15 15 17 16 14 17 16 19 18 21 9 23 1 25 5 27
REMARK H PARENT 14 18 16 20 18 22 9 24 1 26 5 28
REMARK Flexibility Score: inf
ROOT
ATOM      1  C   UNL     1      43.318 -12.603 -36.133  1.00  0.00     0.402 A 
ATOM      2  O   UNL     1      43.953 -12.088 -37.184  1.00  0.00    -0.202 OA
ATOM      3  C   UNL     1      43.339 -11.414 -38.150  1.00  0.00     0.368 A 
ATOM      4  C   UNL     1      44.091 -10.914 -39.215  1.00  0.00     0.162 A 
ATOM      5  C   UNL     1      43.472 -10.206 -40.246  1.00  0.00     0.128 A 
ATOM      6  C   UNL     1      42.090  -9.996 -40.213  1.00  0.00     0.093 A 
ATOM      7  C   UNL     1      41.312 -10.486 -39.157  1.00  0.00     0.136 A 
ATOM      8  C   UNL     1      41.938 -11.205 -38.106  1.00  0.00     0.125 A 
ATOM      9  C   UNL     1      41.241 -11.722 -37.002  1.00  0.00     0.078 A 
ATOM     10  C   UNL     1      41.929 -12.416 -36.001  1.00  0.00     0.223 A 
ENDROOT
BRANCH   1  11
ATOM     11  C   UNL     1      44.113 -13.341 -35.127  1.00  0.00     0.091 A 
ATOM     12  C   UNL     1      43.733 -14.620 -34.689  1.00  0.00     0.068 A 
ATOM     13  C   UNL     1      44.505 -15.321 -33.754  1.00  0.00     0.162 A 
ATOM     14  C   UNL     1      45.302 -12.782 -34.641  1.00  0.00     0.068 A 
ATOM     15  C   UNL     1      45.691 -14.736 -33.247  1.00  0.00     0.200 A 
ATOM     16  C   UNL     1      46.082 -13.465 -33.705  1.00  0.00     0.162 A 
BRANCH  13  17
ATOM     17  O   UNL     1      44.062 -16.587 -33.367  1.00  0.00    -0.504 OA
ATOM     18  H   UNL     1      43.243 -17.042 -33.744  1.00  0.00     0.293 HD
ENDBRANCH  13  17
BRANCH  15  19
ATOM     19  O   UNL     1      46.495 -15.382 -32.304  1.00  0.00    -0.502 OA
ATOM     20  H   UNL     1      47.485 -15.543 -32.418  1.00  0.00     0.293 HD
ENDBRANCH  15  19
BRANCH  16  21
ATOM     21  O   UNL     1      47.250 -12.860 -33.237  1.00  0.00    -0.504 OA
ATOM     22  H   UNL     1      48.068 -13.395 -32.972  1.00  0.00     0.293 HD
ENDBRANCH  16  21
ENDBRANCH   1  11
BRANCH  10  23
ATOM     23  O   UNL     1      41.246 -12.887 -34.879  1.00  0.00    -0.500 OA
ATOM     24  H   UNL     1      40.280 -13.186 -34.932  1.00  0.00     0.294 HD
ENDBRANCH  10  23
BRANCH   5  25
ATOM     25  O   UNL     1      44.240  -9.714 -41.299  1.00  0.00    -0.507 OA
ATOM     26  H   UNL     1      43.814  -9.388 -42.158  1.00  0.00     0.293 HD
ENDBRANCH   5  25
BRANCH   7  27
ATOM     27  O   UNL     1      39.937 -10.237 -39.200  1.00  0.00    -0.507 OA
ATOM     28  H   UNL     1      39.352 -10.403 -40.005  1.00  0.00     0.293 HD
ENDBRANCH   7  27
TORSDOF 7
ENDMDL
MODEL 8
REMARK VINA RESULT:    -8.391      1.996      7.196
REMARK INTER + INTRA:         -10.721
REMARK INTER:                 -10.622
REMARK INTRA:                  -0.099
REMARK UNBOUND:                -0.368
REMARK SMILES Oc1cc(O)c2cc(O)c(-c3cc(O)c(O)c(O)c3)[o+]c2c1.[Cl-]
REMARK SMILES IDX 10 1 20 2 21 3 22 4 2 5 3 6 4 7 6 8 7 9 8 10 11 11 12 12
REMARK SMILES IDX 13 13 19 14 15 15 17 16 14 17 16 19 18 21 9 23 1 25 5 27
REMARK H PARENT 14 18 16 20 18 22 9 24 1 26 5 28
REMARK Flexibility Score: inf
ROOT
ATOM      1  C   UNL     1      43.276 -12.606 -36.173  1.00  0.00     0.402 A 
ATOM      2  O   UNL     1      43.916 -12.101 -37.225  1.00  0.00    -0.202 OA
ATOM      3  C   UNL     1      43.313 -11.402 -38.180  1.00  0.00     0.368 A 
ATOM      4  C   UNL     1      44.070 -10.916 -39.248  1.00  0.00     0.162 A 
ATOM      5  C   UNL     1      43.462 -10.181 -40.268  1.00  0.00     0.128 A 
ATOM      6  C   UNL     1      42.086  -9.932 -40.220  1.00  0.00     0.093 A 
ATOM      7  C   UNL     1      41.304 -10.408 -39.161  1.00  0.00     0.136 A 
ATOM      8  C   UNL     1      41.920 -11.154 -38.121  1.00  0.00     0.125 A 
ATOM      9  C   UNL     1      41.218 -11.659 -37.015  1.00  0.00     0.078 A 
ATOM     10  C   UNL     1      41.895 -12.381 -36.026  1.00  0.00     0.223 A 
ENDROOT
BRANCH   1  11
ATOM     11  C   UNL     1      44.059 -13.376 -35.180  1.00  0.00     0.091 A 
ATOM     12  C   UNL     1      45.183 -12.821 -34.547  1.00  0.00     0.068 A 
ATOM     13  C   UNL     1      45.904 -13.548 -33.592  1.00  0.00     0.162 A 
ATOM     14  C   UNL     1      43.640 -14.662 -34.817  1.00  0.00     0.068 A 
ATOM     15  C   UNL     1      45.490 -14.859 -33.251  1.00  0.00     0.200 A 
ATOM     16  C   UNL     1      44.349 -15.404 -33.869  1.00  0.00     0.162 A 
BRANCH  13  17
ATOM     17  O   UNL     1      47.010 -12.930 -33.005  1.00  0.00    -0.504 OA
ATOM     18  H   UNL     1      47.963 -13.064 -33.311  1.00  0.00     0.293 HD
ENDBRANCH  13  17
BRANCH  15  19
ATOM     19  O   UNL     1      46.175 -15.637 -32.314  1.00  0.00    -0.502 OA
ATOM     20  H   UNL     1      45.727 -16.175 -31.587  1.00  0.00     0.293 HD
ENDBRANCH  15  19
BRANCH  16  21
ATOM     21  O   UNL     1      43.903 -16.688 -33.553  1.00  0.00    -0.504 OA
ATOM     22  H   UNL     1      43.075 -17.092 -33.976  1.00  0.00     0.293 HD
ENDBRANCH  16  21
ENDBRANCH   1  11
BRANCH  10  23
ATOM     23  O   UNL     1      41.209 -12.841 -34.902  1.00  0.00    -0.500 OA
ATOM     24  H   UNL     1      41.265 -12.361 -34.011  1.00  0.00     0.294 HD
ENDBRANCH  10  23
BRANCH   5  25
ATOM     25  O   UNL     1      44.234  -9.704 -41.324  1.00  0.00    -0.507 OA
ATOM     26  H   UNL     1      44.462  -8.721 -41.412  1.00  0.00     0.293 HD
ENDBRANCH   5  25
BRANCH   7  27
ATOM     27  O   UNL     1      39.937 -10.119 -39.188  1.00  0.00    -0.507 OA
ATOM     28  H   UNL     1      39.506  -9.459 -39.818  1.00  0.00     0.293 HD
ENDBRANCH   7  27
TORSDOF 7
ENDMDL
MODEL 9
REMARK VINA RESULT:    -8.180      2.419      3.842
REMARK INTER + INTRA:         -10.461
REMARK INTER:                 -10.388
REMARK INTRA:                  -0.074
REMARK UNBOUND:                -0.368
REMARK SMILES Oc1cc(O)c2cc(O)c(-c3cc(O)c(O)c(O)c3)[o+]c2c1.[Cl-]
REMARK SMILES IDX 10 1 20 2 21 3 22 4 2 5 3 6 4 7 6 8 7 9 8 10 11 11 12 12
REMARK SMILES IDX 13 13 19 14 15 15 17 16 14 17 16 19 18 21 9 23 1 25 5 27
REMARK H PARENT 14 18 16 20 18 22 9 24 1 26 5 28
REMARK Flexibility Score: inf
ROOT
ATOM      1  C   UNL     1      45.094 -12.167 -38.927  1.00  0.00     0.402 A 
ATOM      2  O   UNL     1      44.519 -12.524 -37.781  1.00  0.00    -0.202 OA
ATOM      3  C   UNL     1      45.167 -13.145 -36.802  1.00  0.00     0.368 A 
ATOM      4  C   UNL     1      44.475 -13.483 -35.636  1.00  0.00     0.162 A 
ATOM      5  C   UNL     1      45.130 -14.139 -34.593  1.00  0.00     0.128 A 
ATOM      6  C   UNL     1      46.485 -14.461 -34.714  1.00  0.00     0.093 A 
ATOM      7  C   UNL     1      47.202 -14.133 -35.872  1.00  0.00     0.136 A 
ATOM      8  C   UNL     1      46.540 -13.464 -36.934  1.00  0.00     0.125 A 
ATOM      9  C   UNL     1      47.181 -13.085 -38.126  1.00  0.00     0.078 A 
ATOM     10  C   UNL     1      46.463 -12.423 -39.127  1.00  0.00     0.223 A 
ENDROOT
BRANCH   1  11
ATOM     11  C   UNL     1      44.262 -11.487 -39.946  1.00  0.00     0.091 A 
ATOM     12  C   UNL     1      43.521 -10.336 -39.636  1.00  0.00     0.068 A 
ATOM     13  C   UNL     1      42.756  -9.687 -40.612  1.00  0.00     0.162 A 
ATOM     14  C   UNL     1      44.258 -11.964 -41.263  1.00  0.00     0.068 A 
ATOM     15  C   UNL     1      42.735 -10.192 -41.935  1.00  0.00     0.200 A 
ATOM     16  C   UNL     1      43.497 -11.332 -42.249  1.00  0.00     0.162 A 
BRANCH  13  17
ATOM     17  O   UNL     1      42.045  -8.548 -40.228  1.00  0.00    -0.504 OA
ATOM     18  H   UNL     1      42.361  -7.891 -39.530  1.00  0.00     0.293 HD
ENDBRANCH  13  17
BRANCH  15  19
ATOM     19  O   UNL     1      41.981  -9.595 -42.949  1.00  0.00    -0.502 OA
ATOM     20  H   UNL     1      40.973  -9.607 -42.988  1.00  0.00     0.293 HD
ENDBRANCH  15  19
BRANCH  16  21
ATOM     21  O   UNL     1      43.511 -11.854 -43.544  1.00  0.00    -0.504 OA
ATOM     22  H   UNL     1      43.941 -12.746 -43.762  1.00  0.00     0.293 HD
ENDBRANCH  16  21
ENDBRANCH   1  11
BRANCH  10  23
ATOM     23  O   UNL     1      47.110 -12.002 -40.289  1.00  0.00    -0.500 OA
ATOM     24  H   UNL     1      47.648 -12.642 -40.860  1.00  0.00     0.294 HD
ENDBRANCH  10  23
BRANCH   5  25
ATOM     25  O   UNL     1      44.423 -14.468 -33.438  1.00  0.00    -0.507 OA
ATOM     26  H   UNL     1      43.483 -14.844 -33.480  1.00  0.00     0.293 HD
ENDBRANCH   5  25
BRANCH   7  27
ATOM     27  O   UNL     1      48.552 -14.491 -35.917  1.00  0.00    -0.507 OA
ATOM     28  H   UNL     1      48.907 -15.324 -36.364  1.00  0.00     0.293 HD
ENDBRANCH   7  27
TORSDOF 7
ENDMDL
