MODEL 1
REMARK VINA RESULT:    -3.650      0.000      0.000
REMARK INTER + INTRA:          -8.654
REMARK INTER:                  -6.637
REMARK INTRA:                  -2.017
REMARK UNBOUND:                -2.017
REMARK SMILES CCCCCCCCCCCCCCCC(=O)[O-]
REMARK SMILES IDX 9 1 10 2 11 3 12 4 13 5 14 6 15 7 16 8 17 9 18 10 8 11 7 12
REMARK SMILES IDX 6 13 5 14 4 15 3 16 2 17 1 18
REMARK H PARENT
REMARK Flexibility Score: inf
ROOT
ATOM      1  C   UNL     1       9.164   8.091  19.753  1.00  0.00     0.000 C 
ENDROOT
BRANCH   1   2
ATOM      2  C   UNL     1      10.479   8.435  19.020  1.00  0.00     0.000 C 
BRANCH   2   3
ATOM      3  C   UNL     1      10.333   9.587  18.011  1.00  0.00     0.000 C 
BRANCH   3   4
ATOM      4  C   UNL     1       9.037   9.499  17.190  1.00  0.00     0.000 C 
BRANCH   4   5
ATOM      5  C   UNL     1       8.170  10.765  17.303  1.00  0.00     0.000 C 
BRANCH   5   6
ATOM      6  C   UNL     1       8.743  11.867  18.219  1.00  0.00     0.006 C 
BRANCH   6   7
ATOM      7  C   UNL     1       8.228  11.826  19.667  1.00  0.00     0.053 C 
BRANCH   7   8
ATOM      8  C   UNL     1       9.332  12.018  20.661  1.00  0.00     0.041 C 
ATOM      9  O   UNL     1       9.066  12.125  21.887  1.00  0.00    -0.550 OA
ATOM     10  O   UNL     1      10.649  12.113  20.230  1.00  0.00    -0.550 OA
ENDBRANCH   7   8
ENDBRANCH   6   7
ENDBRANCH   5   6
ENDBRANCH   4   5
ENDBRANCH   3   4
ENDBRANCH   2   3
ENDBRANCH   1   2
BRANCH   1  11
ATOM     11  C   UNL     1       8.718   6.640  19.496  1.00  0.00     0.000 C 
BRANCH  11  12
ATOM     12  C   UNL     1       7.243   6.536  19.078  1.00  0.00    -0.000 C 
BRANCH  12  13
ATOM     13  C   UNL     1       6.527   7.897  19.094  1.00  0.00    -0.000 C 
BRANCH  13  14
ATOM     14  C   UNL     1       5.541   8.058  17.924  1.00  0.00    -0.000 C 
BRANCH  14  15
ATOM     15  C   UNL     1       4.560   9.240  18.103  1.00  0.00    -0.000 C 
BRANCH  15  16
ATOM     16  C   UNL     1       4.994  10.224  19.207  1.00  0.00    -0.000 C 
BRANCH  16  17
ATOM     17  C   UNL     1       3.990  11.368  19.442  1.00  0.00    -0.003 C 
ATOM     18  C   UNL     1       2.559  10.987  19.062  1.00  0.00     0.004 C 
ENDBRANCH  16  17
ENDBRANCH  15  16
ENDBRANCH  14  15
ENDBRANCH  13  14
ENDBRANCH  12  13
ENDBRANCH  11  12
ENDBRANCH   1  11
TORSDOF 14
ENDMDL
MODEL 2
REMARK VINA RESULT:    -3.290      1.788      2.734
REMARK INTER + INTRA:          -7.999
REMARK INTER:                  -6.327
REMARK INTRA:                  -1.672
REMARK UNBOUND:                -2.017
REMARK SMILES CCCCCCCCCCCCCCCC(=O)[O-]
REMARK SMILES IDX 9 1 10 2 11 3 12 4 13 5 14 6 15 7 16 8 17 9 18 10 8 11 7 12
REMARK SMILES IDX 6 13 5 14 4 15 3 16 2 17 1 18
REMARK H PARENT
REMARK Flexibility Score: inf
ROOT
ATOM      1  C   UNL     1       7.530   8.301  19.852  1.00  0.00     0.000 C 
ENDROOT
BRANCH   1   2
ATOM      2  C   UNL     1       6.778   9.593  20.236  1.00  0.00     0.000 C 
BRANCH   2   3
ATOM      3  C   UNL     1       7.565  10.876  19.920  1.00  0.00     0.000 C 
BRANCH   3   4
ATOM      4  C   UNL     1       6.959  11.674  18.754  1.00  0.00     0.000 C 
BRANCH   4   5
ATOM      5  C   UNL     1       7.979  11.971  17.640  1.00  0.00     0.000 C 
BRANCH   5   6
ATOM      6  C   UNL     1       8.971  10.828  17.343  1.00  0.00     0.006 C 
BRANCH   6   7
ATOM      7  C   UNL     1      10.446  11.258  17.296  1.00  0.00     0.053 C 
BRANCH   7   8
ATOM      8  C   UNL     1      11.236  10.682  18.430  1.00  0.00     0.041 C 
ATOM      9  O   UNL     1      10.798   9.688  19.066  1.00  0.00    -0.550 OA
ATOM     10  O   UNL     1      12.440  11.265  18.807  1.00  0.00    -0.550 OA
ENDBRANCH   7   8
ENDBRANCH   6   7
ENDBRANCH   5   6
ENDBRANCH   4   5
ENDBRANCH   3   4
ENDBRANCH   2   3
ENDBRANCH   1   2
BRANCH   1  11
ATOM     11  C   UNL     1       6.778   7.487  18.783  1.00  0.00     0.000 C 
BRANCH  11  12
ATOM     12  C   UNL     1       6.271   8.356  17.621  1.00  0.00    -0.000 C 
BRANCH  12  13
ATOM     13  C   UNL     1       4.736   8.373  17.523  1.00  0.00    -0.000 C 
BRANCH  13  14
ATOM     14  C   UNL     1       4.184   9.763  17.165  1.00  0.00    -0.000 C 
BRANCH  14  15
ATOM     15  C   UNL     1       2.658   9.774  16.915  1.00  0.00    -0.000 C 
BRANCH  15  16
ATOM     16  C   UNL     1       1.875  10.563  17.982  1.00  0.00    -0.000 C 
BRANCH  16  17
ATOM     17  C   UNL     1       2.759  11.109  19.118  1.00  0.00    -0.003 C 
ATOM     18  C   UNL     1       1.945  11.717  20.260  1.00  0.00     0.004 C 
ENDBRANCH  16  17
ENDBRANCH  15  16
ENDBRANCH  14  15
ENDBRANCH  13  14
ENDBRANCH  12  13
ENDBRANCH  11  12
ENDBRANCH   1  11
TORSDOF 14
ENDMDL
MODEL 3
REMARK VINA RESULT:    -3.199      2.597      3.868
REMARK INTER + INTRA:          -7.834
REMARK INTER:                  -5.698
REMARK INTRA:                  -2.136
REMARK UNBOUND:                -2.017
REMARK SMILES CCCCCCCCCCCCCCCC(=O)[O-]
REMARK SMILES IDX 9 1 10 2 11 3 12 4 13 5 14 6 15 7 16 8 17 9 18 10 8 11 7 12
REMARK SMILES IDX 6 13 5 14 4 15 3 16 2 17 1 18
REMARK H PARENT
REMARK Flexibility Score: inf
ROOT
ATOM      1  C   UNL     1       7.643  10.965  20.323  1.00  0.00     0.000 C 
ENDROOT
BRANCH   1   2
ATOM      2  C   UNL     1       9.136  11.265  20.574  1.00  0.00     0.000 C 
BRANCH   2   3
ATOM      3  C   UNL     1       9.963  11.385  19.282  1.00  0.00     0.000 C 
BRANCH   3   4
ATOM      4  C   UNL     1      10.421  10.022  18.740  1.00  0.00     0.000 C 
BRANCH   4   5
ATOM      5  C   UNL     1       9.585   9.546  17.538  1.00  0.00     0.000 C 
BRANCH   5   6
ATOM      6  C   UNL     1       8.641   8.361  17.831  1.00  0.00     0.006 C 
BRANCH   6   7
ATOM      7  C   UNL     1       8.831   7.719  19.214  1.00  0.00     0.053 C 
BRANCH   7   8
ATOM      8  C   UNL     1       8.240   6.344  19.281  1.00  0.00     0.041 C 
ATOM      9  O   UNL     1       7.058   6.144  18.897  1.00  0.00    -0.550 OA
ATOM     10  O   UNL     1       8.984   5.291  19.799  1.00  0.00    -0.550 OA
ENDBRANCH   7   8
ENDBRANCH   6   7
ENDBRANCH   5   6
ENDBRANCH   4   5
ENDBRANCH   3   4
ENDBRANCH   2   3
ENDBRANCH   1   2
BRANCH   1  11
ATOM     11  C   UNL     1       7.081  11.769  19.136  1.00  0.00     0.000 C 
BRANCH  11  12
ATOM     12  C   UNL     1       6.118  10.948  18.264  1.00  0.00    -0.000 C 
BRANCH  12  13
ATOM     13  C   UNL     1       5.635   9.666  18.962  1.00  0.00    -0.000 C 
BRANCH  13  14
ATOM     14  C   UNL     1       4.809   8.763  18.030  1.00  0.00    -0.000 C 
BRANCH  14  15
ATOM     15  C   UNL     1       3.782   9.537  17.173  1.00  0.00    -0.000 C 
BRANCH  15  16
ATOM     16  C   UNL     1       2.502   9.905  17.947  1.00  0.00    -0.000 C 
BRANCH  16  17
ATOM     17  C   UNL     1       2.413  11.396  18.320  1.00  0.00    -0.003 C 
ATOM     18  C   UNL     1       2.601  11.644  19.816  1.00  0.00     0.004 C 
ENDBRANCH  16  17
ENDBRANCH  15  16
ENDBRANCH  14  15
ENDBRANCH  13  14
ENDBRANCH  12  13
ENDBRANCH  11  12
ENDBRANCH   1  11
TORSDOF 14
ENDMDL
MODEL 4
REMARK VINA RESULT:    -3.179      2.354      4.863
REMARK INTER + INTRA:          -7.798
REMARK INTER:                  -5.827
REMARK INTRA:                  -1.971
REMARK UNBOUND:                -2.017
REMARK SMILES CCCCCCCCCCCCCCCC(=O)[O-]
REMARK SMILES IDX 9 1 10 2 11 3 12 4 13 5 14 6 15 7 16 8 17 9 18 10 8 11 7 12
REMARK SMILES IDX 6 13 5 14 4 15 3 16 2 17 1 18
REMARK H PARENT
REMARK Flexibility Score: inf
ROOT
ATOM      1  C   UNL     1       9.041   7.157  19.509  1.00  0.00     0.000 C 
ENDROOT
BRANCH   1   2
ATOM      2  C   UNL     1       7.506   7.009  19.571  1.00  0.00     0.000 C 
BRANCH   2   3
ATOM      3  C   UNL     1       6.785   7.576  18.336  1.00  0.00     0.000 C 
BRANCH   3   4
ATOM      4  C   UNL     1       5.626   8.516  18.702  1.00  0.00     0.000 C 
BRANCH   4   5
ATOM      5  C   UNL     1       4.568   8.622  17.589  1.00  0.00     0.000 C 
BRANCH   5   6
ATOM      6  C   UNL     1       3.917  10.013  17.440  1.00  0.00     0.006 C 
BRANCH   6   7
ATOM      7  C   UNL     1       2.691  10.244  18.337  1.00  0.00     0.053 C 
BRANCH   7   8
ATOM      8  C   UNL     1       2.952  11.277  19.390  1.00  0.00     0.041 C 
ATOM      9  O   UNL     1       4.086  11.817  19.480  1.00  0.00    -0.550 OA
ATOM     10  O   UNL     1       1.953  11.618  20.294  1.00  0.00    -0.550 OA
ENDBRANCH   7   8
ENDBRANCH   6   7
ENDBRANCH   5   6
ENDBRANCH   4   5
ENDBRANCH   3   4
ENDBRANCH   2   3
ENDBRANCH   1   2
BRANCH   1  11
ATOM     11  C   UNL     1       9.479   8.268  18.538  1.00  0.00     0.000 C 
BRANCH  11  12
ATOM     12  C   UNL     1      10.574   9.174  19.124  1.00  0.00    -0.000 C 
BRANCH  12  13
ATOM     13  C   UNL     1      10.901  10.369  18.214  1.00  0.00    -0.000 C 
BRANCH  13  14
ATOM     14  C   UNL     1       9.882  10.539  17.074  1.00  0.00    -0.000 C 
BRANCH  14  15
ATOM     15  C   UNL     1       8.937  11.747  17.268  1.00  0.00    -0.000 C 
BRANCH  15  16
ATOM     16  C   UNL     1       7.707  11.420  18.137  1.00  0.00    -0.000 C 
BRANCH  16  17
ATOM     17  C   UNL     1       7.883  11.792  19.620  1.00  0.00    -0.003 C 
ATOM     18  C   UNL     1       7.540  10.639  20.564  1.00  0.00     0.004 C 
ENDBRANCH  16  17
ENDBRANCH  15  16
ENDBRANCH  14  15
ENDBRANCH  13  14
ENDBRANCH  12  13
ENDBRANCH  11  12
ENDBRANCH   1  11
TORSDOF 14
ENDMDL
MODEL 5
REMARK VINA RESULT:    -3.091      2.302      5.577
REMARK INTER + INTRA:          -7.638
REMARK INTER:                  -5.620
REMARK INTRA:                  -2.017
REMARK UNBOUND:                -2.017
REMARK SMILES CCCCCCCCCCCCCCCC(=O)[O-]
REMARK SMILES IDX 9 1 10 2 11 3 12 4 13 5 14 6 15 7 16 8 17 9 18 10 8 11 7 12
REMARK SMILES IDX 6 13 5 14 4 15 3 16 2 17 1 18
REMARK H PARENT
REMARK Flexibility Score: inf
ROOT
ATOM      1  C   UNL     1       4.748  10.802  19.524  1.00  0.00     0.000 C 
ENDROOT
BRANCH   1   2
ATOM      2  C   UNL     1       3.695  11.102  18.436  1.00  0.00     0.000 C 
BRANCH   2   3
ATOM      3  C   UNL     1       3.239   9.852  17.663  1.00  0.00     0.000 C 
BRANCH   3   4
ATOM      4  C   UNL     1       4.411   9.080  17.036  1.00  0.00     0.000 C 
BRANCH   4   5
ATOM      5  C   UNL     1       5.021   8.040  17.992  1.00  0.00     0.000 C 
BRANCH   5   6
ATOM      6  C   UNL     1       6.560   7.936  17.944  1.00  0.00     0.006 C 
BRANCH   6   7
ATOM      7  C   UNL     1       7.247   7.992  19.317  1.00  0.00     0.053 C 
BRANCH   7   8
ATOM      8  C   UNL     1       8.429   7.075  19.392  1.00  0.00     0.041 C 
ATOM      9  O   UNL     1       9.583   7.544  19.576  1.00  0.00    -0.550 OA
ATOM     10  O   UNL     1       8.260   5.706  19.225  1.00  0.00    -0.550 OA
ENDBRANCH   7   8
ENDBRANCH   6   7
ENDBRANCH   5   6
ENDBRANCH   4   5
ENDBRANCH   3   4
ENDBRANCH   2   3
ENDBRANCH   1   2
BRANCH   1  11
ATOM     11  C   UNL     1       6.103  11.464  19.220  1.00  0.00     0.000 C 
BRANCH  11  12
ATOM     12  C   UNL     1       6.145  12.125  17.833  1.00  0.00    -0.000 C 
BRANCH  12  13
ATOM     13  C   UNL     1       7.125  11.427  16.875  1.00  0.00    -0.000 C 
BRANCH  13  14
ATOM     14  C   UNL     1       8.594  11.745  17.200  1.00  0.00    -0.000 C 
BRANCH  14  15
ATOM     15  C   UNL     1       9.439  10.491  17.522  1.00  0.00    -0.000 C 
BRANCH  15  16
ATOM     16  C   UNL     1      10.627  10.785  18.459  1.00  0.00    -0.000 C 
BRANCH  16  17
ATOM     17  C   UNL     1      10.266  11.699  19.644  1.00  0.00    -0.003 C 
ATOM     18  C   UNL     1       9.378  11.004  20.677  1.00  0.00     0.004 C 
ENDBRANCH  16  17
ENDBRANCH  15  16
ENDBRANCH  14  15
ENDBRANCH  13  14
ENDBRANCH  12  13
ENDBRANCH  11  12
ENDBRANCH   1  11
TORSDOF 14
ENDMDL
MODEL 6
REMARK VINA RESULT:    -3.025      2.973      5.661
REMARK INTER + INTRA:          -7.517
REMARK INTER:                  -5.789
REMARK INTRA:                  -1.729
REMARK UNBOUND:                -2.017
REMARK SMILES CCCCCCCCCCCCCCCC(=O)[O-]
REMARK SMILES IDX 9 1 10 2 11 3 12 4 13 5 14 6 15 7 16 8 17 9 18 10 8 11 7 12
REMARK SMILES IDX 6 13 5 14 4 15 3 16 2 17 1 18
REMARK H PARENT
REMARK Flexibility Score: inf
ROOT
ATOM      1  C   UNL     1       9.258  11.259  20.580  1.00  0.00     0.000 C 
ENDROOT
BRANCH   1   2
ATOM      2  C   UNL     1       7.755  11.435  20.276  1.00  0.00     0.000 C 
BRANCH   2   3
ATOM      3  C   UNL     1       6.942  10.138  20.434  1.00  0.00     0.000 C 
BRANCH   3   4
ATOM      4  C   UNL     1       5.721  10.084  19.502  1.00  0.00     0.000 C 
BRANCH   4   5
ATOM      5  C   UNL     1       5.598   8.744  18.754  1.00  0.00     0.000 C 
BRANCH   5   6
ATOM      6  C   UNL     1       4.562   8.729  17.611  1.00  0.00     0.006 C 
BRANCH   6   7
ATOM      7  C   UNL     1       4.325  10.094  16.946  1.00  0.00     0.053 C 
BRANCH   7   8
ATOM      8  C   UNL     1       2.961  10.636  17.247  1.00  0.00     0.041 C 
ATOM      9  O   UNL     1       1.996   9.850  17.439  1.00  0.00    -0.550 OA
ATOM     10  O   UNL     1       2.749  12.009  17.281  1.00  0.00    -0.550 OA
ENDBRANCH   7   8
ENDBRANCH   6   7
ENDBRANCH   5   6
ENDBRANCH   4   5
ENDBRANCH   3   4
ENDBRANCH   2   3
ENDBRANCH   1   2
BRANCH   1  11
ATOM     11  C   UNL     1      10.145  11.695  19.400  1.00  0.00     0.000 C 
BRANCH  11  12
ATOM     12  C   UNL     1       9.383  11.734  18.066  1.00  0.00    -0.000 C 
BRANCH  12  13
ATOM     13  C   UNL     1       9.813  10.611  17.107  1.00  0.00    -0.000 C 
BRANCH  13  14
ATOM     14  C   UNL     1      10.265   9.342  17.850  1.00  0.00    -0.000 C 
BRANCH  14  15
ATOM     15  C   UNL     1       9.092   8.439  18.296  1.00  0.00    -0.000 C 
BRANCH  15  16
ATOM     16  C   UNL     1       9.429   7.572  19.525  1.00  0.00    -0.000 C 
BRANCH  16  17
ATOM     17  C   UNL     1       8.258   6.694  20.001  1.00  0.00    -0.003 C 
ATOM     18  C   UNL     1       7.672   5.832  18.882  1.00  0.00     0.004 C 
ENDBRANCH  16  17
ENDBRANCH  15  16
ENDBRANCH  14  15
ENDBRANCH  13  14
ENDBRANCH  12  13
ENDBRANCH  11  12
ENDBRANCH   1  11
TORSDOF 14
ENDMDL
MODEL 7
REMARK VINA RESULT:    -3.010      1.823      4.573
REMARK INTER + INTRA:          -7.490
REMARK INTER:                  -6.152
REMARK INTRA:                  -1.338
REMARK UNBOUND:                -2.017
REMARK SMILES CCCCCCCCCCCCCCCC(=O)[O-]
REMARK SMILES IDX 9 1 10 2 11 3 12 4 13 5 14 6 15 7 16 8 17 9 18 10 8 11 7 12
REMARK SMILES IDX 6 13 5 14 4 15 3 16 2 17 1 18
REMARK H PARENT
REMARK Flexibility Score: inf
ROOT
ATOM      1  C   UNL     1       4.287  10.900  19.171  1.00  0.00     0.000 C 
ENDROOT
BRANCH   1   2
ATOM      2  C   UNL     1       4.964  12.124  18.517  1.00  0.00     0.000 C 
BRANCH   2   3
ATOM      3  C   UNL     1       6.500  12.090  18.600  1.00  0.00     0.000 C 
BRANCH   3   4
ATOM      4  C   UNL     1       7.159  11.669  17.278  1.00  0.00     0.000 C 
BRANCH   4   5
ATOM      5  C   UNL     1       8.625  12.125  17.168  1.00  0.00     0.000 C 
BRANCH   5   6
ATOM      6  C   UNL     1       9.422  12.077  18.488  1.00  0.00     0.006 C 
BRANCH   6   7
ATOM      7  C   UNL     1       9.447  10.701  19.170  1.00  0.00     0.053 C 
BRANCH   7   8
ATOM      8  C   UNL     1      10.353   9.739  18.464  1.00  0.00     0.041 C 
ATOM      9  O   UNL     1      10.538   9.840  17.223  1.00  0.00    -0.550 OA
ATOM     10  O   UNL     1      10.965   8.711  19.171  1.00  0.00    -0.550 OA
ENDBRANCH   7   8
ENDBRANCH   6   7
ENDBRANCH   5   6
ENDBRANCH   4   5
ENDBRANCH   3   4
ENDBRANCH   2   3
ENDBRANCH   1   2
BRANCH   1  11
ATOM     11  C   UNL     1       3.440  10.098  18.167  1.00  0.00     0.000 C 
BRANCH  11  12
ATOM     12  C   UNL     1       4.296   9.306  17.166  1.00  0.00    -0.000 C 
BRANCH  12  13
ATOM     13  C   UNL     1       4.909   8.040  17.785  1.00  0.00    -0.000 C 
BRANCH  13  14
ATOM     14  C   UNL     1       6.429   8.159  17.988  1.00  0.00    -0.000 C 
BRANCH  14  15
ATOM     15  C   UNL     1       6.838   8.373  19.464  1.00  0.00    -0.000 C 
BRANCH  15  16
ATOM     16  C   UNL     1       7.887   7.358  19.955  1.00  0.00    -0.000 C 
BRANCH  16  17
ATOM     17  C   UNL     1       8.101   6.176  18.992  1.00  0.00    -0.003 C 
ATOM     18  C   UNL     1       8.946   5.059  19.604  1.00  0.00     0.004 C 
ENDBRANCH  16  17
ENDBRANCH  15  16
ENDBRANCH  14  15
ENDBRANCH  13  14
ENDBRANCH  12  13
ENDBRANCH  11  12
ENDBRANCH   1  11
TORSDOF 14
ENDMDL
MODEL 8
REMARK VINA RESULT:    -2.983      2.767      5.765
REMARK INTER + INTRA:          -7.441
REMARK INTER:                  -5.801
REMARK INTRA:                  -1.640
REMARK UNBOUND:                -2.017
REMARK SMILES CCCCCCCCCCCCCCCC(=O)[O-]
REMARK SMILES IDX 9 1 10 2 11 3 12 4 13 5 14 6 15 7 16 8 17 9 18 10 8 11 7 12
REMARK SMILES IDX 6 13 5 14 4 15 3 16 2 17 1 18
REMARK H PARENT
REMARK Flexibility Score: inf
ROOT
ATOM      1  C   UNL     1       3.435   9.952  18.469  1.00  0.00     0.000 C 
ENDROOT
BRANCH   1   2
ATOM      2  C   UNL     1       4.022   9.138  17.296  1.00  0.00     0.000 C 
BRANCH   2   3
ATOM      3  C   UNL     1       4.981   8.022  17.746  1.00  0.00     0.000 C 
BRANCH   3   4
ATOM      4  C   UNL     1       6.383   8.547  18.093  1.00  0.00     0.000 C 
BRANCH   4   5
ATOM      5  C   UNL     1       6.520   8.956  19.570  1.00  0.00     0.000 C 
BRANCH   5   6
ATOM      6  C   UNL     1       7.674   8.270  20.332  1.00  0.00     0.006 C 
BRANCH   6   7
ATOM      7  C   UNL     1       8.673   7.521  19.437  1.00  0.00     0.053 C 
BRANCH   7   8
ATOM      8  C   UNL     1       8.447   6.041  19.458  1.00  0.00     0.041 C 
ATOM      9  O   UNL     1       9.237   5.289  20.089  1.00  0.00    -0.550 OA
ATOM     10  O   UNL     1       7.384   5.488  18.754  1.00  0.00    -0.550 OA
ENDBRANCH   7   8
ENDBRANCH   6   7
ENDBRANCH   5   6
ENDBRANCH   4   5
ENDBRANCH   3   4
ENDBRANCH   2   3
ENDBRANCH   1   2
BRANCH   1  11
ATOM     11  C   UNL     1       3.471  11.468  18.200  1.00  0.00     0.000 C 
BRANCH  11  12
ATOM     12  C   UNL     1       4.784  12.122  18.657  1.00  0.00    -0.000 C 
BRANCH  12  13
ATOM     13  C   UNL     1       5.881  12.061  17.581  1.00  0.00    -0.000 C 
BRANCH  13  14
ATOM     14  C   UNL     1       7.297  12.125  18.178  1.00  0.00    -0.000 C 
BRANCH  14  15
ATOM     15  C   UNL     1       8.412  11.821  17.152  1.00  0.00    -0.000 C 
BRANCH  15  16
ATOM     16  C   UNL     1       9.284  10.613  17.544  1.00  0.00    -0.000 C 
BRANCH  16  17
ATOM     17  C   UNL     1       9.935  10.747  18.933  1.00  0.00    -0.003 C 
ATOM     18  C   UNL     1      11.050  11.793  18.965  1.00  0.00     0.004 C 
ENDBRANCH  16  17
ENDBRANCH  15  16
ENDBRANCH  14  15
ENDBRANCH  13  14
ENDBRANCH  12  13
ENDBRANCH  11  12
ENDBRANCH   1  11
TORSDOF 14
ENDMDL
MODEL 9
REMARK VINA RESULT:    -2.775      2.523      5.623
REMARK INTER + INTRA:          -7.063
REMARK INTER:                  -5.670
REMARK INTRA:                  -1.393
REMARK UNBOUND:                -2.017
REMARK SMILES CCCCCCCCCCCCCCCC(=O)[O-]
REMARK SMILES IDX 9 1 10 2 11 3 12 4 13 5 14 6 15 7 16 8 17 9 18 10 8 11 7 12
REMARK SMILES IDX 6 13 5 14 4 15 3 16 2 17 1 18
REMARK H PARENT
REMARK Flexibility Score: inf
ROOT
ATOM      1  C   UNL     1       7.403   8.188  18.812  1.00  0.00     0.000 C 
ENDROOT
BRANCH   1   2
ATOM      2  C   UNL     1       5.994   7.790  18.322  1.00  0.00     0.000 C 
BRANCH   2   3
ATOM      3  C   UNL     1       5.309   8.880  17.479  1.00  0.00     0.000 C 
BRANCH   3   4
ATOM      4  C   UNL     1       3.975   8.414  16.876  1.00  0.00     0.000 C 
BRANCH   4   5
ATOM      5  C   UNL     1       2.841   9.437  17.069  1.00  0.00     0.000 C 
BRANCH   5   6
ATOM      6  C   UNL     1       3.284  10.915  17.029  1.00  0.00     0.006 C 
BRANCH   6   7
ATOM      7  C   UNL     1       2.456  11.854  17.920  1.00  0.00     0.053 C 
BRANCH   7   8
ATOM      8  C   UNL     1       2.749  11.653  19.375  1.00  0.00     0.041 C 
ATOM      9  O   UNL     1       1.887  11.954  20.242  1.00  0.00    -0.550 OA
ATOM     10  O   UNL     1       3.988  11.165  19.775  1.00  0.00    -0.550 OA
ENDBRANCH   7   8
ENDBRANCH   6   7
ENDBRANCH   5   6
ENDBRANCH   4   5
ENDBRANCH   3   4
ENDBRANCH   2   3
ENDBRANCH   1   2
BRANCH   1  11
ATOM     11  C   UNL     1       7.398   8.657  20.278  1.00  0.00     0.000 C 
BRANCH  11  12
ATOM     12  C   UNL     1       7.221  10.177  20.416  1.00  0.00    -0.000 C 
BRANCH  12  13
ATOM     13  C   UNL     1       7.458  10.922  19.093  1.00  0.00    -0.000 C 
BRANCH  13  14
ATOM     14  C   UNL     1       8.435  12.101  19.246  1.00  0.00    -0.000 C 
BRANCH  14  15
ATOM     15  C   UNL     1       9.589  12.083  18.217  1.00  0.00    -0.000 C 
BRANCH  15  16
ATOM     16  C   UNL     1      10.025  10.659  17.822  1.00  0.00    -0.000 C 
BRANCH  16  17
ATOM     17  C   UNL     1      11.194  10.115  18.665  1.00  0.00    -0.003 C 
ATOM     18  C   UNL     1      10.910   8.729  19.244  1.00  0.00     0.004 C 
ENDBRANCH  16  17
ENDBRANCH  15  16
ENDBRANCH  14  15
ENDBRANCH  13  14
ENDBRANCH  12  13
ENDBRANCH  11  12
ENDBRANCH   1  11
TORSDOF 14
ENDMDL
