MODEL 1
REMARK VINA RESULT:    -4.330      0.000      0.000
REMARK INTER + INTRA:         -10.309
REMARK INTER:                  -8.380
REMARK INTRA:                  -1.929
REMARK UNBOUND:                -1.929
REMARK SMILES CCCCCCCCCCCCCCCCCC(=O)[O-]
REMARK SMILES IDX 10 1 11 2 12 3 13 4 14 5 15 6 16 7 17 8 18 9 19 10 20 11
REMARK SMILES IDX 9 12 8 13 7 14 6 15 5 16 4 17 3 18 2 19 1 20
REMARK H PARENT
REMARK Flexibility Score: inf
ROOT
ATOM      1  C   UNL     1      -8.225   9.858  -5.788  1.00  0.00     0.000 C 
ENDROOT
BRANCH   1   2
ATOM      2  C   UNL     1      -8.774  10.341  -7.135  1.00  0.00     0.000 C 
BRANCH   2   3
ATOM      3  C   UNL     1      -8.156  11.692  -7.529  1.00  0.00     0.000 C 
BRANCH   3   4
ATOM      4  C   UNL     1      -6.906  12.032  -6.689  1.00  0.00     0.000 C 
BRANCH   4   5
ATOM      5  C   UNL     1      -5.718  12.540  -7.523  1.00  0.00     0.000 C 
BRANCH   5   6
ATOM      6  C   UNL     1      -4.500  12.913  -6.666  1.00  0.00     0.000 C 
BRANCH   6   7
ATOM      7  C   UNL     1      -3.364  11.900  -6.849  1.00  0.00     0.006 C 
BRANCH   7   8
ATOM      8  C   UNL     1      -2.201  12.516  -7.630  1.00  0.00     0.053 C 
BRANCH   8   9
ATOM      9  C   UNL     1      -1.989  11.784  -8.918  1.00  0.00     0.041 C 
ATOM     10  O   UNL     1      -0.879  11.245  -9.165  1.00  0.00    -0.550 OA
ATOM     11  O   UNL     1      -3.033  11.658  -9.825  1.00  0.00    -0.550 OA
ENDBRANCH   8   9
ENDBRANCH   7   8
ENDBRANCH   6   7
ENDBRANCH   5   6
ENDBRANCH   4   5
ENDBRANCH   3   4
ENDBRANCH   2   3
ENDBRANCH   1   2
BRANCH   1  12
ATOM     12  C   UNL     1      -9.360   9.638  -4.778  1.00  0.00     0.000 C 
BRANCH  12  13
ATOM     13  C   UNL     1      -8.955  10.033  -3.342  1.00  0.00    -0.000 C 
BRANCH  13  14
ATOM     14  C   UNL     1      -9.505  11.402  -2.897  1.00  0.00    -0.000 C 
BRANCH  14  15
ATOM     15  C   UNL     1      -9.730  12.414  -4.037  1.00  0.00    -0.000 C 
BRANCH  15  16
ATOM     16  C   UNL     1      -9.000  13.760  -3.870  1.00  0.00    -0.000 C 
BRANCH  16  17
ATOM     17  C   UNL     1      -7.825  13.682  -2.878  1.00  0.00    -0.000 C 
BRANCH  17  18
ATOM     18  C   UNL     1      -6.477  14.013  -3.539  1.00  0.00    -0.000 C 
BRANCH  18  19
ATOM     19  C   UNL     1      -5.281  13.707  -2.625  1.00  0.00    -0.003 C 
ATOM     20  C   UNL     1      -4.433  12.572  -3.192  1.00  0.00     0.004 C 
ENDBRANCH  18  19
ENDBRANCH  17  18
ENDBRANCH  16  17
ENDBRANCH  15  16
ENDBRANCH  14  15
ENDBRANCH  13  14
ENDBRANCH  12  13
ENDBRANCH   1  12
TORSDOF 16
ENDMDL
MODEL 2
REMARK VINA RESULT:    -4.317     14.536     16.919
REMARK INTER + INTRA:         -10.283
REMARK INTER:                  -7.277
REMARK INTRA:                  -3.006
REMARK UNBOUND:                -1.929
REMARK SMILES CCCCCCCCCCCCCCCCCC(=O)[O-]
REMARK SMILES IDX 10 1 11 2 12 3 13 4 14 5 15 6 16 7 17 8 18 9 19 10 20 11
REMARK SMILES IDX 9 12 8 13 7 14 6 15 5 16 4 17 3 18 2 19 1 20
REMARK H PARENT
REMARK Flexibility Score: inf
ROOT
ATOM      1  C   UNL     1       4.874   3.253  -9.215  1.00  0.00     0.000 C 
ENDROOT
BRANCH   1   2
ATOM      2  C   UNL     1       5.784   2.025  -9.317  1.00  0.00     0.000 C 
BRANCH   2   3
ATOM      3  C   UNL     1       6.707   2.122 -10.542  1.00  0.00     0.000 C 
BRANCH   3   4
ATOM      4  C   UNL     1       7.968   1.243 -10.397  1.00  0.00     0.000 C 
BRANCH   4   5
ATOM      5  C   UNL     1       9.282   2.042 -10.388  1.00  0.00     0.000 C 
BRANCH   5   6
ATOM      6  C   UNL     1       9.914   2.140  -8.992  1.00  0.00     0.000 C 
BRANCH   6   7
ATOM      7  C   UNL     1       9.146   1.286  -7.976  1.00  0.00     0.006 C 
BRANCH   7   8
ATOM      8  C   UNL     1       9.378   1.790  -6.550  1.00  0.00     0.053 C 
BRANCH   8   9
ATOM      9  C   UNL     1       8.414   1.147  -5.603  1.00  0.00     0.041 C 
ATOM     10  O   UNL     1       8.668   1.105  -4.371  1.00  0.00    -0.550 OA
ATOM     11  O   UNL     1       7.214   0.633  -6.077  1.00  0.00    -0.550 OA
ENDBRANCH   8   9
ENDBRANCH   7   8
ENDBRANCH   6   7
ENDBRANCH   5   6
ENDBRANCH   4   5
ENDBRANCH   3   4
ENDBRANCH   2   3
ENDBRANCH   1   2
BRANCH   1  12
ATOM     12  C   UNL     1       4.953   4.105 -10.490  1.00  0.00     0.000 C 
BRANCH  12  13
ATOM     13  C   UNL     1       4.890   5.618 -10.193  1.00  0.00    -0.000 C 
BRANCH  13  14
ATOM     14  C   UNL     1       6.182   6.375 -10.558  1.00  0.00    -0.000 C 
BRANCH  14  15
ATOM     15  C   UNL     1       7.487   5.602 -10.288  1.00  0.00    -0.000 C 
BRANCH  15  16
ATOM     16  C   UNL     1       8.163   5.911  -8.939  1.00  0.00    -0.000 C 
BRANCH  16  17
ATOM     17  C   UNL     1       7.856   4.856  -7.862  1.00  0.00    -0.000 C 
BRANCH  17  18
ATOM     18  C   UNL     1       6.761   5.316  -6.885  1.00  0.00    -0.000 C 
BRANCH  18  19
ATOM     19  C   UNL     1       6.749   4.501  -5.584  1.00  0.00    -0.003 C 
ATOM     20  C   UNL     1       5.559   3.545  -5.546  1.00  0.00     0.004 C 
ENDBRANCH  18  19
ENDBRANCH  17  18
ENDBRANCH  16  17
ENDBRANCH  15  16
ENDBRANCH  14  15
ENDBRANCH  13  14
ENDBRANCH  12  13
ENDBRANCH   1  12
TORSDOF 16
ENDMDL
MODEL 3
REMARK VINA RESULT:    -4.317      1.283      2.077
REMARK INTER + INTRA:         -10.283
REMARK INTER:                  -8.409
REMARK INTRA:                  -1.874
REMARK UNBOUND:                -1.929
REMARK SMILES CCCCCCCCCCCCCCCCCC(=O)[O-]
REMARK SMILES IDX 10 1 11 2 12 3 13 4 14 5 15 6 16 7 17 8 18 9 19 10 20 11
REMARK SMILES IDX 9 12 8 13 7 14 6 15 5 16 4 17 3 18 2 19 1 20
REMARK H PARENT
REMARK Flexibility Score: inf
ROOT
ATOM      1  C   UNL     1      -8.204   9.813  -5.785  1.00  0.00     0.000 C 
ENDROOT
BRANCH   1   2
ATOM      2  C   UNL     1      -8.379  10.673  -7.042  1.00  0.00     0.000 C 
BRANCH   2   3
ATOM      3  C   UNL     1      -7.398  11.856  -7.040  1.00  0.00     0.000 C 
BRANCH   3   4
ATOM      4  C   UNL     1      -7.036  12.319  -8.468  1.00  0.00     0.000 C 
BRANCH   4   5
ATOM      5  C   UNL     1      -5.524  12.341  -8.747  1.00  0.00     0.000 C 
BRANCH   5   6
ATOM      6  C   UNL     1      -5.166  11.838 -10.153  1.00  0.00     0.000 C 
BRANCH   6   7
ATOM      7  C   UNL     1      -3.710  11.365 -10.218  1.00  0.00     0.006 C 
BRANCH   7   8
ATOM      8  C   UNL     1      -2.994  11.613  -8.888  1.00  0.00     0.053 C 
BRANCH   8   9
ATOM      9  C   UNL     1      -1.628  11.001  -8.906  1.00  0.00     0.041 C 
ATOM     10  O   UNL     1      -0.622  11.707  -9.177  1.00  0.00    -0.550 OA
ATOM     11  O   UNL     1      -1.463   9.662  -8.579  1.00  0.00    -0.550 OA
ENDBRANCH   8   9
ENDBRANCH   7   8
ENDBRANCH   6   7
ENDBRANCH   5   6
ENDBRANCH   4   5
ENDBRANCH   3   4
ENDBRANCH   2   3
ENDBRANCH   1   2
BRANCH   1  12
ATOM     12  C   UNL     1      -7.587  10.628  -4.640  1.00  0.00     0.000 C 
BRANCH  12  13
ATOM     13  C   UNL     1      -8.620  10.993  -3.552  1.00  0.00    -0.000 C 
BRANCH  13  14
ATOM     14  C   UNL     1      -8.891  12.505  -3.437  1.00  0.00    -0.000 C 
BRANCH  14  15
ATOM     15  C   UNL     1      -7.662  13.406  -3.668  1.00  0.00    -0.000 C 
BRANCH  15  16
ATOM     16  C   UNL     1      -6.870  13.769  -2.399  1.00  0.00    -0.000 C 
BRANCH  16  17
ATOM     17  C   UNL     1      -5.350  13.818  -2.638  1.00  0.00    -0.000 C 
BRANCH  17  18
ATOM     18  C   UNL     1      -4.796  12.485  -3.168  1.00  0.00    -0.000 C 
BRANCH  18  19
ATOM     19  C   UNL     1      -3.682  12.679  -4.207  1.00  0.00    -0.003 C 
ATOM     20  C   UNL     1      -3.960  11.866  -5.468  1.00  0.00     0.004 C 
ENDBRANCH  18  19
ENDBRANCH  17  18
ENDBRANCH  16  17
ENDBRANCH  15  16
ENDBRANCH  14  15
ENDBRANCH  13  14
ENDBRANCH  12  13
ENDBRANCH   1  12
TORSDOF 16
ENDMDL
MODEL 4
REMARK VINA RESULT:    -4.155      2.811      6.606
REMARK INTER + INTRA:          -9.971
REMARK INTER:                  -8.252
REMARK INTRA:                  -1.719
REMARK UNBOUND:                -1.929
REMARK SMILES CCCCCCCCCCCCCCCCCC(=O)[O-]
REMARK SMILES IDX 10 1 11 2 12 3 13 4 14 5 15 6 16 7 17 8 18 9 19 10 20 11
REMARK SMILES IDX 9 12 8 13 7 14 6 15 5 16 4 17 3 18 2 19 1 20
REMARK H PARENT
REMARK Flexibility Score: inf
ROOT
ATOM      1  C   UNL     1      -4.548  13.089  -3.203  1.00  0.00     0.000 C 
ENDROOT
BRANCH   1   2
ATOM      2  C   UNL     1      -5.212  13.914  -2.095  1.00  0.00     0.000 C 
BRANCH   2   3
ATOM      3  C   UNL     1      -6.744  13.873  -2.219  1.00  0.00     0.000 C 
BRANCH   3   4
ATOM      4  C   UNL     1      -7.210  13.804  -3.689  1.00  0.00     0.000 C 
BRANCH   4   5
ATOM      5  C   UNL     1      -8.539  13.054  -3.883  1.00  0.00     0.000 C 
BRANCH   5   6
ATOM      6  C   UNL     1      -8.823  12.707  -5.351  1.00  0.00     0.000 C 
BRANCH   6   7
ATOM      7  C   UNL     1      -7.742  11.780  -5.919  1.00  0.00     0.006 C 
BRANCH   7   8
ATOM      8  C   UNL     1      -8.357  10.718  -6.834  1.00  0.00     0.053 C 
BRANCH   8   9
ATOM      9  C   UNL     1      -8.461   9.407  -6.119  1.00  0.00     0.041 C 
ATOM     10  O   UNL     1      -8.669   8.348  -6.766  1.00  0.00    -0.550 OA
ATOM     11  O   UNL     1      -8.283   9.351  -4.743  1.00  0.00    -0.550 OA
ENDBRANCH   8   9
ENDBRANCH   7   8
ENDBRANCH   6   7
ENDBRANCH   5   6
ENDBRANCH   4   5
ENDBRANCH   3   4
ENDBRANCH   2   3
ENDBRANCH   1   2
BRANCH   1  12
ATOM     12  C   UNL     1      -3.368  13.850  -3.825  1.00  0.00     0.000 C 
BRANCH  12  13
ATOM     13  C   UNL     1      -3.188  13.534  -5.325  1.00  0.00    -0.000 C 
BRANCH  13  14
ATOM     14  C   UNL     1      -3.701  12.140  -5.730  1.00  0.00    -0.000 C 
BRANCH  14  15
ATOM     15  C   UNL     1      -4.399  12.077  -7.102  1.00  0.00    -0.000 C 
BRANCH  15  16
ATOM     16  C   UNL     1      -3.461  12.186  -8.319  1.00  0.00    -0.000 C 
BRANCH  16  17
ATOM     17  C   UNL     1      -2.251  11.240  -8.226  1.00  0.00    -0.000 C 
BRANCH  17  18
ATOM     18  C   UNL     1      -0.928  11.944  -8.570  1.00  0.00    -0.000 C 
BRANCH  18  19
ATOM     19  C   UNL     1      -0.908  13.414  -8.125  1.00  0.00    -0.003 C 
ATOM     20  C   UNL     1       0.239  13.677  -7.153  1.00  0.00     0.004 C 
ENDBRANCH  18  19
ENDBRANCH  17  18
ENDBRANCH  16  17
ENDBRANCH  15  16
ENDBRANCH  14  15
ENDBRANCH  13  14
ENDBRANCH  12  13
ENDBRANCH   1  12
TORSDOF 16
ENDMDL
MODEL 5
REMARK VINA RESULT:    -4.069     14.426     15.926
REMARK INTER + INTRA:          -9.804
REMARK INTER:                  -7.843
REMARK INTRA:                  -1.961
REMARK UNBOUND:                -1.929
REMARK SMILES CCCCCCCCCCCCCCCCCC(=O)[O-]
REMARK SMILES IDX 10 1 11 2 12 3 13 4 14 5 15 6 16 7 17 8 18 9 19 10 20 11
REMARK SMILES IDX 9 12 8 13 7 14 6 15 5 16 4 17 3 18 2 19 1 20
REMARK H PARENT
REMARK Flexibility Score: inf
ROOT
ATOM      1  C   UNL     1       4.803   3.554 -10.742  1.00  0.00     0.000 C 
ENDROOT
BRANCH   1   2
ATOM      2  C   UNL     1       4.496   3.261  -9.269  1.00  0.00     0.000 C 
BRANCH   2   3
ATOM      3  C   UNL     1       5.790   3.030  -8.473  1.00  0.00     0.000 C 
BRANCH   3   4
ATOM      4  C   UNL     1       5.712   3.616  -7.047  1.00  0.00     0.000 C 
BRANCH   4   5
ATOM      5  C   UNL     1       7.072   4.070  -6.489  1.00  0.00     0.000 C 
BRANCH   5   6
ATOM      6  C   UNL     1       7.112   4.098  -4.954  1.00  0.00     0.000 C 
BRANCH   6   7
ATOM      7  C   UNL     1       8.187   3.150  -4.412  1.00  0.00     0.006 C 
BRANCH   7   8
ATOM      8  C   UNL     1       8.684   2.202  -5.506  1.00  0.00     0.053 C 
BRANCH   8   9
ATOM      9  C   UNL     1       8.094   0.839  -5.327  1.00  0.00     0.041 C 
ATOM     10  O   UNL     1       6.904   0.613  -5.671  1.00  0.00    -0.550 OA
ATOM     11  O   UNL     1       8.872  -0.193  -4.819  1.00  0.00    -0.550 OA
ENDBRANCH   8   9
ENDBRANCH   7   8
ENDBRANCH   6   7
ENDBRANCH   5   6
ENDBRANCH   4   5
ENDBRANCH   3   4
ENDBRANCH   2   3
ENDBRANCH   1   2
BRANCH   1  12
ATOM     12  C   UNL     1       5.111   5.042 -10.956  1.00  0.00     0.000 C 
BRANCH  12  13
ATOM     13  C   UNL     1       6.627   5.331 -10.991  1.00  0.00    -0.000 C 
BRANCH  13  14
ATOM     14  C   UNL     1       7.088   6.354  -9.935  1.00  0.00    -0.000 C 
BRANCH  14  15
ATOM     15  C   UNL     1       5.999   6.794  -8.937  1.00  0.00    -0.000 C 
BRANCH  15  16
ATOM     16  C   UNL     1       6.500   7.654  -7.762  1.00  0.00    -0.000 C 
BRANCH  16  17
ATOM     17  C   UNL     1       8.023   7.871  -7.788  1.00  0.00    -0.000 C 
BRANCH  17  18
ATOM     18  C   UNL     1       8.403   9.327  -8.108  1.00  0.00    -0.000 C 
BRANCH  18  19
ATOM     19  C   UNL     1       7.182  10.256  -8.171  1.00  0.00    -0.003 C 
ATOM     20  C   UNL     1       7.602  11.697  -8.449  1.00  0.00     0.004 C 
ENDBRANCH  18  19
ENDBRANCH  17  18
ENDBRANCH  16  17
ENDBRANCH  15  16
ENDBRANCH  14  15
ENDBRANCH  13  14
ENDBRANCH  12  13
ENDBRANCH   1  12
TORSDOF 16
ENDMDL
MODEL 6
REMARK VINA RESULT:    -4.068     14.774     17.013
REMARK INTER + INTRA:          -9.802
REMARK INTER:                  -7.438
REMARK INTRA:                  -2.364
REMARK UNBOUND:                -1.929
REMARK SMILES CCCCCCCCCCCCCCCCCC(=O)[O-]
REMARK SMILES IDX 10 1 11 2 12 3 13 4 14 5 15 6 16 7 17 8 18 9 19 10 20 11
REMARK SMILES IDX 9 12 8 13 7 14 6 15 5 16 4 17 3 18 2 19 1 20
REMARK H PARENT
REMARK Flexibility Score: inf
ROOT
ATOM      1  C   UNL     1       6.541   6.196  -6.393  1.00  0.00     0.000 C 
ENDROOT
BRANCH   1   2
ATOM      2  C   UNL     1       6.735   5.062  -5.380  1.00  0.00     0.000 C 
BRANCH   2   3
ATOM      3  C   UNL     1       5.754   3.909  -5.649  1.00  0.00     0.000 C 
BRANCH   3   4
ATOM      4  C   UNL     1       6.461   2.538  -5.698  1.00  0.00     0.000 C 
BRANCH   4   5
ATOM      5  C   UNL     1       6.723   2.027  -7.125  1.00  0.00     0.000 C 
BRANCH   5   6
ATOM      6  C   UNL     1       8.117   2.399  -7.649  1.00  0.00     0.000 C 
BRANCH   6   7
ATOM      7  C   UNL     1       9.155   2.383  -6.520  1.00  0.00     0.006 C 
BRANCH   7   8
ATOM      8  C   UNL     1       9.755   0.986  -6.348  1.00  0.00     0.053 C 
BRANCH   8   9
ATOM      9  C   UNL     1       9.423   0.435  -4.997  1.00  0.00     0.041 C 
ATOM     10  O   UNL     1       9.098   1.210  -4.060  1.00  0.00    -0.550 OA
ATOM     11  O   UNL     1       9.429  -0.938  -4.787  1.00  0.00    -0.550 OA
ENDBRANCH   8   9
ENDBRANCH   7   8
ENDBRANCH   6   7
ENDBRANCH   5   6
ENDBRANCH   4   5
ENDBRANCH   3   4
ENDBRANCH   2   3
ENDBRANCH   1   2
BRANCH   1  12
ATOM     12  C   UNL     1       7.336   5.929  -7.679  1.00  0.00     0.000 C 
BRANCH  12  13
ATOM     13  C   UNL     1       6.428   5.828  -8.923  1.00  0.00    -0.000 C 
BRANCH  13  14
ATOM     14  C   UNL     1       7.186   5.965 -10.256  1.00  0.00    -0.000 C 
BRANCH  14  15
ATOM     15  C   UNL     1       8.722   5.993 -10.132  1.00  0.00    -0.000 C 
BRANCH  15  16
ATOM     16  C   UNL     1       9.391   7.303 -10.590  1.00  0.00    -0.000 C 
BRANCH  16  17
ATOM     17  C   UNL     1       9.665   8.272  -9.427  1.00  0.00    -0.000 C 
BRANCH  17  18
ATOM     18  C   UNL     1       8.993   9.640  -9.631  1.00  0.00    -0.000 C 
BRANCH  18  19
ATOM     19  C   UNL     1       7.490   9.614  -9.317  1.00  0.00    -0.003 C 
ATOM     20  C   UNL     1       7.245   9.624  -7.810  1.00  0.00     0.004 C 
ENDBRANCH  18  19
ENDBRANCH  17  18
ENDBRANCH  16  17
ENDBRANCH  15  16
ENDBRANCH  14  15
ENDBRANCH  13  14
ENDBRANCH  12  13
ENDBRANCH   1  12
TORSDOF 16
ENDMDL
MODEL 7
REMARK VINA RESULT:    -4.036     14.273     16.338
REMARK INTER + INTRA:          -9.740
REMARK INTER:                  -6.726
REMARK INTRA:                  -3.014
REMARK UNBOUND:                -1.929
REMARK SMILES CCCCCCCCCCCCCCCCCC(=O)[O-]
REMARK SMILES IDX 10 1 11 2 12 3 13 4 14 5 15 6 16 7 17 8 18 9 19 10 20 11
REMARK SMILES IDX 9 12 8 13 7 14 6 15 5 16 4 17 3 18 2 19 1 20
REMARK H PARENT
REMARK Flexibility Score: inf
ROOT
ATOM      1  C   UNL     1       5.588   0.809  -9.961  1.00  0.00     0.000 C 
ENDROOT
BRANCH   1   2
ATOM      2  C   UNL     1       4.257   1.016 -10.692  1.00  0.00     0.000 C 
BRANCH   2   3
ATOM      3  C   UNL     1       4.052   2.496 -11.055  1.00  0.00     0.000 C 
BRANCH   3   4
ATOM      4  C   UNL     1       3.730   3.363  -9.820  1.00  0.00     0.000 C 
BRANCH   4   5
ATOM      5  C   UNL     1       4.685   4.553  -9.632  1.00  0.00     0.000 C 
BRANCH   5   6
ATOM      6  C   UNL     1       5.794   4.605 -10.694  1.00  0.00     0.000 C 
BRANCH   6   7
ATOM      7  C   UNL     1       6.976   5.458 -10.218  1.00  0.00     0.006 C 
BRANCH   7   8
ATOM      8  C   UNL     1       6.753   5.952  -8.786  1.00  0.00     0.053 C 
BRANCH   8   9
ATOM      9  C   UNL     1       8.020   6.515  -8.224  1.00  0.00     0.041 C 
ATOM     10  O   UNL     1       9.131   6.016  -8.541  1.00  0.00    -0.550 OA
ATOM     11  O   UNL     1       7.976   7.620  -7.384  1.00  0.00    -0.550 OA
ENDBRANCH   8   9
ENDBRANCH   7   8
ENDBRANCH   6   7
ENDBRANCH   5   6
ENDBRANCH   4   5
ENDBRANCH   3   4
ENDBRANCH   2   3
ENDBRANCH   1   2
BRANCH   1  12
ATOM     12  C   UNL     1       6.775   1.182 -10.860  1.00  0.00     0.000 C 
BRANCH  12  13
ATOM     13  C   UNL     1       8.132   1.018 -10.143  1.00  0.00    -0.000 C 
BRANCH  13  14
ATOM     14  C   UNL     1       8.779   2.353  -9.729  1.00  0.00    -0.000 C 
BRANCH  14  15
ATOM     15  C   UNL     1       8.726   2.661  -8.220  1.00  0.00    -0.000 C 
BRANCH  15  16
ATOM     16  C   UNL     1       8.460   1.445  -7.313  1.00  0.00    -0.000 C 
BRANCH  16  17
ATOM     17  C   UNL     1       7.179   1.596  -6.474  1.00  0.00    -0.000 C 
BRANCH  17  18
ATOM     18  C   UNL     1       6.371   2.848  -6.855  1.00  0.00    -0.000 C 
BRANCH  18  19
ATOM     19  C   UNL     1       5.825   3.595  -5.630  1.00  0.00    -0.003 C 
ATOM     20  C   UNL     1       6.756   4.734  -5.222  1.00  0.00     0.004 C 
ENDBRANCH  18  19
ENDBRANCH  17  18
ENDBRANCH  16  17
ENDBRANCH  15  16
ENDBRANCH  14  15
ENDBRANCH  13  14
ENDBRANCH  12  13
ENDBRANCH   1  12
TORSDOF 16
ENDMDL
MODEL 8
REMARK VINA RESULT:    -4.004     15.304     17.920
REMARK INTER + INTRA:          -9.678
REMARK INTER:                  -8.187
REMARK INTRA:                  -1.490
REMARK UNBOUND:                -1.929
REMARK SMILES CCCCCCCCCCCCCCCCCC(=O)[O-]
REMARK SMILES IDX 10 1 11 2 12 3 13 4 14 5 15 6 16 7 17 8 18 9 19 10 20 11
REMARK SMILES IDX 9 12 8 13 7 14 6 15 5 16 4 17 3 18 2 19 1 20
REMARK H PARENT
REMARK Flexibility Score: inf
ROOT
ATOM      1  C   UNL     1       7.613   2.763  -8.903  1.00  0.00     0.000 C 
ENDROOT
BRANCH   1   2
ATOM      2  C   UNL     1       6.301   3.518  -8.665  1.00  0.00     0.000 C 
BRANCH   2   3
ATOM      3  C   UNL     1       5.993   3.627  -7.164  1.00  0.00     0.000 C 
BRANCH   3   4
ATOM      4  C   UNL     1       6.443   4.980  -6.570  1.00  0.00     0.000 C 
BRANCH   4   5
ATOM      5  C   UNL     1       7.081   4.862  -5.176  1.00  0.00     0.000 C 
BRANCH   5   6
ATOM      6  C   UNL     1       7.170   3.412  -4.677  1.00  0.00     0.000 C 
BRANCH   6   7
ATOM      7  C   UNL     1       8.629   2.963  -4.541  1.00  0.00     0.006 C 
BRANCH   7   8
ATOM      8  C   UNL     1       8.999   1.961  -5.638  1.00  0.00     0.053 C 
BRANCH   8   9
ATOM      9  C   UNL     1       8.351   0.638  -5.379  1.00  0.00     0.041 C 
ATOM     10  O   UNL     1       7.132   0.467  -5.644  1.00  0.00    -0.550 OA
ATOM     11  O   UNL     1       9.104  -0.420  -4.886  1.00  0.00    -0.550 OA
ENDBRANCH   8   9
ENDBRANCH   7   8
ENDBRANCH   6   7
ENDBRANCH   5   6
ENDBRANCH   4   5
ENDBRANCH   3   4
ENDBRANCH   2   3
ENDBRANCH   1   2
BRANCH   1  12
ATOM     12  C   UNL     1       7.433   1.664  -9.960  1.00  0.00     0.000 C 
BRANCH  12  13
ATOM     13  C   UNL     1       6.346   0.641  -9.569  1.00  0.00    -0.000 C 
BRANCH  13  14
ATOM     14  C   UNL     1       5.412   0.254 -10.731  1.00  0.00    -0.000 C 
BRANCH  14  15
ATOM     15  C   UNL     1       3.913   0.504 -10.473  1.00  0.00    -0.000 C 
BRANCH  15  16
ATOM     16  C   UNL     1       3.036  -0.762 -10.442  1.00  0.00    -0.000 C 
BRANCH  16  17
ATOM     17  C   UNL     1       3.664  -1.903  -9.622  1.00  0.00    -0.000 C 
BRANCH  17  18
ATOM     18  C   UNL     1       3.357  -3.289 -10.215  1.00  0.00    -0.000 C 
BRANCH  18  19
ATOM     19  C   UNL     1       4.571  -4.229 -10.178  1.00  0.00    -0.003 C 
ATOM     20  C   UNL     1       5.877  -3.442 -10.248  1.00  0.00     0.004 C 
ENDBRANCH  18  19
ENDBRANCH  17  18
ENDBRANCH  16  17
ENDBRANCH  15  16
ENDBRANCH  14  15
ENDBRANCH  13  14
ENDBRANCH  12  13
ENDBRANCH   1  12
TORSDOF 16
ENDMDL
MODEL 9
REMARK VINA RESULT:    -3.905     14.372     16.954
REMARK INTER + INTRA:          -9.486
REMARK INTER:                  -6.821
REMARK INTRA:                  -2.665
REMARK UNBOUND:                -1.929
REMARK SMILES CCCCCCCCCCCCCCCCCC(=O)[O-]
REMARK SMILES IDX 10 1 11 2 12 3 13 4 14 5 15 6 16 7 17 8 18 9 19 10 20 11
REMARK SMILES IDX 9 12 8 13 7 14 6 15 5 16 4 17 3 18 2 19 1 20
REMARK H PARENT
REMARK Flexibility Score: inf
ROOT
ATOM      1  C   UNL     1       7.535   3.407  -4.599  1.00  0.00     0.000 C 
ENDROOT
BRANCH   1   2
ATOM      2  C   UNL     1       8.909   2.731  -4.568  1.00  0.00     0.000 C 
BRANCH   2   3
ATOM      3  C   UNL     1       8.901   1.427  -5.383  1.00  0.00     0.000 C 
BRANCH   3   4
ATOM      4  C   UNL     1       9.967   1.428  -6.499  1.00  0.00     0.000 C 
BRANCH   4   5
ATOM      5  C   UNL     1       9.407   1.085  -7.890  1.00  0.00     0.000 C 
BRANCH   5   6
ATOM      6  C   UNL     1       9.191   2.325  -8.772  1.00  0.00     0.000 C 
BRANCH   6   7
ATOM      7  C   UNL     1       7.869   2.233  -9.541  1.00  0.00     0.006 C 
BRANCH   7   8
ATOM      8  C   UNL     1       7.714   0.861 -10.202  1.00  0.00     0.053 C 
BRANCH   8   9
ATOM      9  C   UNL     1       6.350   0.303  -9.939  1.00  0.00     0.041 C 
ATOM     10  O   UNL     1       5.935   0.178  -8.758  1.00  0.00    -0.550 OA
ATOM     11  O   UNL     1       5.522  -0.036 -11.001  1.00  0.00    -0.550 OA
ENDBRANCH   8   9
ENDBRANCH   7   8
ENDBRANCH   6   7
ENDBRANCH   5   6
ENDBRANCH   4   5
ENDBRANCH   3   4
ENDBRANCH   2   3
ENDBRANCH   1   2
BRANCH   1  12
ATOM     12  C   UNL     1       6.577   2.666  -5.543  1.00  0.00     0.000 C 
BRANCH  12  13
ATOM     13  C   UNL     1       5.987   3.590  -6.629  1.00  0.00    -0.000 C 
BRANCH  13  14
ATOM     14  C   UNL     1       6.534   5.029  -6.582  1.00  0.00    -0.000 C 
BRANCH  14  15
ATOM     15  C   UNL     1       7.511   5.391  -7.718  1.00  0.00    -0.000 C 
BRANCH  15  16
ATOM     16  C   UNL     1       7.012   6.480  -8.686  1.00  0.00    -0.000 C 
BRANCH  16  17
ATOM     17  C   UNL     1       5.599   6.197  -9.225  1.00  0.00    -0.000 C 
BRANCH  17  18
ATOM     18  C   UNL     1       5.570   5.005 -10.196  1.00  0.00    -0.000 C 
BRANCH  18  19
ATOM     19  C   UNL     1       4.153   4.451 -10.409  1.00  0.00    -0.003 C 
ATOM     20  C   UNL     1       3.976   3.110  -9.702  1.00  0.00     0.004 C 
ENDBRANCH  18  19
ENDBRANCH  17  18
ENDBRANCH  16  17
ENDBRANCH  15  16
ENDBRANCH  14  15
ENDBRANCH  13  14
ENDBRANCH  12  13
ENDBRANCH   1  12
TORSDOF 16
ENDMDL
