MODEL 1
REMARK VINA RESULT:    -4.960      0.000      0.000
REMARK INTER + INTRA:          -6.148
REMARK INTER:                  -5.830
REMARK INTRA:                  -0.318
REMARK UNBOUND:                -0.318
REMARK SMILES O=c1cc(-c2ccc(O)c(O)c2)oc2cc(O)cc(O)c12
REMARK SMILES IDX 4 1 3 2 2 3 1 4 21 5 19 6 18 7 16 8 15 9 14 10 13 11 5 12
REMARK SMILES IDX 6 13 7 14 8 15 12 16 10 17 9 18 11 20 20 22 17 24
REMARK H PARENT 9 19 11 21 20 23 17 25
REMARK Flexibility Score: inf
ROOT
ATOM      1  C   UNL     1      10.786 -15.348  10.821  1.00  0.00     0.138 A 
ATOM      2  C   UNL     1      11.018 -16.642  10.327  1.00  0.00     0.100 A 
ATOM      3  C   UNL     1      10.687 -16.944   9.006  1.00  0.00     0.197 A 
ATOM      4  O   UNL     1      10.900 -18.109   8.572  1.00  0.00    -0.289 OA
ATOM      5  C   UNL     1      10.128 -15.945   8.184  1.00  0.00     0.107 A 
ATOM      6  C   UNL     1       9.763 -16.167   6.835  1.00  0.00     0.134 A 
ATOM      7  C   UNL     1       9.218 -15.116   6.081  1.00  0.00     0.093 A 
ATOM      8  C   UNL     1       9.031 -13.854   6.649  1.00  0.00     0.123 A 
ATOM      9  C   UNL     1       9.390 -13.629   7.982  1.00  0.00     0.094 A 
ATOM     10  C   UNL     1       9.934 -14.662   8.749  1.00  0.00     0.146 A 
ATOM     11  O   UNL     1      10.266 -14.424  10.015  1.00  0.00    -0.456 OA
ENDROOT
BRANCH   1  12
ATOM     12  C   UNL     1      11.119 -14.970  12.217  1.00  0.00     0.021 A 
ATOM     13  C   UNL     1      11.634 -15.941  13.092  1.00  0.00     0.016 A 
ATOM     14  C   UNL     1      11.961 -15.611  14.409  1.00  0.00     0.051 A 
ATOM     15  C   UNL     1      11.790 -14.304  14.873  1.00  0.00     0.157 A 
ATOM     16  C   UNL     1      10.961 -13.650  12.686  1.00  0.00     0.062 A 
ATOM     17  C   UNL     1      11.292 -13.317  14.007  1.00  0.00     0.158 A 
BRANCH  15  18
ATOM     18  O   UNL     1      12.125 -14.003  16.193  1.00  0.00    -0.504 OA
ATOM     19  H   UNL     1      11.972 -13.085  16.591  1.00  0.00     0.293 HD
ENDBRANCH  15  18
BRANCH  17  20
ATOM     20  O   UNL     1      11.130 -12.008  14.461  1.00  0.00    -0.504 OA
ATOM     21  H   UNL     1      10.620 -11.319  13.921  1.00  0.00     0.293 HD
ENDBRANCH  17  20
ENDBRANCH   1  12
BRANCH   6  22
ATOM     22  O   UNL     1       9.938 -17.417   6.240  1.00  0.00    -0.507 OA
ATOM     23  H   UNL     1      10.043 -17.520   5.237  1.00  0.00     0.293 HD
ENDBRANCH   6  22
BRANCH   8  24
ATOM     24  O   UNL     1       8.488 -12.829   5.878  1.00  0.00    -0.508 OA
ATOM     25  H   UNL     1       8.505 -12.860   4.865  1.00  0.00     0.293 HD
ENDBRANCH   8  24
TORSDOF 5
ENDMDL
MODEL 2
REMARK VINA RESULT:    -4.900      1.451      3.077
REMARK INTER + INTRA:          -6.077
REMARK INTER:                  -5.782
REMARK INTRA:                  -0.296
REMARK UNBOUND:                -0.318
REMARK SMILES O=c1cc(-c2ccc(O)c(O)c2)oc2cc(O)cc(O)c12
REMARK SMILES IDX 4 1 3 2 2 3 1 4 21 5 19 6 18 7 16 8 15 9 14 10 13 11 5 12
REMARK SMILES IDX 6 13 7 14 8 15 12 16 10 17 9 18 11 20 20 22 17 24
REMARK H PARENT 9 19 11 21 20 23 17 25
REMARK Flexibility Score: inf
ROOT
ATOM      1  C   UNL     1      10.967 -15.579  10.815  1.00  0.00     0.138 A 
ATOM      2  C   UNL     1      10.625 -14.737   9.744  1.00  0.00     0.100 A 
ATOM      3  C   UNL     1      10.367 -15.291   8.490  1.00  0.00     0.197 A 
ATOM      4  O   UNL     1      10.059 -14.527   7.535  1.00  0.00    -0.289 OA
ATOM      5  C   UNL     1      10.450 -16.687   8.316  1.00  0.00     0.107 A 
ATOM      6  C   UNL     1      10.206 -17.328   7.078  1.00  0.00     0.134 A 
ATOM      7  C   UNL     1      10.304 -18.725   6.989  1.00  0.00     0.093 A 
ATOM      8  C   UNL     1      10.641 -19.489   8.109  1.00  0.00     0.123 A 
ATOM      9  C   UNL     1      10.883 -18.859   9.335  1.00  0.00     0.094 A 
ATOM     10  C   UNL     1      10.791 -17.470   9.444  1.00  0.00     0.146 A 
ATOM     11  O   UNL     1      11.028 -16.894  10.620  1.00  0.00    -0.456 OA
ENDROOT
BRANCH   1  12
ATOM     12  C   UNL     1      11.251 -15.046  12.171  1.00  0.00     0.021 A 
ATOM     13  C   UNL     1      11.818 -15.890  13.141  1.00  0.00     0.016 A 
ATOM     14  C   UNL     1      12.101 -15.412  14.423  1.00  0.00     0.051 A 
ATOM     15  C   UNL     1      11.833 -14.082  14.756  1.00  0.00     0.157 A 
ATOM     16  C   UNL     1      10.995 -13.702  12.508  1.00  0.00     0.062 A 
ATOM     17  C   UNL     1      11.281 -13.220  13.794  1.00  0.00     0.158 A 
BRANCH  15  18
ATOM     18  O   UNL     1      12.125 -13.633  16.044  1.00  0.00    -0.504 OA
ATOM     19  H   UNL     1      11.454 -13.117  16.599  1.00  0.00     0.293 HD
ENDBRANCH  15  18
BRANCH  17  20
ATOM     20  O   UNL     1      11.022 -11.889  14.117  1.00  0.00    -0.504 OA
ATOM     21  H   UNL     1      10.891 -11.185  13.401  1.00  0.00     0.293 HD
ENDBRANCH  17  20
ENDBRANCH   1  12
BRANCH   6  22
ATOM     22  O   UNL     1       9.868 -16.593   5.942  1.00  0.00    -0.507 OA
ATOM     23  H   UNL     1       8.954 -16.670   5.509  1.00  0.00     0.293 HD
ENDBRANCH   6  22
BRANCH   8  24
ATOM     24  O   UNL     1      10.731 -20.874   7.993  1.00  0.00    -0.508 OA
ATOM     25  H   UNL     1       9.906 -21.463   8.012  1.00  0.00     0.293 HD
ENDBRANCH   8  24
TORSDOF 5
ENDMDL
MODEL 3
REMARK VINA RESULT:    -4.820     19.978     21.773
REMARK INTER + INTRA:          -5.983
REMARK INTER:                  -5.667
REMARK INTRA:                  -0.316
REMARK UNBOUND:                -0.318
REMARK SMILES O=c1cc(-c2ccc(O)c(O)c2)oc2cc(O)cc(O)c12
REMARK SMILES IDX 4 1 3 2 2 3 1 4 21 5 19 6 18 7 16 8 15 9 14 10 13 11 5 12
REMARK SMILES IDX 6 13 7 14 8 15 12 16 10 17 9 18 11 20 20 22 17 24
REMARK H PARENT 9 19 11 21 20 23 17 25
REMARK Flexibility Score: inf
ROOT
ATOM      1  C   UNL     1      -6.315 -11.942  22.646  1.00  0.00     0.138 A 
ATOM      2  C   UNL     1      -7.365 -12.858  22.823  1.00  0.00     0.100 A 
ATOM      3  C   UNL     1      -7.175 -13.972  23.641  1.00  0.00     0.197 A 
ATOM      4  O   UNL     1      -8.124 -14.788  23.795  1.00  0.00    -0.289 OA
ATOM      5  C   UNL     1      -5.933 -14.161  24.281  1.00  0.00     0.107 A 
ATOM      6  C   UNL     1      -5.657 -15.263  25.124  1.00  0.00     0.134 A 
ATOM      7  C   UNL     1      -4.396 -15.375  25.729  1.00  0.00     0.093 A 
ATOM      8  C   UNL     1      -3.410 -14.410  25.507  1.00  0.00     0.123 A 
ATOM      9  C   UNL     1      -3.678 -13.319  24.673  1.00  0.00     0.094 A 
ATOM     10  C   UNL     1      -4.928 -13.189  24.061  1.00  0.00     0.146 A 
ATOM     11  O   UNL     1      -5.158 -12.144  23.272  1.00  0.00    -0.456 OA
ENDROOT
BRANCH   1  12
ATOM     12  C   UNL     1      -6.461 -10.739  21.788  1.00  0.00     0.021 A 
ATOM     13  C   UNL     1      -7.741 -10.339  21.370  1.00  0.00     0.016 A 
ATOM     14  C   UNL     1      -7.907  -9.207  20.568  1.00  0.00     0.051 A 
ATOM     15  C   UNL     1      -6.799  -8.449  20.178  1.00  0.00     0.157 A 
ATOM     16  C   UNL     1      -5.349  -9.963  21.404  1.00  0.00     0.062 A 
ATOM     17  C   UNL     1      -5.514  -8.825  20.600  1.00  0.00     0.158 A 
BRANCH  15  18
ATOM     18  O   UNL     1      -6.995  -7.325  19.376  1.00  0.00    -0.504 OA
ATOM     19  H   UNL     1      -7.904  -6.895  19.265  1.00  0.00     0.293 HD
ENDBRANCH  15  18
BRANCH  17  20
ATOM     20  O   UNL     1      -4.406  -8.067  20.225  1.00  0.00    -0.504 OA
ATOM     21  H   UNL     1      -3.577  -8.496  19.832  1.00  0.00     0.293 HD
ENDBRANCH  17  20
ENDBRANCH   1  12
BRANCH   6  22
ATOM     22  O   UNL     1      -6.621 -16.242  25.366  1.00  0.00    -0.507 OA
ATOM     23  H   UNL     1      -6.377 -17.223  25.442  1.00  0.00     0.293 HD
ENDBRANCH   6  22
BRANCH   8  24
ATOM     24  O   UNL     1      -2.167 -14.546  26.119  1.00  0.00    -0.508 OA
ATOM     25  H   UNL     1      -1.442 -13.846  26.009  1.00  0.00     0.293 HD
ENDBRANCH   8  24
TORSDOF 5
ENDMDL
MODEL 4
REMARK VINA RESULT:    -4.647      2.102      6.811
REMARK INTER + INTRA:          -5.780
REMARK INTER:                  -5.466
REMARK INTRA:                  -0.314
REMARK UNBOUND:                -0.318
REMARK SMILES O=c1cc(-c2ccc(O)c(O)c2)oc2cc(O)cc(O)c12
REMARK SMILES IDX 4 1 3 2 2 3 1 4 21 5 19 6 18 7 16 8 15 9 14 10 13 11 5 12
REMARK SMILES IDX 6 13 7 14 8 15 12 16 10 17 9 18 11 20 20 22 17 24
REMARK H PARENT 9 19 11 21 20 23 17 25
REMARK Flexibility Score: inf
ROOT
ATOM      1  C   UNL     1      11.292 -16.953  10.991  1.00  0.00     0.138 A 
ATOM      2  C   UNL     1      11.644 -17.612  12.181  1.00  0.00     0.100 A 
ATOM      3  C   UNL     1      11.810 -16.874  13.353  1.00  0.00     0.197 A 
ATOM      4  O   UNL     1      12.125 -17.475  14.416  1.00  0.00    -0.289 OA
ATOM      5  C   UNL     1      11.618 -15.478  13.328  1.00  0.00     0.107 A 
ATOM      6  C   UNL     1      11.768 -14.656  14.470  1.00  0.00     0.134 A 
ATOM      7  C   UNL     1      11.553 -13.273  14.363  1.00  0.00     0.093 A 
ATOM      8  C   UNL     1      11.194 -12.700  13.140  1.00  0.00     0.123 A 
ATOM      9  C   UNL     1      11.045 -13.509  12.008  1.00  0.00     0.094 A 
ATOM     10  C   UNL     1      11.254 -14.887  12.094  1.00  0.00     0.146 A 
ATOM     11  O   UNL     1      11.109 -15.635  11.004  1.00  0.00    -0.456 OA
ENDROOT
BRANCH   1  12
ATOM     12  C   UNL     1      11.102 -17.687   9.715  1.00  0.00     0.021 A 
ATOM     13  C   UNL     1      11.604 -18.993   9.587  1.00  0.00     0.016 A 
ATOM     14  C   UNL     1      11.433 -19.709   8.400  1.00  0.00     0.051 A 
ATOM     15  C   UNL     1      10.750 -19.137   7.323  1.00  0.00     0.157 A 
ATOM     16  C   UNL     1      10.402 -17.121   8.631  1.00  0.00     0.062 A 
ATOM     17  C   UNL     1      10.228 -17.838   7.439  1.00  0.00     0.158 A 
BRANCH  15  18
ATOM     18  O   UNL     1      10.595 -19.874   6.149  1.00  0.00    -0.504 OA
ATOM     19  H   UNL     1      10.296 -19.447   5.281  1.00  0.00     0.293 HD
ENDBRANCH  15  18
BRANCH  17  20
ATOM     20  O   UNL     1       9.535 -17.267   6.373  1.00  0.00    -0.504 OA
ATOM     21  H   UNL     1       9.109 -16.351   6.446  1.00  0.00     0.293 HD
ENDBRANCH  17  20
ENDBRANCH   1  12
BRANCH   6  22
ATOM     22  O   UNL     1      12.125 -15.199  15.704  1.00  0.00    -0.507 OA
ATOM     23  H   UNL     1      12.106 -14.648  16.555  1.00  0.00     0.293 HD
ENDBRANCH   6  22
BRANCH   8  24
ATOM     24  O   UNL     1      10.986 -11.325  13.062  1.00  0.00    -0.508 OA
ATOM     25  H   UNL     1      11.313 -10.783  12.270  1.00  0.00     0.293 HD
ENDBRANCH   8  24
TORSDOF 5
ENDMDL
MODEL 5
REMARK VINA RESULT:    -4.275     19.675     21.456
REMARK INTER + INTRA:          -5.343
REMARK INTER:                  -5.053
REMARK INTRA:                  -0.289
REMARK UNBOUND:                -0.318
REMARK SMILES O=c1cc(-c2ccc(O)c(O)c2)oc2cc(O)cc(O)c12
REMARK SMILES IDX 4 1 3 2 2 3 1 4 21 5 19 6 18 7 16 8 15 9 14 10 13 11 5 12
REMARK SMILES IDX 6 13 7 14 8 15 12 16 10 17 9 18 11 20 20 22 17 24
REMARK H PARENT 9 19 11 21 20 23 17 25
REMARK Flexibility Score: inf
ROOT
ATOM      1  C   UNL     1      -6.536 -12.346  23.135  1.00  0.00     0.138 A 
ATOM      2  C   UNL     1      -7.475 -11.305  23.211  1.00  0.00     0.100 A 
ATOM      3  C   UNL     1      -7.275 -10.143  22.465  1.00  0.00     0.197 A 
ATOM      4  O   UNL     1      -8.125  -9.214  22.539  1.00  0.00    -0.289 OA
ATOM      5  C   UNL     1      -6.136 -10.032  21.643  1.00  0.00     0.107 A 
ATOM      6  C   UNL     1      -5.857  -8.889  20.857  1.00  0.00     0.134 A 
ATOM      7  C   UNL     1      -4.703  -8.859  20.059  1.00  0.00     0.093 A 
ATOM      8  C   UNL     1      -3.825  -9.946  20.034  1.00  0.00     0.123 A 
ATOM      9  C   UNL     1      -4.097 -11.079  20.810  1.00  0.00     0.094 A 
ATOM     10  C   UNL     1      -5.241 -11.127  21.611  1.00  0.00     0.146 A 
ATOM     11  O   UNL     1      -5.475 -12.214  22.341  1.00  0.00    -0.456 OA
ENDROOT
BRANCH   1  12
ATOM     12  C   UNL     1      -6.697 -13.605  23.905  1.00  0.00     0.021 A 
ATOM     13  C   UNL     1      -7.929 -14.281  23.874  1.00  0.00     0.016 A 
ATOM     14  C   UNL     1      -8.105 -15.471  24.584  1.00  0.00     0.051 A 
ATOM     15  C   UNL     1      -7.054 -16.012  25.329  1.00  0.00     0.157 A 
ATOM     16  C   UNL     1      -5.636 -14.162  24.646  1.00  0.00     0.062 A 
ATOM     17  C   UNL     1      -5.811 -15.358  25.358  1.00  0.00     0.158 A 
BRANCH  15  18
ATOM     18  O   UNL     1      -7.259 -17.200  26.029  1.00  0.00    -0.504 OA
ATOM     19  H   UNL     1      -6.720 -17.441  26.851  1.00  0.00     0.293 HD
ENDBRANCH  15  18
BRANCH  17  20
ATOM     20  O   UNL     1      -4.754 -15.898  26.089  1.00  0.00    -0.504 OA
ATOM     21  H   UNL     1      -4.338 -16.788  25.842  1.00  0.00     0.293 HD
ENDBRANCH  17  20
ENDBRANCH   1  12
BRANCH   6  22
ATOM     22  O   UNL     1      -6.714  -7.788  20.860  1.00  0.00    -0.507 OA
ATOM     23  H   UNL     1      -6.420  -6.882  20.515  1.00  0.00     0.293 HD
ENDBRANCH   6  22
BRANCH   8  24
ATOM     24  O   UNL     1      -2.687  -9.891  19.234  1.00  0.00    -0.508 OA
ATOM     25  H   UNL     1      -2.640  -9.289  18.419  1.00  0.00     0.293 HD
ENDBRANCH   8  24
TORSDOF 5
ENDMDL
MODEL 6
REMARK VINA RESULT:    -3.953     19.655     21.409
REMARK INTER + INTRA:          -4.964
REMARK INTER:                  -4.702
REMARK INTRA:                  -0.263
REMARK UNBOUND:                -0.318
REMARK SMILES O=c1cc(-c2ccc(O)c(O)c2)oc2cc(O)cc(O)c12
REMARK SMILES IDX 4 1 3 2 2 3 1 4 21 5 19 6 18 7 16 8 15 9 14 10 13 11 5 12
REMARK SMILES IDX 6 13 7 14 8 15 12 16 10 17 9 18 11 20 20 22 17 24
REMARK H PARENT 9 19 11 21 20 23 17 25
REMARK Flexibility Score: inf
ROOT
ATOM      1  C   UNL     1      -5.830 -11.729  23.656  1.00  0.00     0.138 A 
ATOM      2  C   UNL     1      -6.717 -10.873  24.330  1.00  0.00     0.100 A 
ATOM      3  C   UNL     1      -7.201  -9.736  23.683  1.00  0.00     0.197 A 
ATOM      4  O   UNL     1      -7.998  -8.975  24.297  1.00  0.00    -0.289 OA
ATOM      5  C   UNL     1      -6.797  -9.464  22.361  1.00  0.00     0.107 A 
ATOM      6  C   UNL     1      -7.238  -8.333  21.634  1.00  0.00     0.134 A 
ATOM      7  C   UNL     1      -6.793  -8.136  20.318  1.00  0.00     0.093 A 
ATOM      8  C   UNL     1      -5.918  -9.045  19.718  1.00  0.00     0.123 A 
ATOM      9  C   UNL     1      -5.478 -10.164  20.433  1.00  0.00     0.094 A 
ATOM     10  C   UNL     1      -5.909 -10.378  21.744  1.00  0.00     0.146 A 
ATOM     11  O   UNL     1      -5.476 -11.448  22.404  1.00  0.00    -0.456 OA
ENDROOT
BRANCH   1  12
ATOM     12  C   UNL     1      -5.284 -12.953  24.294  1.00  0.00     0.021 A 
ATOM     13  C   UNL     1      -6.095 -14.094  24.407  1.00  0.00     0.016 A 
ATOM     14  C   UNL     1      -5.604 -15.261  24.997  1.00  0.00     0.051 A 
ATOM     15  C   UNL     1      -4.292 -15.312  25.476  1.00  0.00     0.157 A 
ATOM     16  C   UNL     1      -3.957 -13.014  24.766  1.00  0.00     0.062 A 
ATOM     17  C   UNL     1      -3.462 -14.186  25.357  1.00  0.00     0.158 A 
BRANCH  15  18
ATOM     18  O   UNL     1      -3.829 -16.490  26.061  1.00  0.00    -0.504 OA
ATOM     19  H   UNL     1      -3.093 -16.493  26.756  1.00  0.00     0.293 HD
ENDBRANCH  15  18
BRANCH  17  20
ATOM     20  O   UNL     1      -2.149 -14.234  25.822  1.00  0.00    -0.504 OA
ATOM     21  H   UNL     1      -1.793 -13.552  26.481  1.00  0.00     0.293 HD
ENDBRANCH  17  20
ENDBRANCH   1  12
BRANCH   6  22
ATOM     22  O   UNL     1      -8.113  -7.408  22.205  1.00  0.00    -0.507 OA
ATOM     23  H   UNL     1      -7.805  -6.746  22.909  1.00  0.00     0.293 HD
ENDBRANCH   6  22
BRANCH   8  24
ATOM     24  O   UNL     1      -5.491  -8.825  18.410  1.00  0.00    -0.508 OA
ATOM     25  H   UNL     1      -5.953  -9.264  17.621  1.00  0.00     0.293 HD
ENDBRANCH   8  24
TORSDOF 5
ENDMDL
MODEL 7
REMARK VINA RESULT:    -3.868     15.276     17.492
REMARK INTER + INTRA:          -4.864
REMARK INTER:                  -4.549
REMARK INTRA:                  -0.315
REMARK UNBOUND:                -0.318
REMARK SMILES O=c1cc(-c2ccc(O)c(O)c2)oc2cc(O)cc(O)c12
REMARK SMILES IDX 4 1 3 2 2 3 1 4 21 5 19 6 18 7 16 8 15 9 14 10 13 11 5 12
REMARK SMILES IDX 6 13 7 14 8 15 12 16 10 17 9 18 11 20 20 22 17 24
REMARK H PARENT 9 19 11 21 20 23 17 25
REMARK Flexibility Score: inf
ROOT
ATOM      1  C   UNL     1      -2.477  -4.561   6.485  1.00  0.00     0.138 A 
ATOM      2  C   UNL     1      -3.748  -3.968   6.556  1.00  0.00     0.100 A 
ATOM      3  C   UNL     1      -4.886  -4.770   6.470  1.00  0.00     0.197 A 
ATOM      4  O   UNL     1      -6.023  -4.228   6.537  1.00  0.00    -0.289 OA
ATOM      5  C   UNL     1      -4.745  -6.164   6.316  1.00  0.00     0.107 A 
ATOM      6  C   UNL     1      -5.846  -7.047   6.219  1.00  0.00     0.134 A 
ATOM      7  C   UNL     1      -5.620  -8.425   6.073  1.00  0.00     0.093 A 
ATOM      8  C   UNL     1      -4.319  -8.932   6.021  1.00  0.00     0.123 A 
ATOM      9  C   UNL     1      -3.227  -8.063   6.116  1.00  0.00     0.094 A 
ATOM     10  C   UNL     1      -3.431  -6.688   6.262  1.00  0.00     0.146 A 
ATOM     11  O   UNL     1      -2.377  -5.882   6.349  1.00  0.00    -0.456 OA
ENDROOT
BRANCH   1  12
ATOM     12  C   UNL     1      -1.231  -3.758   6.571  1.00  0.00     0.021 A 
ATOM     13  C   UNL     1      -1.296  -2.362   6.419  1.00  0.00     0.016 A 
ATOM     14  C   UNL     1      -0.140  -1.583   6.503  1.00  0.00     0.051 A 
ATOM     15  C   UNL     1       1.099  -2.180   6.749  1.00  0.00     0.157 A 
ATOM     16  C   UNL     1       0.019  -4.354   6.834  1.00  0.00     0.062 A 
ATOM     17  C   UNL     1       1.180  -3.572   6.920  1.00  0.00     0.158 A 
BRANCH  15  18
ATOM     18  O   UNL     1       2.236  -1.377   6.826  1.00  0.00    -0.504 OA
ATOM     19  H   UNL     1       3.068  -1.568   6.282  1.00  0.00     0.293 HD
ENDBRANCH  15  18
BRANCH  17  20
ATOM     20  O   UNL     1       2.411  -4.173   7.178  1.00  0.00    -0.504 OA
ATOM     21  H   UNL     1       3.223  -3.990   6.601  1.00  0.00     0.293 HD
ENDBRANCH  17  20
ENDBRANCH   1  12
BRANCH   6  22
ATOM     22  O   UNL     1      -7.156  -6.571   6.268  1.00  0.00    -0.507 OA
ATOM     23  H   UNL     1      -7.932  -7.169   6.527  1.00  0.00     0.293 HD
ENDBRANCH   6  22
BRANCH   8  24
ATOM     24  O   UNL     1      -4.123 -10.303   5.875  1.00  0.00    -0.508 OA
ATOM     25  H   UNL     1      -3.462 -10.809   6.454  1.00  0.00     0.293 HD
ENDBRANCH   8  24
TORSDOF 5
ENDMDL
MODEL 8
REMARK VINA RESULT:    -3.773     15.997     18.680
REMARK INTER + INTRA:          -4.753
REMARK INTER:                  -4.482
REMARK INTRA:                  -0.271
REMARK UNBOUND:                -0.318
REMARK SMILES O=c1cc(-c2ccc(O)c(O)c2)oc2cc(O)cc(O)c12
REMARK SMILES IDX 4 1 3 2 2 3 1 4 21 5 19 6 18 7 16 8 15 9 14 10 13 11 5 12
REMARK SMILES IDX 6 13 7 14 8 15 12 16 10 17 9 18 11 20 20 22 17 24
REMARK H PARENT 9 19 11 21 20 23 17 25
REMARK Flexibility Score: inf
ROOT
ATOM      1  C   UNL     1      -2.508  -3.224   7.543  1.00  0.00     0.138 A 
ATOM      2  C   UNL     1      -3.522  -3.516   6.616  1.00  0.00     0.100 A 
ATOM      3  C   UNL     1      -4.803  -3.826   7.073  1.00  0.00     0.197 A 
ATOM      4  O   UNL     1      -5.706  -4.086   6.231  1.00  0.00    -0.289 OA
ATOM      5  C   UNL     1      -5.064  -3.839   8.457  1.00  0.00     0.107 A 
ATOM      6  C   UNL     1      -6.333  -4.145   9.003  1.00  0.00     0.134 A 
ATOM      7  C   UNL     1      -6.512  -4.130  10.395  1.00  0.00     0.093 A 
ATOM      8  C   UNL     1      -5.449  -3.818  11.247  1.00  0.00     0.123 A 
ATOM      9  C   UNL     1      -4.192  -3.515  10.712  1.00  0.00     0.094 A 
ATOM     10  C   UNL     1      -3.994  -3.524   9.329  1.00  0.00     0.146 A 
ATOM     11  O   UNL     1      -2.790  -3.235   8.845  1.00  0.00    -0.456 OA
ENDROOT
BRANCH   1  12
ATOM     12  C   UNL     1      -1.127  -2.886   7.116  1.00  0.00     0.021 A 
ATOM     13  C   UNL     1      -0.886  -1.668   6.457  1.00  0.00     0.016 A 
ATOM     14  C   UNL     1       0.404  -1.323   6.050  1.00  0.00     0.051 A 
ATOM     15  C   UNL     1       1.478  -2.181   6.301  1.00  0.00     0.157 A 
ATOM     16  C   UNL     1      -0.039  -3.742   7.379  1.00  0.00     0.062 A 
ATOM     17  C   UNL     1       1.257  -3.395   6.972  1.00  0.00     0.158 A 
BRANCH  15  18
ATOM     18  O   UNL     1       2.755  -1.811   5.882  1.00  0.00    -0.504 OA
ATOM     19  H   UNL     1       3.576  -2.359   6.108  1.00  0.00     0.293 HD
ENDBRANCH  15  18
BRANCH  17  20
ATOM     20  O   UNL     1       2.326  -4.251   7.237  1.00  0.00    -0.504 OA
ATOM     21  H   UNL     1       3.286  -3.932   7.188  1.00  0.00     0.293 HD
ENDBRANCH  17  20
ENDBRANCH   1  12
BRANCH   6  22
ATOM     22  O   UNL     1      -7.412  -4.461   8.178  1.00  0.00    -0.507 OA
ATOM     23  H   UNL     1      -8.361  -4.501   8.533  1.00  0.00     0.293 HD
ENDBRANCH   6  22
BRANCH   8  24
ATOM     24  O   UNL     1      -5.654  -3.810  12.625  1.00  0.00    -0.508 OA
ATOM     25  H   UNL     1      -6.183  -3.073  13.078  1.00  0.00     0.293 HD
ENDBRANCH   8  24
TORSDOF 5
ENDMDL
