MODEL 1
REMARK VINA RESULT:    -4.922      0.000      0.000
REMARK INTER + INTRA:         -17.569
REMARK INTER:                 -12.980
REMARK INTRA:                  -4.589
REMARK UNBOUND:                -4.589
REMARK SMILES CCCCCCCCCCCCCCCCCCCCCCCCCCCCCC(=O)[O-]
REMARK SMILES IDX 16 1 17 2 18 3 19 4 20 5 21 6 22 7 23 8 24 9 25 10 26 11
REMARK SMILES IDX 27 12 28 13 29 14 30 15 31 16 32 17 15 18 14 19 13 20 12 21
REMARK SMILES IDX 11 22 10 23 9 24 8 25 7 26 6 27 5 28 4 29 3 30 2 31 1 32
REMARK H PARENT
REMARK Flexibility Score: inf
ROOT
ATOM      1  C   UNL     1      32.214  56.249  26.609  1.00  0.00     0.000 C 
ENDROOT
BRANCH   1   2
ATOM      2  C   UNL     1      33.685  56.265  26.153  1.00  0.00     0.000 C 
BRANCH   2   3
ATOM      3  C   UNL     1      34.570  57.172  27.020  1.00  0.00     0.000 C 
BRANCH   3   4
ATOM      4  C   UNL     1      36.020  56.665  27.033  1.00  0.00     0.000 C 
BRANCH   4   5
ATOM      5  C   UNL     1      36.734  56.923  28.369  1.00  0.00     0.000 C 
BRANCH   5   6
ATOM      6  C   UNL     1      36.359  58.281  28.988  1.00  0.00     0.000 C 
BRANCH   6   7
ATOM      7  C   UNL     1      35.536  58.144  30.283  1.00  0.00     0.000 C 
BRANCH   7   8
ATOM      8  C   UNL     1      35.199  56.697  30.689  1.00  0.00     0.000 C 
BRANCH   8   9
ATOM      9  C   UNL     1      33.685  56.420  30.714  1.00  0.00     0.000 C 
BRANCH   9  10
ATOM     10  C   UNL     1      33.275  55.502  31.875  1.00  0.00     0.000 C 
BRANCH  10  11
ATOM     11  C   UNL     1      32.282  56.179  32.836  1.00  0.00     0.000 C 
BRANCH  11  12
ATOM     12  C   UNL     1      32.534  55.816  34.309  1.00  0.00     0.000 C 
BRANCH  12  13
ATOM     13  C   UNL     1      33.897  56.271  34.872  1.00  0.00     0.006 C 
BRANCH  13  14
ATOM     14  C   UNL     1      34.303  57.698  34.459  1.00  0.00     0.053 C 
BRANCH  14  15
ATOM     15  C   UNL     1      35.780  57.833  34.239  1.00  0.00     0.041 C 
ATOM     16  O   UNL     1      36.361  58.922  34.487  1.00  0.00    -0.550 OA
ATOM     17  O   UNL     1      36.523  56.745  33.797  1.00  0.00    -0.550 OA
ENDBRANCH  14  15
ENDBRANCH  13  14
ENDBRANCH  12  13
ENDBRANCH  11  12
ENDBRANCH  10  11
ENDBRANCH   9  10
ENDBRANCH   8   9
ENDBRANCH   7   8
ENDBRANCH   6   7
ENDBRANCH   5   6
ENDBRANCH   4   5
ENDBRANCH   3   4
ENDBRANCH   2   3
ENDBRANCH   1   2
BRANCH   1  18
ATOM     18  C   UNL     1      31.895  55.261  27.749  1.00  0.00     0.000 C 
BRANCH  18  19
ATOM     19  C   UNL     1      32.561  53.875  27.625  1.00  0.00     0.000 C 
BRANCH  19  20
ATOM     20  C   UNL     1      33.739  53.628  28.586  1.00  0.00     0.000 C 
BRANCH  20  21
ATOM     21  C   UNL     1      33.444  52.531  29.623  1.00  0.00     0.000 C 
BRANCH  21  22
ATOM     22  C   UNL     1      32.000  52.010  29.539  1.00  0.00     0.000 C 
BRANCH  22  23
ATOM     23  C   UNL     1      31.912  50.479  29.659  1.00  0.00     0.000 C 
BRANCH  23  24
ATOM     24  C   UNL     1      31.320  50.027  31.004  1.00  0.00    -0.000 C 
BRANCH  24  25
ATOM     25  C   UNL     1      30.253  50.993  31.538  1.00  0.00    -0.000 C 
BRANCH  25  26
ATOM     26  C   UNL     1      30.579  51.426  32.975  1.00  0.00    -0.000 C 
BRANCH  26  27
ATOM     27  C   UNL     1      31.680  52.499  33.044  1.00  0.00    -0.000 C 
BRANCH  27  28
ATOM     28  C   UNL     1      32.915  52.113  33.881  1.00  0.00    -0.000 C 
BRANCH  28  29
ATOM     29  C   UNL     1      34.004  51.330  33.122  1.00  0.00    -0.000 C 
BRANCH  29  30
ATOM     30  C   UNL     1      34.545  50.090  33.857  1.00  0.00    -0.000 C 
BRANCH  30  31
ATOM     31  C   UNL     1      36.067  49.935  33.723  1.00  0.00    -0.003 C 
ATOM     32  C   UNL     1      36.801  51.036  34.483  1.00  0.00     0.004 C 
ENDBRANCH  30  31
ENDBRANCH  29  30
ENDBRANCH  28  29
ENDBRANCH  27  28
ENDBRANCH  26  27
ENDBRANCH  25  26
ENDBRANCH  24  25
ENDBRANCH  23  24
ENDBRANCH  22  23
ENDBRANCH  21  22
ENDBRANCH  20  21
ENDBRANCH  19  20
ENDBRANCH  18  19
ENDBRANCH   1  18
TORSDOF 28
ENDMDL
MODEL 2
REMARK VINA RESULT:    -4.903      3.139      7.023
REMARK INTER + INTRA:         -17.518
REMARK INTER:                 -12.001
REMARK INTRA:                  -5.518
REMARK UNBOUND:                -4.589
REMARK SMILES CCCCCCCCCCCCCCCCCCCCCCCCCCCCCC(=O)[O-]
REMARK SMILES IDX 16 1 17 2 18 3 19 4 20 5 21 6 22 7 23 8 24 9 25 10 26 11
REMARK SMILES IDX 27 12 28 13 29 14 30 15 31 16 32 17 15 18 14 19 13 20 12 21
REMARK SMILES IDX 11 22 10 23 9 24 8 25 7 26 6 27 5 28 4 29 3 30 2 31 1 32
REMARK H PARENT
REMARK Flexibility Score: inf
ROOT
ATOM      1  C   UNL     1      32.714  55.900  33.888  1.00  0.00     0.000 C 
ENDROOT
BRANCH   1   2
ATOM      2  C   UNL     1      33.750  56.454  34.884  1.00  0.00     0.000 C 
BRANCH   2   3
ATOM      3  C   UNL     1      34.795  57.359  34.218  1.00  0.00     0.000 C 
BRANCH   3   4
ATOM      4  C   UNL     1      36.187  56.710  34.264  1.00  0.00     0.000 C 
BRANCH   4   5
ATOM      5  C   UNL     1      36.303  55.476  33.355  1.00  0.00     0.000 C 
BRANCH   5   6
ATOM      6  C   UNL     1      36.999  54.292  34.050  1.00  0.00     0.000 C 
BRANCH   6   7
ATOM      7  C   UNL     1      36.084  53.563  35.052  1.00  0.00     0.000 C 
BRANCH   7   8
ATOM      8  C   UNL     1      35.573  52.187  34.586  1.00  0.00     0.000 C 
BRANCH   8   9
ATOM      9  C   UNL     1      35.344  52.117  33.066  1.00  0.00     0.000 C 
BRANCH   9  10
ATOM     10  C   UNL     1      33.991  52.711  32.647  1.00  0.00     0.000 C 
BRANCH  10  11
ATOM     11  C   UNL     1      32.802  51.881  33.164  1.00  0.00     0.000 C 
BRANCH  11  12
ATOM     12  C   UNL     1      31.465  52.639  33.084  1.00  0.00     0.000 C 
BRANCH  12  13
ATOM     13  C   UNL     1      30.253  51.784  32.662  1.00  0.00     0.006 C 
BRANCH  13  14
ATOM     14  C   UNL     1      30.310  50.325  33.154  1.00  0.00     0.053 C 
BRANCH  14  15
ATOM     15  C   UNL     1      29.352  49.435  32.421  1.00  0.00     0.041 C 
ATOM     16  O   UNL     1      29.783  48.511  31.683  1.00  0.00    -0.550 OA
ATOM     17  O   UNL     1      27.981  49.599  32.584  1.00  0.00    -0.550 OA
ENDBRANCH  14  15
ENDBRANCH  13  14
ENDBRANCH  12  13
ENDBRANCH  11  12
ENDBRANCH  10  11
ENDBRANCH   9  10
ENDBRANCH   8   9
ENDBRANCH   7   8
ENDBRANCH   6   7
ENDBRANCH   5   6
ENDBRANCH   4   5
ENDBRANCH   3   4
ENDBRANCH   2   3
ENDBRANCH   1   2
BRANCH   1  18
ATOM     18  C   UNL     1      32.563  56.710  32.584  1.00  0.00     0.000 C 
BRANCH  18  19
ATOM     19  C   UNL     1      32.619  55.882  31.284  1.00  0.00     0.000 C 
BRANCH  19  20
ATOM     20  C   UNL     1      33.978  55.894  30.559  1.00  0.00     0.000 C 
BRANCH  20  21
ATOM     21  C   UNL     1      34.633  57.287  30.544  1.00  0.00     0.000 C 
BRANCH  21  22
ATOM     22  C   UNL     1      35.394  57.568  29.237  1.00  0.00     0.000 C 
BRANCH  22  23
ATOM     23  C   UNL     1      35.151  56.493  28.164  1.00  0.00     0.000 C 
BRANCH  23  24
ATOM     24  C   UNL     1      34.619  57.084  26.848  1.00  0.00    -0.000 C 
BRANCH  24  25
ATOM     25  C   UNL     1      33.667  56.130  26.111  1.00  0.00    -0.000 C 
BRANCH  25  26
ATOM     26  C   UNL     1      32.227  56.297  26.620  1.00  0.00    -0.000 C 
BRANCH  26  27
ATOM     27  C   UNL     1      31.728  55.079  27.418  1.00  0.00    -0.000 C 
BRANCH  27  28
ATOM     28  C   UNL     1      32.513  53.775  27.176  1.00  0.00    -0.000 C 
BRANCH  28  29
ATOM     29  C   UNL     1      33.209  53.187  28.420  1.00  0.00    -0.000 C 
BRANCH  29  30
ATOM     30  C   UNL     1      32.259  52.578  29.468  1.00  0.00    -0.000 C 
BRANCH  30  31
ATOM     31  C   UNL     1      32.401  51.053  29.583  1.00  0.00    -0.003 C 
ATOM     32  C   UNL     1      31.185  50.342  28.994  1.00  0.00     0.004 C 
ENDBRANCH  30  31
ENDBRANCH  29  30
ENDBRANCH  28  29
ENDBRANCH  27  28
ENDBRANCH  26  27
ENDBRANCH  25  26
ENDBRANCH  24  25
ENDBRANCH  23  24
ENDBRANCH  22  23
ENDBRANCH  21  22
ENDBRANCH  20  21
ENDBRANCH  19  20
ENDBRANCH  18  19
ENDBRANCH   1  18
TORSDOF 28
ENDMDL
MODEL 3
REMARK VINA RESULT:    -4.851      2.682      6.355
REMARK INTER + INTRA:         -17.380
REMARK INTER:                 -12.411
REMARK INTRA:                  -4.970
REMARK UNBOUND:                -4.589
REMARK SMILES CCCCCCCCCCCCCCCCCCCCCCCCCCCCCC(=O)[O-]
REMARK SMILES IDX 16 1 17 2 18 3 19 4 20 5 21 6 22 7 23 8 24 9 25 10 26 11
REMARK SMILES IDX 27 12 28 13 29 14 30 15 31 16 32 17 15 18 14 19 13 20 12 21
REMARK SMILES IDX 11 22 10 23 9 24 8 25 7 26 6 27 5 28 4 29 3 30 2 31 1 32
REMARK H PARENT
REMARK Flexibility Score: inf
ROOT
ATOM      1  C   UNL     1      33.315  53.514  34.470  1.00  0.00     0.000 C 
ENDROOT
BRANCH   1   2
ATOM      2  C   UNL     1      32.236  54.293  33.696  1.00  0.00     0.000 C 
BRANCH   2   3
ATOM      3  C   UNL     1      32.251  55.798  33.998  1.00  0.00     0.000 C 
BRANCH   3   4
ATOM      4  C   UNL     1      32.233  56.615  32.697  1.00  0.00     0.000 C 
BRANCH   4   5
ATOM      5  C   UNL     1      32.619  55.784  31.462  1.00  0.00     0.000 C 
BRANCH   5   6
ATOM      6  C   UNL     1      34.082  56.000  31.037  1.00  0.00     0.000 C 
BRANCH   6   7
ATOM      7  C   UNL     1      34.683  57.303  31.597  1.00  0.00     0.000 C 
BRANCH   7   8
ATOM      8  C   UNL     1      35.371  58.204  30.555  1.00  0.00     0.000 C 
BRANCH   8   9
ATOM      9  C   UNL     1      36.115  57.405  29.471  1.00  0.00     0.000 C 
BRANCH   9  10
ATOM     10  C   UNL     1      35.812  57.915  28.054  1.00  0.00     0.000 C 
BRANCH  10  11
ATOM     11  C   UNL     1      35.585  56.768  27.054  1.00  0.00     0.000 C 
BRANCH  11  12
ATOM     12  C   UNL     1      34.533  57.107  25.984  1.00  0.00     0.000 C 
BRANCH  12  13
ATOM     13  C   UNL     1      33.291  56.194  25.975  1.00  0.00     0.006 C 
BRANCH  13  14
ATOM     14  C   UNL     1      33.261  55.162  27.118  1.00  0.00     0.053 C 
BRANCH  14  15
ATOM     15  C   UNL     1      31.897  54.572  27.322  1.00  0.00     0.041 C 
ATOM     16  O   UNL     1      30.883  55.317  27.365  1.00  0.00    -0.550 OA
ATOM     17  O   UNL     1      31.740  53.195  27.426  1.00  0.00    -0.550 OA
ENDBRANCH  14  15
ENDBRANCH  13  14
ENDBRANCH  12  13
ENDBRANCH  11  12
ENDBRANCH  10  11
ENDBRANCH   9  10
ENDBRANCH   8   9
ENDBRANCH   7   8
ENDBRANCH   6   7
ENDBRANCH   5   6
ENDBRANCH   4   5
ENDBRANCH   3   4
ENDBRANCH   2   3
ENDBRANCH   1   2
BRANCH   1  18
ATOM     18  C   UNL     1      34.705  54.179  34.500  1.00  0.00     0.000 C 
BRANCH  18  19
ATOM     19  C   UNL     1      35.676  53.727  33.389  1.00  0.00     0.000 C 
BRANCH  19  20
ATOM     20  C   UNL     1      36.719  52.680  33.820  1.00  0.00     0.000 C 
BRANCH  20  21
ATOM     21  C   UNL     1      36.378  51.261  33.331  1.00  0.00     0.000 C 
BRANCH  21  22
ATOM     22  C   UNL     1      36.716  50.179  34.370  1.00  0.00     0.000 C 
BRANCH  22  23
ATOM     23  C   UNL     1      36.244  50.547  35.787  1.00  0.00     0.000 C 
BRANCH  23  24
ATOM     24  C   UNL     1      34.762  50.208  36.020  1.00  0.00    -0.000 C 
BRANCH  24  25
ATOM     25  C   UNL     1      34.436  48.737  35.722  1.00  0.00    -0.000 C 
BRANCH  25  26
ATOM     26  C   UNL     1      33.264  48.628  34.735  1.00  0.00    -0.000 C 
BRANCH  26  27
ATOM     27  C   UNL     1      33.690  48.099  33.354  1.00  0.00    -0.000 C 
BRANCH  27  28
ATOM     28  C   UNL     1      33.250  48.968  32.159  1.00  0.00    -0.000 C 
BRANCH  28  29
ATOM     29  C   UNL     1      33.059  50.466  32.473  1.00  0.00    -0.000 C 
BRANCH  29  30
ATOM     30  C   UNL     1      31.758  51.083  31.929  1.00  0.00    -0.000 C 
BRANCH  30  31
ATOM     31  C   UNL     1      31.969  51.856  30.619  1.00  0.00    -0.003 C 
ATOM     32  C   UNL     1      33.404  52.361  30.503  1.00  0.00     0.004 C 
ENDBRANCH  30  31
ENDBRANCH  29  30
ENDBRANCH  28  29
ENDBRANCH  27  28
ENDBRANCH  26  27
ENDBRANCH  25  26
ENDBRANCH  24  25
ENDBRANCH  23  24
ENDBRANCH  22  23
ENDBRANCH  21  22
ENDBRANCH  20  21
ENDBRANCH  19  20
ENDBRANCH  18  19
ENDBRANCH   1  18
TORSDOF 28
ENDMDL
MODEL 4
REMARK VINA RESULT:    -4.811      2.621      6.235
REMARK INTER + INTRA:         -17.275
REMARK INTER:                 -12.943
REMARK INTRA:                  -4.332
REMARK UNBOUND:                -4.589
REMARK SMILES CCCCCCCCCCCCCCCCCCCCCCCCCCCCCC(=O)[O-]
REMARK SMILES IDX 16 1 17 2 18 3 19 4 20 5 21 6 22 7 23 8 24 9 25 10 26 11
REMARK SMILES IDX 27 12 28 13 29 14 30 15 31 16 32 17 15 18 14 19 13 20 12 21
REMARK SMILES IDX 11 22 10 23 9 24 8 25 7 26 6 27 5 28 4 29 3 30 2 31 1 32
REMARK H PARENT
REMARK Flexibility Score: inf
ROOT
ATOM      1  C   UNL     1      35.009  55.558  34.899  1.00  0.00     0.000 C 
ENDROOT
BRANCH   1   2
ATOM      2  C   UNL     1      33.731  56.417  34.876  1.00  0.00     0.000 C 
BRANCH   2   3
ATOM      3  C   UNL     1      32.609  55.798  34.030  1.00  0.00     0.000 C 
BRANCH   3   4
ATOM      4  C   UNL     1      32.483  56.521  32.680  1.00  0.00     0.000 C 
BRANCH   4   5
ATOM      5  C   UNL     1      32.642  55.577  31.477  1.00  0.00     0.000 C 
BRANCH   5   6
ATOM      6  C   UNL     1      34.038  55.665  30.835  1.00  0.00     0.000 C 
BRANCH   6   7
ATOM      7  C   UNL     1      34.881  56.827  31.393  1.00  0.00     0.000 C 
BRANCH   7   8
ATOM      8  C   UNL     1      35.179  57.957  30.389  1.00  0.00     0.000 C 
BRANCH   8   9
ATOM      9  C   UNL     1      36.181  57.540  29.298  1.00  0.00     0.000 C 
BRANCH   9  10
ATOM     10  C   UNL     1      35.611  57.705  27.882  1.00  0.00     0.000 C 
BRANCH  10  11
ATOM     11  C   UNL     1      35.009  56.398  27.336  1.00  0.00     0.000 C 
BRANCH  11  12
ATOM     12  C   UNL     1      33.590  56.584  26.771  1.00  0.00     0.000 C 
BRANCH  12  13
ATOM     13  C   UNL     1      32.810  55.278  26.519  1.00  0.00     0.006 C 
BRANCH  13  14
ATOM     14  C   UNL     1      32.103  54.718  27.767  1.00  0.00     0.053 C 
BRANCH  14  15
ATOM     15  C   UNL     1      32.603  53.356  28.148  1.00  0.00     0.041 C 
ATOM     16  O   UNL     1      33.831  53.167  28.354  1.00  0.00    -0.550 OA
ATOM     17  O   UNL     1      31.710  52.304  28.314  1.00  0.00    -0.550 OA
ENDBRANCH  14  15
ENDBRANCH  13  14
ENDBRANCH  12  13
ENDBRANCH  11  12
ENDBRANCH  10  11
ENDBRANCH   9  10
ENDBRANCH   8   9
ENDBRANCH   7   8
ENDBRANCH   6   7
ENDBRANCH   5   6
ENDBRANCH   4   5
ENDBRANCH   3   4
ENDBRANCH   2   3
ENDBRANCH   1   2
BRANCH   1  18
ATOM     18  C   UNL     1      34.781  54.045  34.707  1.00  0.00     0.000 C 
BRANCH  18  19
ATOM     19  C   UNL     1      35.435  53.435  33.450  1.00  0.00     0.000 C 
BRANCH  19  20
ATOM     20  C   UNL     1      34.867  52.071  33.015  1.00  0.00     0.000 C 
BRANCH  20  21
ATOM     21  C   UNL     1      34.223  52.111  31.618  1.00  0.00     0.000 C 
BRANCH  21  22
ATOM     22  C   UNL     1      32.966  51.229  31.521  1.00  0.00     0.000 C 
BRANCH  22  23
ATOM     23  C   UNL     1      32.186  51.157  32.844  1.00  0.00     0.000 C 
BRANCH  23  24
ATOM     24  C   UNL     1      31.133  52.270  32.969  1.00  0.00    -0.000 C 
BRANCH  24  25
ATOM     25  C   UNL     1      29.712  51.780  32.655  1.00  0.00    -0.000 C 
BRANCH  25  26
ATOM     26  C   UNL     1      29.737  50.338  32.128  1.00  0.00    -0.000 C 
BRANCH  26  27
ATOM     27  C   UNL     1      29.395  50.239  30.631  1.00  0.00    -0.000 C 
BRANCH  27  28
ATOM     28  C   UNL     1      30.260  49.247  29.829  1.00  0.00    -0.000 C 
BRANCH  28  29
ATOM     29  C   UNL     1      29.547  47.946  29.409  1.00  0.00    -0.000 C 
BRANCH  29  30
ATOM     30  C   UNL     1      29.810  47.501  27.958  1.00  0.00    -0.000 C 
BRANCH  30  31
ATOM     31  C   UNL     1      31.288  47.620  27.558  1.00  0.00    -0.003 C 
ATOM     32  C   UNL     1      32.125  46.528  28.216  1.00  0.00     0.004 C 
ENDBRANCH  30  31
ENDBRANCH  29  30
ENDBRANCH  28  29
ENDBRANCH  27  28
ENDBRANCH  26  27
ENDBRANCH  25  26
ENDBRANCH  24  25
ENDBRANCH  23  24
ENDBRANCH  22  23
ENDBRANCH  21  22
ENDBRANCH  20  21
ENDBRANCH  19  20
ENDBRANCH  18  19
ENDBRANCH   1  18
TORSDOF 28
ENDMDL
MODEL 5
REMARK VINA RESULT:    -4.799      2.816      7.804
REMARK INTER + INTRA:         -17.244
REMARK INTER:                 -12.413
REMARK INTRA:                  -4.830
REMARK UNBOUND:                -4.589
REMARK SMILES CCCCCCCCCCCCCCCCCCCCCCCCCCCCCC(=O)[O-]
REMARK SMILES IDX 16 1 17 2 18 3 19 4 20 5 21 6 22 7 23 8 24 9 25 10 26 11
REMARK SMILES IDX 27 12 28 13 29 14 30 15 31 16 32 17 15 18 14 19 13 20 12 21
REMARK SMILES IDX 11 22 10 23 9 24 8 25 7 26 6 27 5 28 4 29 3 30 2 31 1 32
REMARK H PARENT
REMARK Flexibility Score: inf
ROOT
ATOM      1  C   UNL     1      33.744  52.185  31.046  1.00  0.00     0.000 C 
ENDROOT
BRANCH   1   2
ATOM      2  C   UNL     1      33.130  52.029  32.450  1.00  0.00     0.000 C 
BRANCH   2   3
ATOM      3  C   UNL     1      34.164  52.178  33.575  1.00  0.00     0.000 C 
BRANCH   3   4
ATOM      4  C   UNL     1      35.593  52.134  33.011  1.00  0.00     0.000 C 
BRANCH   4   5
ATOM      5  C   UNL     1      36.390  50.911  33.493  1.00  0.00     0.000 C 
BRANCH   5   6
ATOM      6  C   UNL     1      35.946  50.425  34.884  1.00  0.00     0.000 C 
BRANCH   6   7
ATOM      7  C   UNL     1      35.909  48.889  34.998  1.00  0.00     0.000 C 
BRANCH   7   8
ATOM      8  C   UNL     1      34.511  48.288  35.233  1.00  0.00     0.000 C 
BRANCH   8   9
ATOM      9  C   UNL     1      33.507  48.655  34.126  1.00  0.00     0.000 C 
BRANCH   9  10
ATOM     10  C   UNL     1      33.795  47.925  32.805  1.00  0.00     0.000 C 
BRANCH  10  11
ATOM     11  C   UNL     1      33.023  48.531  31.620  1.00  0.00     0.000 C 
BRANCH  11  12
ATOM     12  C   UNL     1      31.500  48.523  31.833  1.00  0.00     0.000 C 
BRANCH  12  13
ATOM     13  C   UNL     1      30.668  48.990  30.621  1.00  0.00     0.006 C 
BRANCH  13  14
ATOM     14  C   UNL     1      30.192  50.452  30.712  1.00  0.00     0.053 C 
BRANCH  14  15
ATOM     15  C   UNL     1      29.101  50.639  31.723  1.00  0.00     0.041 C 
ATOM     16  O   UNL     1      28.091  49.887  31.713  1.00  0.00    -0.550 OA
ATOM     17  O   UNL     1      29.215  51.619  32.702  1.00  0.00    -0.550 OA
ENDBRANCH  14  15
ENDBRANCH  13  14
ENDBRANCH  12  13
ENDBRANCH  11  12
ENDBRANCH  10  11
ENDBRANCH   9  10
ENDBRANCH   8   9
ENDBRANCH   7   8
ENDBRANCH   6   7
ENDBRANCH   5   6
ENDBRANCH   4   5
ENDBRANCH   3   4
ENDBRANCH   2   3
ENDBRANCH   1   2
BRANCH   1  18
ATOM     18  C   UNL     1      32.777  52.708  29.965  1.00  0.00     0.000 C 
BRANCH  18  19
ATOM     19  C   UNL     1      33.391  53.701  28.957  1.00  0.00     0.000 C 
BRANCH  19  20
ATOM     20  C   UNL     1      32.581  54.992  28.736  1.00  0.00     0.000 C 
BRANCH  20  21
ATOM     21  C   UNL     1      31.953  55.071  27.334  1.00  0.00     0.000 C 
BRANCH  21  22
ATOM     22  C   UNL     1      32.394  56.323  26.557  1.00  0.00     0.000 C 
BRANCH  22  23
ATOM     23  C   UNL     1      33.841  56.225  26.043  1.00  0.00     0.000 C 
BRANCH  23  24
ATOM     24  C   UNL     1      34.770  57.260  26.697  1.00  0.00    -0.000 C 
BRANCH  24  25
ATOM     25  C   UNL     1      35.928  56.613  27.471  1.00  0.00    -0.000 C 
BRANCH  25  26
ATOM     26  C   UNL     1      36.187  57.359  28.788  1.00  0.00    -0.000 C 
BRANCH  26  27
ATOM     27  C   UNL     1      34.935  57.458  29.678  1.00  0.00    -0.000 C 
BRANCH  27  28
ATOM     28  C   UNL     1      35.200  57.909  31.128  1.00  0.00    -0.000 C 
BRANCH  28  29
ATOM     29  C   UNL     1      35.255  56.772  32.169  1.00  0.00    -0.000 C 
BRANCH  29  30
ATOM     30  C   UNL     1      34.168  55.694  32.011  1.00  0.00    -0.000 C 
BRANCH  30  31
ATOM     31  C   UNL     1      32.761  56.216  32.335  1.00  0.00    -0.003 C 
ATOM     32  C   UNL     1      32.217  55.576  33.609  1.00  0.00     0.004 C 
ENDBRANCH  30  31
ENDBRANCH  29  30
ENDBRANCH  28  29
ENDBRANCH  27  28
ENDBRANCH  26  27
ENDBRANCH  25  26
ENDBRANCH  24  25
ENDBRANCH  23  24
ENDBRANCH  22  23
ENDBRANCH  21  22
ENDBRANCH  20  21
ENDBRANCH  19  20
ENDBRANCH  18  19
ENDBRANCH   1  18
TORSDOF 28
ENDMDL
MODEL 6
REMARK VINA RESULT:    -4.788      2.569      5.935
REMARK INTER + INTRA:         -17.215
REMARK INTER:                 -12.227
REMARK INTRA:                  -4.988
REMARK UNBOUND:                -4.589
REMARK SMILES CCCCCCCCCCCCCCCCCCCCCCCCCCCCCC(=O)[O-]
REMARK SMILES IDX 16 1 17 2 18 3 19 4 20 5 21 6 22 7 23 8 24 9 25 10 26 11
REMARK SMILES IDX 27 12 28 13 29 14 30 15 31 16 32 17 15 18 14 19 13 20 12 21
REMARK SMILES IDX 11 22 10 23 9 24 8 25 7 26 6 27 5 28 4 29 3 30 2 31 1 32
REMARK H PARENT
REMARK Flexibility Score: inf
ROOT
ATOM      1  C   UNL     1      33.404  53.511  34.289  1.00  0.00     0.000 C 
ENDROOT
BRANCH   1   2
ATOM      2  C   UNL     1      33.483  55.044  34.407  1.00  0.00     0.000 C 
BRANCH   2   3
ATOM      3  C   UNL     1      32.213  55.749  33.909  1.00  0.00     0.000 C 
BRANCH   3   4
ATOM      4  C   UNL     1      32.473  56.458  32.571  1.00  0.00     0.000 C 
BRANCH   4   5
ATOM      5  C   UNL     1      33.909  56.992  32.445  1.00  0.00     0.000 C 
BRANCH   5   6
ATOM      6  C   UNL     1      34.471  56.849  31.020  1.00  0.00     0.000 C 
BRANCH   6   7
ATOM      7  C   UNL     1      35.459  57.973  30.650  1.00  0.00     0.000 C 
BRANCH   7   8
ATOM      8  C   UNL     1      35.676  58.178  29.139  1.00  0.00     0.000 C 
BRANCH   8   9
ATOM      9  C   UNL     1      36.568  57.095  28.510  1.00  0.00     0.000 C 
BRANCH   9  10
ATOM     10  C   UNL     1      35.897  56.402  27.314  1.00  0.00     0.000 C 
BRANCH  10  11
ATOM     11  C   UNL     1      34.717  57.215  26.753  1.00  0.00     0.000 C 
BRANCH  11  12
ATOM     12  C   UNL     1      33.687  56.342  26.015  1.00  0.00     0.000 C 
BRANCH  12  13
ATOM     13  C   UNL     1      32.327  56.194  26.726  1.00  0.00     0.006 C 
BRANCH  13  14
ATOM     14  C   UNL     1      32.385  55.384  28.035  1.00  0.00     0.053 C 
BRANCH  14  15
ATOM     15  C   UNL     1      32.621  53.923  27.795  1.00  0.00     0.041 C 
ATOM     16  O   UNL     1      31.792  53.248  27.130  1.00  0.00    -0.550 OA
ATOM     17  O   UNL     1      33.775  53.313  28.272  1.00  0.00    -0.550 OA
ENDBRANCH  14  15
ENDBRANCH  13  14
ENDBRANCH  12  13
ENDBRANCH  11  12
ENDBRANCH  10  11
ENDBRANCH   9  10
ENDBRANCH   8   9
ENDBRANCH   7   8
ENDBRANCH   6   7
ENDBRANCH   5   6
ENDBRANCH   4   5
ENDBRANCH   3   4
ENDBRANCH   2   3
ENDBRANCH   1   2
BRANCH   1  18
ATOM     18  C   UNL     1      34.292  52.894  33.189  1.00  0.00     0.000 C 
BRANCH  18  19
ATOM     19  C   UNL     1      33.750  53.032  31.751  1.00  0.00     0.000 C 
BRANCH  19  20
ATOM     20  C   UNL     1      32.230  52.838  31.604  1.00  0.00     0.000 C 
BRANCH  20  21
ATOM     21  C   UNL     1      31.864  51.693  30.644  1.00  0.00     0.000 C 
BRANCH  21  22
ATOM     22  C   UNL     1      30.566  50.974  31.047  1.00  0.00     0.000 C 
BRANCH  22  23
ATOM     23  C   UNL     1      30.111  51.324  32.474  1.00  0.00     0.000 C 
BRANCH  23  24
ATOM     24  C   UNL     1      30.332  50.168  33.463  1.00  0.00    -0.000 C 
BRANCH  24  25
ATOM     25  C   UNL     1      31.589  50.356  34.324  1.00  0.00    -0.000 C 
BRANCH  25  26
ATOM     26  C   UNL     1      32.578  49.201  34.105  1.00  0.00    -0.000 C 
BRANCH  26  27
ATOM     27  C   UNL     1      33.339  49.307  32.771  1.00  0.00    -0.000 C 
BRANCH  27  28
ATOM     28  C   UNL     1      33.379  48.010  31.939  1.00  0.00    -0.000 C 
BRANCH  28  29
ATOM     29  C   UNL     1      32.001  47.425  31.569  1.00  0.00    -0.000 C 
BRANCH  29  30
ATOM     30  C   UNL     1      31.671  47.443  30.065  1.00  0.00    -0.000 C 
BRANCH  30  31
ATOM     31  C   UNL     1      30.279  46.872  29.756  1.00  0.00    -0.003 C 
ATOM     32  C   UNL     1      29.193  47.920  29.981  1.00  0.00     0.004 C 
ENDBRANCH  30  31
ENDBRANCH  29  30
ENDBRANCH  28  29
ENDBRANCH  27  28
ENDBRANCH  26  27
ENDBRANCH  25  26
ENDBRANCH  24  25
ENDBRANCH  23  24
ENDBRANCH  22  23
ENDBRANCH  21  22
ENDBRANCH  20  21
ENDBRANCH  19  20
ENDBRANCH  18  19
ENDBRANCH   1  18
TORSDOF 28
ENDMDL
MODEL 7
REMARK VINA RESULT:    -4.718      2.890      8.047
REMARK INTER + INTRA:         -17.030
REMARK INTER:                 -12.081
REMARK INTRA:                  -4.948
REMARK UNBOUND:                -4.589
REMARK SMILES CCCCCCCCCCCCCCCCCCCCCCCCCCCCCC(=O)[O-]
REMARK SMILES IDX 16 1 17 2 18 3 19 4 20 5 21 6 22 7 23 8 24 9 25 10 26 11
REMARK SMILES IDX 27 12 28 13 29 14 30 15 31 16 32 17 15 18 14 19 13 20 12 21
REMARK SMILES IDX 11 22 10 23 9 24 8 25 7 26 6 27 5 28 4 29 3 30 2 31 1 32
REMARK H PARENT
REMARK Flexibility Score: inf
ROOT
ATOM      1  C   UNL     1      32.363  53.830  33.641  1.00  0.00     0.000 C 
ENDROOT
BRANCH   1   2
ATOM      2  C   UNL     1      33.494  53.181  34.459  1.00  0.00     0.000 C 
BRANCH   2   3
ATOM      3  C   UNL     1      34.876  53.351  33.812  1.00  0.00     0.000 C 
BRANCH   3   4
ATOM      4  C   UNL     1      35.186  52.175  32.874  1.00  0.00     0.000 C 
BRANCH   4   5
ATOM      5  C   UNL     1      36.346  51.300  33.373  1.00  0.00     0.000 C 
BRANCH   5   6
ATOM      6  C   UNL     1      36.342  51.127  34.903  1.00  0.00     0.000 C 
BRANCH   6   7
ATOM      7  C   UNL     1      35.757  49.775  35.352  1.00  0.00     0.000 C 
BRANCH   7   8
ATOM      8  C   UNL     1      35.631  48.718  34.239  1.00  0.00     0.000 C 
BRANCH   8   9
ATOM      9  C   UNL     1      34.169  48.373  33.903  1.00  0.00     0.000 C 
BRANCH   9  10
ATOM     10  C   UNL     1      33.167  49.202  34.722  1.00  0.00     0.000 C 
BRANCH  10  11
ATOM     11  C   UNL     1      32.125  49.905  33.834  1.00  0.00     0.000 C 
BRANCH  11  12
ATOM     12  C   UNL     1      32.482  49.853  32.339  1.00  0.00     0.000 C 
BRANCH  12  13
ATOM     13  C   UNL     1      31.571  48.952  31.480  1.00  0.00     0.006 C 
BRANCH  13  14
ATOM     14  C   UNL     1      30.081  49.015  31.864  1.00  0.00     0.053 C 
BRANCH  14  15
ATOM     15  C   UNL     1      29.383  50.197  31.261  1.00  0.00     0.041 C 
ATOM     16  O   UNL     1      28.965  51.130  31.997  1.00  0.00    -0.550 OA
ATOM     17  O   UNL     1      29.227  50.289  29.883  1.00  0.00    -0.550 OA
ENDBRANCH  14  15
ENDBRANCH  13  14
ENDBRANCH  12  13
ENDBRANCH  11  12
ENDBRANCH  10  11
ENDBRANCH   9  10
ENDBRANCH   8   9
ENDBRANCH   7   8
ENDBRANCH   6   7
ENDBRANCH   5   6
ENDBRANCH   4   5
ENDBRANCH   3   4
ENDBRANCH   2   3
ENDBRANCH   1   2
BRANCH   1  18
ATOM     18  C   UNL     1      31.929  55.229  34.123  1.00  0.00     0.000 C 
BRANCH  18  19
ATOM     19  C   UNL     1      32.472  56.410  33.293  1.00  0.00     0.000 C 
BRANCH  19  20
ATOM     20  C   UNL     1      32.642  56.129  31.789  1.00  0.00     0.000 C 
BRANCH  20  21
ATOM     21  C   UNL     1      34.106  56.224  31.325  1.00  0.00     0.000 C 
BRANCH  21  22
ATOM     22  C   UNL     1      34.837  57.441  31.916  1.00  0.00     0.000 C 
BRANCH  22  23
ATOM     23  C   UNL     1      35.629  58.230  30.860  1.00  0.00     0.000 C 
BRANCH  23  24
ATOM     24  C   UNL     1      35.267  57.818  29.424  1.00  0.00    -0.000 C 
BRANCH  24  25
ATOM     25  C   UNL     1      36.454  57.208  28.664  1.00  0.00    -0.000 C 
BRANCH  25  26
ATOM     26  C   UNL     1      35.972  56.449  27.419  1.00  0.00    -0.000 C 
BRANCH  26  27
ATOM     27  C   UNL     1      34.663  57.016  26.840  1.00  0.00    -0.000 C 
BRANCH  27  28
ATOM     28  C   UNL     1      33.555  55.973  26.592  1.00  0.00    -0.000 C 
BRANCH  28  29
ATOM     29  C   UNL     1      32.958  55.337  27.864  1.00  0.00    -0.000 C 
BRANCH  29  30
ATOM     30  C   UNL     1      33.036  53.800  27.918  1.00  0.00    -0.000 C 
BRANCH  30  31
ATOM     31  C   UNL     1      33.454  53.274  29.299  1.00  0.00    -0.003 C 
ATOM     32  C   UNL     1      32.326  52.478  29.949  1.00  0.00     0.004 C 
ENDBRANCH  30  31
ENDBRANCH  29  30
ENDBRANCH  28  29
ENDBRANCH  27  28
ENDBRANCH  26  27
ENDBRANCH  25  26
ENDBRANCH  24  25
ENDBRANCH  23  24
ENDBRANCH  22  23
ENDBRANCH  21  22
ENDBRANCH  20  21
ENDBRANCH  19  20
ENDBRANCH  18  19
ENDBRANCH   1  18
TORSDOF 28
ENDMDL
MODEL 8
REMARK VINA RESULT:    -4.693      2.858      6.416
REMARK INTER + INTRA:         -16.965
REMARK INTER:                 -11.782
REMARK INTRA:                  -5.183
REMARK UNBOUND:                -4.589
REMARK SMILES CCCCCCCCCCCCCCCCCCCCCCCCCCCCCC(=O)[O-]
REMARK SMILES IDX 16 1 17 2 18 3 19 4 20 5 21 6 22 7 23 8 24 9 25 10 26 11
REMARK SMILES IDX 27 12 28 13 29 14 30 15 31 16 32 17 15 18 14 19 13 20 12 21
REMARK SMILES IDX 11 22 10 23 9 24 8 25 7 26 6 27 5 28 4 29 3 30 2 31 1 32
REMARK H PARENT
REMARK Flexibility Score: inf
ROOT
ATOM      1  C   UNL     1      33.123  55.909  31.029  1.00  0.00     0.000 C 
ENDROOT
BRANCH   1   2
ATOM      2  C   UNL     1      32.611  55.263  32.330  1.00  0.00     0.000 C 
BRANCH   2   3
ATOM      3  C   UNL     1      32.531  56.254  33.500  1.00  0.00     0.000 C 
BRANCH   3   4
ATOM      4  C   UNL     1      33.043  55.609  34.797  1.00  0.00     0.000 C 
BRANCH   4   5
ATOM      5  C   UNL     1      34.123  56.447  35.498  1.00  0.00     0.000 C 
BRANCH   5   6
ATOM      6  C   UNL     1      35.089  57.118  34.506  1.00  0.00     0.000 C 
BRANCH   6   7
ATOM      7  C   UNL     1      36.474  56.445  34.471  1.00  0.00     0.000 C 
BRANCH   7   8
ATOM      8  C   UNL     1      36.460  54.914  34.644  1.00  0.00     0.000 C 
BRANCH   8   9
ATOM      9  C   UNL     1      36.074  54.169  33.354  1.00  0.00     0.000 C 
BRANCH   9  10
ATOM     10  C   UNL     1      36.132  52.643  33.517  1.00  0.00     0.000 C 
BRANCH  10  11
ATOM     11  C   UNL     1      36.808  52.220  34.833  1.00  0.00     0.000 C 
BRANCH  11  12
ATOM     12  C   UNL     1      36.755  50.701  35.071  1.00  0.00     0.000 C 
BRANCH  12  13
ATOM     13  C   UNL     1      36.084  49.886  33.946  1.00  0.00     0.006 C 
BRANCH  13  14
ATOM     14  C   UNL     1      35.026  48.883  34.442  1.00  0.00     0.053 C 
BRANCH  14  15
ATOM     15  C   UNL     1      35.174  47.532  33.808  1.00  0.00     0.041 C 
ATOM     16  O   UNL     1      35.214  46.497  34.524  1.00  0.00    -0.550 OA
ATOM     17  O   UNL     1      35.229  47.411  32.424  1.00  0.00    -0.550 OA
ENDBRANCH  14  15
ENDBRANCH  13  14
ENDBRANCH  12  13
ENDBRANCH  11  12
ENDBRANCH  10  11
ENDBRANCH   9  10
ENDBRANCH   8   9
ENDBRANCH   7   8
ENDBRANCH   6   7
ENDBRANCH   5   6
ENDBRANCH   4   5
ENDBRANCH   3   4
ENDBRANCH   2   3
ENDBRANCH   1   2
BRANCH   1  18
ATOM     18  C   UNL     1      34.608  56.324  31.047  1.00  0.00     0.000 C 
BRANCH  18  19
ATOM     19  C   UNL     1      34.889  57.784  30.637  1.00  0.00     0.000 C 
BRANCH  19  20
ATOM     20  C   UNL     1      35.970  57.963  29.555  1.00  0.00     0.000 C 
BRANCH  20  21
ATOM     21  C   UNL     1      35.818  56.969  28.390  1.00  0.00     0.000 C 
BRANCH  21  22
ATOM     22  C   UNL     1      35.084  57.578  27.184  1.00  0.00     0.000 C 
BRANCH  22  23
ATOM     23  C   UNL     1      33.992  56.651  26.622  1.00  0.00     0.000 C 
BRANCH  23  24
ATOM     24  C   UNL     1      33.826  55.367  27.451  1.00  0.00    -0.000 C 
BRANCH  24  25
ATOM     25  C   UNL     1      32.366  54.899  27.535  1.00  0.00    -0.000 C 
BRANCH  25  26
ATOM     26  C   UNL     1      32.276  53.506  28.175  1.00  0.00    -0.000 C 
BRANCH  26  27
ATOM     27  C   UNL     1      33.591  53.066  28.843  1.00  0.00    -0.000 C 
BRANCH  27  28
ATOM     28  C   UNL     1      33.423  52.286  30.161  1.00  0.00    -0.000 C 
BRANCH  28  29
ATOM     29  C   UNL     1      32.014  51.709  30.408  1.00  0.00    -0.000 C 
BRANCH  29  30
ATOM     30  C   UNL     1      31.544  51.747  31.874  1.00  0.00    -0.000 C 
BRANCH  30  31
ATOM     31  C   UNL     1      32.563  51.126  32.841  1.00  0.00    -0.003 C 
ATOM     32  C   UNL     1      32.682  51.951  34.119  1.00  0.00     0.004 C 
ENDBRANCH  30  31
ENDBRANCH  29  30
ENDBRANCH  28  29
ENDBRANCH  27  28
ENDBRANCH  26  27
ENDBRANCH  25  26
ENDBRANCH  24  25
ENDBRANCH  23  24
ENDBRANCH  22  23
ENDBRANCH  21  22
ENDBRANCH  20  21
ENDBRANCH  19  20
ENDBRANCH  18  19
ENDBRANCH   1  18
TORSDOF 28
ENDMDL
MODEL 9
REMARK VINA RESULT:    -4.683      2.886      8.043
REMARK INTER + INTRA:         -16.939
REMARK INTER:                 -12.664
REMARK INTRA:                  -4.274
REMARK UNBOUND:                -4.589
REMARK SMILES CCCCCCCCCCCCCCCCCCCCCCCCCCCCCC(=O)[O-]
REMARK SMILES IDX 16 1 17 2 18 3 19 4 20 5 21 6 22 7 23 8 24 9 25 10 26 11
REMARK SMILES IDX 27 12 28 13 29 14 30 15 31 16 32 17 15 18 14 19 13 20 12 21
REMARK SMILES IDX 11 22 10 23 9 24 8 25 7 26 6 27 5 28 4 29 3 30 2 31 1 32
REMARK H PARENT
REMARK Flexibility Score: inf
ROOT
ATOM      1  C   UNL     1      36.077  55.155  33.966  1.00  0.00     0.000 C 
ENDROOT
BRANCH   1   2
ATOM      2  C   UNL     1      36.392  53.669  33.710  1.00  0.00     0.000 C 
BRANCH   2   3
ATOM      3  C   UNL     1      35.131  52.806  33.569  1.00  0.00     0.000 C 
BRANCH   3   4
ATOM      4  C   UNL     1      35.489  51.397  33.071  1.00  0.00     0.000 C 
BRANCH   4   5
ATOM      5  C   UNL     1      36.788  50.856  33.688  1.00  0.00     0.000 C 
BRANCH   5   6
ATOM      6  C   UNL     1      36.550  50.112  35.015  1.00  0.00     0.000 C 
BRANCH   6   7
ATOM      7  C   UNL     1      35.257  49.274  35.008  1.00  0.00     0.000 C 
BRANCH   7   8
ATOM      8  C   UNL     1      35.455  47.774  34.724  1.00  0.00     0.000 C 
BRANCH   8   9
ATOM      9  C   UNL     1      35.190  47.403  33.254  1.00  0.00     0.000 C 
BRANCH   9  10
ATOM     10  C   UNL     1      33.690  47.302  32.936  1.00  0.00     0.000 C 
BRANCH  10  11
ATOM     11  C   UNL     1      33.295  48.141  31.708  1.00  0.00     0.000 C 
BRANCH  11  12
ATOM     12  C   UNL     1      32.361  49.312  32.060  1.00  0.00     0.000 C 
BRANCH  12  13
ATOM     13  C   UNL     1      31.288  49.635  31.001  1.00  0.00     0.006 C 
BRANCH  13  14
ATOM     14  C   UNL     1      30.683  51.045  31.127  1.00  0.00     0.053 C 
BRANCH  14  15
ATOM     15  C   UNL     1      29.365  51.042  31.843  1.00  0.00     0.041 C 
ATOM     16  O   UNL     1      28.438  50.281  31.461  1.00  0.00    -0.550 OA
ATOM     17  O   UNL     1      29.173  51.851  32.957  1.00  0.00    -0.550 OA
ENDBRANCH  14  15
ENDBRANCH  13  14
ENDBRANCH  12  13
ENDBRANCH  11  12
ENDBRANCH  10  11
ENDBRANCH   9  10
ENDBRANCH   8   9
ENDBRANCH   7   8
ENDBRANCH   6   7
ENDBRANCH   5   6
ENDBRANCH   4   5
ENDBRANCH   3   4
ENDBRANCH   2   3
ENDBRANCH   1   2
BRANCH   1  18
ATOM     18  C   UNL     1      34.796  55.419  34.782  1.00  0.00     0.000 C 
BRANCH  18  19
ATOM     19  C   UNL     1      34.268  56.867  34.728  1.00  0.00     0.000 C 
BRANCH  19  20
ATOM     20  C   UNL     1      33.348  57.184  33.534  1.00  0.00     0.000 C 
BRANCH  20  21
ATOM     21  C   UNL     1      32.550  55.959  33.054  1.00  0.00     0.000 C 
BRANCH  21  22
ATOM     22  C   UNL     1      32.541  55.821  31.523  1.00  0.00     0.000 C 
BRANCH  22  23
ATOM     23  C   UNL     1      33.671  54.917  31.000  1.00  0.00     0.000 C 
BRANCH  23  24
ATOM     24  C   UNL     1      33.166  53.526  30.583  1.00  0.00    -0.000 C 
BRANCH  24  25
ATOM     25  C   UNL     1      32.809  53.447  29.091  1.00  0.00    -0.000 C 
BRANCH  25  26
ATOM     26  C   UNL     1      33.719  54.368  28.264  1.00  0.00    -0.000 C 
BRANCH  26  27
ATOM     27  C   UNL     1      32.935  55.300  27.323  1.00  0.00    -0.000 C 
BRANCH  27  28
ATOM     28  C   UNL     1      33.681  56.583  26.906  1.00  0.00    -0.000 C 
BRANCH  28  29
ATOM     29  C   UNL     1      35.194  56.588  27.203  1.00  0.00    -0.000 C 
BRANCH  29  30
ATOM     30  C   UNL     1      35.683  57.772  28.058  1.00  0.00    -0.000 C 
BRANCH  30  31
ATOM     31  C   UNL     1      36.074  57.355  29.483  1.00  0.00    -0.003 C 
ATOM     32  C   UNL     1      35.291  58.151  30.523  1.00  0.00     0.004 C 
ENDBRANCH  30  31
ENDBRANCH  29  30
ENDBRANCH  28  29
ENDBRANCH  27  28
ENDBRANCH  26  27
ENDBRANCH  25  26
ENDBRANCH  24  25
ENDBRANCH  23  24
ENDBRANCH  22  23
ENDBRANCH  21  22
ENDBRANCH  20  21
ENDBRANCH  19  20
ENDBRANCH  18  19
ENDBRANCH   1  18
TORSDOF 28
ENDMDL
