MODEL 1
REMARK VINA RESULT:    -4.150      0.000      0.000
REMARK INTER + INTRA:          -4.935
REMARK INTER:                  -4.999
REMARK INTRA:                   0.064
REMARK UNBOUND:                 0.064
REMARK SMILES O=c1c(O)c(-c2ccc(O)c(O)c2)oc2cc(O)cc(O)c12
REMARK SMILES IDX 5 1 3 2 2 3 1 4 22 5 20 6 19 7 17 8 16 9 15 10 14 11 6 12
REMARK SMILES IDX 7 13 8 14 9 15 13 16 11 17 10 18 12 20 4 22 21 24 18 26
REMARK H PARENT 10 19 12 21 4 23 21 25 18 27
REMARK Flexibility Score: inf
ROOT
ATOM      1  C   UNL     1     -31.698 -22.013 -33.866  1.00  0.00     0.180 A 
ATOM      2  C   UNL     1     -32.497 -20.941 -34.299  1.00  0.00     0.208 A 
ATOM      3  C   UNL     1     -32.994 -20.949 -35.612  1.00  0.00     0.238 A 
ATOM      4  O   UNL     1     -33.754 -20.015 -35.977  1.00  0.00    -0.285 OA
ATOM      5  C   UNL     1     -32.673 -22.021 -36.481  1.00  0.00     0.111 A 
ATOM      6  C   UNL     1     -33.089 -22.113 -37.843  1.00  0.00     0.134 A 
ATOM      7  C   UNL     1     -32.822 -23.280 -38.569  1.00  0.00     0.093 A 
ATOM      8  C   UNL     1     -32.100 -24.330 -38.005  1.00  0.00     0.123 A 
ATOM      9  C   UNL     1     -31.636 -24.226 -36.692  1.00  0.00     0.094 A 
ATOM     10  C   UNL     1     -31.918 -23.089 -35.931  1.00  0.00     0.146 A 
ATOM     11  O   UNL     1     -31.468 -23.035 -34.683  1.00  0.00    -0.452 OA
ENDROOT
BRANCH   1  12
ATOM     12  C   UNL     1     -31.117 -22.062 -32.505  1.00  0.00     0.025 A 
ATOM     13  C   UNL     1     -31.109 -23.276 -31.801  1.00  0.00     0.016 A 
ATOM     14  C   UNL     1     -30.546 -23.350 -30.524  1.00  0.00     0.051 A 
ATOM     15  C   UNL     1     -29.972 -22.219 -29.937  1.00  0.00     0.157 A 
ATOM     16  C   UNL     1     -30.519 -20.930 -31.922  1.00  0.00     0.062 A 
ATOM     17  C   UNL     1     -29.953 -21.003 -30.641  1.00  0.00     0.158 A 
BRANCH  15  18
ATOM     18  O   UNL     1     -29.420 -22.323 -28.661  1.00  0.00    -0.504 OA
ATOM     19  H   UNL     1     -29.200 -23.219 -28.242  1.00  0.00     0.293 HD
ENDBRANCH  15  18
BRANCH  17  20
ATOM     20  O   UNL     1     -29.368 -19.875 -30.068  1.00  0.00    -0.504 OA
ATOM     21  H   UNL     1     -28.890 -19.920 -29.175  1.00  0.00     0.293 HD
ENDBRANCH  17  20
ENDBRANCH   1  12
BRANCH   2  22
ATOM     22  O   UNL     1     -32.821 -19.904 -33.420  1.00  0.00    -0.502 OA
ATOM     23  H   UNL     1     -32.121 -19.293 -33.017  1.00  0.00     0.293 HD
ENDBRANCH   2  22
BRANCH   6  24
ATOM     24  O   UNL     1     -33.737 -21.084 -38.532  1.00  0.00    -0.507 OA
ATOM     25  H   UNL     1     -33.273 -20.296 -38.959  1.00  0.00     0.293 HD
ENDBRANCH   6  24
BRANCH   8  26
ATOM     26  O   UNL     1     -31.839 -25.470 -38.762  1.00  0.00    -0.508 OA
ATOM     27  H   UNL     1     -31.925 -25.467 -39.772  1.00  0.00     0.293 HD
ENDBRANCH   8  26
TORSDOF 6
ENDMDL
MODEL 2
REMARK VINA RESULT:    -2.227      0.991      1.643
REMARK INTER + INTRA:          -2.618
REMARK INTER:                  -2.307
REMARK INTRA:                  -0.311
REMARK UNBOUND:                 0.064
REMARK SMILES O=c1c(O)c(-c2ccc(O)c(O)c2)oc2cc(O)cc(O)c12
REMARK SMILES IDX 5 1 3 2 2 3 1 4 22 5 20 6 19 7 17 8 16 9 15 10 14 11 6 12
REMARK SMILES IDX 7 13 8 14 9 15 13 16 11 17 10 18 12 20 4 22 21 24 18 26
REMARK H PARENT 10 19 12 21 4 23 21 25 18 27
REMARK Flexibility Score: inf
ROOT
ATOM      1  C   UNL     1     -31.165 -21.582 -33.967  1.00  0.00     0.180 A 
ATOM      2  C   UNL     1     -32.338 -20.911 -34.351  1.00  0.00     0.208 A 
ATOM      3  C   UNL     1     -33.008 -21.322 -35.515  1.00  0.00     0.238 A 
ATOM      4  O   UNL     1     -34.087 -20.753 -35.824  1.00  0.00    -0.285 OA
ATOM      5  C   UNL     1     -32.488 -22.388 -36.288  1.00  0.00     0.111 A 
ATOM      6  C   UNL     1     -33.063 -22.862 -37.506  1.00  0.00     0.134 A 
ATOM      7  C   UNL     1     -32.537 -24.007 -38.117  1.00  0.00     0.093 A 
ATOM      8  C   UNL     1     -31.421 -24.657 -37.592  1.00  0.00     0.123 A 
ATOM      9  C   UNL     1     -30.815 -24.167 -36.434  1.00  0.00     0.094 A 
ATOM     10  C   UNL     1     -31.338 -23.048 -35.781  1.00  0.00     0.146 A 
ATOM     11  O   UNL     1     -30.738 -22.620 -34.676  1.00  0.00    -0.452 OA
ENDROOT
BRANCH   1  12
ATOM     12  C   UNL     1     -30.390 -21.189 -32.768  1.00  0.00     0.025 A 
ATOM     13  C   UNL     1     -29.322 -20.288 -32.902  1.00  0.00     0.016 A 
ATOM     14  C   UNL     1     -28.590 -19.888 -31.781  1.00  0.00     0.051 A 
ATOM     15  C   UNL     1     -28.922 -20.367 -30.510  1.00  0.00     0.157 A 
ATOM     16  C   UNL     1     -30.736 -21.654 -31.487  1.00  0.00     0.062 A 
ATOM     17  C   UNL     1     -30.004 -21.251 -30.361  1.00  0.00     0.158 A 
BRANCH  15  18
ATOM     18  O   UNL     1     -28.172 -19.951 -29.411  1.00  0.00    -0.504 OA
ATOM     19  H   UNL     1     -27.317 -19.418 -29.514  1.00  0.00     0.293 HD
ENDBRANCH  15  18
BRANCH  17  20
ATOM     20  O   UNL     1     -30.350 -21.721 -29.095  1.00  0.00    -0.504 OA
ATOM     21  H   UNL     1     -31.200 -21.421 -28.631  1.00  0.00     0.293 HD
ENDBRANCH  17  20
ENDBRANCH   1  12
BRANCH   2  22
ATOM     22  O   UNL     1     -32.847 -19.875 -33.563  1.00  0.00    -0.502 OA
ATOM     23  H   UNL     1     -33.346 -20.044 -32.699  1.00  0.00     0.293 HD
ENDBRANCH   2  22
BRANCH   6  24
ATOM     24  O   UNL     1     -34.122 -22.233 -38.165  1.00  0.00    -0.507 OA
ATOM     25  H   UNL     1     -34.933 -21.843 -37.709  1.00  0.00     0.293 HD
ENDBRANCH   6  24
BRANCH   8  26
ATOM     26  O   UNL     1     -30.916 -25.785 -38.235  1.00  0.00    -0.508 OA
ATOM     27  H   UNL     1     -31.186 -26.720 -37.954  1.00  0.00     0.293 HD
ENDBRANCH   8  26
TORSDOF 6
ENDMDL
MODEL 3
REMARK VINA RESULT:    -1.608      0.993      1.647
REMARK INTER + INTRA:          -1.873
REMARK INTER:                  -2.206
REMARK INTRA:                   0.334
REMARK UNBOUND:                 0.064
REMARK SMILES O=c1c(O)c(-c2ccc(O)c(O)c2)oc2cc(O)cc(O)c12
REMARK SMILES IDX 5 1 3 2 2 3 1 4 22 5 20 6 19 7 17 8 16 9 15 10 14 11 6 12
REMARK SMILES IDX 7 13 8 14 9 15 13 16 11 17 10 18 12 20 4 22 21 24 18 26
REMARK H PARENT 10 19 12 21 4 23 21 25 18 27
REMARK Flexibility Score: inf
ROOT
ATOM      1  C   UNL     1     -31.476 -22.123 -33.225  1.00  0.00     0.180 A 
ATOM      2  C   UNL     1     -32.154 -20.962 -33.632  1.00  0.00     0.208 A 
ATOM      3  C   UNL     1     -32.708 -20.912 -34.921  1.00  0.00     0.238 A 
ATOM      4  O   UNL     1     -33.361 -19.891 -35.259  1.00  0.00    -0.285 OA
ATOM      5  C   UNL     1     -32.564 -22.018 -35.793  1.00  0.00     0.111 A 
ATOM      6  C   UNL     1     -33.050 -22.062 -37.134  1.00  0.00     0.134 A 
ATOM      7  C   UNL     1     -32.964 -23.256 -37.861  1.00  0.00     0.093 A 
ATOM      8  C   UNL     1     -32.353 -24.386 -37.321  1.00  0.00     0.123 A 
ATOM      9  C   UNL     1     -31.820 -24.337 -36.031  1.00  0.00     0.094 A 
ATOM     10  C   UNL     1     -31.923 -23.171 -35.268  1.00  0.00     0.146 A 
ATOM     11  O   UNL     1     -31.413 -23.169 -34.042  1.00  0.00    -0.452 OA
ENDROOT
BRANCH   1  12
ATOM     12  C   UNL     1     -30.844 -22.240 -31.892  1.00  0.00     0.025 A 
ATOM     13  C   UNL     1     -30.392 -21.083 -31.238  1.00  0.00     0.016 A 
ATOM     14  C   UNL     1     -29.811 -21.167 -29.970  1.00  0.00     0.051 A 
ATOM     15  C   UNL     1     -29.685 -22.404 -29.330  1.00  0.00     0.157 A 
ATOM     16  C   UNL     1     -30.736 -23.480 -31.238  1.00  0.00     0.062 A 
ATOM     17  C   UNL     1     -30.154 -23.567 -29.965  1.00  0.00     0.158 A 
BRANCH  15  18
ATOM     18  O   UNL     1     -29.100 -22.457 -28.066  1.00  0.00    -0.504 OA
ATOM     19  H   UNL     1     -28.162 -22.812 -27.923  1.00  0.00     0.293 HD
ENDBRANCH  15  18
BRANCH  17  20
ATOM     20  O   UNL     1     -30.046 -24.801 -29.325  1.00  0.00    -0.504 OA
ATOM     21  H   UNL     1     -29.734 -24.875 -28.364  1.00  0.00     0.293 HD
ENDBRANCH  17  20
ENDBRANCH   1  12
BRANCH   2  22
ATOM     22  O   UNL     1     -32.305 -19.890 -32.748  1.00  0.00    -0.502 OA
ATOM     23  H   UNL     1     -33.204 -19.623 -32.365  1.00  0.00     0.293 HD
ENDBRANCH   2  22
BRANCH   6  24
ATOM     24  O   UNL     1     -33.595 -20.962 -37.803  1.00  0.00    -0.507 OA
ATOM     25  H   UNL     1     -33.932 -20.125 -37.353  1.00  0.00     0.293 HD
ENDBRANCH   6  24
BRANCH   8  26
ATOM     26  O   UNL     1     -32.272 -25.552 -38.078  1.00  0.00    -0.508 OA
ATOM     27  H   UNL     1     -31.925 -26.419 -37.682  1.00  0.00     0.293 HD
ENDBRANCH   8  26
TORSDOF 6
ENDMDL
