MODEL 1
REMARK VINA RESULT:   -10.670      0.000      0.000
REMARK INTER + INTRA:         -11.910
REMARK INTER:                 -11.605
REMARK INTRA:                  -0.305
REMARK UNBOUND:                -0.305
REMARK SMILES CC1(C)CC[C@]2(C(=O)[O-])CC[C@@]3(C)C(=CC[C@@H]4[C@]5(C)CC[C@@H](O)C(C)(C)[C@@H]5CC[C@@]43C)[C@@H]2C1
REMARK SMILES IDX 6 1 5 2 10 3 32 4 4 5 11 6 14 7 33 8 2 9 12 10 15 11 1 12
REMARK SMILES IDX 3 13 13 14 30 15 16 16 17 17 29 18 31 19 18 20 28 21 27 22
REMARK SMILES IDX 20 23 19 24 24 25 21 26 22 27 25 28 26 29 7 30 8 31 9 32
REMARK SMILES IDX 23 33
REMARK H PARENT 23 34
REMARK Flexibility Score: inf
ROOT
ATOM      1  C   UNL     1      31.899   2.135  17.601  1.00  0.00     0.017 C 
ATOM      2  C   UNL     1      32.171   3.596  17.123  1.00  0.00     0.014 C 
ATOM      3  C   UNL     1      30.464   1.773  17.084  1.00  0.00     0.014 C 
ATOM      4  C   UNL     1      31.978   1.936  19.177  1.00  0.00     0.028 C 
ATOM      5  C   UNL     1      33.240   4.334  17.925  1.00  0.00     0.007 C 
ATOM      6  C   UNL     1      29.900   0.428  17.594  1.00  0.00     0.013 C 
ATOM      7  C   UNL     1      30.635   1.452  19.754  1.00  0.00    -0.064 C 
ATOM      8  C   UNL     1      32.772   3.002  20.010  1.00  0.00     0.015 C 
ATOM      9  C   UNL     1      32.878   4.430  19.419  1.00  0.00    -0.035 C 
ATOM     10  C   UNL     1      30.070   0.154  19.145  1.00  0.00    -0.006 C 
ATOM     11  C   UNL     1      29.844   2.299  20.431  1.00  0.00    -0.027 C 
ATOM     12  C   UNL     1      34.016   5.185  20.144  1.00  0.00     0.011 C 
ATOM     13  C   UNL     1      31.578   5.240  19.634  1.00  0.00     0.011 C 
ATOM     14  C   UNL     1      31.143  -0.977  19.319  1.00  0.00     0.017 C 
ATOM     15  C   UNL     1      28.688  -0.331  19.832  1.00  0.00    -0.020 C 
ATOM     16  C   UNL     1      28.453   1.994  20.862  1.00  0.00     0.032 C 
ATOM     17  C   UNL     1      27.718   0.889  20.046  1.00  0.00     0.006 C 
ATOM     18  C   UNL     1      28.945  -0.959  21.246  1.00  0.00     0.008 C 
ATOM     19  C   UNL     1      28.043  -1.422  18.896  1.00  0.00     0.012 C 
ATOM     20  C   UNL     1      26.269   0.495  20.667  1.00  0.00    -0.025 C 
ATOM     21  C   UNL     1      27.754  -0.924  22.244  1.00  0.00     0.005 C 
ATOM     22  C   UNL     1      26.353  -0.813  21.581  1.00  0.00     0.003 C 
ATOM     23  C   UNL     1      25.680   1.697  21.493  1.00  0.00     0.010 C 
ATOM     24  C   UNL     1      25.291   0.243  19.468  1.00  0.00     0.012 C 
ATOM     25  C   UNL     1      25.128  -1.058  22.583  1.00  0.00    -0.006 C 
ATOM     26  C   UNL     1      24.426   1.382  22.304  1.00  0.00     0.033 C 
ATOM     27  C   UNL     1      24.708   0.259  23.298  1.00  0.00     0.120 C 
ATOM     28  C   UNL     1      25.485  -2.102  23.678  1.00  0.00     0.014 C 
ATOM     29  C   UNL     1      23.920  -1.674  21.818  1.00  0.00     0.014 C 
ENDROOT
BRANCH   1  30
ATOM     30  C   UNL     1      32.932   1.241  16.919  1.00  0.00     0.048 C 
ATOM     31  O   UNL     1      32.905   1.078  15.670  1.00  0.00    -0.550 OA
ATOM     32  O   UNL     1      33.872   0.533  17.662  1.00  0.00    -0.550 OA
ENDBRANCH   1  30
BRANCH  27  33
ATOM     33  O   UNL     1      23.556   0.064  24.084  1.00  0.00    -0.393 OA
ATOM     34  H   UNL     1      23.299   0.945  24.462  1.00  0.00     0.210 HD
ENDBRANCH  27  33
TORSDOF 2
ENDMDL
MODEL 2
REMARK VINA RESULT:   -10.056      1.629      2.211
REMARK INTER + INTRA:         -11.243
REMARK INTER:                 -10.939
REMARK INTRA:                  -0.304
REMARK UNBOUND:                -0.305
REMARK SMILES CC1(C)CC[C@]2(C(=O)[O-])CC[C@@]3(C)C(=CC[C@@H]4[C@]5(C)CC[C@@H](O)C(C)(C)[C@@H]5CC[C@@]43C)[C@@H]2C1
REMARK SMILES IDX 6 1 5 2 10 3 32 4 4 5 11 6 14 7 33 8 2 9 12 10 15 11 1 12
REMARK SMILES IDX 3 13 13 14 30 15 16 16 17 17 29 18 31 19 18 20 28 21 27 22
REMARK SMILES IDX 20 23 19 24 24 25 21 26 22 27 25 28 26 29 7 30 8 31 9 32
REMARK SMILES IDX 23 33
REMARK H PARENT 23 34
REMARK Flexibility Score: inf
ROOT
ATOM      1  C   UNL     1      31.238   4.759  18.622  1.00  0.00     0.017 C 
ATOM      2  C   UNL     1      31.080   6.280  18.309  1.00  0.00     0.014 C 
ATOM      3  C   UNL     1      30.029   4.048  17.925  1.00  0.00     0.014 C 
ATOM      4  C   UNL     1      31.257   4.409  20.174  1.00  0.00     0.028 C 
ATOM      5  C   UNL     1      31.806   7.205  19.283  1.00  0.00     0.007 C 
ATOM      6  C   UNL     1      29.871   2.545  18.250  1.00  0.00     0.013 C 
ATOM      7  C   UNL     1      30.090   3.480  20.558  1.00  0.00    -0.064 C 
ATOM      8  C   UNL     1      31.619   5.558  21.179  1.00  0.00     0.015 C 
ATOM      9  C   UNL     1      31.321   7.011  20.733  1.00  0.00    -0.035 C 
ATOM     10  C   UNL     1      30.001   2.154  19.779  1.00  0.00    -0.006 C 
ATOM     11  C   UNL     1      29.028   3.966  21.220  1.00  0.00    -0.027 C 
ATOM     12  C   UNL     1      32.113   7.982  21.639  1.00  0.00     0.011 C 
ATOM     13  C   UNL     1      29.822   7.363  20.879  1.00  0.00     0.011 C 
ATOM     14  C   UNL     1      31.355   1.384  19.966  1.00  0.00     0.017 C 
ATOM     15  C   UNL     1      28.789   1.201  20.268  1.00  0.00    -0.020 C 
ATOM     16  C   UNL     1      27.771   3.210  21.471  1.00  0.00     0.032 C 
ATOM     17  C   UNL     1      27.477   2.040  20.485  1.00  0.00     0.006 C 
ATOM     18  C   UNL     1      29.122   0.516  21.640  1.00  0.00     0.008 C 
ATOM     19  C   UNL     1      28.585   0.084  19.175  1.00  0.00     0.012 C 
ATOM     20  C   UNL     1      26.179   1.160  20.910  1.00  0.00    -0.025 C 
ATOM     21  C   UNL     1      27.908   0.076  22.504  1.00  0.00     0.005 C 
ATOM     22  C   UNL     1      26.595  -0.162  21.708  1.00  0.00     0.003 C 
ATOM     23  C   UNL     1      25.187   2.024  21.773  1.00  0.00     0.010 C 
ATOM     24  C   UNL     1      25.419   0.769  19.596  1.00  0.00     0.012 C 
ATOM     25  C   UNL     1      25.435  -0.878  22.546  1.00  0.00    -0.006 C 
ATOM     26  C   UNL     1      24.035   1.255  22.414  1.00  0.00     0.033 C 
ATOM     27  C   UNL     1      24.575   0.159  23.328  1.00  0.00     0.120 C 
ATOM     28  C   UNL     1      26.013  -1.889  23.576  1.00  0.00     0.014 C 
ATOM     29  C   UNL     1      24.536  -1.733  21.605  1.00  0.00     0.014 C 
ENDROOT
BRANCH   1  30
ATOM     30  C   UNL     1      32.545   4.302  17.979  1.00  0.00     0.048 C 
ATOM     31  O   UNL     1      32.661   4.284  16.724  1.00  0.00    -0.550 OA
ATOM     32  O   UNL     1      33.601   3.830  18.751  1.00  0.00    -0.550 OA
ENDBRANCH   1  30
BRANCH  27  33
ATOM     33  O   UNL     1      23.485  -0.464  23.965  1.00  0.00    -0.393 OA
ATOM     34  H   UNL     1      23.426  -1.391  23.616  1.00  0.00     0.210 HD
ENDBRANCH  27  33
TORSDOF 2
ENDMDL
MODEL 3
REMARK VINA RESULT:    -9.753      2.598      7.509
REMARK INTER + INTRA:         -10.912
REMARK INTER:                 -11.311
REMARK INTRA:                   0.399
REMARK UNBOUND:                -0.305
REMARK SMILES CC1(C)CC[C@]2(C(=O)[O-])CC[C@@]3(C)C(=CC[C@@H]4[C@]5(C)CC[C@@H](O)C(C)(C)[C@@H]5CC[C@@]43C)[C@@H]2C1
REMARK SMILES IDX 6 1 5 2 10 3 32 4 4 5 11 6 14 7 33 8 2 9 12 10 15 11 1 12
REMARK SMILES IDX 3 13 13 14 30 15 16 16 17 17 29 18 31 19 18 20 28 21 27 22
REMARK SMILES IDX 20 23 19 24 24 25 21 26 22 27 25 28 26 29 7 30 8 31 9 32
REMARK SMILES IDX 23 33
REMARK H PARENT 23 34
REMARK Flexibility Score: inf
ROOT
ATOM      1  C   UNL     1      29.333  -1.568  19.474  1.00  0.00     0.017 C 
ATOM      2  C   UNL     1      28.609  -2.312  20.641  1.00  0.00     0.014 C 
ATOM      3  C   UNL     1      30.657  -0.995  20.084  1.00  0.00     0.014 C 
ATOM      4  C   UNL     1      28.482  -0.396  18.816  1.00  0.00     0.028 C 
ATOM      5  C   UNL     1      27.106  -2.490  20.440  1.00  0.00     0.007 C 
ATOM      6  C   UNL     1      31.460  -0.058  19.154  1.00  0.00     0.013 C 
ATOM      7  C   UNL     1      29.186   0.965  18.964  1.00  0.00    -0.064 C 
ATOM      8  C   UNL     1      26.926  -0.423  19.014  1.00  0.00     0.015 C 
ATOM      9  C   UNL     1      26.382  -1.140  20.274  1.00  0.00    -0.035 C 
ATOM     10  C   UNL     1      30.616   1.048  18.396  1.00  0.00    -0.006 C 
ATOM     11  C   UNL     1      28.746   1.861  19.861  1.00  0.00    -0.027 C 
ATOM     12  C   UNL     1      24.875  -1.423  20.073  1.00  0.00     0.011 C 
ATOM     13  C   UNL     1      26.521  -0.264  21.541  1.00  0.00     0.011 C 
ATOM     14  C   UNL     1      30.563   0.657  16.878  1.00  0.00     0.017 C 
ATOM     15  C   UNL     1      31.279   2.517  18.532  1.00  0.00    -0.020 C 
ATOM     16  C   UNL     1      29.458   3.118  20.219  1.00  0.00     0.032 C 
ATOM     17  C   UNL     1      30.993   3.124  19.955  1.00  0.00     0.006 C 
ATOM     18  C   UNL     1      30.672   3.514  17.484  1.00  0.00     0.008 C 
ATOM     19  C   UNL     1      32.825   2.374  18.266  1.00  0.00     0.012 C 
ATOM     20  C   UNL     1      31.679   4.573  20.217  1.00  0.00    -0.025 C 
ATOM     21  C   UNL     1      30.741   5.024  17.847  1.00  0.00     0.005 C 
ATOM     22  C   UNL     1      31.857   5.399  18.860  1.00  0.00     0.003 C 
ATOM     23  C   UNL     1      30.831   5.405  21.250  1.00  0.00     0.010 C 
ATOM     24  C   UNL     1      33.081   4.324  20.875  1.00  0.00     0.012 C 
ATOM     25  C   UNL     1      32.108   6.972  19.015  1.00  0.00    -0.006 C 
ATOM     26  C   UNL     1      31.250   6.862  21.418  1.00  0.00     0.033 C 
ATOM     27  C   UNL     1      31.162   7.596  20.083  1.00  0.00     0.120 C 
ATOM     28  C   UNL     1      31.872   7.724  17.674  1.00  0.00     0.014 C 
ATOM     29  C   UNL     1      33.597   7.250  19.375  1.00  0.00     0.014 C 
ENDROOT
BRANCH   1  30
ATOM     30  C   UNL     1      29.666  -2.616  18.414  1.00  0.00     0.048 C 
ATOM     31  O   UNL     1      28.874  -3.574  18.199  1.00  0.00    -0.550 OA
ATOM     32  O   UNL     1      30.871  -2.580  17.720  1.00  0.00    -0.550 OA
ENDBRANCH   1  30
BRANCH  27  33
ATOM     33  O   UNL     1      31.468   8.952  20.301  1.00  0.00    -0.393 OA
ATOM     34  H   UNL     1      32.300   9.155  19.798  1.00  0.00     0.210 HD
ENDBRANCH  27  33
TORSDOF 2
ENDMDL
MODEL 4
REMARK VINA RESULT:    -9.559      1.882      2.836
REMARK INTER + INTRA:         -10.702
REMARK INTER:                 -10.391
REMARK INTRA:                  -0.311
REMARK UNBOUND:                -0.305
REMARK SMILES CC1(C)CC[C@]2(C(=O)[O-])CC[C@@]3(C)C(=CC[C@@H]4[C@]5(C)CC[C@@H](O)C(C)(C)[C@@H]5CC[C@@]43C)[C@@H]2C1
REMARK SMILES IDX 6 1 5 2 10 3 32 4 4 5 11 6 14 7 33 8 2 9 12 10 15 11 1 12
REMARK SMILES IDX 3 13 13 14 30 15 16 16 17 17 29 18 31 19 18 20 28 21 27 22
REMARK SMILES IDX 20 23 19 24 24 25 21 26 22 27 25 28 26 29 7 30 8 31 9 32
REMARK SMILES IDX 23 33
REMARK H PARENT 23 34
REMARK Flexibility Score: inf
ROOT
ATOM      1  C   UNL     1      32.717   4.457  17.785  1.00  0.00     0.017 C 
ATOM      2  C   UNL     1      32.547   5.551  16.684  1.00  0.00     0.014 C 
ATOM      3  C   UNL     1      32.184   3.125  17.156  1.00  0.00     0.014 C 
ATOM      4  C   UNL     1      31.947   4.767  19.142  1.00  0.00     0.028 C 
ATOM      5  C   UNL     1      32.500   6.981  17.217  1.00  0.00     0.007 C 
ATOM      6  C   UNL     1      32.084   1.929  18.130  1.00  0.00     0.013 C 
ATOM      7  C   UNL     1      30.897   3.686  19.456  1.00  0.00    -0.064 C 
ATOM      8  C   UNL     1      31.551   6.257  19.434  1.00  0.00     0.015 C 
ATOM      9  C   UNL     1      31.344   7.189  18.213  1.00  0.00    -0.035 C 
ATOM     10  C   UNL     1      31.422   2.240  19.535  1.00  0.00    -0.006 C 
ATOM     11  C   UNL     1      29.591   3.937  19.273  1.00  0.00    -0.027 C 
ATOM     12  C   UNL     1      31.383   8.657  18.697  1.00  0.00     0.011 C 
ATOM     13  C   UNL     1      29.971   6.961  17.541  1.00  0.00     0.011 C 
ATOM     14  C   UNL     1      32.554   2.189  20.621  1.00  0.00     0.017 C 
ATOM     15  C   UNL     1      30.282   1.160  19.922  1.00  0.00    -0.020 C 
ATOM     16  C   UNL     1      28.513   2.914  19.360  1.00  0.00     0.032 C 
ATOM     17  C   UNL     1      28.958   1.441  19.120  1.00  0.00     0.006 C 
ATOM     18  C   UNL     1      29.915   1.242  21.445  1.00  0.00     0.008 C 
ATOM     19  C   UNL     1      30.852  -0.274  19.610  1.00  0.00     0.012 C 
ATOM     20  C   UNL     1      27.771   0.365  19.386  1.00  0.00    -0.025 C 
ATOM     21  C   UNL     1      28.500   0.736  21.843  1.00  0.00     0.005 C 
ATOM     22  C   UNL     1      27.868  -0.276  20.847  1.00  0.00     0.003 C 
ATOM     23  C   UNL     1      26.363   1.038  19.182  1.00  0.00     0.010 C 
ATOM     24  C   UNL     1      27.898  -0.762  18.303  1.00  0.00     0.012 C 
ATOM     25  C   UNL     1      26.550  -1.002  21.393  1.00  0.00    -0.006 C 
ATOM     26  C   UNL     1      25.165   0.194  19.610  1.00  0.00     0.033 C 
ATOM     27  C   UNL     1      25.273  -0.164  21.090  1.00  0.00     0.120 C 
ATOM     28  C   UNL     1      26.616  -1.230  22.929  1.00  0.00     0.014 C 
ATOM     29  C   UNL     1      26.426  -2.428  20.780  1.00  0.00     0.014 C 
ENDROOT
BRANCH   1  30
ATOM     30  C   UNL     1      34.214   4.331  18.064  1.00  0.00     0.048 C 
ATOM     31  O   UNL     1      34.676   4.645  19.194  1.00  0.00    -0.550 OA
ATOM     32  O   UNL     1      35.101   3.943  17.066  1.00  0.00    -0.550 OA
ENDBRANCH   1  30
BRANCH  27  33
ATOM     33  O   UNL     1      24.109  -0.862  21.462  1.00  0.00    -0.393 OA
ATOM     34  H   UNL     1      24.084  -1.704  20.936  1.00  0.00     0.210 HD
ENDBRANCH  27  33
TORSDOF 2
ENDMDL
MODEL 5
REMARK VINA RESULT:    -9.246      2.709      7.651
REMARK INTER + INTRA:         -10.361
REMARK INTER:                 -10.063
REMARK INTRA:                  -0.298
REMARK UNBOUND:                -0.305
REMARK SMILES CC1(C)CC[C@]2(C(=O)[O-])CC[C@@]3(C)C(=CC[C@@H]4[C@]5(C)CC[C@@H](O)C(C)(C)[C@@H]5CC[C@@]43C)[C@@H]2C1
REMARK SMILES IDX 6 1 5 2 10 3 32 4 4 5 11 6 14 7 33 8 2 9 12 10 15 11 1 12
REMARK SMILES IDX 3 13 13 14 30 15 16 16 17 17 29 18 31 19 18 20 28 21 27 22
REMARK SMILES IDX 20 23 19 24 24 25 21 26 22 27 25 28 26 29 7 30 8 31 9 32
REMARK SMILES IDX 23 33
REMARK H PARENT 23 34
REMARK Flexibility Score: inf
ROOT
ATOM      1  C   UNL     1      28.494  -1.137  20.542  1.00  0.00     0.017 C 
ATOM      2  C   UNL     1      27.933  -1.768  21.855  1.00  0.00     0.014 C 
ATOM      3  C   UNL     1      29.958  -0.686  20.871  1.00  0.00     0.014 C 
ATOM      4  C   UNL     1      27.652   0.098  19.996  1.00  0.00     0.028 C 
ATOM      5  C   UNL     1      26.410  -1.795  21.942  1.00  0.00     0.007 C 
ATOM      6  C   UNL     1      30.659   0.136  19.766  1.00  0.00     0.013 C 
ATOM      7  C   UNL     1      28.499   1.383  19.948  1.00  0.00    -0.064 C 
ATOM      8  C   UNL     1      26.165   0.238  20.476  1.00  0.00     0.015 C 
ATOM      9  C   UNL     1      25.800  -0.384  21.848  1.00  0.00    -0.035 C 
ATOM     10  C   UNL     1      29.799   1.302  19.125  1.00  0.00    -0.006 C 
ATOM     11  C   UNL     1      28.322   2.345  20.867  1.00  0.00    -0.027 C 
ATOM     12  C   UNL     1      24.262  -0.515  21.940  1.00  0.00     0.011 C 
ATOM     13  C   UNL     1      26.257   0.509  23.024  1.00  0.00     0.011 C 
ATOM     14  C   UNL     1      29.426   0.875  17.662  1.00  0.00     0.017 C 
ATOM     15  C   UNL     1      30.613   2.698  19.068  1.00  0.00    -0.020 C 
ATOM     16  C   UNL     1      29.206   3.531  21.029  1.00  0.00     0.032 C 
ATOM     17  C   UNL     1      30.658   3.371  20.488  1.00  0.00     0.006 C 
ATOM     18  C   UNL     1      29.919   3.722  18.102  1.00  0.00     0.008 C 
ATOM     19  C   UNL     1      32.061   2.388  18.530  1.00  0.00     0.012 C 
ATOM     20  C   UNL     1      31.517   4.749  20.552  1.00  0.00    -0.025 C 
ATOM     21  C   UNL     1      30.200   5.226  18.374  1.00  0.00     0.005 C 
ATOM     22  C   UNL     1      31.517   5.512  19.147  1.00  0.00     0.003 C 
ATOM     23  C   UNL     1      30.961   5.692  21.682  1.00  0.00     0.010 C 
ATOM     24  C   UNL     1      32.987   4.375  20.952  1.00  0.00     0.012 C 
ATOM     25  C   UNL     1      31.942   7.055  19.179  1.00  0.00    -0.006 C 
ATOM     26  C   UNL     1      31.542   7.103  21.702  1.00  0.00     0.033 C 
ATOM     27  C   UNL     1      31.277   7.803  20.372  1.00  0.00     0.120 C 
ATOM     28  C   UNL     1      31.533   7.789  17.871  1.00  0.00     0.014 C 
ATOM     29  C   UNL     1      33.492   7.188  19.247  1.00  0.00     0.014 C 
ENDROOT
BRANCH   1  30
ATOM     30  C   UNL     1      28.521  -2.243  19.489  1.00  0.00     0.048 C 
ATOM     31  O   UNL     1      27.891  -2.102  18.406  1.00  0.00    -0.550 OA
ATOM     32  O   UNL     1      29.170  -3.449  19.729  1.00  0.00    -0.550 OA
ENDBRANCH   1  30
BRANCH  27  33
ATOM     33  O   UNL     1      31.747   9.127  20.466  1.00  0.00    -0.393 OA
ATOM     34  H   UNL     1      32.692   9.130  20.162  1.00  0.00     0.210 HD
ENDBRANCH  27  33
TORSDOF 2
ENDMDL
MODEL 6
REMARK VINA RESULT:    -9.149      4.216      6.744
REMARK INTER + INTRA:         -10.256
REMARK INTER:                  -9.973
REMARK INTRA:                  -0.283
REMARK UNBOUND:                -0.305
REMARK SMILES CC1(C)CC[C@]2(C(=O)[O-])CC[C@@]3(C)C(=CC[C@@H]4[C@]5(C)CC[C@@H](O)C(C)(C)[C@@H]5CC[C@@]43C)[C@@H]2C1
REMARK SMILES IDX 6 1 5 2 10 3 32 4 4 5 11 6 14 7 33 8 2 9 12 10 15 11 1 12
REMARK SMILES IDX 3 13 13 14 30 15 16 16 17 17 29 18 31 19 18 20 28 21 27 22
REMARK SMILES IDX 20 23 19 24 24 25 21 26 22 27 25 28 26 29 7 30 8 31 9 32
REMARK SMILES IDX 23 33
REMARK H PARENT 23 34
REMARK Flexibility Score: inf
ROOT
ATOM      1  C   UNL     1      32.506   5.155  19.431  1.00  0.00     0.017 C 
ATOM      2  C   UNL     1      33.716   6.140  19.386  1.00  0.00     0.014 C 
ATOM      3  C   UNL     1      32.922   4.005  20.410  1.00  0.00     0.014 C 
ATOM      4  C   UNL     1      32.101   4.549  18.017  1.00  0.00     0.028 C 
ATOM      5  C   UNL     1      33.764   7.025  18.143  1.00  0.00     0.007 C 
ATOM      6  C   UNL     1      31.946   2.809  20.476  1.00  0.00     0.013 C 
ATOM      7  C   UNL     1      32.234   3.015  18.000  1.00  0.00    -0.064 C 
ATOM      8  C   UNL     1      32.560   5.322  16.732  1.00  0.00     0.015 C 
ATOM      9  C   UNL     1      33.834   6.197  16.846  1.00  0.00    -0.035 C 
ATOM     10  C   UNL     1      31.437   2.259  19.080  1.00  0.00    -0.006 C 
ATOM     11  C   UNL     1      33.262   2.432  17.365  1.00  0.00    -0.027 C 
ATOM     12  C   UNL     1      33.874   7.176  15.650  1.00  0.00     0.011 C 
ATOM     13  C   UNL     1      35.124   5.346  16.788  1.00  0.00     0.011 C 
ATOM     14  C   UNL     1      29.924   2.646  18.933  1.00  0.00     0.017 C 
ATOM     15  C   UNL     1      31.575   0.651  18.974  1.00  0.00    -0.020 C 
ATOM     16  C   UNL     1      33.593   0.983  17.445  1.00  0.00     0.032 C 
ATOM     17  C   UNL     1      33.070   0.239  18.710  1.00  0.00     0.006 C 
ATOM     18  C   UNL     1      30.731   0.085  17.779  1.00  0.00     0.008 C 
ATOM     19  C   UNL     1      31.035   0.032  20.318  1.00  0.00     0.012 C 
ATOM     20  C   UNL     1      33.326  -1.364  18.657  1.00  0.00    -0.025 C 
ATOM     21  C   UNL     1      31.196  -1.275  17.187  1.00  0.00     0.005 C 
ATOM     22  C   UNL     1      32.029  -2.155  18.159  1.00  0.00     0.003 C 
ATOM     23  C   UNL     1      34.552  -1.696  17.729  1.00  0.00     0.010 C 
ATOM     24  C   UNL     1      33.710  -1.832  20.104  1.00  0.00     0.012 C 
ATOM     25  C   UNL     1      32.264  -3.655  17.653  1.00  0.00    -0.006 C 
ATOM     26  C   UNL     1      34.763  -3.176  17.425  1.00  0.00     0.033 C 
ATOM     27  C   UNL     1      33.527  -3.758  16.746  1.00  0.00     0.120 C 
ATOM     28  C   UNL     1      31.050  -4.182  16.837  1.00  0.00     0.014 C 
ATOM     29  C   UNL     1      32.384  -4.623  18.867  1.00  0.00     0.014 C 
ENDROOT
BRANCH   1  30
ATOM     30  C   UNL     1      31.323   5.925  20.015  1.00  0.00     0.048 C 
ATOM     31  O   UNL     1      30.410   6.353  19.258  1.00  0.00    -0.550 OA
ATOM     32  O   UNL     1      31.263   6.233  21.370  1.00  0.00    -0.550 OA
ENDBRANCH   1  30
BRANCH  27  33
ATOM     33  O   UNL     1      33.797  -5.096  16.404  1.00  0.00    -0.393 OA
ATOM     34  H   UNL     1      33.199  -5.337  15.649  1.00  0.00     0.210 HD
ENDBRANCH  27  33
TORSDOF 2
ENDMDL
MODEL 7
REMARK VINA RESULT:    -9.106      3.035      7.328
REMARK INTER + INTRA:         -10.209
REMARK INTER:                 -10.585
REMARK INTRA:                   0.376
REMARK UNBOUND:                -0.305
REMARK SMILES CC1(C)CC[C@]2(C(=O)[O-])CC[C@@]3(C)C(=CC[C@@H]4[C@]5(C)CC[C@@H](O)C(C)(C)[C@@H]5CC[C@@]43C)[C@@H]2C1
REMARK SMILES IDX 6 1 5 2 10 3 32 4 4 5 11 6 14 7 33 8 2 9 12 10 15 11 1 12
REMARK SMILES IDX 3 13 13 14 30 15 16 16 17 17 29 18 31 19 18 20 28 21 27 22
REMARK SMILES IDX 20 23 19 24 24 25 21 26 22 27 25 28 26 29 7 30 8 31 9 32
REMARK SMILES IDX 23 33
REMARK H PARENT 23 34
REMARK Flexibility Score: inf
ROOT
ATOM      1  C   UNL     1      30.921  -1.886  18.637  1.00  0.00     0.017 C 
ATOM      2  C   UNL     1      30.546  -2.920  19.744  1.00  0.00     0.014 C 
ATOM      3  C   UNL     1      32.169  -1.108  19.178  1.00  0.00     0.014 C 
ATOM      4  C   UNL     1      29.756  -0.864  18.273  1.00  0.00     0.028 C 
ATOM      5  C   UNL     1      29.101  -3.411  19.687  1.00  0.00     0.007 C 
ATOM      6  C   UNL     1      32.614   0.101  18.325  1.00  0.00     0.013 C 
ATOM      7  C   UNL     1      30.173   0.591  18.555  1.00  0.00    -0.064 C 
ATOM      8  C   UNL     1      28.286  -1.272  18.636  1.00  0.00     0.015 C 
ATOM      9  C   UNL     1      28.093  -2.253  19.819  1.00  0.00    -0.035 C 
ATOM     10  C   UNL     1      31.456   1.073  17.852  1.00  0.00    -0.006 C 
ATOM     11  C   UNL     1      29.687   1.238  19.627  1.00  0.00    -0.027 C 
ATOM     12  C   UNL     1      26.666  -2.846  19.745  1.00  0.00     0.011 C 
ATOM     13  C   UNL     1      28.226  -1.542  21.185  1.00  0.00     0.011 C 
ATOM     14  C   UNL     1      31.268   0.882  16.306  1.00  0.00     0.017 C 
ATOM     15  C   UNL     1      31.807   2.625  18.145  1.00  0.00    -0.020 C 
ATOM     16  C   UNL     1      30.163   2.567  20.099  1.00  0.00     0.032 C 
ATOM     17  C   UNL     1      31.608   2.959  19.669  1.00  0.00     0.006 C 
ATOM     18  C   UNL     1      30.859   3.584  17.343  1.00  0.00     0.008 C 
ATOM     19  C   UNL     1      33.293   2.876  17.689  1.00  0.00     0.012 C 
ATOM     20  C   UNL     1      32.005   4.480  20.080  1.00  0.00    -0.025 C 
ATOM     21  C   UNL     1      30.660   5.009  17.931  1.00  0.00     0.005 C 
ATOM     22  C   UNL     1      31.807   5.494  18.860  1.00  0.00     0.003 C 
ATOM     23  C   UNL     1      31.159   4.953  21.320  1.00  0.00     0.010 C 
ATOM     24  C   UNL     1      33.507   4.475  20.529  1.00  0.00     0.012 C 
ATOM     25  C   UNL     1      31.740   7.049  19.234  1.00  0.00    -0.006 C 
ATOM     26  C   UNL     1      31.281   6.433  21.670  1.00  0.00     0.033 C 
ATOM     27  C   UNL     1      30.849   7.294  20.487  1.00  0.00     0.120 C 
ATOM     28  C   UNL     1      31.161   7.894  18.065  1.00  0.00     0.014 C 
ATOM     29  C   UNL     1      33.174   7.611  19.465  1.00  0.00     0.014 C 
ENDROOT
BRANCH   1  30
ATOM     30  C   UNL     1      31.310  -2.682  17.393  1.00  0.00     0.048 C 
ATOM     31  O   UNL     1      31.418  -3.936  17.452  1.00  0.00    -0.550 OA
ATOM     32  O   UNL     1      31.624  -2.042  16.198  1.00  0.00    -0.550 OA
ENDBRANCH   1  30
BRANCH  27  33
ATOM     33  O   UNL     1      30.891   8.644  20.883  1.00  0.00    -0.393 OA
ATOM     34  H   UNL     1      30.067   8.828  21.405  1.00  0.00     0.210 HD
ENDBRANCH  27  33
TORSDOF 2
ENDMDL
MODEL 8
REMARK VINA RESULT:    -8.967      2.157      7.894
REMARK INTER + INTRA:         -10.058
REMARK INTER:                  -9.755
REMARK INTRA:                  -0.303
REMARK UNBOUND:                -0.305
REMARK SMILES CC1(C)CC[C@]2(C(=O)[O-])CC[C@@]3(C)C(=CC[C@@H]4[C@]5(C)CC[C@@H](O)C(C)(C)[C@@H]5CC[C@@]43C)[C@@H]2C1
REMARK SMILES IDX 6 1 5 2 10 3 32 4 4 5 11 6 14 7 33 8 2 9 12 10 15 11 1 12
REMARK SMILES IDX 3 13 13 14 30 15 16 16 17 17 29 18 31 19 18 20 28 21 27 22
REMARK SMILES IDX 20 23 19 24 24 25 21 26 22 27 25 28 26 29 7 30 8 31 9 32
REMARK SMILES IDX 23 33
REMARK H PARENT 23 34
REMARK Flexibility Score: inf
ROOT
ATOM      1  C   UNL     1      26.519  -2.135  21.366  1.00  0.00     0.017 C 
ATOM      2  C   UNL     1      26.604  -2.920  22.713  1.00  0.00     0.014 C 
ATOM      3  C   UNL     1      27.917  -2.304  20.679  1.00  0.00     0.014 C 
ATOM      4  C   UNL     1      26.173  -0.591  21.529  1.00  0.00     0.028 C 
ATOM      5  C   UNL     1      25.591  -2.480  23.766  1.00  0.00     0.007 C 
ATOM      6  C   UNL     1      28.132  -1.456  19.405  1.00  0.00     0.013 C 
ATOM      7  C   UNL     1      27.299   0.302  20.975  1.00  0.00    -0.064 C 
ATOM      8  C   UNL     1      25.484  -0.132  22.861  1.00  0.00     0.015 C 
ATOM      9  C   UNL     1      25.743  -0.989  24.126  1.00  0.00    -0.035 C 
ATOM     10  C   UNL     1      27.687   0.061  19.504  1.00  0.00    -0.006 C 
ATOM     11  C   UNL     1      28.129   0.941  21.814  1.00  0.00    -0.027 C 
ATOM     12  C   UNL     1      24.676  -0.639  25.190  1.00  0.00     0.011 C 
ATOM     13  C   UNL     1      27.127  -0.696  24.748  1.00  0.00     0.011 C 
ATOM     14  C   UNL     1      26.403   0.245  18.622  1.00  0.00     0.017 C 
ATOM     15  C   UNL     1      28.835   1.067  18.969  1.00  0.00    -0.020 C 
ATOM     16  C   UNL     1      29.358   1.669  21.395  1.00  0.00     0.032 C 
ATOM     17  C   UNL     1      29.979   1.222  20.037  1.00  0.00     0.006 C 
ATOM     18  C   UNL     1      28.258   2.503  18.710  1.00  0.00     0.008 C 
ATOM     19  C   UNL     1      29.389   0.486  17.613  1.00  0.00     0.012 C 
ATOM     20  C   UNL     1      31.218   2.160  19.564  1.00  0.00    -0.025 C 
ATOM     21  C   UNL     1      29.275   3.677  18.774  1.00  0.00     0.005 C 
ATOM     22  C   UNL     1      30.752   3.272  18.515  1.00  0.00     0.003 C 
ATOM     23  C   UNL     1      31.900   2.840  20.808  1.00  0.00     0.010 C 
ATOM     24  C   UNL     1      32.295   1.229  18.907  1.00  0.00     0.012 C 
ATOM     25  C   UNL     1      31.747   4.508  18.303  1.00  0.00    -0.006 C 
ATOM     26  C   UNL     1      32.938   3.911  20.483  1.00  0.00     0.033 C 
ATOM     27  C   UNL     1      32.304   5.029  19.661  1.00  0.00     0.120 C 
ATOM     28  C   UNL     1      31.041   5.696  17.592  1.00  0.00     0.014 C 
ATOM     29  C   UNL     1      32.914   4.107  17.353  1.00  0.00     0.014 C 
ENDROOT
BRANCH   1  30
ATOM     30  C   UNL     1      25.444  -2.814  20.520  1.00  0.00     0.048 C 
ATOM     31  O   UNL     1      25.613  -3.992  20.106  1.00  0.00    -0.550 OA
ATOM     32  O   UNL     1      24.298  -2.129  20.127  1.00  0.00    -0.550 OA
ENDBRANCH   1  30
BRANCH  27  33
ATOM     33  O   UNL     1      33.268   6.034  19.462  1.00  0.00    -0.393 OA
ATOM     34  H   UNL     1      34.049   5.614  19.014  1.00  0.00     0.210 HD
ENDBRANCH  27  33
TORSDOF 2
ENDMDL
MODEL 9
REMARK VINA RESULT:    -8.837      2.449      8.388
REMARK INTER + INTRA:          -9.916
REMARK INTER:                  -9.758
REMARK INTRA:                  -0.158
REMARK UNBOUND:                -0.305
REMARK SMILES CC1(C)CC[C@]2(C(=O)[O-])CC[C@@]3(C)C(=CC[C@@H]4[C@]5(C)CC[C@@H](O)C(C)(C)[C@@H]5CC[C@@]43C)[C@@H]2C1
REMARK SMILES IDX 6 1 5 2 10 3 32 4 4 5 11 6 14 7 33 8 2 9 12 10 15 11 1 12
REMARK SMILES IDX 3 13 13 14 30 15 16 16 17 17 29 18 31 19 18 20 28 21 27 22
REMARK SMILES IDX 20 23 19 24 24 25 21 26 22 27 25 28 26 29 7 30 8 31 9 32
REMARK SMILES IDX 23 33
REMARK H PARENT 23 34
REMARK Flexibility Score: inf
ROOT
ATOM      1  C   UNL     1      26.029  -0.332  20.451  1.00  0.00     0.017 C 
ATOM      2  C   UNL     1      24.787  -1.213  20.108  1.00  0.00     0.014 C 
ATOM      3  C   UNL     1      26.666   0.069  19.076  1.00  0.00     0.014 C 
ATOM      4  C   UNL     1      27.113  -1.055  21.365  1.00  0.00     0.028 C 
ATOM      5  C   UNL     1      24.330  -2.129  21.241  1.00  0.00     0.007 C 
ATOM      6  C   UNL     1      28.024   0.799  19.167  1.00  0.00     0.013 C 
ATOM      7  C   UNL     1      28.472  -1.163  20.650  1.00  0.00    -0.064 C 
ATOM      8  C   UNL     1      26.648  -2.290  22.212  1.00  0.00     0.015 C 
ATOM      9  C   UNL     1      25.440  -3.102  21.680  1.00  0.00    -0.035 C 
ATOM     10  C   UNL     1      29.083   0.164  20.160  1.00  0.00    -0.006 C 
ATOM     11  C   UNL     1      28.882  -2.339  20.150  1.00  0.00    -0.027 C 
ATOM     12  C   UNL     1      24.887  -3.979  22.828  1.00  0.00     0.011 C 
ATOM     13  C   UNL     1      25.847  -4.052  20.530  1.00  0.00     0.011 C 
ATOM     14  C   UNL     1      29.223   1.124  21.392  1.00  0.00     0.017 C 
ATOM     15  C   UNL     1      30.535  -0.012  19.469  1.00  0.00    -0.020 C 
ATOM     16  C   UNL     1      30.078  -2.518  19.282  1.00  0.00     0.032 C 
ATOM     17  C   UNL     1      30.541  -1.252  18.501  1.00  0.00     0.006 C 
ATOM     18  C   UNL     1      31.648  -0.270  20.543  1.00  0.00     0.008 C 
ATOM     19  C   UNL     1      30.866   1.322  18.699  1.00  0.00     0.012 C 
ATOM     20  C   UNL     1      31.938  -1.473  17.701  1.00  0.00    -0.025 C 
ATOM     21  C   UNL     1      32.919  -1.021  20.055  1.00  0.00     0.005 C 
ATOM     22  C   UNL     1      33.188  -0.917  18.529  1.00  0.00     0.003 C 
ATOM     23  C   UNL     1      32.145  -2.996  17.365  1.00  0.00     0.010 C 
ATOM     24  C   UNL     1      31.828  -0.715  16.333  1.00  0.00     0.012 C 
ATOM     25  C   UNL     1      34.630  -1.446  18.076  1.00  0.00    -0.006 C 
ATOM     26  C   UNL     1      33.517  -3.363  16.807  1.00  0.00     0.033 C 
ATOM     27  C   UNL     1      34.612  -2.978  17.798  1.00  0.00     0.120 C 
ATOM     28  C   UNL     1      35.707  -1.173  19.163  1.00  0.00     0.014 C 
ATOM     29  C   UNL     1      35.121  -0.669  16.819  1.00  0.00     0.014 C 
ENDROOT
BRANCH   1  30
ATOM     30  C   UNL     1      25.511   0.916  21.162  1.00  0.00     0.048 C 
ATOM     31  O   UNL     1      25.252   1.959  20.502  1.00  0.00    -0.550 OA
ATOM     32  O   UNL     1      25.384   0.955  22.546  1.00  0.00    -0.550 OA
ENDBRANCH   1  30
BRANCH  27  33
ATOM     33  O   UNL     1      35.847  -3.415  17.285  1.00  0.00    -0.393 OA
ATOM     34  H   UNL     1      36.560  -3.051  17.874  1.00  0.00     0.210 HD
ENDBRANCH  27  33
TORSDOF 2
ENDMDL
