MODEL 1
REMARK VINA RESULT:    -3.396      0.000      0.000
REMARK INTER + INTRA:          -6.593
REMARK INTER:                  -5.381
REMARK INTRA:                  -1.212
REMARK UNBOUND:                -1.212
REMARK SMILES CCCCCCCCCCCC(=O)[O-]
REMARK SMILES IDX 7 1 8 2 9 3 10 4 11 5 12 6 13 7 14 8 6 9 5 10 4 11 3 12 2 13
REMARK SMILES IDX 1 14
REMARK H PARENT
REMARK Flexibility Score: inf
ROOT
ATOM      1  C   UNL     1      -7.920  30.326 107.012  1.00  0.00     0.000 C 
ENDROOT
BRANCH   1   2
ATOM      2  C   UNL     1      -7.338  28.903 106.949  1.00  0.00     0.000 C 
BRANCH   2   3
ATOM      3  C   UNL     1      -6.156  28.706 107.912  1.00  0.00     0.000 C 
BRANCH   3   4
ATOM      4  C   UNL     1      -5.433  30.024 108.239  1.00  0.00     0.006 C 
BRANCH   4   5
ATOM      5  C   UNL     1      -4.293  30.317 107.253  1.00  0.00     0.053 C 
BRANCH   5   6
ATOM      6  C   UNL     1      -4.143  31.785 106.998  1.00  0.00     0.041 C 
ATOM      7  O   UNL     1      -3.070  32.241 106.523  1.00  0.00    -0.550 OA
ATOM      8  O   UNL     1      -5.181  32.655 107.310  1.00  0.00    -0.550 OA
ENDBRANCH   5   6
ENDBRANCH   4   5
ENDBRANCH   3   4
ENDBRANCH   2   3
ENDBRANCH   1   2
BRANCH   1   9
ATOM      9  C   UNL     1      -7.883  31.047 105.652  1.00  0.00     0.000 C 
BRANCH   9  10
ATOM     10  C   UNL     1      -6.943  30.418 104.604  1.00  0.00    -0.000 C 
BRANCH  10  11
ATOM     11  C   UNL     1      -5.983  31.403 103.907  1.00  0.00    -0.000 C 
BRANCH  11  12
ATOM     12  C   UNL     1      -4.657  30.786 103.428  1.00  0.00    -0.000 C 
BRANCH  12  13
ATOM     13  C   UNL     1      -3.665  31.838 102.910  1.00  0.00    -0.003 C 
ATOM     14  C   UNL     1      -2.709  31.234 101.885  1.00  0.00     0.004 C 
ENDBRANCH  12  13
ENDBRANCH  11  12
ENDBRANCH  10  11
ENDBRANCH   9  10
ENDBRANCH   1   9
TORSDOF 10
ENDMDL
MODEL 2
REMARK VINA RESULT:    -3.271     19.054     20.838
REMARK INTER + INTRA:          -6.395
REMARK INTER:                  -5.088
REMARK INTRA:                  -1.307
REMARK UNBOUND:                -1.212
REMARK SMILES CCCCCCCCCCCC(=O)[O-]
REMARK SMILES IDX 7 1 8 2 9 3 10 4 11 5 12 6 13 7 14 8 6 9 5 10 4 11 3 12 2 13
REMARK SMILES IDX 1 14
REMARK H PARENT
REMARK Flexibility Score: inf
ROOT
ATOM      1  C   UNL     1     -15.834  39.607  94.390  1.00  0.00     0.000 C 
ENDROOT
BRANCH   1   2
ATOM      2  C   UNL     1     -16.081  39.217  92.922  1.00  0.00     0.000 C 
BRANCH   2   3
ATOM      3  C   UNL     1     -17.383  38.422  92.733  1.00  0.00     0.000 C 
BRANCH   3   4
ATOM      4  C   UNL     1     -18.059  38.707  91.381  1.00  0.00     0.006 C 
BRANCH   4   5
ATOM      5  C   UNL     1     -19.272  37.798  91.139  1.00  0.00     0.053 C 
BRANCH   5   6
ATOM      6  C   UNL     1     -19.064  36.896  89.961  1.00  0.00     0.041 C 
ATOM      7  O   UNL     1     -19.807  36.993  88.948  1.00  0.00    -0.550 OA
ATOM      8  O   UNL     1     -18.067  35.929  89.993  1.00  0.00    -0.550 OA
ENDBRANCH   5   6
ENDBRANCH   4   5
ENDBRANCH   3   4
ENDBRANCH   2   3
ENDBRANCH   1   2
BRANCH   1   9
ATOM      9  C   UNL     1     -16.313  41.033  94.718  1.00  0.00     0.000 C 
BRANCH   9  10
ATOM     10  C   UNL     1     -17.399  41.123  95.809  1.00  0.00    -0.000 C 
BRANCH  10  11
ATOM     11  C   UNL     1     -18.852  41.126  95.291  1.00  0.00    -0.000 C 
BRANCH  11  12
ATOM     12  C   UNL     1     -19.010  41.488  93.803  1.00  0.00    -0.000 C 
BRANCH  12  13
ATOM     13  C   UNL     1     -20.306  40.938  93.191  1.00  0.00    -0.003 C 
ATOM     14  C   UNL     1     -20.778  39.691  93.934  1.00  0.00     0.004 C 
ENDBRANCH  12  13
ENDBRANCH  11  12
ENDBRANCH  10  11
ENDBRANCH   9  10
ENDBRANCH   1   9
TORSDOF 10
ENDMDL
MODEL 3
REMARK VINA RESULT:    -3.209      1.403      4.018
REMARK INTER + INTRA:          -6.297
REMARK INTER:                  -4.776
REMARK INTRA:                  -1.520
REMARK UNBOUND:                -1.212
REMARK SMILES CCCCCCCCCCCC(=O)[O-]
REMARK SMILES IDX 7 1 8 2 9 3 10 4 11 5 12 6 13 7 14 8 6 9 5 10 4 11 3 12 2 13
REMARK SMILES IDX 1 14
REMARK H PARENT
REMARK Flexibility Score: inf
ROOT
ATOM      1  C   UNL     1      -8.138  30.274 106.929  1.00  0.00     0.000 C 
ENDROOT
BRANCH   1   2
ATOM      2  C   UNL     1      -7.922  31.167 105.695  1.00  0.00     0.000 C 
BRANCH   2   3
ATOM      3  C   UNL     1      -6.936  30.554 104.688  1.00  0.00     0.000 C 
BRANCH   3   4
ATOM      4  C   UNL     1      -6.108  31.619 103.947  1.00  0.00     0.006 C 
BRANCH   4   5
ATOM      5  C   UNL     1      -4.696  31.122 103.611  1.00  0.00     0.053 C 
BRANCH   5   6
ATOM      6  C   UNL     1      -3.748  32.258 103.377  1.00  0.00     0.041 C 
ATOM      7  O   UNL     1      -3.645  32.774 102.233  1.00  0.00    -0.550 OA
ATOM      8  O   UNL     1      -2.957  32.729 104.417  1.00  0.00    -0.550 OA
ENDBRANCH   5   6
ENDBRANCH   4   5
ENDBRANCH   3   4
ENDBRANCH   2   3
ENDBRANCH   1   2
BRANCH   1   9
ATOM      9  C   UNL     1      -7.474  28.892 106.790  1.00  0.00     0.000 C 
BRANCH   9  10
ATOM     10  C   UNL     1      -6.356  28.598 107.810  1.00  0.00    -0.000 C 
BRANCH  10  11
ATOM     11  C   UNL     1      -5.553  29.828 108.277  1.00  0.00    -0.000 C 
BRANCH  11  12
ATOM     12  C   UNL     1      -4.392  30.235 107.353  1.00  0.00    -0.000 C 
BRANCH  12  13
ATOM     13  C   UNL     1      -4.121  31.747 107.366  1.00  0.00    -0.003 C 
ATOM     14  C   UNL     1      -5.292  32.509 107.980  1.00  0.00     0.004 C 
ENDBRANCH  12  13
ENDBRANCH  11  12
ENDBRANCH  10  11
ENDBRANCH   9  10
ENDBRANCH   1   9
TORSDOF 10
ENDMDL
MODEL 4
REMARK VINA RESULT:    -3.192      2.558      3.960
REMARK INTER + INTRA:          -6.270
REMARK INTER:                  -4.896
REMARK INTRA:                  -1.374
REMARK UNBOUND:                -1.212
REMARK SMILES CCCCCCCCCCCC(=O)[O-]
REMARK SMILES IDX 7 1 8 2 9 3 10 4 11 5 12 6 13 7 14 8 6 9 5 10 4 11 3 12 2 13
REMARK SMILES IDX 1 14
REMARK H PARENT
REMARK Flexibility Score: inf
ROOT
ATOM      1  C   UNL     1      -3.918  31.002 107.483  1.00  0.00     0.000 C 
ENDROOT
BRANCH   1   2
ATOM      2  C   UNL     1      -4.533  29.648 107.087  1.00  0.00     0.000 C 
BRANCH   2   3
ATOM      3  C   UNL     1      -5.782  29.303 107.914  1.00  0.00     0.000 C 
BRANCH   3   4
ATOM      4  C   UNL     1      -7.063  29.263 107.063  1.00  0.00     0.006 C 
BRANCH   4   5
ATOM      5  C   UNL     1      -7.930  30.513 107.265  1.00  0.00     0.053 C 
BRANCH   5   6
ATOM      6  C   UNL     1      -9.290  30.350 106.657  1.00  0.00     0.041 C 
ATOM      7  O   UNL     1      -9.819  29.210 106.581  1.00  0.00    -0.550 OA
ATOM      8  O   UNL     1      -9.961  31.455 106.148  1.00  0.00    -0.550 OA
ENDBRANCH   5   6
ENDBRANCH   4   5
ENDBRANCH   3   4
ENDBRANCH   2   3
ENDBRANCH   1   2
BRANCH   1   9
ATOM      9  C   UNL     1      -4.547  32.188 106.730  1.00  0.00     0.000 C 
BRANCH   9  10
ATOM     10  C   UNL     1      -3.773  32.655 105.481  1.00  0.00    -0.000 C 
BRANCH  10  11
ATOM     11  C   UNL     1      -4.527  32.503 104.145  1.00  0.00    -0.000 C 
BRANCH  11  12
ATOM     12  C   UNL     1      -4.825  31.051 103.730  1.00  0.00    -0.000 C 
BRANCH  12  13
ATOM     13  C   UNL     1      -6.305  30.676 103.898  1.00  0.00    -0.003 C 
ATOM     14  C   UNL     1      -7.190  31.920 103.909  1.00  0.00     0.004 C 
ENDBRANCH  12  13
ENDBRANCH  11  12
ENDBRANCH  10  11
ENDBRANCH   9  10
ENDBRANCH   1   9
TORSDOF 10
ENDMDL
MODEL 5
REMARK VINA RESULT:    -3.185      2.039      4.422
REMARK INTER + INTRA:          -6.260
REMARK INTER:                  -4.918
REMARK INTRA:                  -1.342
REMARK UNBOUND:                -1.212
REMARK SMILES CCCCCCCCCCCC(=O)[O-]
REMARK SMILES IDX 7 1 8 2 9 3 10 4 11 5 12 6 13 7 14 8 6 9 5 10 4 11 3 12 2 13
REMARK SMILES IDX 1 14
REMARK H PARENT
REMARK Flexibility Score: inf
ROOT
ATOM      1  C   UNL     1      -7.180  32.315 105.529  1.00  0.00     0.000 C 
ENDROOT
BRANCH   1   2
ATOM      2  C   UNL     1      -6.750  32.079 104.070  1.00  0.00     0.000 C 
BRANCH   2   3
ATOM      3  C   UNL     1      -6.162  30.676 103.848  1.00  0.00     0.000 C 
BRANCH   3   4
ATOM      4  C   UNL     1      -4.653  30.708 103.551  1.00  0.00     0.006 C 
BRANCH   4   5
ATOM      5  C   UNL     1      -4.156  32.125 103.233  1.00  0.00     0.053 C 
BRANCH   5   6
ATOM      6  C   UNL     1      -2.895  32.103 102.425  1.00  0.00     0.041 C 
ATOM      7  O   UNL     1      -2.111  33.088 102.445  1.00  0.00    -0.550 OA
ATOM      8  O   UNL     1      -2.599  31.004 101.628  1.00  0.00    -0.550 OA
ENDBRANCH   5   6
ENDBRANCH   4   5
ENDBRANCH   3   4
ENDBRANCH   2   3
ENDBRANCH   1   2
BRANCH   1   9
ATOM      9  C   UNL     1      -8.300  31.363 105.984  1.00  0.00     0.000 C 
BRANCH   9  10
ATOM     10  C   UNL     1      -7.977  30.524 107.236  1.00  0.00    -0.000 C 
BRANCH  10  11
ATOM     11  C   UNL     1      -7.141  29.254 106.979  1.00  0.00    -0.000 C 
BRANCH  11  12
ATOM     12  C   UNL     1      -5.859  29.140 107.824  1.00  0.00    -0.000 C 
BRANCH  12  13
ATOM     13  C   UNL     1      -4.599  29.560 107.053  1.00  0.00    -0.003 C 
ATOM     14  C   UNL     1      -4.222  31.006 107.363  1.00  0.00     0.004 C 
ENDBRANCH  12  13
ENDBRANCH  11  12
ENDBRANCH  10  11
ENDBRANCH   9  10
ENDBRANCH   1   9
TORSDOF 10
ENDMDL
MODEL 6
REMARK VINA RESULT:    -3.127     19.060     20.821
REMARK INTER + INTRA:          -6.168
REMARK INTER:                  -5.179
REMARK INTRA:                  -0.989
REMARK UNBOUND:                -1.212
REMARK SMILES CCCCCCCCCCCC(=O)[O-]
REMARK SMILES IDX 7 1 8 2 9 3 10 4 11 5 12 6 13 7 14 8 6 9 5 10 4 11 3 12 2 13
REMARK SMILES IDX 1 14
REMARK H PARENT
REMARK Flexibility Score: inf
ROOT
ATOM      1  C   UNL     1     -19.453  40.467  92.887  1.00  0.00     0.000 C 
ENDROOT
BRANCH   1   2
ATOM      2  C   UNL     1     -20.875  39.991  93.233  1.00  0.00     0.000 C 
BRANCH   2   3
ATOM      3  C   UNL     1     -21.058  38.479  93.028  1.00  0.00     0.000 C 
BRANCH   3   4
ATOM      4  C   UNL     1     -19.733  37.703  93.128  1.00  0.00     0.006 C 
BRANCH   4   5
ATOM      5  C   UNL     1     -19.571  36.687  91.989  1.00  0.00     0.053 C 
BRANCH   5   6
ATOM      6  C   UNL     1     -19.024  37.324  90.749  1.00  0.00     0.041 C 
ATOM      7  O   UNL     1     -17.995  38.047  90.808  1.00  0.00    -0.550 OA
ATOM      8  O   UNL     1     -19.667  37.142  89.531  1.00  0.00    -0.550 OA
ENDBRANCH   5   6
ENDBRANCH   4   5
ENDBRANCH   3   4
ENDBRANCH   2   3
ENDBRANCH   1   2
BRANCH   1   9
ATOM      9  C   UNL     1     -18.908  41.500  93.890  1.00  0.00     0.000 C 
BRANCH   9  10
ATOM     10  C   UNL     1     -17.446  41.278  94.326  1.00  0.00    -0.000 C 
BRANCH  10  11
ATOM     11  C   UNL     1     -17.234  41.082  95.841  1.00  0.00    -0.000 C 
BRANCH  11  12
ATOM     12  C   UNL     1     -17.978  39.880  96.449  1.00  0.00    -0.000 C 
BRANCH  12  13
ATOM     13  C   UNL     1     -19.178  40.298  97.313  1.00  0.00    -0.003 C 
ATOM     14  C   UNL     1     -19.063  41.757  97.744  1.00  0.00     0.004 C 
ENDBRANCH  12  13
ENDBRANCH  11  12
ENDBRANCH  10  11
ENDBRANCH   9  10
ENDBRANCH   1   9
TORSDOF 10
ENDMDL
MODEL 7
REMARK VINA RESULT:    -3.127     19.115     20.617
REMARK INTER + INTRA:          -6.168
REMARK INTER:                  -5.418
REMARK INTRA:                  -0.750
REMARK UNBOUND:                -1.212
REMARK SMILES CCCCCCCCCCCC(=O)[O-]
REMARK SMILES IDX 7 1 8 2 9 3 10 4 11 5 12 6 13 7 14 8 6 9 5 10 4 11 3 12 2 13
REMARK SMILES IDX 1 14
REMARK H PARENT
REMARK Flexibility Score: inf
ROOT
ATOM      1  C   UNL     1     -21.115  39.902  92.641  1.00  0.00     0.000 C 
ENDROOT
BRANCH   1   2
ATOM      2  C   UNL     1     -20.154  41.000  93.131  1.00  0.00     0.000 C 
BRANCH   2   3
ATOM      3  C   UNL     1     -18.922  40.428  93.851  1.00  0.00     0.000 C 
BRANCH   3   4
ATOM      4  C   UNL     1     -17.965  41.526  94.348  1.00  0.00     0.006 C 
BRANCH   4   5
ATOM      5  C   UNL     1     -17.232  41.115  95.632  1.00  0.00     0.053 C 
BRANCH   5   6
ATOM      6  C   UNL     1     -18.183  40.895  96.769  1.00  0.00     0.041 C 
ATOM      7  O   UNL     1     -18.327  39.745  97.262  1.00  0.00    -0.550 OA
ATOM      8  O   UNL     1     -18.930  41.955  97.265  1.00  0.00    -0.550 OA
ENDBRANCH   5   6
ENDBRANCH   4   5
ENDBRANCH   3   4
ENDBRANCH   2   3
ENDBRANCH   1   2
BRANCH   1   9
ATOM      9  C   UNL     1     -20.919  38.565  93.378  1.00  0.00     0.000 C 
BRANCH   9  10
ATOM     10  C   UNL     1     -20.646  37.351  92.467  1.00  0.00    -0.000 C 
BRANCH  10  11
ATOM     11  C   UNL     1     -19.219  37.271  91.888  1.00  0.00    -0.000 C 
BRANCH  11  12
ATOM     12  C   UNL     1     -19.071  37.806  90.453  1.00  0.00    -0.000 C 
BRANCH  12  13
ATOM     13  C   UNL     1     -19.626  36.839  89.396  1.00  0.00    -0.003 C 
ATOM     14  C   UNL     1     -18.576  35.811  88.986  1.00  0.00     0.004 C 
ENDBRANCH  12  13
ENDBRANCH  11  12
ENDBRANCH  10  11
ENDBRANCH   9  10
ENDBRANCH   1   9
TORSDOF 10
ENDMDL
MODEL 8
REMARK VINA RESULT:    -3.101      2.892      5.411
REMARK INTER + INTRA:          -6.127
REMARK INTER:                  -4.791
REMARK INTRA:                  -1.335
REMARK UNBOUND:                -1.212
REMARK SMILES CCCCCCCCCCCC(=O)[O-]
REMARK SMILES IDX 7 1 8 2 9 3 10 4 11 5 12 6 13 7 14 8 6 9 5 10 4 11 3 12 2 13
REMARK SMILES IDX 1 14
REMARK H PARENT
REMARK Flexibility Score: inf
ROOT
ATOM      1  C   UNL     1      -5.032  30.909 104.259  1.00  0.00     0.000 C 
ENDROOT
BRANCH   1   2
ATOM      2  C   UNL     1      -6.547  31.026 104.017  1.00  0.00     0.000 C 
BRANCH   2   3
ATOM      3  C   UNL     1      -6.986  32.466 103.706  1.00  0.00     0.000 C 
BRANCH   3   4
ATOM      4  C   UNL     1      -8.446  32.739 104.106  1.00  0.00     0.006 C 
BRANCH   4   5
ATOM      5  C   UNL     1      -8.738  32.315 105.552  1.00  0.00     0.053 C 
BRANCH   5   6
ATOM      6  C   UNL     1     -10.203  32.106 105.785  1.00  0.00     0.041 C 
ATOM      7  O   UNL     1     -11.041  32.936 105.343  1.00  0.00    -0.550 OA
ATOM      8  O   UNL     1     -10.642  31.008 106.513  1.00  0.00    -0.550 OA
ENDBRANCH   5   6
ENDBRANCH   4   5
ENDBRANCH   3   4
ENDBRANCH   2   3
ENDBRANCH   1   2
BRANCH   1   9
ATOM      9  C   UNL     1      -4.540  31.806 105.409  1.00  0.00     0.000 C 
BRANCH   9  10
ATOM     10  C   UNL     1      -4.836  31.274 106.826  1.00  0.00    -0.000 C 
BRANCH  10  11
ATOM     11  C   UNL     1      -4.624  29.759 107.017  1.00  0.00    -0.000 C 
BRANCH  11  12
ATOM     12  C   UNL     1      -5.789  29.022 107.701  1.00  0.00    -0.000 C 
BRANCH  12  13
ATOM     13  C   UNL     1      -7.160  29.610 107.338  1.00  0.00    -0.003 C 
ATOM     14  C   UNL     1      -7.943  28.661 106.434  1.00  0.00     0.004 C 
ENDBRANCH  12  13
ENDBRANCH  11  12
ENDBRANCH  10  11
ENDBRANCH   9  10
ENDBRANCH   1   9
TORSDOF 10
ENDMDL
MODEL 9
REMARK VINA RESULT:    -3.061     12.935     15.769
REMARK INTER + INTRA:          -6.062
REMARK INTER:                  -5.166
REMARK INTRA:                  -0.897
REMARK UNBOUND:                -1.212
REMARK SMILES CCCCCCCCCCCC(=O)[O-]
REMARK SMILES IDX 7 1 8 2 9 3 10 4 11 5 12 6 13 7 14 8 6 9 5 10 4 11 3 12 2 13
REMARK SMILES IDX 1 14
REMARK H PARENT
REMARK Flexibility Score: inf
ROOT
ATOM      1  C   UNL     1      -3.578  40.392  94.697  1.00  0.00     0.000 C 
ENDROOT
BRANCH   1   2
ATOM      2  C   UNL     1      -3.509  41.920  94.861  1.00  0.00     0.000 C 
BRANCH   2   3
ATOM      3  C   UNL     1      -2.961  42.342  96.234  1.00  0.00     0.000 C 
BRANCH   3   4
ATOM      4  C   UNL     1      -3.040  43.862  96.461  1.00  0.00     0.006 C 
BRANCH   4   5
ATOM      5  C   UNL     1      -2.691  44.654  95.193  1.00  0.00     0.053 C 
BRANCH   5   6
ATOM      6  C   UNL     1      -1.687  45.731  95.471  1.00  0.00     0.041 C 
ATOM      7  O   UNL     1      -0.905  46.120  94.563  1.00  0.00    -0.550 OA
ATOM      8  O   UNL     1      -1.597  46.287  96.741  1.00  0.00    -0.550 OA
ENDBRANCH   5   6
ENDBRANCH   4   5
ENDBRANCH   3   4
ENDBRANCH   2   3
ENDBRANCH   1   2
BRANCH   1   9
ATOM      9  C   UNL     1      -2.618  39.863  93.615  1.00  0.00     0.000 C 
BRANCH   9  10
ATOM     10  C   UNL     1      -1.312  39.241  94.148  1.00  0.00    -0.000 C 
BRANCH  10  11
ATOM     11  C   UNL     1      -1.221  39.118  95.682  1.00  0.00    -0.000 C 
BRANCH  11  12
ATOM     12  C   UNL     1      -1.579  37.730  96.245  1.00  0.00    -0.000 C 
BRANCH  12  13
ATOM     13  C   UNL     1      -2.300  37.805  97.599  1.00  0.00    -0.003 C 
ATOM     14  C   UNL     1      -2.436  39.250  98.070  1.00  0.00     0.004 C 
ENDBRANCH  12  13
ENDBRANCH  11  12
ENDBRANCH  10  11
ENDBRANCH   9  10
ENDBRANCH   1   9
TORSDOF 10
ENDMDL
