MODEL 1
REMARK VINA RESULT:     0.648      0.000      0.000
REMARK INTER + INTRA:           1.675
REMARK INTER:                   1.406
REMARK INTRA:                   0.269
REMARK UNBOUND:                 0.269
REMARK SMILES CCCCCCCCCCCCCCCCCCCCCC(=O)[O-]
REMARK SMILES IDX 12 1 11 2 10 3 9 4 8 5 7 6 6 7 5 8 4 9 3 10 2 11 1 12 13 13
REMARK SMILES IDX 14 14 15 15 16 16 17 17 18 18 19 19 20 20 21 21 22 22 23 23
REMARK SMILES IDX 24 24
REMARK H PARENT
REMARK Flexibility Score: inf
ROOT
ATOM      1  C   UNL     1       0.519  60.433  -5.445  1.00  0.00     0.000 C 
ENDROOT
BRANCH   1   2
ATOM      2  C   UNL     1       0.275  58.982  -5.883  1.00  0.00     0.000 C 
BRANCH   2   3
ATOM      3  C   UNL     1       0.138  58.885  -7.408  1.00  0.00     0.000 C 
BRANCH   3   4
ATOM      4  C   UNL     1       1.516  58.890  -8.085  1.00  0.00    -0.000 C 
BRANCH   4   5
ATOM      5  C   UNL     1       2.578  59.655  -7.276  1.00  0.00    -0.000 C 
BRANCH   5   6
ATOM      6  C   UNL     1       3.580  60.480  -8.112  1.00  0.00    -0.000 C 
BRANCH   6   7
ATOM      7  C   UNL     1       5.048  60.414  -7.644  1.00  0.00    -0.000 C 
BRANCH   7   8
ATOM      8  C   UNL     1       5.585  58.981  -7.428  1.00  0.00    -0.000 C 
BRANCH   8   9
ATOM      9  C   UNL     1       7.120  58.875  -7.508  1.00  0.00    -0.000 C 
BRANCH   9  10
ATOM     10  C   UNL     1       7.833  60.157  -7.979  1.00  0.00    -0.000 C 
BRANCH  10  11
ATOM     11  C   UNL     1       9.360  60.031  -8.125  1.00  0.00    -0.003 C 
ATOM     12  C   UNL     1       9.982  59.093  -7.092  1.00  0.00     0.004 C 
ENDBRANCH  10  11
ENDBRANCH   9  10
ENDBRANCH   8   9
ENDBRANCH   7   8
ENDBRANCH   6   7
ENDBRANCH   5   6
ENDBRANCH   4   5
ENDBRANCH   3   4
ENDBRANCH   2   3
ENDBRANCH   1   2
BRANCH   1  13
ATOM     13  C   UNL     1      -0.020  60.730  -4.034  1.00  0.00     0.000 C 
BRANCH  13  14
ATOM     14  C   UNL     1       0.833  60.168  -2.878  1.00  0.00     0.000 C 
BRANCH  14  15
ATOM     15  C   UNL     1       0.162  60.214  -1.491  1.00  0.00     0.000 C 
BRANCH  15  16
ATOM     16  C   UNL     1      -1.376  60.103  -1.510  1.00  0.00     0.000 C 
BRANCH  16  17
ATOM     17  C   UNL     1      -1.977  59.587  -2.834  1.00  0.00     0.000 C 
BRANCH  17  18
ATOM     18  C   UNL     1      -3.504  59.392  -2.828  1.00  0.00     0.000 C 
BRANCH  18  19
ATOM     19  C   UNL     1      -4.076  59.115  -4.230  1.00  0.00     0.000 C 
BRANCH  19  20
ATOM     20  C   UNL     1      -3.220  59.726  -5.354  1.00  0.00     0.006 C 
BRANCH  20  21
ATOM     21  C   UNL     1      -3.849  60.948  -6.040  1.00  0.00     0.053 C 
BRANCH  21  22
ATOM     22  C   UNL     1      -4.990  60.567  -6.933  1.00  0.00     0.041 C 
ATOM     23  O   UNL     1      -5.237  59.354  -7.162  1.00  0.00    -0.550 OA
ATOM     24  O   UNL     1      -5.760  61.553  -7.538  1.00  0.00    -0.550 OA
ENDBRANCH  21  22
ENDBRANCH  20  21
ENDBRANCH  19  20
ENDBRANCH  18  19
ENDBRANCH  17  18
ENDBRANCH  16  17
ENDBRANCH  15  16
ENDBRANCH  14  15
ENDBRANCH  13  14
ENDBRANCH   1  13
TORSDOF 20
ENDMDL
MODEL 2
REMARK VINA RESULT:     1.867      1.309      2.697
REMARK INTER + INTRA:           4.320
REMARK INTER:                   5.104
REMARK INTRA:                  -0.784
REMARK UNBOUND:                 0.269
REMARK SMILES CCCCCCCCCCCCCCCCCCCCCC(=O)[O-]
REMARK SMILES IDX 12 1 11 2 10 3 9 4 8 5 7 6 6 7 5 8 4 9 3 10 2 11 1 12 13 13
REMARK SMILES IDX 14 14 15 15 16 16 17 17 18 18 19 19 20 20 21 21 22 22 23 23
REMARK SMILES IDX 24 24
REMARK H PARENT
REMARK Flexibility Score: inf
ROOT
ATOM      1  C   UNL     1       0.732  61.394  -1.869  1.00  0.00     0.000 C 
ENDROOT
BRANCH   1   2
ATOM      2  C   UNL     1       1.795  60.438  -2.430  1.00  0.00     0.000 C 
BRANCH   2   3
ATOM      3  C   UNL     1       1.246  59.642  -3.620  1.00  0.00     0.000 C 
BRANCH   3   4
ATOM      4  C   UNL     1       0.148  60.430  -4.350  1.00  0.00    -0.000 C 
BRANCH   4   5
ATOM      5  C   UNL     1       0.202  60.255  -5.878  1.00  0.00    -0.000 C 
BRANCH   5   6
ATOM      6  C   UNL     1       1.523  59.676  -6.431  1.00  0.00    -0.000 C 
BRANCH   6   7
ATOM      7  C   UNL     1       2.805  60.142  -5.713  1.00  0.00    -0.000 C 
BRANCH   7   8
ATOM      8  C   UNL     1       3.993  60.439  -6.656  1.00  0.00    -0.000 C 
BRANCH   8   9
ATOM      9  C   UNL     1       4.069  59.499  -7.873  1.00  0.00    -0.000 C 
BRANCH   9  10
ATOM     10  C   UNL     1       5.455  58.877  -8.125  1.00  0.00    -0.000 C 
BRANCH  10  11
ATOM     11  C   UNL     1       6.646  59.802  -7.814  1.00  0.00    -0.003 C 
ATOM     12  C   UNL     1       7.999  59.138  -8.067  1.00  0.00     0.004 C 
ENDBRANCH  10  11
ENDBRANCH   9  10
ENDBRANCH   8   9
ENDBRANCH   7   8
ENDBRANCH   6   7
ENDBRANCH   5   6
ENDBRANCH   4   5
ENDBRANCH   3   4
ENDBRANCH   2   3
ENDBRANCH   1   2
BRANCH   1  13
ATOM     13  C   UNL     1       0.534  61.244  -0.350  1.00  0.00     0.000 C 
BRANCH  13  14
ATOM     14  C   UNL     1       0.247  59.807   0.132  1.00  0.00     0.000 C 
BRANCH  14  15
ATOM     15  C   UNL     1      -1.030  59.647   0.980  1.00  0.00     0.000 C 
BRANCH  15  16
ATOM     16  C   UNL     1      -2.270  59.164   0.201  1.00  0.00     0.000 C 
BRANCH  16  17
ATOM     17  C   UNL     1      -2.031  58.880  -1.296  1.00  0.00     0.000 C 
BRANCH  17  18
ATOM     18  C   UNL     1      -3.292  58.913  -2.178  1.00  0.00     0.000 C 
BRANCH  18  19
ATOM     19  C   UNL     1      -2.990  59.294  -3.638  1.00  0.00     0.000 C 
BRANCH  19  20
ATOM     20  C   UNL     1      -4.198  59.929  -4.351  1.00  0.00     0.006 C 
BRANCH  20  21
ATOM     21  C   UNL     1      -3.841  60.750  -5.600  1.00  0.00     0.053 C 
BRANCH  21  22
ATOM     22  C   UNL     1      -4.276  60.071  -6.862  1.00  0.00     0.041 C 
ATOM     23  O   UNL     1      -3.419  59.673  -7.695  1.00  0.00    -0.550 OA
ATOM     24  O   UNL     1      -5.628  59.908  -7.135  1.00  0.00    -0.550 OA
ENDBRANCH  21  22
ENDBRANCH  20  21
ENDBRANCH  19  20
ENDBRANCH  18  19
ENDBRANCH  17  18
ENDBRANCH  16  17
ENDBRANCH  15  16
ENDBRANCH  14  15
ENDBRANCH  13  14
ENDBRANCH   1  13
TORSDOF 20
ENDMDL
MODEL 3
REMARK VINA RESULT:     1.966      6.897      9.426
REMARK INTER + INTRA:           4.533
REMARK INTER:                   5.506
REMARK INTRA:                  -0.973
REMARK UNBOUND:                 0.269
REMARK SMILES CCCCCCCCCCCCCCCCCCCCCC(=O)[O-]
REMARK SMILES IDX 12 1 11 2 10 3 9 4 8 5 7 6 6 7 5 8 4 9 3 10 2 11 1 12 13 13
REMARK SMILES IDX 14 14 15 15 16 16 17 17 18 18 19 19 20 20 21 21 22 22 23 23
REMARK SMILES IDX 24 24
REMARK H PARENT
REMARK Flexibility Score: inf
ROOT
ATOM      1  C   UNL     1       2.173  64.864  -7.403  1.00  0.00     0.000 C 
ENDROOT
BRANCH   1   2
ATOM      2  C   UNL     1       2.320  63.629  -6.503  1.00  0.00     0.000 C 
BRANCH   2   3
ATOM      3  C   UNL     1       2.514  62.359  -7.341  1.00  0.00     0.000 C 
BRANCH   3   4
ATOM      4  C   UNL     1       2.994  61.192  -6.467  1.00  0.00    -0.000 C 
BRANCH   4   5
ATOM      5  C   UNL     1       2.245  59.879  -6.758  1.00  0.00    -0.000 C 
BRANCH   5   6
ATOM      6  C   UNL     1       0.943  59.668  -5.955  1.00  0.00    -0.000 C 
BRANCH   6   7
ATOM      7  C   UNL     1       0.899  60.348  -4.572  1.00  0.00    -0.000 C 
BRANCH   7   8
ATOM      8  C   UNL     1      -0.508  60.405  -3.932  1.00  0.00    -0.000 C 
BRANCH   8   9
ATOM      9  C   UNL     1      -1.573  59.607  -4.706  1.00  0.00    -0.000 C 
BRANCH   9  10
ATOM     10  C   UNL     1      -2.979  59.625  -4.076  1.00  0.00    -0.000 C 
BRANCH  10  11
ATOM     11  C   UNL     1      -3.827  60.862  -4.423  1.00  0.00    -0.003 C 
ATOM     12  C   UNL     1      -4.205  60.931  -5.902  1.00  0.00     0.004 C 
ENDBRANCH  10  11
ENDBRANCH   9  10
ENDBRANCH   8   9
ENDBRANCH   7   8
ENDBRANCH   6   7
ENDBRANCH   5   6
ENDBRANCH   4   5
ENDBRANCH   3   4
ENDBRANCH   2   3
ENDBRANCH   1   2
BRANCH   1  13
ATOM     13  C   UNL     1       1.990  66.168  -6.605  1.00  0.00     0.000 C 
BRANCH  13  14
ATOM     14  C   UNL     1       0.759  67.009  -7.003  1.00  0.00     0.000 C 
BRANCH  14  15
ATOM     15  C   UNL     1       0.505  68.249  -6.124  1.00  0.00     0.000 C 
BRANCH  15  16
ATOM     16  C   UNL     1      -0.876  68.906  -6.313  1.00  0.00     0.000 C 
BRANCH  16  17
ATOM     17  C   UNL     1      -1.262  69.938  -5.233  1.00  0.00     0.000 C 
BRANCH  17  18
ATOM     18  C   UNL     1      -2.745  70.352  -5.222  1.00  0.00     0.000 C 
BRANCH  18  19
ATOM     19  C   UNL     1      -3.536  69.774  -6.408  1.00  0.00     0.000 C 
BRANCH  19  20
ATOM     20  C   UNL     1      -5.004  70.237  -6.427  1.00  0.00     0.006 C 
BRANCH  20  21
ATOM     21  C   UNL     1      -5.331  71.276  -7.512  1.00  0.00     0.053 C 
BRANCH  21  22
ATOM     22  C   UNL     1      -5.657  72.615  -6.926  1.00  0.00     0.041 C 
ATOM     23  O   UNL     1      -5.846  72.737  -5.687  1.00  0.00    -0.550 OA
ATOM     24  O   UNL     1      -5.786  73.724  -7.754  1.00  0.00    -0.550 OA
ENDBRANCH  21  22
ENDBRANCH  20  21
ENDBRANCH  19  20
ENDBRANCH  18  19
ENDBRANCH  17  18
ENDBRANCH  16  17
ENDBRANCH  15  16
ENDBRANCH  14  15
ENDBRANCH  13  14
ENDBRANCH   1  13
TORSDOF 20
ENDMDL
MODEL 4
REMARK VINA RESULT:     2.102      6.276      9.764
REMARK INTER + INTRA:           4.829
REMARK INTER:                   5.545
REMARK INTRA:                  -0.716
REMARK UNBOUND:                 0.269
REMARK SMILES CCCCCCCCCCCCCCCCCCCCCC(=O)[O-]
REMARK SMILES IDX 12 1 11 2 10 3 9 4 8 5 7 6 6 7 5 8 4 9 3 10 2 11 1 12 13 13
REMARK SMILES IDX 14 14 15 15 16 16 17 17 18 18 19 19 20 20 21 21 22 22 23 23
REMARK SMILES IDX 24 24
REMARK H PARENT
REMARK Flexibility Score: inf
ROOT
ATOM      1  C   UNL     1       2.480  64.280  -7.281  1.00  0.00     0.000 C 
ENDROOT
BRANCH   1   2
ATOM      2  C   UNL     1       2.371  65.594  -6.495  1.00  0.00     0.000 C 
BRANCH   2   3
ATOM      3  C   UNL     1       1.294  66.506  -7.095  1.00  0.00     0.000 C 
BRANCH   3   4
ATOM      4  C   UNL     1       1.030  67.716  -6.188  1.00  0.00    -0.000 C 
BRANCH   4   5
ATOM      5  C   UNL     1      -0.161  68.570  -6.661  1.00  0.00    -0.000 C 
BRANCH   5   6
ATOM      6  C   UNL     1      -0.891  69.359  -5.553  1.00  0.00    -0.000 C 
BRANCH   6   7
ATOM      7  C   UNL     1      -2.426  69.215  -5.537  1.00  0.00    -0.000 C 
BRANCH   7   8
ATOM      8  C   UNL     1      -3.193  70.517  -5.866  1.00  0.00    -0.000 C 
BRANCH   8   9
ATOM      9  C   UNL     1      -4.696  70.302  -6.124  1.00  0.00    -0.000 C 
BRANCH   9  10
ATOM     10  C   UNL     1      -5.184  70.751  -7.515  1.00  0.00    -0.000 C 
BRANCH  10  11
ATOM     11  C   UNL     1      -5.945  72.090  -7.532  1.00  0.00    -0.003 C 
ATOM     12  C   UNL     1      -5.799  72.875  -6.229  1.00  0.00     0.004 C 
ENDBRANCH  10  11
ENDBRANCH   9  10
ENDBRANCH   8   9
ENDBRANCH   7   8
ENDBRANCH   6   7
ENDBRANCH   5   6
ENDBRANCH   4   5
ENDBRANCH   3   4
ENDBRANCH   2   3
ENDBRANCH   1   2
BRANCH   1  13
ATOM     13  C   UNL     1       2.507  63.039  -6.372  1.00  0.00     0.000 C 
BRANCH  13  14
ATOM     14  C   UNL     1       2.496  61.687  -7.113  1.00  0.00     0.000 C 
BRANCH  14  15
ATOM     15  C   UNL     1       3.124  60.512  -6.338  1.00  0.00     0.000 C 
BRANCH  15  16
ATOM     16  C   UNL     1       2.114  59.585  -5.633  1.00  0.00     0.000 C 
BRANCH  16  17
ATOM     17  C   UNL     1       0.730  60.211  -5.364  1.00  0.00     0.000 C 
BRANCH  17  18
ATOM     18  C   UNL     1       0.398  60.453  -3.881  1.00  0.00     0.000 C 
BRANCH  18  19
ATOM     19  C   UNL     1      -1.110  60.369  -3.585  1.00  0.00     0.000 C 
BRANCH  19  20
ATOM     20  C   UNL     1      -1.869  59.494  -4.600  1.00  0.00     0.006 C 
BRANCH  20  21
ATOM     21  C   UNL     1      -3.384  59.744  -4.650  1.00  0.00     0.053 C 
BRANCH  21  22
ATOM     22  C   UNL     1      -3.829  60.231  -5.995  1.00  0.00     0.041 C 
ATOM     23  O   UNL     1      -3.473  59.624  -7.038  1.00  0.00    -0.550 OA
ATOM     24  O   UNL     1      -4.610  61.375  -6.097  1.00  0.00    -0.550 OA
ENDBRANCH  21  22
ENDBRANCH  20  21
ENDBRANCH  19  20
ENDBRANCH  18  19
ENDBRANCH  17  18
ENDBRANCH  16  17
ENDBRANCH  15  16
ENDBRANCH  14  15
ENDBRANCH  13  14
ENDBRANCH   1  13
TORSDOF 20
ENDMDL
MODEL 5
REMARK VINA RESULT:     2.261      7.308     10.908
REMARK INTER + INTRA:           5.173
REMARK INTER:                   6.037
REMARK INTRA:                  -0.864
REMARK UNBOUND:                 0.269
REMARK SMILES CCCCCCCCCCCCCCCCCCCCCC(=O)[O-]
REMARK SMILES IDX 12 1 11 2 10 3 9 4 8 5 7 6 6 7 5 8 4 9 3 10 2 11 1 12 13 13
REMARK SMILES IDX 14 14 15 15 16 16 17 17 18 18 19 19 20 20 21 21 22 22 23 23
REMARK SMILES IDX 24 24
REMARK H PARENT
REMARK Flexibility Score: inf
ROOT
ATOM      1  C   UNL     1       1.805  66.386  -6.604  1.00  0.00     0.000 C 
ENDROOT
BRANCH   1   2
ATOM      2  C   UNL     1       0.627  67.259  -7.056  1.00  0.00     0.000 C 
BRANCH   2   3
ATOM      3  C   UNL     1       0.287  68.314  -5.996  1.00  0.00     0.000 C 
BRANCH   3   4
ATOM      4  C   UNL     1      -1.052  68.998  -6.309  1.00  0.00    -0.000 C 
BRANCH   4   5
ATOM      5  C   UNL     1      -1.410  70.103  -5.299  1.00  0.00    -0.000 C 
BRANCH   5   6
ATOM      6  C   UNL     1      -2.810  70.729  -5.472  1.00  0.00    -0.000 C 
BRANCH   6   7
ATOM      7  C   UNL     1      -3.916  69.763  -5.942  1.00  0.00    -0.000 C 
BRANCH   7   8
ATOM      8  C   UNL     1      -4.806  70.316  -7.080  1.00  0.00    -0.000 C 
BRANCH   8   9
ATOM      9  C   UNL     1      -5.924  71.256  -6.592  1.00  0.00    -0.000 C 
BRANCH   9  10
ATOM     10  C   UNL     1      -6.125  72.521  -7.448  1.00  0.00    -0.000 C 
BRANCH  10  11
ATOM     11  C   UNL     1      -5.842  73.847  -6.718  1.00  0.00    -0.003 C 
ATOM     12  C   UNL     1      -5.620  75.017  -7.675  1.00  0.00     0.004 C 
ENDBRANCH  10  11
ENDBRANCH   9  10
ENDBRANCH   8   9
ENDBRANCH   7   8
ENDBRANCH   6   7
ENDBRANCH   5   6
ENDBRANCH   4   5
ENDBRANCH   3   4
ENDBRANCH   2   3
ENDBRANCH   1   2
BRANCH   1  13
ATOM     13  C   UNL     1       1.854  65.027  -7.326  1.00  0.00     0.000 C 
BRANCH  13  14
ATOM     14  C   UNL     1       2.594  63.909  -6.562  1.00  0.00     0.000 C 
BRANCH  14  15
ATOM     15  C   UNL     1       2.240  62.475  -7.003  1.00  0.00     0.000 C 
BRANCH  15  16
ATOM     16  C   UNL     1       2.607  61.375  -5.987  1.00  0.00     0.000 C 
BRANCH  16  17
ATOM     17  C   UNL     1       2.048  59.974  -6.310  1.00  0.00     0.000 C 
BRANCH  17  18
ATOM     18  C   UNL     1       0.725  59.618  -5.607  1.00  0.00     0.000 C 
BRANCH  18  19
ATOM     19  C   UNL     1       0.442  60.505  -4.382  1.00  0.00     0.000 C 
BRANCH  19  20
ATOM     20  C   UNL     1      -0.964  60.279  -3.795  1.00  0.00     0.006 C 
BRANCH  20  21
ATOM     21  C   UNL     1      -1.964  59.638  -4.769  1.00  0.00     0.053 C 
BRANCH  21  22
ATOM     22  C   UNL     1      -3.352  60.169  -4.580  1.00  0.00     0.041 C 
ATOM     23  O   UNL     1      -4.271  59.411  -4.171  1.00  0.00    -0.550 OA
ATOM     24  O   UNL     1      -3.638  61.493  -4.887  1.00  0.00    -0.550 OA
ENDBRANCH  21  22
ENDBRANCH  20  21
ENDBRANCH  19  20
ENDBRANCH  18  19
ENDBRANCH  17  18
ENDBRANCH  16  17
ENDBRANCH  15  16
ENDBRANCH  14  15
ENDBRANCH  13  14
ENDBRANCH   1  13
TORSDOF 20
ENDMDL
MODEL 6
REMARK VINA RESULT:     2.350      7.613      9.782
REMARK INTER + INTRA:           5.366
REMARK INTER:                   6.153
REMARK INTRA:                  -0.787
REMARK UNBOUND:                 0.269
REMARK SMILES CCCCCCCCCCCCCCCCCCCCCC(=O)[O-]
REMARK SMILES IDX 12 1 11 2 10 3 9 4 8 5 7 6 6 7 5 8 4 9 3 10 2 11 1 12 13 13
REMARK SMILES IDX 14 14 15 15 16 16 17 17 18 18 19 19 20 20 21 21 22 22 23 23
REMARK SMILES IDX 24 24
REMARK H PARENT
REMARK Flexibility Score: inf
ROOT
ATOM      1  C   UNL     1       2.926  66.860  -4.964  1.00  0.00     0.000 C 
ENDROOT
BRANCH   1   2
ATOM      2  C   UNL     1       3.373  65.520  -5.564  1.00  0.00     0.000 C 
BRANCH   2   3
ATOM      3  C   UNL     1       2.361  65.018  -6.601  1.00  0.00     0.000 C 
BRANCH   3   4
ATOM      4  C   UNL     1       2.719  63.603  -7.079  1.00  0.00    -0.000 C 
BRANCH   4   5
ATOM      5  C   UNL     1       2.194  62.503  -6.139  1.00  0.00    -0.000 C 
BRANCH   5   6
ATOM      6  C   UNL     1       2.638  61.066  -6.488  1.00  0.00    -0.000 C 
BRANCH   6   7
ATOM      7  C   UNL     1       2.235  59.981  -5.470  1.00  0.00    -0.000 C 
BRANCH   7   8
ATOM      8  C   UNL     1       1.059  60.376  -4.547  1.00  0.00    -0.000 C 
BRANCH   8   9
ATOM      9  C   UNL     1      -0.325  60.021  -5.121  1.00  0.00    -0.000 C 
BRANCH   9  10
ATOM     10  C   UNL     1      -1.469  60.006  -4.088  1.00  0.00    -0.000 C 
BRANCH  10  11
ATOM     11  C   UNL     1      -2.809  60.565  -4.599  1.00  0.00    -0.003 C 
ATOM     12  C   UNL     1      -4.019  59.935  -3.910  1.00  0.00     0.004 C 
ENDBRANCH  10  11
ENDBRANCH   9  10
ENDBRANCH   8   9
ENDBRANCH   7   8
ENDBRANCH   6   7
ENDBRANCH   5   6
ENDBRANCH   4   5
ENDBRANCH   3   4
ENDBRANCH   2   3
ENDBRANCH   1   2
BRANCH   1  13
ATOM     13  C   UNL     1       1.964  67.636  -5.881  1.00  0.00     0.000 C 
BRANCH  13  14
ATOM     14  C   UNL     1       0.768  68.296  -5.163  1.00  0.00     0.000 C 
BRANCH  14  15
ATOM     15  C   UNL     1      -0.264  68.962  -6.095  1.00  0.00     0.000 C 
BRANCH  15  16
ATOM     16  C   UNL     1      -1.462  69.614  -5.375  1.00  0.00     0.000 C 
BRANCH  16  17
ATOM     17  C   UNL     1      -2.845  69.268  -5.964  1.00  0.00     0.000 C 
BRANCH  17  18
ATOM     18  C   UNL     1      -3.799  70.463  -6.143  1.00  0.00     0.000 C 
BRANCH  18  19
ATOM     19  C   UNL     1      -5.022  70.125  -7.014  1.00  0.00     0.000 C 
BRANCH  19  20
ATOM     20  C   UNL     1      -6.113  71.210  -6.954  1.00  0.00     0.006 C 
BRANCH  20  21
ATOM     21  C   UNL     1      -5.946  72.338  -7.984  1.00  0.00     0.053 C 
BRANCH  21  22
ATOM     22  C   UNL     1      -5.811  73.680  -7.331  1.00  0.00     0.041 C 
ATOM     23  O   UNL     1      -5.914  74.732  -8.016  1.00  0.00    -0.550 OA
ATOM     24  O   UNL     1      -5.538  73.768  -5.971  1.00  0.00    -0.550 OA
ENDBRANCH  21  22
ENDBRANCH  20  21
ENDBRANCH  19  20
ENDBRANCH  18  19
ENDBRANCH  17  18
ENDBRANCH  16  17
ENDBRANCH  15  16
ENDBRANCH  14  15
ENDBRANCH  13  14
ENDBRANCH   1  13
TORSDOF 20
ENDMDL
MODEL 7
REMARK VINA RESULT:     2.574      6.145      9.444
REMARK INTER + INTRA:           5.852
REMARK INTER:                   6.148
REMARK INTRA:                  -0.296
REMARK UNBOUND:                 0.269
REMARK SMILES CCCCCCCCCCCCCCCCCCCCCC(=O)[O-]
REMARK SMILES IDX 12 1 11 2 10 3 9 4 8 5 7 6 6 7 5 8 4 9 3 10 2 11 1 12 13 13
REMARK SMILES IDX 14 14 15 15 16 16 17 17 18 18 19 19 20 20 21 21 22 22 23 23
REMARK SMILES IDX 24 24
REMARK H PARENT
REMARK Flexibility Score: inf
ROOT
ATOM      1  C   UNL     1       2.211  63.113  -6.430  1.00  0.00     0.000 C 
ENDROOT
BRANCH   1   2
ATOM      2  C   UNL     1       2.935  61.846  -6.907  1.00  0.00     0.000 C 
BRANCH   2   3
ATOM      3  C   UNL     1       2.513  60.627  -6.079  1.00  0.00     0.000 C 
BRANCH   3   4
ATOM      4  C   UNL     1       1.052  60.752  -5.620  1.00  0.00    -0.000 C 
BRANCH   4   5
ATOM      5  C   UNL     1       0.848  60.333  -4.153  1.00  0.00    -0.000 C 
BRANCH   5   6
ATOM      6  C   UNL     1      -0.589  60.497  -3.612  1.00  0.00    -0.000 C 
BRANCH   6   7
ATOM      7  C   UNL     1      -1.680  59.725  -4.381  1.00  0.00    -0.000 C 
BRANCH   7   8
ATOM      8  C   UNL     1      -3.022  60.480  -4.515  1.00  0.00    -0.000 C 
BRANCH   8   9
ATOM      9  C   UNL     1      -4.259  59.569  -4.413  1.00  0.00    -0.000 C 
BRANCH   9  10
ATOM     10  C   UNL     1      -4.678  58.895  -5.733  1.00  0.00    -0.000 C 
BRANCH  10  11
ATOM     11  C   UNL     1      -5.463  59.799  -6.700  1.00  0.00    -0.003 C 
ATOM     12  C   UNL     1      -4.875  61.205  -6.813  1.00  0.00     0.004 C 
ENDBRANCH  10  11
ENDBRANCH   9  10
ENDBRANCH   8   9
ENDBRANCH   7   8
ENDBRANCH   6   7
ENDBRANCH   5   6
ENDBRANCH   4   5
ENDBRANCH   3   4
ENDBRANCH   2   3
ENDBRANCH   1   2
BRANCH   1  13
ATOM     13  C   UNL     1       2.527  64.345  -7.297  1.00  0.00     0.000 C 
BRANCH  13  14
ATOM     14  C   UNL     1       2.341  65.704  -6.591  1.00  0.00     0.000 C 
BRANCH  14  15
ATOM     15  C   UNL     1       1.160  66.551  -7.107  1.00  0.00     0.000 C 
BRANCH  15  16
ATOM     16  C   UNL     1       0.922  67.867  -6.342  1.00  0.00     0.000 C 
BRANCH  16  17
ATOM     17  C   UNL     1      -0.358  68.632  -6.739  1.00  0.00     0.000 C 
BRANCH  17  18
ATOM     18  C   UNL     1      -1.001  69.463  -5.615  1.00  0.00     0.000 C 
BRANCH  18  19
ATOM     19  C   UNL     1      -2.479  69.105  -5.379  1.00  0.00     0.000 C 
BRANCH  19  20
ATOM     20  C   UNL     1      -3.425  69.783  -6.387  1.00  0.00     0.006 C 
BRANCH  20  21
ATOM     21  C   UNL     1      -4.442  70.747  -5.757  1.00  0.00     0.053 C 
BRANCH  21  22
ATOM     22  C   UNL     1      -5.075  71.642  -6.778  1.00  0.00     0.041 C 
ATOM     23  O   UNL     1      -5.589  71.153  -7.819  1.00  0.00    -0.550 OA
ATOM     24  O   UNL     1      -5.069  73.019  -6.596  1.00  0.00    -0.550 OA
ENDBRANCH  21  22
ENDBRANCH  20  21
ENDBRANCH  19  20
ENDBRANCH  18  19
ENDBRANCH  17  18
ENDBRANCH  16  17
ENDBRANCH  15  16
ENDBRANCH  14  15
ENDBRANCH  13  14
ENDBRANCH   1  13
TORSDOF 20
ENDMDL
