MODEL 1
REMARK VINA RESULT:    -9.575      0.000      0.000
REMARK INTER + INTRA:         -11.366
REMARK INTER:                 -11.534
REMARK INTRA:                   0.168
REMARK UNBOUND:                 0.168
REMARK SMILES O=c1c(O)c(-c2ccc(O)c(O)c2)oc2cc(O)cc(O)c12
REMARK SMILES IDX 5 1 3 2 2 3 1 4 22 5 20 6 19 7 17 8 16 9 15 10 14 11 6 12
REMARK SMILES IDX 7 13 8 14 9 15 13 16 11 17 10 18 12 20 4 22 21 24 18 26
REMARK H PARENT 10 19 12 21 4 23 21 25 18 27
REMARK Flexibility Score: inf
ROOT
ATOM      1  C   UNL     1      -8.272  28.670  16.922  1.00  0.00     0.180 A 
ATOM      2  C   UNL     1      -9.099  28.253  15.866  1.00  0.00     0.208 A 
ATOM      3  C   UNL     1      -8.580  28.233  14.561  1.00  0.00     0.238 A 
ATOM      4  O   UNL     1      -9.342  27.910  13.612  1.00  0.00    -0.285 OA
ATOM      5  C   UNL     1      -7.237  28.615  14.332  1.00  0.00     0.111 A 
ATOM      6  C   UNL     1      -6.595  28.594  13.057  1.00  0.00     0.134 A 
ATOM      7  C   UNL     1      -5.302  29.119  12.926  1.00  0.00     0.093 A 
ATOM      8  C   UNL     1      -4.605  29.600  14.033  1.00  0.00     0.123 A 
ATOM      9  C   UNL     1      -5.201  29.569  15.294  1.00  0.00     0.094 A 
ATOM     10  C   UNL     1      -6.503  29.087  15.451  1.00  0.00     0.146 A 
ATOM     11  O   UNL     1      -7.037  29.085  16.666  1.00  0.00    -0.452 OA
ENDROOT
BRANCH   1  12
ATOM     12  C   UNL     1      -8.740  28.694  18.327  1.00  0.00     0.025 A 
ATOM     13  C   UNL     1      -7.884  28.250  19.348  1.00  0.00     0.016 A 
ATOM     14  C   UNL     1      -8.312  28.244  20.679  1.00  0.00     0.051 A 
ATOM     15  C   UNL     1      -9.607  28.667  21.004  1.00  0.00     0.157 A 
ATOM     16  C   UNL     1     -10.046  29.098  18.658  1.00  0.00     0.062 A 
ATOM     17  C   UNL     1     -10.477  29.090  19.992  1.00  0.00     0.158 A 
BRANCH  15  18
ATOM     18  O   UNL     1     -10.037  28.664  22.330  1.00  0.00    -0.504 OA
ATOM     19  H   UNL     1     -10.984  28.401  22.579  1.00  0.00     0.293 HD
ENDBRANCH  15  18
BRANCH  17  20
ATOM     20  O   UNL     1     -11.769  29.497  20.319  1.00  0.00    -0.504 OA
ATOM     21  H   UNL     1     -12.573  29.193  19.781  1.00  0.00     0.293 HD
ENDBRANCH  17  20
ENDBRANCH   1  12
BRANCH   2  22
ATOM     22  O   UNL     1     -10.429  27.901  16.111  1.00  0.00    -0.502 OA
ATOM     23  H   UNL     1     -10.945  27.270  15.509  1.00  0.00     0.293 HD
ENDBRANCH   2  22
BRANCH   6  24
ATOM     24  O   UNL     1      -7.167  28.050  11.903  1.00  0.00    -0.507 OA
ATOM     25  H   UNL     1      -7.505  27.104  11.821  1.00  0.00     0.293 HD
ENDBRANCH   6  24
BRANCH   8  26
ATOM     26  O   UNL     1      -3.315  30.099  13.868  1.00  0.00    -0.508 OA
ATOM     27  H   UNL     1      -2.845  30.607  14.609  1.00  0.00     0.293 HD
ENDBRANCH   8  26
TORSDOF 6
ENDMDL
MODEL 2
REMARK VINA RESULT:    -9.548      2.165      4.392
REMARK INTER + INTRA:         -11.333
REMARK INTER:                 -11.521
REMARK INTRA:                   0.189
REMARK UNBOUND:                 0.168
REMARK SMILES O=c1c(O)c(-c2ccc(O)c(O)c2)oc2cc(O)cc(O)c12
REMARK SMILES IDX 5 1 3 2 2 3 1 4 22 5 20 6 19 7 17 8 16 9 15 10 14 11 6 12
REMARK SMILES IDX 7 13 8 14 9 15 13 16 11 17 10 18 12 20 4 22 21 24 18 26
REMARK H PARENT 10 19 12 21 4 23 21 25 18 27
REMARK Flexibility Score: inf
ROOT
ATOM      1  C   UNL     1      -8.208  28.312  16.849  1.00  0.00     0.180 A 
ATOM      2  C   UNL     1      -7.361  28.670  15.787  1.00  0.00     0.208 A 
ATOM      3  C   UNL     1      -7.867  28.655  14.477  1.00  0.00     0.238 A 
ATOM      4  O   UNL     1      -7.089  28.924  13.525  1.00  0.00    -0.285 OA
ATOM      5  C   UNL     1      -9.217  28.297  14.248  1.00  0.00     0.111 A 
ATOM      6  C   UNL     1      -9.847  28.287  12.967  1.00  0.00     0.134 A 
ATOM      7  C   UNL     1     -11.151  27.790  12.842  1.00  0.00     0.093 A 
ATOM      8  C   UNL     1     -11.870  27.366  13.959  1.00  0.00     0.123 A 
ATOM      9  C   UNL     1     -11.286  27.430  15.224  1.00  0.00     0.094 A 
ATOM     10  C   UNL     1      -9.974  27.885  15.376  1.00  0.00     0.146 A 
ATOM     11  O   UNL     1      -9.451  27.919  16.596  1.00  0.00    -0.452 OA
ENDROOT
BRANCH   1  12
ATOM     12  C   UNL     1      -7.754  28.329  18.259  1.00  0.00     0.025 A 
ATOM     13  C   UNL     1      -8.619  28.804  19.258  1.00  0.00     0.016 A 
ATOM     14  C   UNL     1      -8.205  28.848  20.592  1.00  0.00     0.051 A 
ATOM     15  C   UNL     1      -6.913  28.433  20.943  1.00  0.00     0.157 A 
ATOM     16  C   UNL     1      -6.452  27.932  18.614  1.00  0.00     0.062 A 
ATOM     17  C   UNL     1      -6.035  27.979  19.952  1.00  0.00     0.158 A 
BRANCH  15  18
ATOM     18  O   UNL     1      -6.496  28.474  22.271  1.00  0.00    -0.504 OA
ATOM     19  H   UNL     1      -5.579  28.142  22.550  1.00  0.00     0.293 HD
ENDBRANCH  15  18
BRANCH  17  20
ATOM     20  O   UNL     1      -4.746  27.579  20.303  1.00  0.00    -0.504 OA
ATOM     21  H   UNL     1      -4.331  26.736  19.923  1.00  0.00     0.293 HD
ENDBRANCH  17  20
ENDBRANCH   1  12
BRANCH   2  22
ATOM     22  O   UNL     1      -6.025  28.998  16.032  1.00  0.00    -0.502 OA
ATOM     23  H   UNL     1      -5.634  29.027  16.966  1.00  0.00     0.293 HD
ENDBRANCH   2  22
BRANCH   6  24
ATOM     24  O   UNL     1      -9.251  28.774  11.800  1.00  0.00    -0.507 OA
ATOM     25  H   UNL     1      -9.752  29.037  10.965  1.00  0.00     0.293 HD
ENDBRANCH   6  24
BRANCH   8  26
ATOM     26  O   UNL     1     -13.171  26.894  13.799  1.00  0.00    -0.508 OA
ATOM     27  H   UNL     1     -13.459  25.997  14.174  1.00  0.00     0.293 HD
ENDBRANCH   8  26
TORSDOF 6
ENDMDL
MODEL 3
REMARK VINA RESULT:    -8.733      2.667      5.967
REMARK INTER + INTRA:         -10.351
REMARK INTER:                 -10.369
REMARK INTRA:                   0.017
REMARK UNBOUND:                 0.168
REMARK SMILES O=c1c(O)c(-c2ccc(O)c(O)c2)oc2cc(O)cc(O)c12
REMARK SMILES IDX 5 1 3 2 2 3 1 4 22 5 20 6 19 7 17 8 16 9 15 10 14 11 6 12
REMARK SMILES IDX 7 13 8 14 9 15 13 16 11 17 10 18 12 20 4 22 21 24 18 26
REMARK H PARENT 10 19 12 21 4 23 21 25 18 27
REMARK Flexibility Score: inf
ROOT
ATOM      1  C   UNL     1      -8.901  28.290  17.189  1.00  0.00     0.180 A 
ATOM      2  C   UNL     1      -9.588  28.648  18.361  1.00  0.00     0.208 A 
ATOM      3  C   UNL     1      -8.891  28.672  19.580  1.00  0.00     0.238 A 
ATOM      4  O   UNL     1      -9.524  28.942  20.633  1.00  0.00    -0.285 OA
ATOM      5  C   UNL     1      -7.512  28.353  19.608  1.00  0.00     0.111 A 
ATOM      6  C   UNL     1      -6.697  28.384  20.780  1.00  0.00     0.134 A 
ATOM      7  C   UNL     1      -5.376  27.923  20.715  1.00  0.00     0.093 A 
ATOM      8  C   UNL     1      -4.821  27.494  19.510  1.00  0.00     0.123 A 
ATOM      9  C   UNL     1      -5.591  27.517  18.346  1.00  0.00     0.094 A 
ATOM     10  C   UNL     1      -6.923  27.936  18.386  1.00  0.00     0.146 A 
ATOM     11  O   UNL     1      -7.624  27.932  17.258  1.00  0.00    -0.452 OA
ENDROOT
BRANCH   1  12
ATOM     12  C   UNL     1      -9.562  28.266  15.864  1.00  0.00     0.025 A 
ATOM     13  C   UNL     1      -8.992  28.975  14.794  1.00  0.00     0.016 A 
ATOM     14  C   UNL     1      -9.609  28.984  13.540  1.00  0.00     0.051 A 
ATOM     15  C   UNL     1     -10.813  28.296  13.343  1.00  0.00     0.157 A 
ATOM     16  C   UNL     1     -10.782  27.594  15.665  1.00  0.00     0.062 A 
ATOM     17  C   UNL     1     -11.403  27.605  14.408  1.00  0.00     0.158 A 
BRANCH  15  18
ATOM     18  O   UNL     1     -11.432  28.301  12.095  1.00  0.00    -0.504 OA
ATOM     19  H   UNL     1     -11.482  29.143  11.531  1.00  0.00     0.293 HD
ENDBRANCH  15  18
BRANCH  17  20
ATOM     20  O   UNL     1     -12.609  26.933  14.212  1.00  0.00    -0.504 OA
ATOM     21  H   UNL     1     -13.303  26.865  14.947  1.00  0.00     0.293 HD
ENDBRANCH  17  20
ENDBRANCH   1  12
BRANCH   2  22
ATOM     22  O   UNL     1     -10.954  28.938  18.314  1.00  0.00    -0.502 OA
ATOM     23  H   UNL     1     -11.662  28.217  18.235  1.00  0.00     0.293 HD
ENDBRANCH   2  22
BRANCH   6  24
ATOM     24  O   UNL     1      -7.124  28.881  22.014  1.00  0.00    -0.507 OA
ATOM     25  H   UNL     1      -7.942  29.456  22.151  1.00  0.00     0.293 HD
ENDBRANCH   6  24
BRANCH   8  26
ATOM     26  O   UNL     1      -3.499  27.057  19.479  1.00  0.00    -0.508 OA
ATOM     27  H   UNL     1      -2.865  27.230  20.251  1.00  0.00     0.293 HD
ENDBRANCH   8  26
TORSDOF 6
ENDMDL
MODEL 4
REMARK VINA RESULT:    -8.688      1.416      7.287
REMARK INTER + INTRA:         -10.297
REMARK INTER:                 -10.337
REMARK INTRA:                   0.040
REMARK UNBOUND:                 0.168
REMARK SMILES O=c1c(O)c(-c2ccc(O)c(O)c2)oc2cc(O)cc(O)c12
REMARK SMILES IDX 5 1 3 2 2 3 1 4 22 5 20 6 19 7 17 8 16 9 15 10 14 11 6 12
REMARK SMILES IDX 7 13 8 14 9 15 13 16 11 17 10 18 12 20 4 22 21 24 18 26
REMARK H PARENT 10 19 12 21 4 23 21 25 18 27
REMARK Flexibility Score: inf
ROOT
ATOM      1  C   UNL     1      -7.524  28.706  17.144  1.00  0.00     0.180 A 
ATOM      2  C   UNL     1      -6.819  28.370  18.312  1.00  0.00     0.208 A 
ATOM      3  C   UNL     1      -7.504  28.344  19.538  1.00  0.00     0.238 A 
ATOM      4  O   UNL     1      -6.856  28.096  20.587  1.00  0.00    -0.285 OA
ATOM      5  C   UNL     1      -8.888  28.638  19.577  1.00  0.00     0.111 A 
ATOM      6  C   UNL     1      -9.691  28.603  20.757  1.00  0.00     0.134 A 
ATOM      7  C   UNL     1     -11.021  29.039  20.701  1.00  0.00     0.093 A 
ATOM      8  C   UNL     1     -11.595  29.447  19.498  1.00  0.00     0.123 A 
ATOM      9  C   UNL     1     -10.836  29.428  18.327  1.00  0.00     0.094 A 
ATOM     10  C   UNL     1      -9.496  29.033  18.357  1.00  0.00     0.146 A 
ATOM     11  O   UNL     1      -8.807  29.041  17.222  1.00  0.00    -0.452 OA
ENDROOT
BRANCH   1  12
ATOM     12  C   UNL     1      -6.877  28.730  15.812  1.00  0.00     0.025 A 
ATOM     13  C   UNL     1      -7.462  28.028  14.746  1.00  0.00     0.016 A 
ATOM     14  C   UNL     1      -6.858  28.020  13.486  1.00  0.00     0.051 A 
ATOM     15  C   UNL     1      -5.651  28.700  13.279  1.00  0.00     0.157 A 
ATOM     16  C   UNL     1      -5.654  29.394  15.603  1.00  0.00     0.062 A 
ATOM     17  C   UNL     1      -5.046  29.384  14.340  1.00  0.00     0.158 A 
BRANCH  15  18
ATOM     18  O   UNL     1      -5.045  28.696  12.024  1.00  0.00    -0.504 OA
ATOM     19  H   UNL     1      -5.539  29.009  11.196  1.00  0.00     0.293 HD
ENDBRANCH  15  18
BRANCH  17  20
ATOM     20  O   UNL     1      -3.838  30.048  14.134  1.00  0.00    -0.504 OA
ATOM     21  H   UNL     1      -3.647  30.545  13.271  1.00  0.00     0.293 HD
ENDBRANCH  17  20
ENDBRANCH   1  12
BRANCH   2  22
ATOM     22  O   UNL     1      -5.448  28.105  18.254  1.00  0.00    -0.502 OA
ATOM     23  H   UNL     1      -4.751  28.768  18.573  1.00  0.00     0.293 HD
ENDBRANCH   2  22
BRANCH   6  24
ATOM     24  O   UNL     1      -9.242  28.125  21.992  1.00  0.00    -0.507 OA
ATOM     25  H   UNL     1      -8.478  28.520  22.518  1.00  0.00     0.293 HD
ENDBRANCH   6  24
BRANCH   8  26
ATOM     26  O   UNL     1     -12.925  29.859  19.476  1.00  0.00    -0.508 OA
ATOM     27  H   UNL     1     -13.687  29.191  19.444  1.00  0.00     0.293 HD
ENDBRANCH   8  26
TORSDOF 6
ENDMDL
MODEL 5
REMARK VINA RESULT:    -8.650      2.270      6.821
REMARK INTER + INTRA:         -10.251
REMARK INTER:                 -10.379
REMARK INTRA:                   0.128
REMARK UNBOUND:                 0.168
REMARK SMILES O=c1c(O)c(-c2ccc(O)c(O)c2)oc2cc(O)cc(O)c12
REMARK SMILES IDX 5 1 3 2 2 3 1 4 22 5 20 6 19 7 17 8 16 9 15 10 14 11 6 12
REMARK SMILES IDX 7 13 8 14 9 15 13 16 11 17 10 18 12 20 4 22 21 24 18 26
REMARK H PARENT 10 19 12 21 4 23 21 25 18 27
REMARK Flexibility Score: inf
ROOT
ATOM      1  C   UNL     1      -9.132  28.316  16.299  1.00  0.00     0.180 A 
ATOM      2  C   UNL     1      -7.750  28.210  16.527  1.00  0.00     0.208 A 
ATOM      3  C   UNL     1      -7.275  28.215  17.849  1.00  0.00     0.238 A 
ATOM      4  O   UNL     1      -6.033  28.175  18.046  1.00  0.00    -0.285 OA
ATOM      5  C   UNL     1      -8.190  28.311  18.925  1.00  0.00     0.111 A 
ATOM      6  C   UNL     1      -7.824  28.285  20.305  1.00  0.00     0.134 A 
ATOM      7  C   UNL     1      -8.800  28.518  21.282  1.00  0.00     0.093 A 
ATOM      8  C   UNL     1     -10.136  28.710  20.935  1.00  0.00     0.123 A 
ATOM      9  C   UNL     1     -10.515  28.677  19.592  1.00  0.00     0.094 A 
ATOM     10  C   UNL     1      -9.559  28.483  18.592  1.00  0.00     0.146 A 
ATOM     11  O   UNL     1      -9.959  28.470  17.326  1.00  0.00    -0.452 OA
ENDROOT
BRANCH   1  12
ATOM     12  C   UNL     1      -9.709  28.291  14.935  1.00  0.00     0.025 A 
ATOM     13  C   UNL     1      -9.116  29.059  13.920  1.00  0.00     0.016 A 
ATOM     14  C   UNL     1      -9.655  29.068  12.631  1.00  0.00     0.051 A 
ATOM     15  C   UNL     1     -10.805  28.321  12.343  1.00  0.00     0.157 A 
ATOM     16  C   UNL     1     -10.875  27.560  14.645  1.00  0.00     0.062 A 
ATOM     17  C   UNL     1     -11.418  27.570  13.352  1.00  0.00     0.158 A 
BRANCH  15  18
ATOM     18  O   UNL     1     -11.345  28.326  11.058  1.00  0.00    -0.504 OA
ATOM     19  H   UNL     1     -12.342  28.227  10.903  1.00  0.00     0.293 HD
ENDBRANCH  15  18
BRANCH  17  20
ATOM     20  O   UNL     1     -12.570  26.840  13.066  1.00  0.00    -0.504 OA
ATOM     21  H   UNL     1     -13.442  27.297  12.826  1.00  0.00     0.293 HD
ENDBRANCH  17  20
ENDBRANCH   1  12
BRANCH   2  22
ATOM     22  O   UNL     1      -6.862  28.139  15.450  1.00  0.00    -0.502 OA
ATOM     23  H   UNL     1      -7.169  27.953  14.503  1.00  0.00     0.293 HD
ENDBRANCH   2  22
BRANCH   6  24
ATOM     24  O   UNL     1      -6.533  28.010  20.765  1.00  0.00    -0.507 OA
ATOM     25  H   UNL     1      -6.303  27.295  21.438  1.00  0.00     0.293 HD
ENDBRANCH   6  24
BRANCH   8  26
ATOM     26  O   UNL     1     -11.083  28.923  21.935  1.00  0.00    -0.508 OA
ATOM     27  H   UNL     1     -11.995  29.313  21.727  1.00  0.00     0.293 HD
ENDBRANCH   8  26
TORSDOF 6
ENDMDL
MODEL 6
REMARK VINA RESULT:    -8.579      1.442      6.785
REMARK INTER + INTRA:         -10.166
REMARK INTER:                 -10.300
REMARK INTRA:                   0.134
REMARK UNBOUND:                 0.168
REMARK SMILES O=c1c(O)c(-c2ccc(O)c(O)c2)oc2cc(O)cc(O)c12
REMARK SMILES IDX 5 1 3 2 2 3 1 4 22 5 20 6 19 7 17 8 16 9 15 10 14 11 6 12
REMARK SMILES IDX 7 13 8 14 9 15 13 16 11 17 10 18 12 20 4 22 21 24 18 26
REMARK H PARENT 10 19 12 21 4 23 21 25 18 27
REMARK Flexibility Score: inf
ROOT
ATOM      1  C   UNL     1      -7.531  28.631  16.354  1.00  0.00     0.180 A 
ATOM      2  C   UNL     1      -8.927  28.706  16.493  1.00  0.00     0.208 A 
ATOM      3  C   UNL     1      -9.483  28.732  17.783  1.00  0.00     0.238 A 
ATOM      4  O   UNL     1     -10.735  28.745  17.902  1.00  0.00    -0.285 OA
ATOM      5  C   UNL     1      -8.634  28.698  18.915  1.00  0.00     0.111 A 
ATOM      6  C   UNL     1      -9.085  28.760  20.269  1.00  0.00     0.134 A 
ATOM      7  C   UNL     1      -8.167  28.586  21.312  1.00  0.00     0.093 A 
ATOM      8  C   UNL     1      -6.807  28.419  21.054  1.00  0.00     0.123 A 
ATOM      9  C   UNL     1      -6.347  28.418  19.736  1.00  0.00     0.094 A 
ATOM     10  C   UNL     1      -7.243  28.551  18.673  1.00  0.00     0.146 A 
ATOM     11  O   UNL     1      -6.766  28.534  17.434  1.00  0.00    -0.452 OA
ENDROOT
BRANCH   1  12
ATOM     12  C   UNL     1      -6.872  28.625  15.028  1.00  0.00     0.025 A 
ATOM     13  C   UNL     1      -7.389  27.817  14.002  1.00  0.00     0.016 A 
ATOM     14  C   UNL     1      -6.771  27.779  12.749  1.00  0.00     0.051 A 
ATOM     15  C   UNL     1      -5.618  28.538  12.510  1.00  0.00     0.157 A 
ATOM     16  C   UNL     1      -5.702  29.368  14.787  1.00  0.00     0.062 A 
ATOM     17  C   UNL     1      -5.080  29.329  13.531  1.00  0.00     0.158 A 
BRANCH  15  18
ATOM     18  O   UNL     1      -4.998  28.505  11.262  1.00  0.00    -0.504 OA
ATOM     19  H   UNL     1      -5.515  28.277  10.420  1.00  0.00     0.293 HD
ENDBRANCH  15  18
BRANCH  17  20
ATOM     20  O   UNL     1      -3.924  30.072  13.294  1.00  0.00    -0.504 OA
ATOM     21  H   UNL     1      -3.166  30.103  13.966  1.00  0.00     0.293 HD
ENDBRANCH  17  20
ENDBRANCH   1  12
BRANCH   2  22
ATOM     22  O   UNL     1      -9.748  28.716  15.362  1.00  0.00    -0.502 OA
ATOM     23  H   UNL     1      -9.848  29.532  14.770  1.00  0.00     0.293 HD
ENDBRANCH   2  22
BRANCH   6  24
ATOM     24  O   UNL     1     -10.409  29.015  20.639  1.00  0.00    -0.507 OA
ATOM     25  H   UNL     1     -10.715  29.207  21.580  1.00  0.00     0.293 HD
ENDBRANCH   6  24
BRANCH   8  26
ATOM     26  O   UNL     1      -5.919  28.266  22.116  1.00  0.00    -0.508 OA
ATOM     27  H   UNL     1      -4.935  28.081  21.962  1.00  0.00     0.293 HD
ENDBRANCH   8  26
TORSDOF 6
ENDMDL
MODEL 7
REMARK VINA RESULT:    -8.392      1.372      3.185
REMARK INTER + INTRA:          -9.940
REMARK INTER:                 -10.230
REMARK INTRA:                   0.289
REMARK UNBOUND:                 0.168
REMARK SMILES O=c1c(O)c(-c2ccc(O)c(O)c2)oc2cc(O)cc(O)c12
REMARK SMILES IDX 5 1 3 2 2 3 1 4 22 5 20 6 19 7 17 8 16 9 15 10 14 11 6 12
REMARK SMILES IDX 7 13 8 14 9 15 13 16 11 17 10 18 12 20 4 22 21 24 18 26
REMARK H PARENT 10 19 12 21 4 23 21 25 18 27
REMARK Flexibility Score: inf
ROOT
ATOM      1  C   UNL     1      -8.588  28.609  16.907  1.00  0.00     0.180 A 
ATOM      2  C   UNL     1      -7.282  28.862  16.452  1.00  0.00     0.208 A 
ATOM      3  C   UNL     1      -7.026  28.841  15.072  1.00  0.00     0.238 A 
ATOM      4  O   UNL     1      -5.844  29.014  14.674  1.00  0.00    -0.285 OA
ATOM      5  C   UNL     1      -8.080  28.584  14.164  1.00  0.00     0.111 A 
ATOM      6  C   UNL     1      -7.943  28.578  12.743  1.00  0.00     0.134 A 
ATOM      7  C   UNL     1      -9.025  28.182  11.945  1.00  0.00     0.093 A 
ATOM      8  C   UNL     1     -10.256  27.856  12.512  1.00  0.00     0.123 A 
ATOM      9  C   UNL     1     -10.419  27.917  13.897  1.00  0.00     0.094 A 
ATOM     10  C   UNL     1      -9.348  28.272  14.721  1.00  0.00     0.146 A 
ATOM     11  O   UNL     1      -9.542  28.307  16.034  1.00  0.00    -0.452 OA
ENDROOT
BRANCH   1  12
ATOM     12  C   UNL     1      -8.941  28.639  18.345  1.00  0.00     0.025 A 
ATOM     13  C   UNL     1      -8.000  28.214  19.296  1.00  0.00     0.016 A 
ATOM     14  C   UNL     1      -8.318  28.214  20.657  1.00  0.00     0.051 A 
ATOM     15  C   UNL     1      -9.588  28.624  21.084  1.00  0.00     0.157 A 
ATOM     16  C   UNL     1     -10.221  29.031  18.778  1.00  0.00     0.062 A 
ATOM     17  C   UNL     1     -10.542  29.029  20.143  1.00  0.00     0.158 A 
BRANCH  15  18
ATOM     18  O   UNL     1      -9.909  28.627  22.440  1.00  0.00    -0.504 OA
ATOM     19  H   UNL     1      -9.238  28.344  23.144  1.00  0.00     0.293 HD
ENDBRANCH  15  18
BRANCH  17  20
ATOM     20  O   UNL     1     -11.808  29.423  20.570  1.00  0.00    -0.504 OA
ATOM     21  H   UNL     1     -12.006  30.383  20.829  1.00  0.00     0.293 HD
ENDBRANCH  17  20
ENDBRANCH   1  12
BRANCH   2  22
ATOM     22  O   UNL     1      -6.251  29.091  17.367  1.00  0.00    -0.502 OA
ATOM     23  H   UNL     1      -5.489  28.438  17.504  1.00  0.00     0.293 HD
ENDBRANCH   2  22
BRANCH   6  24
ATOM     24  O   UNL     1      -6.784  28.975  12.069  1.00  0.00    -0.507 OA
ATOM     25  H   UNL     1      -6.555  28.722  11.120  1.00  0.00     0.293 HD
ENDBRANCH   6  24
BRANCH   8  26
ATOM     26  O   UNL     1     -11.315  27.483  11.688  1.00  0.00    -0.508 OA
ATOM     27  H   UNL     1     -12.142  28.061  11.594  1.00  0.00     0.293 HD
ENDBRANCH   8  26
TORSDOF 6
ENDMDL
MODEL 8
REMARK VINA RESULT:    -8.386      1.789      2.736
REMARK INTER + INTRA:          -9.933
REMARK INTER:                 -10.199
REMARK INTRA:                   0.266
REMARK UNBOUND:                 0.168
REMARK SMILES O=c1c(O)c(-c2ccc(O)c(O)c2)oc2cc(O)cc(O)c12
REMARK SMILES IDX 5 1 3 2 2 3 1 4 22 5 20 6 19 7 17 8 16 9 15 10 14 11 6 12
REMARK SMILES IDX 7 13 8 14 9 15 13 16 11 17 10 18 12 20 4 22 21 24 18 26
REMARK H PARENT 10 19 12 21 4 23 21 25 18 27
REMARK Flexibility Score: inf
ROOT
ATOM      1  C   UNL     1      -8.181  28.278  16.755  1.00  0.00     0.180 A 
ATOM      2  C   UNL     1      -9.502  28.033  16.343  1.00  0.00     0.208 A 
ATOM      3  C   UNL     1      -9.788  27.983  14.969  1.00  0.00     0.238 A 
ATOM      4  O   UNL     1     -10.981  27.817  14.605  1.00  0.00    -0.285 OA
ATOM      5  C   UNL     1      -8.748  28.162  14.026  1.00  0.00     0.111 A 
ATOM      6  C   UNL     1      -8.916  28.092  12.610  1.00  0.00     0.134 A 
ATOM      7  C   UNL     1      -7.843  28.415  11.770  1.00  0.00     0.093 A 
ATOM      8  C   UNL     1      -6.592  28.742  12.292  1.00  0.00     0.123 A 
ATOM      9  C   UNL     1      -6.401  28.755  13.675  1.00  0.00     0.094 A 
ATOM     10  C   UNL     1      -7.462  28.473  14.539  1.00  0.00     0.146 A 
ATOM     11  O   UNL     1      -7.240  28.508  15.848  1.00  0.00    -0.452 OA
ENDROOT
BRANCH   1  12
ATOM     12  C   UNL     1      -7.798  28.320  18.185  1.00  0.00     0.025 A 
ATOM     13  C   UNL     1      -8.695  28.852  19.126  1.00  0.00     0.016 A 
ATOM     14  C   UNL     1      -8.347  28.921  20.478  1.00  0.00     0.051 A 
ATOM     15  C   UNL     1      -7.090  28.474  20.905  1.00  0.00     0.157 A 
ATOM     16  C   UNL     1      -6.530  27.892  18.618  1.00  0.00     0.062 A 
ATOM     17  C   UNL     1      -6.178  27.963  19.973  1.00  0.00     0.158 A 
BRANCH  15  18
ATOM     18  O   UNL     1      -6.738  28.540  22.252  1.00  0.00    -0.504 OA
ATOM     19  H   UNL     1      -7.421  28.390  22.986  1.00  0.00     0.293 HD
ENDBRANCH  15  18
BRANCH  17  20
ATOM     20  O   UNL     1      -4.924  27.532  20.400  1.00  0.00    -0.504 OA
ATOM     21  H   UNL     1      -4.518  27.858  21.270  1.00  0.00     0.293 HD
ENDBRANCH  17  20
ENDBRANCH   1  12
BRANCH   2  22
ATOM     22  O   UNL     1     -10.518  27.881  17.290  1.00  0.00    -0.502 OA
ATOM     23  H   UNL     1     -11.211  28.598  17.465  1.00  0.00     0.293 HD
ENDBRANCH   2  22
BRANCH   6  24
ATOM     24  O   UNL     1     -10.098  27.686  11.984  1.00  0.00    -0.507 OA
ATOM     25  H   UNL     1     -10.802  28.311  11.625  1.00  0.00     0.293 HD
ENDBRANCH   6  24
BRANCH   8  26
ATOM     26  O   UNL     1      -5.543  29.042  11.427  1.00  0.00    -0.508 OA
ATOM     27  H   UNL     1      -5.488  28.637  10.499  1.00  0.00     0.293 HD
ENDBRANCH   8  26
TORSDOF 6
ENDMDL
MODEL 9
REMARK VINA RESULT:    -8.152      1.633      3.459
REMARK INTER + INTRA:          -9.652
REMARK INTER:                  -9.868
REMARK INTRA:                   0.217
REMARK UNBOUND:                 0.168
REMARK SMILES O=c1c(O)c(-c2ccc(O)c(O)c2)oc2cc(O)cc(O)c12
REMARK SMILES IDX 5 1 3 2 2 3 1 4 22 5 20 6 19 7 17 8 16 9 15 10 14 11 6 12
REMARK SMILES IDX 7 13 8 14 9 15 13 16 11 17 10 18 12 20 4 22 21 24 18 26
REMARK H PARENT 10 19 12 21 4 23 21 25 18 27
REMARK Flexibility Score: inf
ROOT
ATOM      1  C   UNL     1      -7.750  28.629  16.227  1.00  0.00     0.180 A 
ATOM      2  C   UNL     1      -6.465  29.045  15.842  1.00  0.00     0.208 A 
ATOM      3  C   UNL     1      -6.134  29.061  14.477  1.00  0.00     0.238 A 
ATOM      4  O   UNL     1      -4.965  29.383  14.141  1.00  0.00    -0.285 OA
ATOM      5  C   UNL     1      -7.098  28.676  13.515  1.00  0.00     0.111 A 
ATOM      6  C   UNL     1      -6.886  28.692  12.103  1.00  0.00     0.134 A 
ATOM      7  C   UNL     1      -7.865  28.165  11.251  1.00  0.00     0.093 A 
ATOM      8  C   UNL     1      -9.074  27.685  11.753  1.00  0.00     0.123 A 
ATOM      9  C   UNL     1      -9.316  27.720  13.127  1.00  0.00     0.094 A 
ATOM     10  C   UNL     1      -8.344  28.205  14.005  1.00  0.00     0.146 A 
ATOM     11  O   UNL     1      -8.610  28.211  15.306  1.00  0.00    -0.452 OA
ENDROOT
BRANCH   1  12
ATOM     12  C   UNL     1      -8.180  28.609  17.644  1.00  0.00     0.025 A 
ATOM     13  C   UNL     1      -9.494  28.979  17.973  1.00  0.00     0.016 A 
ATOM     14  C   UNL     1      -9.916  28.987  19.305  1.00  0.00     0.051 A 
ATOM     15  C   UNL     1      -9.024  28.643  20.329  1.00  0.00     0.157 A 
ATOM     16  C   UNL     1      -7.283  28.284  18.678  1.00  0.00     0.062 A 
ATOM     17  C   UNL     1      -7.704  28.295  20.015  1.00  0.00     0.158 A 
BRANCH  15  18
ATOM     18  O   UNL     1      -9.440  28.649  21.659  1.00  0.00    -0.504 OA
ATOM     19  H   UNL     1     -10.406  28.479  21.913  1.00  0.00     0.293 HD
ENDBRANCH  15  18
BRANCH  17  20
ATOM     20  O   UNL     1      -6.816  27.966  21.038  1.00  0.00    -0.504 OA
ATOM     21  H   UNL     1      -6.908  28.360  21.967  1.00  0.00     0.293 HD
ENDBRANCH  17  20
ENDBRANCH   1  12
BRANCH   2  22
ATOM     22  O   UNL     1      -5.521  29.400  16.809  1.00  0.00    -0.502 OA
ATOM     23  H   UNL     1      -4.567  29.060  16.790  1.00  0.00     0.293 HD
ENDBRANCH   2  22
BRANCH   6  24
ATOM     24  O   UNL     1      -5.752  29.234  11.491  1.00  0.00    -0.507 OA
ATOM     25  H   UNL     1      -5.534  29.151  10.510  1.00  0.00     0.293 HD
ENDBRANCH   6  24
BRANCH   8  26
ATOM     26  O   UNL     1     -10.032  27.183  10.875  1.00  0.00    -0.508 OA
ATOM     27  H   UNL     1      -9.771  26.752   9.995  1.00  0.00     0.293 HD
ENDBRANCH   8  26
TORSDOF 6
ENDMDL
