MODEL 1
REMARK VINA RESULT:    -4.297      0.000      0.000
REMARK INTER + INTRA:         -13.001
REMARK INTER:                  -9.322
REMARK INTRA:                  -3.679
REMARK UNBOUND:                -3.679
REMARK SMILES CCCCCCCCCCCCCCCCCCCCCC(=O)[O-]
REMARK SMILES IDX 12 1 11 2 10 3 9 4 8 5 7 6 6 7 5 8 4 9 3 10 2 11 1 12 13 13
REMARK SMILES IDX 14 14 15 15 16 16 17 17 18 18 19 19 20 20 21 21 22 22 23 23
REMARK SMILES IDX 24 24
REMARK H PARENT
REMARK Flexibility Score: inf
ROOT
ATOM      1  C   UNL     1       7.097  37.606  -1.071  1.00  0.00     0.000 C 
ENDROOT
BRANCH   1   2
ATOM      2  C   UNL     1       6.735  37.380   0.404  1.00  0.00     0.000 C 
BRANCH   2   3
ATOM      3  C   UNL     1       6.663  35.889   0.781  1.00  0.00     0.000 C 
BRANCH   3   4
ATOM      4  C   UNL     1       7.973  35.287   1.329  1.00  0.00    -0.000 C 
BRANCH   4   5
ATOM      5  C   UNL     1       9.187  36.234   1.304  1.00  0.00    -0.000 C 
BRANCH   5   6
ATOM      6  C   UNL     1      10.388  35.644   0.552  1.00  0.00    -0.000 C 
BRANCH   6   7
ATOM      7  C   UNL     1      10.808  36.557  -0.609  1.00  0.00    -0.000 C 
BRANCH   7   8
ATOM      8  C   UNL     1      11.357  37.910  -0.131  1.00  0.00    -0.000 C 
BRANCH   8   9
ATOM      9  C   UNL     1      10.842  39.090  -0.973  1.00  0.00    -0.000 C 
BRANCH   9  10
ATOM     10  C   UNL     1       9.925  40.029  -0.162  1.00  0.00    -0.000 C 
BRANCH  10  11
ATOM     11  C   UNL     1       9.976  39.780   1.355  1.00  0.00    -0.003 C 
ATOM     12  C   UNL     1       8.654  40.085   2.056  1.00  0.00     0.004 C 
ENDBRANCH  10  11
ENDBRANCH   9  10
ENDBRANCH   8   9
ENDBRANCH   7   8
ENDBRANCH   6   7
ENDBRANCH   5   6
ENDBRANCH   4   5
ENDBRANCH   3   4
ENDBRANCH   2   3
ENDBRANCH   1   2
BRANCH   1  13
ATOM     13  C   UNL     1       6.003  38.414  -1.784  1.00  0.00     0.000 C 
BRANCH  13  14
ATOM     14  C   UNL     1       4.613  37.771  -1.654  1.00  0.00     0.000 C 
BRANCH  14  15
ATOM     15  C   UNL     1       4.417  36.585  -2.616  1.00  0.00     0.000 C 
BRANCH  15  16
ATOM     16  C   UNL     1       4.019  35.291  -1.877  1.00  0.00     0.000 C 
BRANCH  16  17
ATOM     17  C   UNL     1       4.955  34.097  -2.145  1.00  0.00     0.000 C 
BRANCH  17  18
ATOM     18  C   UNL     1       6.370  34.496  -2.608  1.00  0.00     0.000 C 
BRANCH  18  19
ATOM     19  C   UNL     1       7.325  33.294  -2.678  1.00  0.00     0.000 C 
BRANCH  19  20
ATOM     20  C   UNL     1       8.645  33.597  -1.958  1.00  0.00     0.006 C 
BRANCH  20  21
ATOM     21  C   UNL     1       8.908  32.578  -0.846  1.00  0.00     0.053 C 
BRANCH  21  22
ATOM     22  C   UNL     1      10.112  31.750  -1.168  1.00  0.00     0.041 C 
ATOM     23  O   UNL     1      10.698  31.105  -0.259  1.00  0.00    -0.550 OA
ATOM     24  O   UNL     1      10.561  31.656  -2.480  1.00  0.00    -0.550 OA
ENDBRANCH  21  22
ENDBRANCH  20  21
ENDBRANCH  19  20
ENDBRANCH  18  19
ENDBRANCH  17  18
ENDBRANCH  16  17
ENDBRANCH  15  16
ENDBRANCH  14  15
ENDBRANCH  13  14
ENDBRANCH   1  13
TORSDOF 20
ENDMDL
MODEL 2
REMARK VINA RESULT:    -4.217      2.220      5.519
REMARK INTER + INTRA:         -12.826
REMARK INTER:                  -9.563
REMARK INTRA:                  -3.263
REMARK UNBOUND:                -3.679
REMARK SMILES CCCCCCCCCCCCCCCCCCCCCC(=O)[O-]
REMARK SMILES IDX 12 1 11 2 10 3 9 4 8 5 7 6 6 7 5 8 4 9 3 10 2 11 1 12 13 13
REMARK SMILES IDX 14 14 15 15 16 16 17 17 18 18 19 19 20 20 21 21 22 22 23 23
REMARK SMILES IDX 24 24
REMARK H PARENT
REMARK Flexibility Score: inf
ROOT
ATOM      1  C   UNL     1       4.311  37.731  -1.506  1.00  0.00     0.000 C 
ENDROOT
BRANCH   1   2
ATOM      2  C   UNL     1       4.389  36.728  -2.666  1.00  0.00     0.000 C 
BRANCH   2   3
ATOM      3  C   UNL     1       3.295  35.647  -2.598  1.00  0.00     0.000 C 
BRANCH   3   4
ATOM      4  C   UNL     1       3.800  34.222  -2.293  1.00  0.00    -0.000 C 
BRANCH   4   5
ATOM      5  C   UNL     1       5.287  34.124  -1.907  1.00  0.00    -0.000 C 
BRANCH   5   6
ATOM      6  C   UNL     1       6.123  33.357  -2.941  1.00  0.00    -0.000 C 
BRANCH   6   7
ATOM      7  C   UNL     1       7.598  33.300  -2.518  1.00  0.00    -0.000 C 
BRANCH   7   8
ATOM      8  C   UNL     1       7.834  33.881  -1.115  1.00  0.00    -0.000 C 
BRANCH   8   9
ATOM      9  C   UNL     1       9.245  33.582  -0.580  1.00  0.00    -0.000 C 
BRANCH   9  10
ATOM     10  C   UNL     1      10.061  32.699  -1.548  1.00  0.00    -0.000 C 
BRANCH  10  11
ATOM     11  C   UNL     1      10.587  31.405  -0.905  1.00  0.00    -0.003 C 
ATOM     12  C   UNL     1       9.775  30.967   0.311  1.00  0.00     0.004 C 
ENDBRANCH  10  11
ENDBRANCH   9  10
ENDBRANCH   8   9
ENDBRANCH   7   8
ENDBRANCH   6   7
ENDBRANCH   5   6
ENDBRANCH   4   5
ENDBRANCH   3   4
ENDBRANCH   2   3
ENDBRANCH   1   2
BRANCH   1  13
ATOM     13  C   UNL     1       3.125  37.410  -0.585  1.00  0.00     0.000 C 
BRANCH  13  14
ATOM     14  C   UNL     1       3.553  37.190   0.875  1.00  0.00     0.000 C 
BRANCH  14  15
ATOM     15  C   UNL     1       3.854  35.713   1.187  1.00  0.00     0.000 C 
BRANCH  15  16
ATOM     16  C   UNL     1       5.354  35.462   1.443  1.00  0.00     0.000 C 
BRANCH  16  17
ATOM     17  C   UNL     1       6.175  36.743   1.693  1.00  0.00     0.000 C 
BRANCH  17  18
ATOM     18  C   UNL     1       7.379  36.915   0.746  1.00  0.00     0.000 C 
BRANCH  18  19
ATOM     19  C   UNL     1       7.454  38.328   0.145  1.00  0.00     0.000 C 
BRANCH  19  20
ATOM     20  C   UNL     1       8.857  38.619  -0.402  1.00  0.00     0.006 C 
BRANCH  20  21
ATOM     21  C   UNL     1       9.505  37.346  -0.953  1.00  0.00     0.053 C 
BRANCH  21  22
ATOM     22  C   UNL     1      10.947  37.279  -0.559  1.00  0.00     0.041 C 
ATOM     23  O   UNL     1      11.582  38.334  -0.298  1.00  0.00    -0.550 OA
ATOM     24  O   UNL     1      11.578  36.046  -0.437  1.00  0.00    -0.550 OA
ENDBRANCH  21  22
ENDBRANCH  20  21
ENDBRANCH  19  20
ENDBRANCH  18  19
ENDBRANCH  17  18
ENDBRANCH  16  17
ENDBRANCH  15  16
ENDBRANCH  14  15
ENDBRANCH  13  14
ENDBRANCH   1  13
TORSDOF 20
ENDMDL
MODEL 3
REMARK VINA RESULT:    -4.166      3.288      6.310
REMARK INTER + INTRA:         -12.715
REMARK INTER:                  -8.719
REMARK INTRA:                  -3.996
REMARK UNBOUND:                -3.679
REMARK SMILES CCCCCCCCCCCCCCCCCCCCCC(=O)[O-]
REMARK SMILES IDX 12 1 11 2 10 3 9 4 8 5 7 6 6 7 5 8 4 9 3 10 2 11 1 12 13 13
REMARK SMILES IDX 14 14 15 15 16 16 17 17 18 18 19 19 20 20 21 21 22 22 23 23
REMARK SMILES IDX 24 24
REMARK H PARENT
REMARK Flexibility Score: inf
ROOT
ATOM      1  C   UNL     1       6.655  35.106  -2.751  1.00  0.00     0.000 C 
ENDROOT
BRANCH   1   2
ATOM      2  C   UNL     1       5.943  33.768  -2.504  1.00  0.00     0.000 C 
BRANCH   2   3
ATOM      3  C   UNL     1       4.448  33.936  -2.179  1.00  0.00     0.000 C 
BRANCH   3   4
ATOM      4  C   UNL     1       4.055  35.308  -1.591  1.00  0.00    -0.000 C 
BRANCH   4   5
ATOM      5  C   UNL     1       3.075  35.253  -0.405  1.00  0.00    -0.000 C 
BRANCH   5   6
ATOM      6  C   UNL     1       3.671  35.825   0.888  1.00  0.00    -0.000 C 
BRANCH   6   7
ATOM      7  C   UNL     1       5.206  35.773   0.853  1.00  0.00    -0.000 C 
BRANCH   7   8
ATOM      8  C   UNL     1       5.855  36.951   1.594  1.00  0.00    -0.000 C 
BRANCH   8   9
ATOM      9  C   UNL     1       5.777  38.267   0.801  1.00  0.00    -0.000 C 
BRANCH   9  10
ATOM     10  C   UNL     1       6.605  38.214  -0.499  1.00  0.00    -0.000 C 
BRANCH  10  11
ATOM     11  C   UNL     1       5.803  38.589  -1.757  1.00  0.00    -0.003 C 
ATOM     12  C   UNL     1       4.364  39.000  -1.448  1.00  0.00     0.004 C 
ENDBRANCH  10  11
ENDBRANCH   9  10
ENDBRANCH   8   9
ENDBRANCH   7   8
ENDBRANCH   6   7
ENDBRANCH   5   6
ENDBRANCH   4   5
ENDBRANCH   3   4
ENDBRANCH   2   3
ENDBRANCH   1   2
BRANCH   1  13
ATOM     13  C   UNL     1       7.866  35.261  -1.819  1.00  0.00     0.000 C 
BRANCH  13  14
ATOM     14  C   UNL     1       8.132  34.001  -0.981  1.00  0.00     0.000 C 
BRANCH  14  15
ATOM     15  C   UNL     1       8.614  34.328   0.444  1.00  0.00     0.000 C 
BRANCH  15  16
ATOM     16  C   UNL     1       9.096  35.787   0.579  1.00  0.00     0.000 C 
BRANCH  16  17
ATOM     17  C   UNL     1      10.614  35.933   0.807  1.00  0.00     0.000 C 
BRANCH  17  18
ATOM     18  C   UNL     1      11.309  36.896  -0.174  1.00  0.00     0.000 C 
BRANCH  18  19
ATOM     19  C   UNL     1      10.312  37.801  -0.913  1.00  0.00     0.000 C 
BRANCH  19  20
ATOM     20  C   UNL     1      10.555  39.278  -0.577  1.00  0.00     0.006 C 
BRANCH  20  21
ATOM     21  C   UNL     1      10.142  39.585   0.865  1.00  0.00     0.053 C 
BRANCH  21  22
ATOM     22  C   UNL     1       9.455  40.912   0.942  1.00  0.00     0.041 C 
ATOM     23  O   UNL     1       8.198  40.974   0.971  1.00  0.00    -0.550 OA
ATOM     24  O   UNL     1      10.205  42.080   1.026  1.00  0.00    -0.550 OA
ENDBRANCH  21  22
ENDBRANCH  20  21
ENDBRANCH  19  20
ENDBRANCH  18  19
ENDBRANCH  17  18
ENDBRANCH  16  17
ENDBRANCH  15  16
ENDBRANCH  14  15
ENDBRANCH  13  14
ENDBRANCH   1  13
TORSDOF 20
ENDMDL
MODEL 4
REMARK VINA RESULT:    -4.158      1.372      5.158
REMARK INTER + INTRA:         -12.698
REMARK INTER:                  -8.523
REMARK INTRA:                  -4.174
REMARK UNBOUND:                -3.679
REMARK SMILES CCCCCCCCCCCCCCCCCCCCCC(=O)[O-]
REMARK SMILES IDX 12 1 11 2 10 3 9 4 8 5 7 6 6 7 5 8 4 9 3 10 2 11 1 12 13 13
REMARK SMILES IDX 14 14 15 15 16 16 17 17 18 18 19 19 20 20 21 21 22 22 23 23
REMARK SMILES IDX 24 24
REMARK H PARENT
REMARK Flexibility Score: inf
ROOT
ATOM      1  C   UNL     1       7.472  36.184   1.538  1.00  0.00     0.000 C 
ENDROOT
BRANCH   1   2
ATOM      2  C   UNL     1       6.268  35.312   1.149  1.00  0.00     0.000 C 
BRANCH   2   3
ATOM      3  C   UNL     1       4.962  35.757   1.832  1.00  0.00     0.000 C 
BRANCH   3   4
ATOM      4  C   UNL     1       3.765  35.969   0.883  1.00  0.00    -0.000 C 
BRANCH   4   5
ATOM      5  C   UNL     1       3.537  37.425   0.435  1.00  0.00    -0.000 C 
BRANCH   5   6
ATOM      6  C   UNL     1       3.616  37.601  -1.087  1.00  0.00    -0.000 C 
BRANCH   6   7
ATOM      7  C   UNL     1       4.803  38.496  -1.473  1.00  0.00    -0.000 C 
BRANCH   7   8
ATOM      8  C   UNL     1       6.093  37.698  -1.713  1.00  0.00    -0.000 C 
BRANCH   8   9
ATOM      9  C   UNL     1       5.913  36.576  -2.750  1.00  0.00    -0.000 C 
BRANCH   9  10
ATOM     10  C   UNL     1       6.952  35.449  -2.576  1.00  0.00    -0.000 C 
BRANCH  10  11
ATOM     11  C   UNL     1       6.343  34.117  -2.104  1.00  0.00    -0.003 C 
ATOM     12  C   UNL     1       4.818  34.098  -2.174  1.00  0.00     0.004 C 
ENDBRANCH  10  11
ENDBRANCH   9  10
ENDBRANCH   8   9
ENDBRANCH   7   8
ENDBRANCH   6   7
ENDBRANCH   5   6
ENDBRANCH   4   5
ENDBRANCH   3   4
ENDBRANCH   2   3
ENDBRANCH   1   2
BRANCH   1  13
ATOM     13  C   UNL     1       7.076  37.666   1.600  1.00  0.00     0.000 C 
BRANCH  13  14
ATOM     14  C   UNL     1       8.209  38.559   2.130  1.00  0.00     0.000 C 
BRANCH  14  15
ATOM     15  C   UNL     1       8.316  39.894   1.371  1.00  0.00     0.000 C 
BRANCH  15  16
ATOM     16  C   UNL     1       8.719  39.698  -0.105  1.00  0.00     0.000 C 
BRANCH  16  17
ATOM     17  C   UNL     1       9.989  38.848  -0.306  1.00  0.00     0.000 C 
BRANCH  17  18
ATOM     18  C   UNL     1       9.746  37.511  -1.033  1.00  0.00     0.000 C 
BRANCH  18  19
ATOM     19  C   UNL     1      10.625  36.377  -0.483  1.00  0.00     0.000 C 
BRANCH  19  20
ATOM     20  C   UNL     1      10.395  35.076  -1.262  1.00  0.00     0.006 C 
BRANCH  20  21
ATOM     21  C   UNL     1       9.828  33.985  -0.350  1.00  0.00     0.053 C 
BRANCH  21  22
ATOM     22  C   UNL     1       9.755  32.679  -1.076  1.00  0.00     0.041 C 
ATOM     23  O   UNL     1       9.767  32.653  -2.334  1.00  0.00    -0.550 OA
ATOM     24  O   UNL     1       9.718  31.487  -0.362  1.00  0.00    -0.550 OA
ENDBRANCH  21  22
ENDBRANCH  20  21
ENDBRANCH  19  20
ENDBRANCH  18  19
ENDBRANCH  17  18
ENDBRANCH  16  17
ENDBRANCH  15  16
ENDBRANCH  14  15
ENDBRANCH  13  14
ENDBRANCH   1  13
TORSDOF 20
ENDMDL
MODEL 5
REMARK VINA RESULT:    -4.110      2.881      6.668
REMARK INTER + INTRA:         -12.594
REMARK INTER:                  -8.875
REMARK INTRA:                  -3.719
REMARK UNBOUND:                -3.679
REMARK SMILES CCCCCCCCCCCCCCCCCCCCCC(=O)[O-]
REMARK SMILES IDX 12 1 11 2 10 3 9 4 8 5 7 6 6 7 5 8 4 9 3 10 2 11 1 12 13 13
REMARK SMILES IDX 14 14 15 15 16 16 17 17 18 18 19 19 20 20 21 21 22 22 23 23
REMARK SMILES IDX 24 24
REMARK H PARENT
REMARK Flexibility Score: inf
ROOT
ATOM      1  C   UNL     1      10.830  36.473  -0.636  1.00  0.00     0.000 C 
ENDROOT
BRANCH   1   2
ATOM      2  C   UNL     1      10.372  35.618   0.555  1.00  0.00     0.000 C 
BRANCH   2   3
ATOM      3  C   UNL     1       9.064  36.126   1.188  1.00  0.00     0.000 C 
BRANCH   3   4
ATOM      4  C   UNL     1       7.899  35.114   1.189  1.00  0.00    -0.000 C 
BRANCH   4   5
ATOM      5  C   UNL     1       6.777  35.408   0.177  1.00  0.00    -0.000 C 
BRANCH   5   6
ATOM      6  C   UNL     1       7.200  36.405  -0.910  1.00  0.00    -0.000 C 
BRANCH   6   7
ATOM      7  C   UNL     1       7.454  35.686  -2.243  1.00  0.00    -0.000 C 
BRANCH   7   8
ATOM      8  C   UNL     1       6.608  34.413  -2.400  1.00  0.00    -0.000 C 
BRANCH   8   9
ATOM      9  C   UNL     1       7.466  33.150  -2.590  1.00  0.00    -0.000 C 
BRANCH   9  10
ATOM     10  C   UNL     1       8.892  33.325  -2.028  1.00  0.00    -0.000 C 
BRANCH  10  11
ATOM     11  C   UNL     1       9.213  32.378  -0.859  1.00  0.00    -0.003 C 
ATOM     12  C   UNL     1      10.309  31.367  -1.192  1.00  0.00     0.004 C 
ENDBRANCH  10  11
ENDBRANCH   9  10
ENDBRANCH   8   9
ENDBRANCH   7   8
ENDBRANCH   6   7
ENDBRANCH   5   6
ENDBRANCH   4   5
ENDBRANCH   3   4
ENDBRANCH   2   3
ENDBRANCH   1   2
BRANCH   1  13
ATOM     13  C   UNL     1      11.421  37.807  -0.156  1.00  0.00     0.000 C 
BRANCH  13  14
ATOM     14  C   UNL     1      10.737  39.022  -0.802  1.00  0.00     0.000 C 
BRANCH  14  15
ATOM     15  C   UNL     1       9.687  39.670   0.120  1.00  0.00     0.000 C 
BRANCH  15  16
ATOM     16  C   UNL     1      10.107  39.635   1.603  1.00  0.00     0.000 C 
BRANCH  16  17
ATOM     17  C   UNL     1       8.935  39.452   2.587  1.00  0.00     0.000 C 
BRANCH  17  18
ATOM     18  C   UNL     1       7.543  39.507   1.928  1.00  0.00     0.000 C 
BRANCH  18  19
ATOM     19  C   UNL     1       6.535  38.569   2.609  1.00  0.00     0.000 C 
BRANCH  19  20
ATOM     20  C   UNL     1       5.305  38.345   1.721  1.00  0.00     0.006 C 
BRANCH  20  21
ATOM     21  C   UNL     1       4.084  37.967   2.564  1.00  0.00     0.053 C 
BRANCH  21  22
ATOM     22  C   UNL     1       4.057  36.493   2.818  1.00  0.00     0.041 C 
ATOM     23  O   UNL     1       4.338  36.042   3.959  1.00  0.00    -0.550 OA
ATOM     24  O   UNL     1       3.679  35.619   1.805  1.00  0.00    -0.550 OA
ENDBRANCH  21  22
ENDBRANCH  20  21
ENDBRANCH  19  20
ENDBRANCH  18  19
ENDBRANCH  17  18
ENDBRANCH  16  17
ENDBRANCH  15  16
ENDBRANCH  14  15
ENDBRANCH  13  14
ENDBRANCH   1  13
TORSDOF 20
ENDMDL
MODEL 6
REMARK VINA RESULT:    -4.066      3.152      6.692
REMARK INTER + INTRA:         -12.500
REMARK INTER:                  -9.034
REMARK INTRA:                  -3.466
REMARK UNBOUND:                -3.679
REMARK SMILES CCCCCCCCCCCCCCCCCCCCCC(=O)[O-]
REMARK SMILES IDX 12 1 11 2 10 3 9 4 8 5 7 6 6 7 5 8 4 9 3 10 2 11 1 12 13 13
REMARK SMILES IDX 14 14 15 15 16 16 17 17 18 18 19 19 20 20 21 21 22 22 23 23
REMARK SMILES IDX 24 24
REMARK H PARENT
REMARK Flexibility Score: inf
ROOT
ATOM      1  C   UNL     1      11.570  37.592  -0.197  1.00  0.00     0.000 C 
ENDROOT
BRANCH   1   2
ATOM      2  C   UNL     1      11.389  36.102  -0.520  1.00  0.00     0.000 C 
BRANCH   2   3
ATOM      3  C   UNL     1       9.949  35.751  -0.938  1.00  0.00     0.000 C 
BRANCH   3   4
ATOM      4  C   UNL     1       9.157  34.908   0.083  1.00  0.00    -0.000 C 
BRANCH   4   5
ATOM      5  C   UNL     1       8.916  33.444  -0.326  1.00  0.00    -0.000 C 
BRANCH   5   6
ATOM      6  C   UNL     1       8.807  33.257  -1.845  1.00  0.00    -0.000 C 
BRANCH   6   7
ATOM      7  C   UNL     1       7.344  33.353  -2.303  1.00  0.00    -0.000 C 
BRANCH   7   8
ATOM      8  C   UNL     1       7.045  34.655  -3.062  1.00  0.00    -0.000 C 
BRANCH   8   9
ATOM      9  C   UNL     1       6.035  35.552  -2.326  1.00  0.00    -0.000 C 
BRANCH   9  10
ATOM     10  C   UNL     1       5.291  34.795  -1.206  1.00  0.00    -0.000 C 
BRANCH  10  11
ATOM     11  C   UNL     1       3.786  35.104  -1.147  1.00  0.00    -0.003 C 
ATOM     12  C   UNL     1       3.216  35.562  -2.489  1.00  0.00     0.004 C 
ENDBRANCH  10  11
ENDBRANCH   9  10
ENDBRANCH   8   9
ENDBRANCH   7   8
ENDBRANCH   6   7
ENDBRANCH   5   6
ENDBRANCH   4   5
ENDBRANCH   3   4
ENDBRANCH   2   3
ENDBRANCH   1   2
BRANCH   1  13
ATOM     13  C   UNL     1      10.463  38.432  -0.852  1.00  0.00     0.000 C 
BRANCH  13  14
ATOM     14  C   UNL     1      10.745  39.941  -0.779  1.00  0.00     0.000 C 
BRANCH  14  15
ATOM     15  C   UNL     1       9.796  40.674   0.187  1.00  0.00     0.000 C 
BRANCH  15  16
ATOM     16  C   UNL     1       9.955  40.192   1.643  1.00  0.00     0.000 C 
BRANCH  16  17
ATOM     17  C   UNL     1       8.657  39.649   2.274  1.00  0.00     0.000 C 
BRANCH  17  18
ATOM     18  C   UNL     1       8.588  38.111   2.349  1.00  0.00     0.000 C 
BRANCH  18  19
ATOM     19  C   UNL     1       7.283  37.554   1.760  1.00  0.00     0.000 C 
BRANCH  19  20
ATOM     20  C   UNL     1       7.059  38.068   0.333  1.00  0.00     0.006 C 
BRANCH  20  21
ATOM     21  C   UNL     1       5.569  38.286   0.058  1.00  0.00     0.053 C 
BRANCH  21  22
ATOM     22  C   UNL     1       5.366  39.487  -0.812  1.00  0.00     0.041 C 
ATOM     23  O   UNL     1       4.266  39.667  -1.396  1.00  0.00    -0.550 OA
ATOM     24  O   UNL     1       6.379  40.430  -0.942  1.00  0.00    -0.550 OA
ENDBRANCH  21  22
ENDBRANCH  20  21
ENDBRANCH  19  20
ENDBRANCH  18  19
ENDBRANCH  17  18
ENDBRANCH  16  17
ENDBRANCH  15  16
ENDBRANCH  14  15
ENDBRANCH  13  14
ENDBRANCH   1  13
TORSDOF 20
ENDMDL
MODEL 7
REMARK VINA RESULT:    -4.064      1.901      5.230
REMARK INTER + INTRA:         -12.494
REMARK INTER:                  -9.484
REMARK INTRA:                  -3.010
REMARK UNBOUND:                -3.679
REMARK SMILES CCCCCCCCCCCCCCCCCCCCCC(=O)[O-]
REMARK SMILES IDX 12 1 11 2 10 3 9 4 8 5 7 6 6 7 5 8 4 9 3 10 2 11 1 12 13 13
REMARK SMILES IDX 14 14 15 15 16 16 17 17 18 18 19 19 20 20 21 21 22 22 23 23
REMARK SMILES IDX 24 24
REMARK H PARENT
REMARK Flexibility Score: inf
ROOT
ATOM      1  C   UNL     1       9.855  39.985   2.410  1.00  0.00     0.000 C 
ENDROOT
BRANCH   1   2
ATOM      2  C   UNL     1       9.971  41.142   1.407  1.00  0.00     0.000 C 
BRANCH   2   3
ATOM      3  C   UNL     1       9.531  40.748  -0.015  1.00  0.00     0.000 C 
BRANCH   3   4
ATOM      4  C   UNL     1      10.681  40.539  -1.022  1.00  0.00    -0.000 C 
BRANCH   4   5
ATOM      5  C   UNL     1      11.302  39.130  -1.020  1.00  0.00    -0.000 C 
BRANCH   5   6
ATOM      6  C   UNL     1      10.282  38.028  -0.707  1.00  0.00    -0.000 C 
BRANCH   6   7
ATOM      7  C   UNL     1      10.979  36.671  -0.533  1.00  0.00    -0.000 C 
BRANCH   7   8
ATOM      8  C   UNL     1      10.386  35.844   0.618  1.00  0.00    -0.000 C 
BRANCH   8   9
ATOM      9  C   UNL     1       9.527  34.667   0.122  1.00  0.00    -0.000 C 
BRANCH   9  10
ATOM     10  C   UNL     1      10.121  34.004  -1.138  1.00  0.00    -0.000 C 
BRANCH  10  11
ATOM     11  C   UNL     1       9.492  32.641  -1.472  1.00  0.00    -0.003 C 
ATOM     12  C   UNL     1      10.510  31.502  -1.499  1.00  0.00     0.004 C 
ENDBRANCH  10  11
ENDBRANCH   9  10
ENDBRANCH   8   9
ENDBRANCH   7   8
ENDBRANCH   6   7
ENDBRANCH   5   6
ENDBRANCH   4   5
ENDBRANCH   3   4
ENDBRANCH   2   3
ENDBRANCH   1   2
BRANCH   1  13
ATOM     13  C   UNL     1       8.395  39.529   2.553  1.00  0.00     0.000 C 
BRANCH  13  14
ATOM     14  C   UNL     1       8.202  38.046   2.201  1.00  0.00     0.000 C 
BRANCH  14  15
ATOM     15  C   UNL     1       6.945  37.799   1.346  1.00  0.00     0.000 C 
BRANCH  15  16
ATOM     16  C   UNL     1       6.457  39.080   0.639  1.00  0.00     0.000 C 
BRANCH  16  17
ATOM     17  C   UNL     1       6.643  39.067  -0.891  1.00  0.00     0.000 C 
BRANCH  17  18
ATOM     18  C   UNL     1       6.687  37.656  -1.509  1.00  0.00     0.000 C 
BRANCH  18  19
ATOM     19  C   UNL     1       5.382  37.293  -2.235  1.00  0.00     0.000 C 
BRANCH  19  20
ATOM     20  C   UNL     1       4.840  35.942  -1.753  1.00  0.00     0.006 C 
BRANCH  20  21
ATOM     21  C   UNL     1       5.960  34.902  -1.670  1.00  0.00     0.053 C 
BRANCH  21  22
ATOM     22  C   UNL     1       5.621  33.699  -2.493  1.00  0.00     0.041 C 
ATOM     23  O   UNL     1       4.422  33.335  -2.618  1.00  0.00    -0.550 OA
ATOM     24  O   UNL     1       6.625  33.005  -3.158  1.00  0.00    -0.550 OA
ENDBRANCH  21  22
ENDBRANCH  20  21
ENDBRANCH  19  20
ENDBRANCH  18  19
ENDBRANCH  17  18
ENDBRANCH  16  17
ENDBRANCH  15  16
ENDBRANCH  14  15
ENDBRANCH  13  14
ENDBRANCH   1  13
TORSDOF 20
ENDMDL
MODEL 8
REMARK VINA RESULT:    -4.058      1.777      3.377
REMARK INTER + INTRA:         -12.481
REMARK INTER:                  -8.578
REMARK INTRA:                  -3.902
REMARK UNBOUND:                -3.679
REMARK SMILES CCCCCCCCCCCCCCCCCCCCCC(=O)[O-]
REMARK SMILES IDX 12 1 11 2 10 3 9 4 8 5 7 6 6 7 5 8 4 9 3 10 2 11 1 12 13 13
REMARK SMILES IDX 14 14 15 15 16 16 17 17 18 18 19 19 20 20 21 21 22 22 23 23
REMARK SMILES IDX 24 24
REMARK H PARENT
REMARK Flexibility Score: inf
ROOT
ATOM      1  C   UNL     1       5.904  37.247   0.981  1.00  0.00     0.000 C 
ENDROOT
BRANCH   1   2
ATOM      2  C   UNL     1       6.867  37.175  -0.214  1.00  0.00     0.000 C 
BRANCH   2   3
ATOM      3  C   UNL     1       6.930  38.490  -1.012  1.00  0.00     0.000 C 
BRANCH   3   4
ATOM      4  C   UNL     1       6.435  39.740  -0.255  1.00  0.00    -0.000 C 
BRANCH   4   5
ATOM      5  C   UNL     1       7.341  40.979  -0.378  1.00  0.00    -0.000 C 
BRANCH   5   6
ATOM      6  C   UNL     1       8.395  41.061   0.734  1.00  0.00    -0.000 C 
BRANCH   6   7
ATOM      7  C   UNL     1       7.877  40.412   2.026  1.00  0.00    -0.000 C 
BRANCH   7   8
ATOM      8  C   UNL     1       8.974  39.654   2.789  1.00  0.00    -0.000 C 
BRANCH   8   9
ATOM      9  C   UNL     1       9.299  38.289   2.159  1.00  0.00    -0.000 C 
BRANCH   9  10
ATOM     10  C   UNL     1      10.709  38.256   1.535  1.00  0.00    -0.000 C 
BRANCH  10  11
ATOM     11  C   UNL     1      10.724  37.788   0.070  1.00  0.00    -0.003 C 
ATOM     12  C   UNL     1      10.875  38.937  -0.925  1.00  0.00     0.004 C 
ENDBRANCH  10  11
ENDBRANCH   9  10
ENDBRANCH   8   9
ENDBRANCH   7   8
ENDBRANCH   6   7
ENDBRANCH   5   6
ENDBRANCH   4   5
ENDBRANCH   3   4
ENDBRANCH   2   3
ENDBRANCH   1   2
BRANCH   1  13
ATOM     13  C   UNL     1       5.340  35.857   1.313  1.00  0.00     0.000 C 
BRANCH  13  14
ATOM     14  C   UNL     1       3.805  35.815   1.256  1.00  0.00     0.000 C 
BRANCH  14  15
ATOM     15  C   UNL     1       3.254  36.154  -0.141  1.00  0.00     0.000 C 
BRANCH  15  16
ATOM     16  C   UNL     1       3.351  34.962  -1.115  1.00  0.00     0.000 C 
BRANCH  16  17
ATOM     17  C   UNL     1       4.469  35.095  -2.168  1.00  0.00     0.000 C 
BRANCH  17  18
ATOM     18  C   UNL     1       5.646  34.121  -1.964  1.00  0.00     0.000 C 
BRANCH  18  19
ATOM     19  C   UNL     1       6.907  34.559  -2.725  1.00  0.00     0.000 C 
BRANCH  19  20
ATOM     20  C   UNL     1       8.165  33.932  -2.113  1.00  0.00     0.006 C 
BRANCH  20  21
ATOM     21  C   UNL     1       8.030  33.806  -0.593  1.00  0.00     0.053 C 
BRANCH  21  22
ATOM     22  C   UNL     1       9.269  34.296   0.087  1.00  0.00     0.041 C 
ATOM     23  O   UNL     1       9.195  34.843   1.218  1.00  0.00    -0.550 OA
ATOM     24  O   UNL     1      10.510  34.110  -0.510  1.00  0.00    -0.550 OA
ENDBRANCH  21  22
ENDBRANCH  20  21
ENDBRANCH  19  20
ENDBRANCH  18  19
ENDBRANCH  17  18
ENDBRANCH  16  17
ENDBRANCH  15  16
ENDBRANCH  14  15
ENDBRANCH  13  14
ENDBRANCH   1  13
TORSDOF 20
ENDMDL
MODEL 9
REMARK VINA RESULT:    -4.045      2.531      3.787
REMARK INTER + INTRA:         -12.453
REMARK INTER:                  -8.587
REMARK INTRA:                  -3.866
REMARK UNBOUND:                -3.679
REMARK SMILES CCCCCCCCCCCCCCCCCCCCCC(=O)[O-]
REMARK SMILES IDX 12 1 11 2 10 3 9 4 8 5 7 6 6 7 5 8 4 9 3 10 2 11 1 12 13 13
REMARK SMILES IDX 14 14 15 15 16 16 17 17 18 18 19 19 20 20 21 21 22 22 23 23
REMARK SMILES IDX 24 24
REMARK H PARENT
REMARK Flexibility Score: inf
ROOT
ATOM      1  C   UNL     1       3.863  35.885   1.271  1.00  0.00     0.000 C 
ENDROOT
BRANCH   1   2
ATOM      2  C   UNL     1       4.567  36.066   2.623  1.00  0.00     0.000 C 
BRANCH   2   3
ATOM      3  C   UNL     1       3.895  37.130   3.510  1.00  0.00     0.000 C 
BRANCH   3   4
ATOM      4  C   UNL     1       4.683  37.520   4.778  1.00  0.00    -0.000 C 
BRANCH   4   5
ATOM      5  C   UNL     1       5.388  38.887   4.714  1.00  0.00    -0.000 C 
BRANCH   5   6
ATOM      6  C   UNL     1       6.917  38.769   4.668  1.00  0.00    -0.000 C 
BRANCH   6   7
ATOM      7  C   UNL     1       7.426  38.822   3.219  1.00  0.00    -0.000 C 
BRANCH   7   8
ATOM      8  C   UNL     1       6.521  39.662   2.304  1.00  0.00    -0.000 C 
BRANCH   8   9
ATOM      9  C   UNL     1       6.425  39.090   0.879  1.00  0.00    -0.000 C 
BRANCH   9  10
ATOM     10  C   UNL     1       7.275  37.815   0.705  1.00  0.00    -0.000 C 
BRANCH  10  11
ATOM     11  C   UNL     1       8.063  37.775  -0.616  1.00  0.00    -0.003 C 
ATOM     12  C   UNL     1       9.528  38.172  -0.450  1.00  0.00     0.004 C 
ENDBRANCH  10  11
ENDBRANCH   9  10
ENDBRANCH   8   9
ENDBRANCH   7   8
ENDBRANCH   6   7
ENDBRANCH   5   6
ENDBRANCH   4   5
ENDBRANCH   3   4
ENDBRANCH   2   3
ENDBRANCH   1   2
BRANCH   1  13
ATOM     13  C   UNL     1       3.279  37.216   0.775  1.00  0.00     0.000 C 
BRANCH  13  14
ATOM     14  C   UNL     1       3.019  37.220  -0.739  1.00  0.00     0.000 C 
BRANCH  14  15
ATOM     15  C   UNL     1       4.247  37.673  -1.550  1.00  0.00     0.000 C 
BRANCH  15  16
ATOM     16  C   UNL     1       4.649  36.646  -2.628  1.00  0.00     0.000 C 
BRANCH  16  17
ATOM     17  C   UNL     1       4.053  35.240  -2.415  1.00  0.00     0.000 C 
BRANCH  17  18
ATOM     18  C   UNL     1       5.102  34.148  -2.126  1.00  0.00     0.000 C 
BRANCH  18  19
ATOM     19  C   UNL     1       6.239  34.652  -1.224  1.00  0.00     0.000 C 
BRANCH  19  20
ATOM     20  C   UNL     1       7.609  34.342  -1.839  1.00  0.00     0.006 C 
BRANCH  20  21
ATOM     21  C   UNL     1       8.429  33.433  -0.920  1.00  0.00     0.053 C 
BRANCH  21  22
ATOM     22  C   UNL     1       9.209  34.247   0.063  1.00  0.00     0.041 C 
ATOM     23  O   UNL     1       8.776  34.413   1.234  1.00  0.00    -0.550 OA
ATOM     24  O   UNL     1      10.437  34.787  -0.300  1.00  0.00    -0.550 OA
ENDBRANCH  21  22
ENDBRANCH  20  21
ENDBRANCH  19  20
ENDBRANCH  18  19
ENDBRANCH  17  18
ENDBRANCH  16  17
ENDBRANCH  15  16
ENDBRANCH  14  15
ENDBRANCH  13  14
ENDBRANCH   1  13
TORSDOF 20
ENDMDL
