MODEL 1
REMARK VINA RESULT:    -3.787      0.000      0.000
REMARK INTER + INTRA:          -4.740
REMARK INTER:                  -4.451
REMARK INTRA:                  -0.289
REMARK UNBOUND:                -0.289
REMARK SMILES O=c1c(O)c(-c2ccc(O)cc2)oc2cc(O)cc(O)c12
REMARK SMILES IDX 5 1 3 2 2 3 1 4 21 5 19 6 18 7 16 8 15 9 14 10 13 11 6 12
REMARK SMILES IDX 7 13 8 14 9 15 12 16 11 17 10 18 4 20 20 22 17 24
REMARK H PARENT 10 19 4 21 20 23 17 25
REMARK Flexibility Score: inf
ROOT
ATOM      1  C   UNL     1      19.286  34.852  44.343  1.00  0.00     0.180 A 
ATOM      2  C   UNL     1      19.884  36.029  44.826  1.00  0.00     0.208 A 
ATOM      3  C   UNL     1      21.194  35.970  45.328  1.00  0.00     0.238 A 
ATOM      4  O   UNL     1      21.704  37.015  45.809  1.00  0.00    -0.285 OA
ATOM      5  C   UNL     1      21.895  34.740  45.325  1.00  0.00     0.111 A 
ATOM      6  C   UNL     1      23.241  34.574  45.771  1.00  0.00     0.134 A 
ATOM      7  C   UNL     1      23.789  33.287  45.845  1.00  0.00     0.093 A 
ATOM      8  C   UNL     1      23.063  32.169  45.427  1.00  0.00     0.123 A 
ATOM      9  C   UNL     1      21.771  32.329  44.934  1.00  0.00     0.094 A 
ATOM     10  C   UNL     1      21.183  33.595  44.882  1.00  0.00     0.146 A 
ATOM     11  O   UNL     1      19.945  33.702  44.414  1.00  0.00    -0.452 OA
ENDROOT
BRANCH   1  12
ATOM     12  C   UNL     1      17.918  34.839  43.776  1.00  0.00     0.021 A 
ATOM     13  C   UNL     1      17.731  35.117  42.412  1.00  0.00     0.016 A 
ATOM     14  C   UNL     1      16.445  35.132  41.862  1.00  0.00     0.047 A 
ATOM     15  C   UNL     1      15.331  34.886  42.670  1.00  0.00     0.115 A 
ATOM     16  C   UNL     1      16.791  34.612  44.588  1.00  0.00     0.016 A 
ATOM     17  C   UNL     1      15.507  34.628  44.036  1.00  0.00     0.047 A 
BRANCH  15  18
ATOM     18  O   UNL     1      14.056  34.904  42.108  1.00  0.00    -0.508 OA
ATOM     19  H   UNL     1      13.741  35.679  41.536  1.00  0.00     0.293 HD
ENDBRANCH  15  18
ENDBRANCH   1  12
BRANCH   2  20
ATOM     20  O   UNL     1      19.166  37.227  44.840  1.00  0.00    -0.502 OA
ATOM     21  H   UNL     1      18.535  37.493  44.093  1.00  0.00     0.293 HD
ENDBRANCH   2  20
BRANCH   6  22
ATOM     22  O   UNL     1      24.082  35.632  46.125  1.00  0.00    -0.507 OA
ATOM     23  H   UNL     1      23.780  36.583  46.270  1.00  0.00     0.293 HD
ENDBRANCH   6  22
BRANCH   8  24
ATOM     24  O   UNL     1      23.622  30.895  45.489  1.00  0.00    -0.508 OA
ATOM     25  H   UNL     1      23.281  30.137  44.910  1.00  0.00     0.293 HD
ENDBRANCH   8  24
TORSDOF 5
ENDMDL
MODEL 2
REMARK VINA RESULT:    -3.755      0.086      1.060
REMARK INTER + INTRA:          -4.702
REMARK INTER:                  -4.410
REMARK INTRA:                  -0.293
REMARK UNBOUND:                -0.289
REMARK SMILES O=c1c(O)c(-c2ccc(O)cc2)oc2cc(O)cc(O)c12
REMARK SMILES IDX 5 1 3 2 2 3 1 4 21 5 19 6 18 7 16 8 15 9 14 10 13 11 6 12
REMARK SMILES IDX 7 13 8 14 9 15 12 16 11 17 10 18 4 20 20 22 17 24
REMARK H PARENT 10 19 4 21 20 23 17 25
REMARK Flexibility Score: inf
ROOT
ATOM      1  C   UNL     1      19.297  34.917  44.292  1.00  0.00     0.180 A 
ATOM      2  C   UNL     1      19.922  36.072  44.791  1.00  0.00     0.208 A 
ATOM      3  C   UNL     1      21.226  35.972  45.305  1.00  0.00     0.238 A 
ATOM      4  O   UNL     1      21.760  36.998  45.800  1.00  0.00    -0.285 OA
ATOM      5  C   UNL     1      21.892  34.723  45.297  1.00  0.00     0.111 A 
ATOM      6  C   UNL     1      23.228  34.515  45.754  1.00  0.00     0.134 A 
ATOM      7  C   UNL     1      23.739  33.212  45.821  1.00  0.00     0.093 A 
ATOM      8  C   UNL     1      22.987  32.119  45.386  1.00  0.00     0.123 A 
ATOM      9  C   UNL     1      21.704  32.319  44.883  1.00  0.00     0.094 A 
ATOM     10  C   UNL     1      21.153  33.603  44.837  1.00  0.00     0.146 A 
ATOM     11  O   UNL     1      19.922  33.747  44.359  1.00  0.00    -0.452 OA
ENDROOT
BRANCH   1  12
ATOM     12  C   UNL     1      17.934  34.947  43.713  1.00  0.00     0.021 A 
ATOM     13  C   UNL     1      16.823  34.738  44.547  1.00  0.00     0.016 A 
ATOM     14  C   UNL     1      15.528  34.740  44.016  1.00  0.00     0.047 A 
ATOM     15  C   UNL     1      15.329  34.934  42.646  1.00  0.00     0.115 A 
ATOM     16  C   UNL     1      17.729  35.122  42.332  1.00  0.00     0.016 A 
ATOM     17  C   UNL     1      16.434  35.123  41.804  1.00  0.00     0.047 A 
BRANCH  15  18
ATOM     18  O   UNL     1      14.035  34.934  42.132  1.00  0.00    -0.508 OA
ATOM     19  H   UNL     1      13.627  35.768  41.727  1.00  0.00     0.293 HD
ENDBRANCH  15  18
ENDBRANCH   1  12
BRANCH   2  20
ATOM     20  O   UNL     1      19.238  37.290  44.809  1.00  0.00    -0.502 OA
ATOM     21  H   UNL     1      19.673  38.163  44.534  1.00  0.00     0.293 HD
ENDBRANCH   2  20
BRANCH   6  22
ATOM     22  O   UNL     1      24.096  35.546  46.125  1.00  0.00    -0.507 OA
ATOM     23  H   UNL     1      24.957  35.770  45.652  1.00  0.00     0.293 HD
ENDBRANCH   6  22
BRANCH   8  24
ATOM     24  O   UNL     1      23.509  30.830  45.442  1.00  0.00    -0.508 OA
ATOM     25  H   UNL     1      22.954  30.020  45.190  1.00  0.00     0.293 HD
ENDBRANCH   8  24
TORSDOF 5
ENDMDL
MODEL 3
REMARK VINA RESULT:    -3.633      1.576      3.431
REMARK INTER + INTRA:          -4.559
REMARK INTER:                  -4.271
REMARK INTRA:                  -0.288
REMARK UNBOUND:                -0.289
REMARK SMILES O=c1c(O)c(-c2ccc(O)cc2)oc2cc(O)cc(O)c12
REMARK SMILES IDX 5 1 3 2 2 3 1 4 21 5 19 6 18 7 16 8 15 9 14 10 13 11 6 12
REMARK SMILES IDX 7 13 8 14 9 15 12 16 11 17 10 18 4 20 20 22 17 24
REMARK H PARENT 10 19 4 21 20 23 17 25
REMARK Flexibility Score: inf
ROOT
ATOM      1  C   UNL     1      17.643  34.632  43.288  1.00  0.00     0.180 A 
ATOM      2  C   UNL     1      18.213  33.370  43.051  1.00  0.00     0.208 A 
ATOM      3  C   UNL     1      19.504  33.104  43.538  1.00  0.00     0.238 A 
ATOM      4  O   UNL     1      20.030  31.991  43.276  1.00  0.00    -0.285 OA
ATOM      5  C   UNL     1      20.200  34.097  44.267  1.00  0.00     0.111 A 
ATOM      6  C   UNL     1      21.495  33.922  44.841  1.00  0.00     0.134 A 
ATOM      7  C   UNL     1      22.142  35.016  45.430  1.00  0.00     0.093 A 
ATOM      8  C   UNL     1      21.514  36.261  45.524  1.00  0.00     0.123 A 
ATOM      9  C   UNL     1      20.227  36.425  45.020  1.00  0.00     0.094 A 
ATOM     10  C   UNL     1      19.569  35.362  44.394  1.00  0.00     0.146 A 
ATOM     11  O   UNL     1      18.346  35.565  43.918  1.00  0.00    -0.452 OA
ENDROOT
BRANCH   1  12
ATOM     12  C   UNL     1      16.278  34.979  42.828  1.00  0.00     0.021 A 
ATOM     13  C   UNL     1      16.096  35.513  41.541  1.00  0.00     0.016 A 
ATOM     14  C   UNL     1      14.819  35.868  41.095  1.00  0.00     0.047 A 
ATOM     15  C   UNL     1      13.712  35.710  41.934  1.00  0.00     0.115 A 
ATOM     16  C   UNL     1      15.163  34.840  43.674  1.00  0.00     0.016 A 
ATOM     17  C   UNL     1      13.887  35.197  43.226  1.00  0.00     0.047 A 
BRANCH  15  18
ATOM     18  O   UNL     1      12.446  36.067  41.476  1.00  0.00    -0.508 OA
ATOM     19  H   UNL     1      12.315  36.835  40.828  1.00  0.00     0.293 HD
ENDBRANCH  15  18
ENDBRANCH   1  12
BRANCH   2  20
ATOM     20  O   UNL     1      17.517  32.412  42.310  1.00  0.00    -0.502 OA
ATOM     21  H   UNL     1      17.841  32.080  41.408  1.00  0.00     0.293 HD
ENDBRANCH   2  20
BRANCH   6  22
ATOM     22  O   UNL     1      22.171  32.700  44.883  1.00  0.00    -0.507 OA
ATOM     23  H   UNL     1      21.724  31.797  44.933  1.00  0.00     0.293 HD
ENDBRANCH   6  22
BRANCH   8  24
ATOM     24  O   UNL     1      22.160  37.338  46.125  1.00  0.00    -0.508 OA
ATOM     25  H   UNL     1      21.668  38.197  46.342  1.00  0.00     0.293 HD
ENDBRANCH   8  24
TORSDOF 5
ENDMDL
MODEL 4
REMARK VINA RESULT:    -3.527      2.267      7.259
REMARK INTER + INTRA:          -4.434
REMARK INTER:                  -4.145
REMARK INTRA:                  -0.289
REMARK UNBOUND:                -0.289
REMARK SMILES O=c1c(O)c(-c2ccc(O)cc2)oc2cc(O)cc(O)c12
REMARK SMILES IDX 5 1 3 2 2 3 1 4 21 5 19 6 18 7 16 8 15 9 14 10 13 11 6 12
REMARK SMILES IDX 7 13 8 14 9 15 12 16 11 17 10 18 4 20 20 22 17 24
REMARK H PARENT 10 19 4 21 20 23 17 25
REMARK Flexibility Score: inf
ROOT
ATOM      1  C   UNL     1      17.859  35.294  43.952  1.00  0.00     0.180 A 
ATOM      2  C   UNL     1      16.830  34.742  44.733  1.00  0.00     0.208 A 
ATOM      3  C   UNL     1      15.630  34.364  44.109  1.00  0.00     0.238 A 
ATOM      4  O   UNL     1      14.693  33.920  44.822  1.00  0.00    -0.285 OA
ATOM      5  C   UNL     1      15.481  34.528  42.711  1.00  0.00     0.111 A 
ATOM      6  C   UNL     1      14.324  34.142  41.969  1.00  0.00     0.134 A 
ATOM      7  C   UNL     1      14.234  34.472  40.611  1.00  0.00     0.093 A 
ATOM      8  C   UNL     1      15.286  35.114  39.953  1.00  0.00     0.123 A 
ATOM      9  C   UNL     1      16.443  35.441  40.656  1.00  0.00     0.094 A 
ATOM     10  C   UNL     1      16.548  35.158  42.020  1.00  0.00     0.146 A 
ATOM     11  O   UNL     1      17.665  35.497  42.654  1.00  0.00    -0.452 OA
ENDROOT
BRANCH   1  12
ATOM     12  C   UNL     1      19.162  35.695  44.533  1.00  0.00     0.021 A 
ATOM     13  C   UNL     1      19.322  36.994  45.042  1.00  0.00     0.016 A 
ATOM     14  C   UNL     1      20.551  37.399  45.575  1.00  0.00     0.047 A 
ATOM     15  C   UNL     1      21.636  36.519  45.591  1.00  0.00     0.115 A 
ATOM     16  C   UNL     1      20.263  34.819  44.534  1.00  0.00     0.016 A 
ATOM     17  C   UNL     1      21.490  35.227  45.067  1.00  0.00     0.047 A 
BRANCH  15  18
ATOM     18  O   UNL     1      22.853  36.936  46.125  1.00  0.00    -0.508 OA
ATOM     19  H   UNL     1      23.426  36.315  46.683  1.00  0.00     0.293 HD
ENDBRANCH  15  18
ENDBRANCH   1  12
BRANCH   2  20
ATOM     20  O   UNL     1      16.990  34.609  46.115  1.00  0.00    -0.502 OA
ATOM     21  H   UNL     1      16.254  34.836  46.773  1.00  0.00     0.293 HD
ENDBRANCH   2  20
BRANCH   6  22
ATOM     22  O   UNL     1      13.258  33.416  42.508  1.00  0.00    -0.507 OA
ATOM     23  H   UNL     1      13.311  32.849  43.340  1.00  0.00     0.293 HD
ENDBRANCH   6  22
BRANCH   8  24
ATOM     24  O   UNL     1      15.194  35.424  38.599  1.00  0.00    -0.508 OA
ATOM     25  H   UNL     1      14.996  36.366  38.282  1.00  0.00     0.293 HD
ENDBRANCH   8  24
TORSDOF 5
ENDMDL
MODEL 5
REMARK VINA RESULT:    -3.280      3.304      8.330
REMARK INTER + INTRA:          -4.144
REMARK INTER:                  -3.856
REMARK INTRA:                  -0.288
REMARK UNBOUND:                -0.289
REMARK SMILES O=c1c(O)c(-c2ccc(O)cc2)oc2cc(O)cc(O)c12
REMARK SMILES IDX 5 1 3 2 2 3 1 4 21 5 19 6 18 7 16 8 15 9 14 10 13 11 6 12
REMARK SMILES IDX 7 13 8 14 9 15 12 16 11 17 10 18 4 20 20 22 17 24
REMARK H PARENT 10 19 4 21 20 23 17 25
REMARK Flexibility Score: inf
ROOT
ATOM      1  C   UNL     1      16.690  35.305  41.460  1.00  0.00     0.180 A 
ATOM      2  C   UNL     1      17.324  35.590  40.239  1.00  0.00     0.208 A 
ATOM      3  C   UNL     1      16.627  36.326  39.266  1.00  0.00     0.238 A 
ATOM      4  O   UNL     1      17.179  36.531  38.154  1.00  0.00    -0.285 OA
ATOM      5  C   UNL     1      15.313  36.780  39.533  1.00  0.00     0.111 A 
ATOM      6  C   UNL     1      14.530  37.568  38.637  1.00  0.00     0.134 A 
ATOM      7  C   UNL     1      13.195  37.850  38.952  1.00  0.00     0.093 A 
ATOM      8  C   UNL     1      12.635  37.429  40.161  1.00  0.00     0.123 A 
ATOM      9  C   UNL     1      13.410  36.711  41.068  1.00  0.00     0.094 A 
ATOM     10  C   UNL     1      14.734  36.383  40.767  1.00  0.00     0.146 A 
ATOM     11  O   UNL     1      15.434  35.687  41.656  1.00  0.00    -0.452 OA
ENDROOT
BRANCH   1  12
ATOM     12  C   UNL     1      17.368  34.556  42.543  1.00  0.00     0.021 A 
ATOM     13  C   UNL     1      18.112  35.255  43.508  1.00  0.00     0.016 A 
ATOM     14  C   UNL     1      18.778  34.565  44.526  1.00  0.00     0.047 A 
ATOM     15  C   UNL     1      18.724  33.170  44.583  1.00  0.00     0.115 A 
ATOM     16  C   UNL     1      17.333  33.150  42.594  1.00  0.00     0.016 A 
ATOM     17  C   UNL     1      18.001  32.463  43.612  1.00  0.00     0.047 A 
BRANCH  15  18
ATOM     18  O   UNL     1      19.392  32.496  45.603  1.00  0.00    -0.508 OA
ATOM     19  H   UNL     1      19.819  31.590  45.447  1.00  0.00     0.293 HD
ENDBRANCH  15  18
ENDBRANCH   1  12
BRANCH   2  20
ATOM     20  O   UNL     1      18.612  35.113  39.987  1.00  0.00    -0.502 OA
ATOM     21  H   UNL     1      18.959  34.950  39.049  1.00  0.00     0.293 HD
ENDBRANCH   2  20
BRANCH   6  22
ATOM     22  O   UNL     1      15.020  38.115  37.448  1.00  0.00    -0.507 OA
ATOM     23  H   UNL     1      15.966  38.437  37.310  1.00  0.00     0.293 HD
ENDBRANCH   6  22
BRANCH   8  24
ATOM     24  O   UNL     1      11.311  37.727  40.473  1.00  0.00    -0.508 OA
ATOM     25  H   UNL     1      10.632  36.998  40.657  1.00  0.00     0.293 HD
ENDBRANCH   8  24
TORSDOF 5
ENDMDL
MODEL 6
REMARK VINA RESULT:    -3.254      5.704      7.299
REMARK INTER + INTRA:          -4.114
REMARK INTER:                  -3.859
REMARK INTRA:                  -0.255
REMARK UNBOUND:                -0.289
REMARK SMILES O=c1c(O)c(-c2ccc(O)cc2)oc2cc(O)cc(O)c12
REMARK SMILES IDX 5 1 3 2 2 3 1 4 21 5 19 6 18 7 16 8 15 9 14 10 13 11 6 12
REMARK SMILES IDX 7 13 8 14 9 15 12 16 11 17 10 18 4 20 20 22 17 24
REMARK H PARENT 10 19 4 21 20 23 17 25
REMARK Flexibility Score: inf
ROOT
ATOM      1  C   UNL     1      17.766  35.514  38.429  1.00  0.00     0.180 A 
ATOM      2  C   UNL     1      18.575  35.135  39.513  1.00  0.00     0.208 A 
ATOM      3  C   UNL     1      19.885  34.692  39.262  1.00  0.00     0.238 A 
ATOM      4  O   UNL     1      20.586  34.302  40.232  1.00  0.00    -0.285 OA
ATOM      5  C   UNL     1      20.372  34.651  37.934  1.00  0.00     0.111 A 
ATOM      6  C   UNL     1      21.695  34.259  37.569  1.00  0.00     0.134 A 
ATOM      7  C   UNL     1      22.027  34.131  36.214  1.00  0.00     0.093 A 
ATOM      8  C   UNL     1      21.105  34.444  35.213  1.00  0.00     0.123 A 
ATOM      9  C   UNL     1      19.831  34.884  35.560  1.00  0.00     0.094 A 
ATOM     10  C   UNL     1      19.458  34.988  36.903  1.00  0.00     0.146 A 
ATOM     11  O   UNL     1      18.229  35.402  37.190  1.00  0.00    -0.452 OA
ENDROOT
BRANCH   1  12
ATOM     12  C   UNL     1      16.384  36.014  38.615  1.00  0.00     0.021 A 
ATOM     13  C   UNL     1      16.142  37.398  38.611  1.00  0.00     0.016 A 
ATOM     14  C   UNL     1      14.848  37.891  38.808  1.00  0.00     0.047 A 
ATOM     15  C   UNL     1      13.784  37.010  39.026  1.00  0.00     0.115 A 
ATOM     16  C   UNL     1      15.313  35.133  38.855  1.00  0.00     0.016 A 
ATOM     17  C   UNL     1      14.020  35.629  39.052  1.00  0.00     0.047 A 
BRANCH  15  18
ATOM     18  O   UNL     1      12.501  37.516  39.220  1.00  0.00    -0.508 OA
ATOM     19  H   UNL     1      12.062  37.509  40.133  1.00  0.00     0.293 HD
ENDBRANCH  15  18
ENDBRANCH   1  12
BRANCH   2  20
ATOM     20  O   UNL     1      18.067  35.162  40.814  1.00  0.00    -0.502 OA
ATOM     21  H   UNL     1      18.560  34.755  41.600  1.00  0.00     0.293 HD
ENDBRANCH   2  20
BRANCH   6  22
ATOM     22  O   UNL     1      22.718  34.013  38.489  1.00  0.00    -0.507 OA
ATOM     23  H   UNL     1      22.810  34.470  39.382  1.00  0.00     0.293 HD
ENDBRANCH   6  22
BRANCH   8  24
ATOM     24  O   UNL     1      21.449  34.328  33.869  1.00  0.00    -0.508 OA
ATOM     25  H   UNL     1      21.583  33.424  33.430  1.00  0.00     0.293 HD
ENDBRANCH   8  24
TORSDOF 5
ENDMDL
MODEL 7
REMARK VINA RESULT:    -3.253      4.651      7.333
REMARK INTER + INTRA:          -4.113
REMARK INTER:                  -3.918
REMARK INTRA:                  -0.195
REMARK UNBOUND:                -0.289
REMARK SMILES O=c1c(O)c(-c2ccc(O)cc2)oc2cc(O)cc(O)c12
REMARK SMILES IDX 5 1 3 2 2 3 1 4 21 5 19 6 18 7 16 8 15 9 14 10 13 11 6 12
REMARK SMILES IDX 7 13 8 14 9 15 12 16 11 17 10 18 4 20 20 22 17 24
REMARK H PARENT 10 19 4 21 20 23 17 25
REMARK Flexibility Score: inf
ROOT
ATOM      1  C   UNL     1      16.380  35.777  40.012  1.00  0.00     0.180 A 
ATOM      2  C   UNL     1      17.497  35.241  40.675  1.00  0.00     0.208 A 
ATOM      3  C   UNL     1      17.359  34.820  42.008  1.00  0.00     0.238 A 
ATOM      4  O   UNL     1      18.376  34.391  42.613  1.00  0.00    -0.285 OA
ATOM      5  C   UNL     1      16.104  34.924  42.654  1.00  0.00     0.111 A 
ATOM      6  C   UNL     1      15.842  34.490  43.988  1.00  0.00     0.134 A 
ATOM      7  C   UNL     1      14.596  34.762  44.569  1.00  0.00     0.093 A 
ATOM      8  C   UNL     1      13.584  35.393  43.843  1.00  0.00     0.123 A 
ATOM      9  C   UNL     1      13.812  35.767  42.521  1.00  0.00     0.094 A 
ATOM     10  C   UNL     1      15.055  35.542  41.924  1.00  0.00     0.146 A 
ATOM     11  O   UNL     1      15.233  35.923  40.665  1.00  0.00    -0.452 OA
ENDROOT
BRANCH   1  12
ATOM     12  C   UNL     1      16.440  36.221  38.600  1.00  0.00     0.021 A 
ATOM     13  C   UNL     1      16.273  37.582  38.294  1.00  0.00     0.016 A 
ATOM     14  C   UNL     1      16.304  38.019  36.966  1.00  0.00     0.047 A 
ATOM     15  C   UNL     1      16.485  37.101  35.927  1.00  0.00     0.115 A 
ATOM     16  C   UNL     1      16.602  35.300  37.549  1.00  0.00     0.016 A 
ATOM     17  C   UNL     1      16.631  35.739  36.222  1.00  0.00     0.047 A 
BRANCH  15  18
ATOM     18  O   UNL     1      16.514  37.551  34.609  1.00  0.00    -0.508 OA
ATOM     19  H   UNL     1      15.664  37.805  34.118  1.00  0.00     0.293 HD
ENDBRANCH  15  18
ENDBRANCH   1  12
BRANCH   2  20
ATOM     20  O   UNL     1      18.732  35.168  40.026  1.00  0.00    -0.502 OA
ATOM     21  H   UNL     1      19.589  34.929  40.511  1.00  0.00     0.293 HD
ENDBRANCH   2  20
BRANCH   6  22
ATOM     22  O   UNL     1      16.751  33.771  44.768  1.00  0.00    -0.507 OA
ATOM     23  H   UNL     1      17.180  32.900  44.494  1.00  0.00     0.293 HD
ENDBRANCH   6  22
BRANCH   8  24
ATOM     24  O   UNL     1      12.344  35.645  44.424  1.00  0.00    -0.508 OA
ATOM     25  H   UNL     1      12.261  36.142  45.304  1.00  0.00     0.293 HD
ENDBRANCH   8  24
TORSDOF 5
ENDMDL
MODEL 8
REMARK VINA RESULT:    -3.203      2.182      6.759
REMARK INTER + INTRA:          -4.054
REMARK INTER:                  -3.765
REMARK INTRA:                  -0.288
REMARK UNBOUND:                -0.289
REMARK SMILES O=c1c(O)c(-c2ccc(O)cc2)oc2cc(O)cc(O)c12
REMARK SMILES IDX 5 1 3 2 2 3 1 4 21 5 19 6 18 7 16 8 15 9 14 10 13 11 6 12
REMARK SMILES IDX 7 13 8 14 9 15 12 16 11 17 10 18 4 20 20 22 17 24
REMARK H PARENT 10 19 4 21 20 23 17 25
REMARK Flexibility Score: inf
ROOT
ATOM      1  C   UNL     1      22.645  33.759  44.068  1.00  0.00     0.180 A 
ATOM      2  C   UNL     1      22.731  34.803  45.004  1.00  0.00     0.208 A 
ATOM      3  C   UNL     1      21.584  35.565  45.281  1.00  0.00     0.238 A 
ATOM      4  O   UNL     1      21.680  36.533  46.080  1.00  0.00    -0.285 OA
ATOM      5  C   UNL     1      20.363  35.262  44.631  1.00  0.00     0.111 A 
ATOM      6  C   UNL     1      19.130  35.941  44.867  1.00  0.00     0.134 A 
ATOM      7  C   UNL     1      18.016  35.643  44.072  1.00  0.00     0.093 A 
ATOM      8  C   UNL     1      18.072  34.645  43.095  1.00  0.00     0.123 A 
ATOM      9  C   UNL     1      19.255  33.937  42.900  1.00  0.00     0.094 A 
ATOM     10  C   UNL     1      20.394  34.235  43.652  1.00  0.00     0.146 A 
ATOM     11  O   UNL     1      21.503  33.542  43.426  1.00  0.00    -0.452 OA
ENDROOT
BRANCH   1  12
ATOM     12  C   UNL     1      23.805  32.897  43.740  1.00  0.00     0.021 A 
ATOM     13  C   UNL     1      24.060  31.755  44.518  1.00  0.00     0.016 A 
ATOM     14  C   UNL     1      25.162  30.941  44.240  1.00  0.00     0.047 A 
ATOM     15  C   UNL     1      26.031  31.265  43.194  1.00  0.00     0.115 A 
ATOM     16  C   UNL     1      24.694  33.229  42.702  1.00  0.00     0.016 A 
ATOM     17  C   UNL     1      25.796  32.413  42.426  1.00  0.00     0.047 A 
BRANCH  15  18
ATOM     18  O   UNL     1      27.125  30.444  42.928  1.00  0.00    -0.508 OA
ATOM     19  H   UNL     1      27.445  29.756  43.600  1.00  0.00     0.293 HD
ENDBRANCH  15  18
ENDBRANCH   1  12
BRANCH   2  20
ATOM     20  O   UNL     1      23.951  35.099  45.617  1.00  0.00    -0.502 OA
ATOM     21  H   UNL     1      24.771  35.377  45.092  1.00  0.00     0.293 HD
ENDBRANCH   2  20
BRANCH   6  22
ATOM     22  O   UNL     1      18.941  36.888  45.877  1.00  0.00    -0.507 OA
ATOM     23  H   UNL     1      18.691  37.852  45.721  1.00  0.00     0.293 HD
ENDBRANCH   6  22
BRANCH   8  24
ATOM     24  O   UNL     1      16.955  34.346  42.321  1.00  0.00    -0.508 OA
ATOM     25  H   UNL     1      16.457  33.469  42.425  1.00  0.00     0.293 HD
ENDBRANCH   8  24
TORSDOF 5
ENDMDL
