MODEL 1
REMARK VINA RESULT:    -3.584      0.000      0.000
REMARK INTER + INTRA:         -14.215
REMARK INTER:                  -9.452
REMARK INTRA:                  -4.763
REMARK UNBOUND:                -4.763
REMARK SMILES CCCCCCCCCCCCCCCCCCCCCCCCCCCCCC(=O)[O-]
REMARK SMILES IDX 16 1 17 2 18 3 19 4 20 5 21 6 22 7 23 8 24 9 25 10 26 11
REMARK SMILES IDX 27 12 28 13 29 14 30 15 31 16 32 17 15 18 14 19 13 20 12 21
REMARK SMILES IDX 11 22 10 23 9 24 8 25 7 26 6 27 5 28 4 29 3 30 2 31 1 32
REMARK H PARENT
REMARK Flexibility Score: inf
ROOT
ATOM      1  C   UNL     1      32.694   5.006 -11.371  1.00  0.00     0.000 C 
ENDROOT
BRANCH   1   2
ATOM      2  C   UNL     1      31.793   6.051 -10.689  1.00  0.00     0.000 C 
BRANCH   2   3
ATOM      3  C   UNL     1      31.630   7.325 -11.532  1.00  0.00     0.000 C 
BRANCH   3   4
ATOM      4  C   UNL     1      30.171   7.576 -11.946  1.00  0.00     0.000 C 
BRANCH   4   5
ATOM      5  C   UNL     1      29.251   6.382 -11.640  1.00  0.00     0.000 C 
BRANCH   5   6
ATOM      6  C   UNL     1      28.107   6.717 -10.658  1.00  0.00     0.000 C 
BRANCH   6   7
ATOM      7  C   UNL     1      28.117   8.197 -10.231  1.00  0.00     0.000 C 
BRANCH   7   8
ATOM      8  C   UNL     1      28.425   8.386  -8.732  1.00  0.00     0.000 C 
BRANCH   8   9
ATOM      9  C   UNL     1      29.129   7.188  -8.069  1.00  0.00     0.000 C 
BRANCH   9  10
ATOM     10  C   UNL     1      30.067   7.612  -6.925  1.00  0.00     0.000 C 
BRANCH  10  11
ATOM     11  C   UNL     1      31.537   7.238  -7.186  1.00  0.00     0.000 C 
BRANCH  11  12
ATOM     12  C   UNL     1      31.824   5.726  -7.246  1.00  0.00     0.000 C 
BRANCH  12  13
ATOM     13  C   UNL     1      33.124   5.328  -6.523  1.00  0.00     0.006 C 
BRANCH  13  14
ATOM     14  C   UNL     1      33.977   6.547  -6.147  1.00  0.00     0.053 C 
BRANCH  14  15
ATOM     15  C   UNL     1      34.962   6.224  -5.064  1.00  0.00     0.041 C 
ATOM     16  O   UNL     1      34.939   5.098  -4.498  1.00  0.00    -0.550 OA
ATOM     17  O   UNL     1      35.891   7.176  -4.664  1.00  0.00    -0.550 OA
ENDBRANCH  14  15
ENDBRANCH  13  14
ENDBRANCH  12  13
ENDBRANCH  11  12
ENDBRANCH  10  11
ENDBRANCH   9  10
ENDBRANCH   8   9
ENDBRANCH   7   8
ENDBRANCH   6   7
ENDBRANCH   5   6
ENDBRANCH   4   5
ENDBRANCH   3   4
ENDBRANCH   2   3
ENDBRANCH   1   2
BRANCH   1  18
ATOM     18  C   UNL     1      34.191   5.301 -11.193  1.00  0.00     0.000 C 
BRANCH  18  19
ATOM     19  C   UNL     1      34.508   5.998  -9.859  1.00  0.00     0.000 C 
BRANCH  19  20
ATOM     20  C   UNL     1      35.809   5.486  -9.218  1.00  0.00     0.000 C 
BRANCH  20  21
ATOM     21  C   UNL     1      35.992   3.970  -9.376  1.00  0.00     0.000 C 
BRANCH  21  22
ATOM     22  C   UNL     1      35.671   3.243  -8.062  1.00  0.00     0.000 C 
BRANCH  22  23
ATOM     23  C   UNL     1      36.226   1.809  -8.016  1.00  0.00     0.000 C 
BRANCH  23  24
ATOM     24  C   UNL     1      37.316   1.494  -9.061  1.00  0.00    -0.000 C 
BRANCH  24  25
ATOM     25  C   UNL     1      38.501   0.664  -8.537  1.00  0.00    -0.000 C 
BRANCH  25  26
ATOM     26  C   UNL     1      38.770   0.880  -7.041  1.00  0.00    -0.000 C 
BRANCH  26  27
ATOM     27  C   UNL     1      40.149   1.521  -6.821  1.00  0.00    -0.000 C 
BRANCH  27  28
ATOM     28  C   UNL     1      40.059   2.914  -6.175  1.00  0.00    -0.000 C 
BRANCH  28  29
ATOM     29  C   UNL     1      39.352   3.941  -7.077  1.00  0.00    -0.000 C 
BRANCH  29  30
ATOM     30  C   UNL     1      40.203   4.356  -8.291  1.00  0.00    -0.000 C 
BRANCH  30  31
ATOM     31  C   UNL     1      39.396   4.885  -9.489  1.00  0.00    -0.003 C 
ATOM     32  C   UNL     1      39.533   4.009 -10.733  1.00  0.00     0.004 C 
ENDBRANCH  30  31
ENDBRANCH  29  30
ENDBRANCH  28  29
ENDBRANCH  27  28
ENDBRANCH  26  27
ENDBRANCH  25  26
ENDBRANCH  24  25
ENDBRANCH  23  24
ENDBRANCH  22  23
ENDBRANCH  21  22
ENDBRANCH  20  21
ENDBRANCH  19  20
ENDBRANCH  18  19
ENDBRANCH   1  18
TORSDOF 28
ENDMDL
MODEL 2
REMARK VINA RESULT:    -3.549     10.817     13.958
REMARK INTER + INTRA:         -14.123
REMARK INTER:                  -8.149
REMARK INTRA:                  -5.974
REMARK UNBOUND:                -4.763
REMARK SMILES CCCCCCCCCCCCCCCCCCCCCCCCCCCCCC(=O)[O-]
REMARK SMILES IDX 16 1 17 2 18 3 19 4 20 5 21 6 22 7 23 8 24 9 25 10 26 11
REMARK SMILES IDX 27 12 28 13 29 14 30 15 31 16 32 17 15 18 14 19 13 20 12 21
REMARK SMILES IDX 11 22 10 23 9 24 8 25 7 26 6 27 5 28 4 29 3 30 2 31 1 32
REMARK H PARENT
REMARK Flexibility Score: inf
ROOT
ATOM      1  C   UNL     1      37.790   7.203   3.599  1.00  0.00     0.000 C 
ENDROOT
BRANCH   1   2
ATOM      2  C   UNL     1      37.690   8.409   4.550  1.00  0.00     0.000 C 
BRANCH   2   3
ATOM      3  C   UNL     1      36.250   8.922   4.700  1.00  0.00     0.000 C 
BRANCH   3   4
ATOM      4  C   UNL     1      35.401   8.670   3.443  1.00  0.00     0.000 C 
BRANCH   4   5
ATOM      5  C   UNL     1      34.216   7.725   3.704  1.00  0.00     0.000 C 
BRANCH   5   6
ATOM      6  C   UNL     1      34.078   7.297   5.181  1.00  0.00     0.000 C 
BRANCH   6   7
ATOM      7  C   UNL     1      34.329   5.790   5.379  1.00  0.00     0.000 C 
BRANCH   7   8
ATOM      8  C   UNL     1      34.538   5.037   4.050  1.00  0.00     0.000 C 
BRANCH   8   9
ATOM      9  C   UNL     1      35.032   3.587   4.209  1.00  0.00     0.000 C 
BRANCH   9  10
ATOM     10  C   UNL     1      34.428   2.888   5.440  1.00  0.00     0.000 C 
BRANCH  10  11
ATOM     11  C   UNL     1      33.641   1.615   5.079  1.00  0.00     0.000 C 
BRANCH  11  12
ATOM     12  C   UNL     1      33.453   1.371   3.570  1.00  0.00     0.000 C 
BRANCH  12  13
ATOM     13  C   UNL     1      31.985   1.475   3.119  1.00  0.00     0.006 C 
BRANCH  13  14
ATOM     14  C   UNL     1      31.849   1.537   1.591  1.00  0.00     0.053 C 
BRANCH  14  15
ATOM     15  C   UNL     1      32.462   2.783   1.027  1.00  0.00     0.041 C 
ATOM     16  O   UNL     1      31.805   3.859   1.000  1.00  0.00    -0.550 OA
ATOM     17  O   UNL     1      33.750   2.751   0.510  1.00  0.00    -0.550 OA
ENDBRANCH  14  15
ENDBRANCH  13  14
ENDBRANCH  12  13
ENDBRANCH  11  12
ENDBRANCH  10  11
ENDBRANCH   9  10
ENDBRANCH   8   9
ENDBRANCH   7   8
ENDBRANCH   6   7
ENDBRANCH   5   6
ENDBRANCH   4   5
ENDBRANCH   3   4
ENDBRANCH   2   3
ENDBRANCH   1   2
BRANCH   1  18
ATOM     18  C   UNL     1      38.134   5.895   4.329  1.00  0.00     0.000 C 
BRANCH  18  19
ATOM     19  C   UNL     1      38.398   6.100   5.830  1.00  0.00     0.000 C 
BRANCH  19  20
ATOM     20  C   UNL     1      37.682   5.058   6.706  1.00  0.00     0.000 C 
BRANCH  20  21
ATOM     21  C   UNL     1      38.073   3.615   6.352  1.00  0.00     0.000 C 
BRANCH  21  22
ATOM     22  C   UNL     1      39.030   3.038   7.406  1.00  0.00     0.000 C 
BRANCH  22  23
ATOM     23  C   UNL     1      40.296   2.415   6.793  1.00  0.00     0.000 C 
BRANCH  23  24
ATOM     24  C   UNL     1      40.867   3.161   5.569  1.00  0.00    -0.000 C 
BRANCH  24  25
ATOM     25  C   UNL     1      41.914   2.377   4.758  1.00  0.00    -0.000 C 
BRANCH  25  26
ATOM     26  C   UNL     1      41.627   2.377   3.249  1.00  0.00    -0.000 C 
BRANCH  26  27
ATOM     27  C   UNL     1      40.306   3.102   2.945  1.00  0.00    -0.000 C 
BRANCH  27  28
ATOM     28  C   UNL     1      39.264   2.182   2.288  1.00  0.00    -0.000 C 
BRANCH  28  29
ATOM     29  C   UNL     1      38.101   1.833   3.235  1.00  0.00    -0.000 C 
BRANCH  29  30
ATOM     30  C   UNL     1      38.390   0.597   4.105  1.00  0.00    -0.000 C 
BRANCH  30  31
ATOM     31  C   UNL     1      37.137  -0.114   4.645  1.00  0.00    -0.003 C 
ATOM     32  C   UNL     1      36.903   0.139   6.133  1.00  0.00     0.004 C 
ENDBRANCH  30  31
ENDBRANCH  29  30
ENDBRANCH  28  29
ENDBRANCH  27  28
ENDBRANCH  26  27
ENDBRANCH  25  26
ENDBRANCH  24  25
ENDBRANCH  23  24
ENDBRANCH  22  23
ENDBRANCH  21  22
ENDBRANCH  20  21
ENDBRANCH  19  20
ENDBRANCH  18  19
ENDBRANCH   1  18
TORSDOF 28
ENDMDL
MODEL 3
REMARK VINA RESULT:    -3.499      2.455      8.839
REMARK INTER + INTRA:         -13.990
REMARK INTER:                  -8.840
REMARK INTRA:                  -5.149
REMARK UNBOUND:                -4.763
REMARK SMILES CCCCCCCCCCCCCCCCCCCCCCCCCCCCCC(=O)[O-]
REMARK SMILES IDX 16 1 17 2 18 3 19 4 20 5 21 6 22 7 23 8 24 9 25 10 26 11
REMARK SMILES IDX 27 12 28 13 29 14 30 15 31 16 32 17 15 18 14 19 13 20 12 21
REMARK SMILES IDX 11 22 10 23 9 24 8 25 7 26 6 27 5 28 4 29 3 30 2 31 1 32
REMARK H PARENT
REMARK Flexibility Score: inf
ROOT
ATOM      1  C   UNL     1      36.072   4.951  -7.088  1.00  0.00     0.000 C 
ENDROOT
BRANCH   1   2
ATOM      2  C   UNL     1      37.392   5.440  -7.711  1.00  0.00     0.000 C 
BRANCH   2   3
ATOM      3  C   UNL     1      38.601   4.613  -7.250  1.00  0.00     0.000 C 
BRANCH   3   4
ATOM      4  C   UNL     1      39.110   3.654  -8.338  1.00  0.00     0.000 C 
BRANCH   4   5
ATOM      5  C   UNL     1      38.753   4.121  -9.759  1.00  0.00     0.000 C 
BRANCH   5   6
ATOM      6  C   UNL     1      38.002   3.059 -10.591  1.00  0.00     0.000 C 
BRANCH   6   7
ATOM      7  C   UNL     1      36.495   3.358 -10.698  1.00  0.00     0.000 C 
BRANCH   7   8
ATOM      8  C   UNL     1      35.639   2.456  -9.786  1.00  0.00     0.000 C 
BRANCH   8   9
ATOM      9  C   UNL     1      36.314   1.133  -9.382  1.00  0.00     0.000 C 
BRANCH   9  10
ATOM     10  C   UNL     1      36.289   0.896  -7.861  1.00  0.00     0.000 C 
BRANCH  10  11
ATOM     11  C   UNL     1      37.665   0.501  -7.294  1.00  0.00     0.000 C 
BRANCH  11  12
ATOM     12  C   UNL     1      38.638  -0.117  -8.316  1.00  0.00     0.000 C 
BRANCH  12  13
ATOM     13  C   UNL     1      40.101  -0.114  -7.838  1.00  0.00     0.006 C 
BRANCH  13  14
ATOM     14  C   UNL     1      40.294   0.716  -6.562  1.00  0.00     0.053 C 
BRANCH  14  15
ATOM     15  C   UNL     1      41.742   0.993  -6.291  1.00  0.00     0.041 C 
ATOM     16  O   UNL     1      42.594   0.881  -7.214  1.00  0.00    -0.550 OA
ATOM     17  O   UNL     1      42.154   1.351  -5.014  1.00  0.00    -0.550 OA
ENDBRANCH  14  15
ENDBRANCH  13  14
ENDBRANCH  12  13
ENDBRANCH  11  12
ENDBRANCH  10  11
ENDBRANCH   9  10
ENDBRANCH   8   9
ENDBRANCH   7   8
ENDBRANCH   6   7
ENDBRANCH   5   6
ENDBRANCH   4   5
ENDBRANCH   3   4
ENDBRANCH   2   3
ENDBRANCH   1   2
BRANCH   1  18
ATOM     18  C   UNL     1      35.637   5.791  -5.877  1.00  0.00     0.000 C 
BRANCH  18  19
ATOM     19  C   UNL     1      34.152   6.189  -5.930  1.00  0.00     0.000 C 
BRANCH  19  20
ATOM     20  C   UNL     1      33.269   5.105  -6.569  1.00  0.00     0.000 C 
BRANCH  20  21
ATOM     21  C   UNL     1      31.966   5.668  -7.155  1.00  0.00     0.000 C 
BRANCH  21  22
ATOM     22  C   UNL     1      32.004   7.203  -7.186  1.00  0.00     0.000 C 
BRANCH  22  23
ATOM     23  C   UNL     1      30.694   7.848  -6.702  1.00  0.00     0.000 C 
BRANCH  23  24
ATOM     24  C   UNL     1      29.409   7.279  -7.339  1.00  0.00    -0.000 C 
BRANCH  24  25
ATOM     25  C   UNL     1      28.864   8.081  -8.535  1.00  0.00    -0.000 C 
BRANCH  25  26
ATOM     26  C   UNL     1      28.521   7.197  -9.743  1.00  0.00    -0.000 C 
BRANCH  26  27
ATOM     27  C   UNL     1      29.372   7.584 -10.962  1.00  0.00    -0.000 C 
BRANCH  27  28
ATOM     28  C   UNL     1      30.622   8.393 -10.579  1.00  0.00    -0.000 C 
BRANCH  28  29
ATOM     29  C   UNL     1      31.930   7.640 -10.884  1.00  0.00    -0.000 C 
BRANCH  29  30
ATOM     30  C   UNL     1      31.763   6.110 -10.841  1.00  0.00    -0.000 C 
BRANCH  30  31
ATOM     31  C   UNL     1      33.070   5.329 -10.623  1.00  0.00    -0.003 C 
ATOM     32  C   UNL     1      34.211   6.207 -10.114  1.00  0.00     0.004 C 
ENDBRANCH  30  31
ENDBRANCH  29  30
ENDBRANCH  28  29
ENDBRANCH  27  28
ENDBRANCH  26  27
ENDBRANCH  25  26
ENDBRANCH  24  25
ENDBRANCH  23  24
ENDBRANCH  22  23
ENDBRANCH  21  22
ENDBRANCH  20  21
ENDBRANCH  19  20
ENDBRANCH  18  19
ENDBRANCH   1  18
TORSDOF 28
ENDMDL
MODEL 4
REMARK VINA RESULT:    -3.479      1.168      2.581
REMARK INTER + INTRA:         -13.937
REMARK INTER:                  -9.306
REMARK INTRA:                  -4.632
REMARK UNBOUND:                -4.763
REMARK SMILES CCCCCCCCCCCCCCCCCCCCCCCCCCCCCC(=O)[O-]
REMARK SMILES IDX 16 1 17 2 18 3 19 4 20 5 21 6 22 7 23 8 24 9 25 10 26 11
REMARK SMILES IDX 27 12 28 13 29 14 30 15 31 16 32 17 15 18 14 19 13 20 12 21
REMARK SMILES IDX 11 22 10 23 9 24 8 25 7 26 6 27 5 28 4 29 3 30 2 31 1 32
REMARK H PARENT
REMARK Flexibility Score: inf
ROOT
ATOM      1  C   UNL     1      33.663   4.922 -10.975  1.00  0.00     0.000 C 
ENDROOT
BRANCH   1   2
ATOM      2  C   UNL     1      32.340   5.566 -11.427  1.00  0.00     0.000 C 
BRANCH   2   3
ATOM      3  C   UNL     1      32.360   7.097 -11.308  1.00  0.00     0.000 C 
BRANCH   3   4
ATOM      4  C   UNL     1      30.978   7.681 -10.975  1.00  0.00     0.000 C 
BRANCH   4   5
ATOM      5  C   UNL     1      29.859   6.626 -11.018  1.00  0.00     0.000 C 
BRANCH   5   6
ATOM      6  C   UNL     1      28.557   7.076 -10.320  1.00  0.00     0.000 C 
BRANCH   6   7
ATOM      7  C   UNL     1      28.677   8.485  -9.709  1.00  0.00     0.000 C 
BRANCH   7   8
ATOM      8  C   UNL     1      28.463   8.496  -8.182  1.00  0.00     0.000 C 
BRANCH   8   9
ATOM      9  C   UNL     1      29.736   8.226  -7.358  1.00  0.00     0.000 C 
BRANCH   9  10
ATOM     10  C   UNL     1      29.879   6.747  -6.959  1.00  0.00     0.000 C 
BRANCH  10  11
ATOM     11  C   UNL     1      31.249   6.155  -7.338  1.00  0.00     0.000 C 
BRANCH  11  12
ATOM     12  C   UNL     1      32.353   7.192  -7.614  1.00  0.00     0.000 C 
BRANCH  12  13
ATOM     13  C   UNL     1      33.706   6.821  -6.980  1.00  0.00     0.006 C 
BRANCH  13  14
ATOM     14  C   UNL     1      33.701   5.405  -6.388  1.00  0.00     0.053 C 
BRANCH  14  15
ATOM     15  C   UNL     1      34.512   5.324  -5.130  1.00  0.00     0.041 C 
ATOM     16  O   UNL     1      35.491   6.099  -4.954  1.00  0.00    -0.550 OA
ATOM     17  O   UNL     1      34.202   4.377  -4.164  1.00  0.00    -0.550 OA
ENDBRANCH  14  15
ENDBRANCH  13  14
ENDBRANCH  12  13
ENDBRANCH  11  12
ENDBRANCH  10  11
ENDBRANCH   9  10
ENDBRANCH   8   9
ENDBRANCH   7   8
ENDBRANCH   6   7
ENDBRANCH   5   6
ENDBRANCH   4   5
ENDBRANCH   3   4
ENDBRANCH   2   3
ENDBRANCH   1   2
BRANCH   1  18
ATOM     18  C   UNL     1      34.710   5.957 -10.534  1.00  0.00     0.000 C 
BRANCH  18  19
ATOM     19  C   UNL     1      36.114   5.661 -11.088  1.00  0.00     0.000 C 
BRANCH  19  20
ATOM     20  C   UNL     1      37.104   5.232  -9.993  1.00  0.00     0.000 C 
BRANCH  20  21
ATOM     21  C   UNL     1      36.545   5.427  -8.576  1.00  0.00     0.000 C 
BRANCH  21  22
ATOM     22  C   UNL     1      37.474   4.790  -7.532  1.00  0.00     0.000 C 
BRANCH  22  23
ATOM     23  C   UNL     1      38.770   4.229  -8.142  1.00  0.00     0.000 C 
BRANCH  23  24
ATOM     24  C   UNL     1      39.941   4.062  -7.153  1.00  0.00    -0.000 C 
BRANCH  24  25
ATOM     25  C   UNL     1      39.916   2.767  -6.323  1.00  0.00    -0.000 C 
BRANCH  25  26
ATOM     26  C   UNL     1      40.059   1.502  -7.183  1.00  0.00    -0.000 C 
BRANCH  26  27
ATOM     27  C   UNL     1      39.703   0.247  -6.370  1.00  0.00    -0.000 C 
BRANCH  27  28
ATOM     28  C   UNL     1      38.913  -0.786  -7.190  1.00  0.00    -0.000 C 
BRANCH  28  29
ATOM     29  C   UNL     1      37.393  -0.682  -6.966  1.00  0.00    -0.000 C 
BRANCH  29  30
ATOM     30  C   UNL     1      36.644  -0.135  -8.194  1.00  0.00    -0.000 C 
BRANCH  30  31
ATOM     31  C   UNL     1      36.196   1.331  -8.070  1.00  0.00    -0.003 C 
ATOM     32  C   UNL     1      35.614   1.888  -9.368  1.00  0.00     0.004 C 
ENDBRANCH  30  31
ENDBRANCH  29  30
ENDBRANCH  28  29
ENDBRANCH  27  28
ENDBRANCH  26  27
ENDBRANCH  25  26
ENDBRANCH  24  25
ENDBRANCH  23  24
ENDBRANCH  22  23
ENDBRANCH  21  22
ENDBRANCH  20  21
ENDBRANCH  19  20
ENDBRANCH  18  19
ENDBRANCH   1  18
TORSDOF 28
ENDMDL
MODEL 5
REMARK VINA RESULT:    -3.423     10.481     15.374
REMARK INTER + INTRA:         -13.790
REMARK INTER:                  -8.533
REMARK INTRA:                  -5.257
REMARK UNBOUND:                -4.763
REMARK SMILES CCCCCCCCCCCCCCCCCCCCCCCCCCCCCC(=O)[O-]
REMARK SMILES IDX 16 1 17 2 18 3 19 4 20 5 21 6 22 7 23 8 24 9 25 10 26 11
REMARK SMILES IDX 27 12 28 13 29 14 30 15 31 16 32 17 15 18 14 19 13 20 12 21
REMARK SMILES IDX 11 22 10 23 9 24 8 25 7 26 6 27 5 28 4 29 3 30 2 31 1 32
REMARK H PARENT
REMARK Flexibility Score: inf
ROOT
ATOM      1  C   UNL     1      39.674   2.623   2.482  1.00  0.00     0.000 C 
ENDROOT
BRANCH   1   2
ATOM      2  C   UNL     1      41.008   1.855   2.506  1.00  0.00     0.000 C 
BRANCH   2   3
ATOM      3  C   UNL     1      42.028   2.480   3.469  1.00  0.00     0.000 C 
BRANCH   3   4
ATOM      4  C   UNL     1      42.995   1.441   4.059  1.00  0.00     0.000 C 
BRANCH   4   5
ATOM      5  C   UNL     1      42.642   1.049   5.504  1.00  0.00     0.000 C 
BRANCH   5   6
ATOM      6  C   UNL     1      41.694   2.049   6.202  1.00  0.00     0.000 C 
BRANCH   6   7
ATOM      7  C   UNL     1      40.395   1.380   6.689  1.00  0.00     0.000 C 
BRANCH   7   8
ATOM      8  C   UNL     1      40.036   0.112   5.888  1.00  0.00     0.000 C 
BRANCH   8   9
ATOM      9  C   UNL     1      38.535  -0.048   5.587  1.00  0.00     0.000 C 
BRANCH   9  10
ATOM     10  C   UNL     1      38.240  -0.131   4.079  1.00  0.00     0.000 C 
BRANCH  10  11
ATOM     11  C   UNL     1      36.737  -0.242   3.768  1.00  0.00     0.000 C 
BRANCH  11  12
ATOM     12  C   UNL     1      36.316   0.294   2.386  1.00  0.00     0.000 C 
BRANCH  12  13
ATOM     13  C   UNL     1      37.483   0.373   1.386  1.00  0.00     0.006 C 
BRANCH  13  14
ATOM     14  C   UNL     1      37.730  -0.965   0.674  1.00  0.00     0.053 C 
BRANCH  14  15
ATOM     15  C   UNL     1      38.647  -0.809  -0.501  1.00  0.00     0.041 C 
ATOM     16  O   UNL     1      38.392  -1.394  -1.588  1.00  0.00    -0.550 OA
ATOM     17  O   UNL     1      39.797  -0.039  -0.387  1.00  0.00    -0.550 OA
ENDBRANCH  14  15
ENDBRANCH  13  14
ENDBRANCH  12  13
ENDBRANCH  11  12
ENDBRANCH  10  11
ENDBRANCH   9  10
ENDBRANCH   8   9
ENDBRANCH   7   8
ENDBRANCH   6   7
ENDBRANCH   5   6
ENDBRANCH   4   5
ENDBRANCH   3   4
ENDBRANCH   2   3
ENDBRANCH   1   2
BRANCH   1  18
ATOM     18  C   UNL     1      39.524   3.596   3.662  1.00  0.00     0.000 C 
BRANCH  18  19
ATOM     19  C   UNL     1      38.170   3.461   4.380  1.00  0.00     0.000 C 
BRANCH  19  20
ATOM     20  C   UNL     1      38.177   4.093   5.782  1.00  0.00     0.000 C 
BRANCH  20  21
ATOM     21  C   UNL     1      39.231   5.201   5.928  1.00  0.00     0.000 C 
BRANCH  21  22
ATOM     22  C   UNL     1      38.558   6.575   6.067  1.00  0.00     0.000 C 
BRANCH  22  23
ATOM     23  C   UNL     1      38.638   7.418   4.782  1.00  0.00     0.000 C 
BRANCH  23  24
ATOM     24  C   UNL     1      37.532   7.136   3.744  1.00  0.00    -0.000 C 
BRANCH  24  25
ATOM     25  C   UNL     1      36.286   8.030   3.860  1.00  0.00    -0.000 C 
BRANCH  25  26
ATOM     26  C   UNL     1      34.979   7.229   3.954  1.00  0.00    -0.000 C 
BRANCH  26  27
ATOM     27  C   UNL     1      35.265   5.751   4.261  1.00  0.00    -0.000 C 
BRANCH  27  28
ATOM     28  C   UNL     1      34.157   4.815   3.752  1.00  0.00    -0.000 C 
BRANCH  28  29
ATOM     29  C   UNL     1      34.449   3.334   4.054  1.00  0.00    -0.000 C 
BRANCH  29  30
ATOM     30  C   UNL     1      33.585   2.372   3.217  1.00  0.00    -0.000 C 
BRANCH  30  31
ATOM     31  C   UNL     1      33.394   2.794   1.750  1.00  0.00    -0.003 C 
ATOM     32  C   UNL     1      31.978   2.538   1.236  1.00  0.00     0.004 C 
ENDBRANCH  30  31
ENDBRANCH  29  30
ENDBRANCH  28  29
ENDBRANCH  27  28
ENDBRANCH  26  27
ENDBRANCH  25  26
ENDBRANCH  24  25
ENDBRANCH  23  24
ENDBRANCH  22  23
ENDBRANCH  21  22
ENDBRANCH  20  21
ENDBRANCH  19  20
ENDBRANCH  18  19
ENDBRANCH   1  18
TORSDOF 28
ENDMDL
MODEL 6
REMARK VINA RESULT:    -3.423     10.965     14.110
REMARK INTER + INTRA:         -13.789
REMARK INTER:                  -7.966
REMARK INTRA:                  -5.823
REMARK UNBOUND:                -4.763
REMARK SMILES CCCCCCCCCCCCCCCCCCCCCCCCCCCCCC(=O)[O-]
REMARK SMILES IDX 16 1 17 2 18 3 19 4 20 5 21 6 22 7 23 8 24 9 25 10 26 11
REMARK SMILES IDX 27 12 28 13 29 14 30 15 31 16 32 17 15 18 14 19 13 20 12 21
REMARK SMILES IDX 11 22 10 23 9 24 8 25 7 26 6 27 5 28 4 29 3 30 2 31 1 32
REMARK H PARENT
REMARK Flexibility Score: inf
ROOT
ATOM      1  C   UNL     1      38.150   2.183   6.002  1.00  0.00     0.000 C 
ENDROOT
BRANCH   1   2
ATOM      2  C   UNL     1      37.527   3.405   5.303  1.00  0.00     0.000 C 
BRANCH   2   3
ATOM      3  C   UNL     1      37.128   4.508   6.295  1.00  0.00     0.000 C 
BRANCH   3   4
ATOM      4  C   UNL     1      37.490   5.914   5.791  1.00  0.00     0.000 C 
BRANCH   4   5
ATOM      5  C   UNL     1      37.861   5.935   4.298  1.00  0.00     0.000 C 
BRANCH   5   6
ATOM      6  C   UNL     1      37.346   7.184   3.550  1.00  0.00     0.000 C 
BRANCH   6   7
ATOM      7  C   UNL     1      36.565   8.138   4.472  1.00  0.00     0.000 C 
BRANCH   7   8
ATOM      8  C   UNL     1      35.178   8.513   3.911  1.00  0.00     0.000 C 
BRANCH   8   9
ATOM      9  C   UNL     1      34.197   7.332   3.796  1.00  0.00     0.000 C 
BRANCH   9  10
ATOM     10  C   UNL     1      34.001   6.593   5.131  1.00  0.00     0.000 C 
BRANCH  10  11
ATOM     11  C   UNL     1      33.871   5.069   4.959  1.00  0.00     0.000 C 
BRANCH  11  12
ATOM     12  C   UNL     1      34.241   4.537   3.561  1.00  0.00     0.000 C 
BRANCH  12  13
ATOM     13  C   UNL     1      33.655   3.144   3.268  1.00  0.00     0.006 C 
BRANCH  13  14
ATOM     14  C   UNL     1      33.439   2.909   1.767  1.00  0.00     0.053 C 
BRANCH  14  15
ATOM     15  C   UNL     1      31.984   2.926   1.404  1.00  0.00     0.041 C 
ATOM     16  O   UNL     1      31.505   3.888   0.744  1.00  0.00    -0.550 OA
ATOM     17  O   UNL     1      31.154   1.893   1.816  1.00  0.00    -0.550 OA
ENDBRANCH  14  15
ENDBRANCH  13  14
ENDBRANCH  12  13
ENDBRANCH  11  12
ENDBRANCH  10  11
ENDBRANCH   9  10
ENDBRANCH   8   9
ENDBRANCH   7   8
ENDBRANCH   6   7
ENDBRANCH   5   6
ENDBRANCH   4   5
ENDBRANCH   3   4
ENDBRANCH   2   3
ENDBRANCH   1   2
BRANCH   1  18
ATOM     18  C   UNL     1      39.642   2.370   6.314  1.00  0.00     0.000 C 
BRANCH  18  19
ATOM     19  C   UNL     1      40.332   3.362   5.361  1.00  0.00     0.000 C 
BRANCH  19  20
ATOM     20  C   UNL     1      41.645   2.811   4.781  1.00  0.00     0.000 C 
BRANCH  20  21
ATOM     21  C   UNL     1      41.582   2.605   3.260  1.00  0.00     0.000 C 
BRANCH  21  22
ATOM     22  C   UNL     1      40.209   3.020   2.712  1.00  0.00     0.000 C 
BRANCH  22  23
ATOM     23  C   UNL     1      39.478   1.875   1.990  1.00  0.00     0.000 C 
BRANCH  23  24
ATOM     24  C   UNL     1      39.614   0.489   2.654  1.00  0.00    -0.000 C 
BRANCH  24  25
ATOM     25  C   UNL     1      38.287  -0.162   3.083  1.00  0.00    -0.000 C 
BRANCH  25  26
ATOM     26  C   UNL     1      37.243  -0.193   1.958  1.00  0.00    -0.000 C 
BRANCH  26  27
ATOM     27  C   UNL     1      35.923   0.444   2.420  1.00  0.00    -0.000 C 
BRANCH  27  28
ATOM     28  C   UNL     1      34.858  -0.602   2.791  1.00  0.00    -0.000 C 
BRANCH  28  29
ATOM     29  C   UNL     1      34.812  -0.889   4.302  1.00  0.00    -0.000 C 
BRANCH  29  30
ATOM     30  C   UNL     1      35.270   0.310   5.153  1.00  0.00    -0.000 C 
BRANCH  30  31
ATOM     31  C   UNL     1      34.534   0.462   6.495  1.00  0.00    -0.003 C 
ATOM     32  C   UNL     1      34.233   1.918   6.848  1.00  0.00     0.004 C 
ENDBRANCH  30  31
ENDBRANCH  29  30
ENDBRANCH  28  29
ENDBRANCH  27  28
ENDBRANCH  26  27
ENDBRANCH  25  26
ENDBRANCH  24  25
ENDBRANCH  23  24
ENDBRANCH  22  23
ENDBRANCH  21  22
ENDBRANCH  20  21
ENDBRANCH  19  20
ENDBRANCH  18  19
ENDBRANCH   1  18
TORSDOF 28
ENDMDL
MODEL 7
REMARK VINA RESULT:    -3.402     11.109     14.212
REMARK INTER + INTRA:         -13.733
REMARK INTER:                  -7.505
REMARK INTRA:                  -6.227
REMARK UNBOUND:                -4.763
REMARK SMILES CCCCCCCCCCCCCCCCCCCCCCCCCCCCCC(=O)[O-]
REMARK SMILES IDX 16 1 17 2 18 3 19 4 20 5 21 6 22 7 23 8 24 9 25 10 26 11
REMARK SMILES IDX 27 12 28 13 29 14 30 15 31 16 32 17 15 18 14 19 13 20 12 21
REMARK SMILES IDX 11 22 10 23 9 24 8 25 7 26 6 27 5 28 4 29 3 30 2 31 1 32
REMARK H PARENT
REMARK Flexibility Score: inf
ROOT
ATOM      1  C   UNL     1      37.926   5.792   4.431  1.00  0.00     0.000 C 
ENDROOT
BRANCH   1   2
ATOM      2  C   UNL     1      38.900   6.421   5.443  1.00  0.00     0.000 C 
BRANCH   2   3
ATOM      3  C   UNL     1      38.348   7.712   6.066  1.00  0.00     0.000 C 
BRANCH   3   4
ATOM      4  C   UNL     1      37.146   8.275   5.289  1.00  0.00     0.000 C 
BRANCH   4   5
ATOM      5  C   UNL     1      35.903   8.467   6.174  1.00  0.00     0.000 C 
BRANCH   5   6
ATOM      6  C   UNL     1      35.903   7.588   7.443  1.00  0.00     0.000 C 
BRANCH   6   7
ATOM      7  C   UNL     1      35.049   6.318   7.276  1.00  0.00     0.000 C 
BRANCH   7   8
ATOM      8  C   UNL     1      34.034   6.426   6.120  1.00  0.00     0.000 C 
BRANCH   8   9
ATOM      9  C   UNL     1      34.217   5.375   5.010  1.00  0.00     0.000 C 
BRANCH   9  10
ATOM     10  C   UNL     1      33.322   4.139   5.212  1.00  0.00     0.000 C 
BRANCH  10  11
ATOM     11  C   UNL     1      34.126   2.857   5.495  1.00  0.00     0.000 C 
BRANCH  11  12
ATOM     12  C   UNL     1      34.091   1.805   4.371  1.00  0.00     0.000 C 
BRANCH  12  13
ATOM     13  C   UNL     1      34.793   2.270   3.083  1.00  0.00     0.006 C 
BRANCH  13  14
ATOM     14  C   UNL     1      33.951   1.997   1.830  1.00  0.00     0.053 C 
BRANCH  14  15
ATOM     15  C   UNL     1      32.676   2.786   1.833  1.00  0.00     0.041 C 
ATOM     16  O   UNL     1      32.696   4.028   1.616  1.00  0.00    -0.550 OA
ATOM     17  O   UNL     1      31.469   2.153   2.099  1.00  0.00    -0.550 OA
ENDBRANCH  14  15
ENDBRANCH  13  14
ENDBRANCH  12  13
ENDBRANCH  11  12
ENDBRANCH  10  11
ENDBRANCH   9  10
ENDBRANCH   8   9
ENDBRANCH   7   8
ENDBRANCH   6   7
ENDBRANCH   5   6
ENDBRANCH   4   5
ENDBRANCH   3   4
ENDBRANCH   2   3
ENDBRANCH   1   2
BRANCH   1  18
ATOM     18  C   UNL     1      37.680   4.298   4.689  1.00  0.00     0.000 C 
BRANCH  18  19
ATOM     19  C   UNL     1      37.589   3.957   6.187  1.00  0.00     0.000 C 
BRANCH  19  20
ATOM     20  C   UNL     1      37.607   2.443   6.452  1.00  0.00     0.000 C 
BRANCH  20  21
ATOM     21  C   UNL     1      37.835   1.619   5.176  1.00  0.00     0.000 C 
BRANCH  21  22
ATOM     22  C   UNL     1      38.965   0.599   5.382  1.00  0.00     0.000 C 
BRANCH  22  23
ATOM     23  C   UNL     1      40.017   1.064   6.403  1.00  0.00     0.000 C 
BRANCH  23  24
ATOM     24  C   UNL     1      41.311   1.642   5.794  1.00  0.00    -0.000 C 
BRANCH  24  25
ATOM     25  C   UNL     1      41.180   3.060   5.210  1.00  0.00    -0.000 C 
BRANCH  25  26
ATOM     26  C   UNL     1      41.010   3.067   3.684  1.00  0.00    -0.000 C 
BRANCH  26  27
ATOM     27  C   UNL     1      41.885   1.985   3.032  1.00  0.00    -0.000 C 
BRANCH  27  28
ATOM     28  C   UNL     1      41.169   1.258   1.881  1.00  0.00    -0.000 C 
BRANCH  28  29
ATOM     29  C   UNL     1      39.649   1.500   1.882  1.00  0.00    -0.000 C 
BRANCH  29  30
ATOM     30  C   UNL     1      38.863   0.363   1.202  1.00  0.00    -0.000 C 
BRANCH  30  31
ATOM     31  C   UNL     1      37.341   0.423   1.412  1.00  0.00    -0.003 C 
ATOM     32  C   UNL     1      36.808  -0.740   2.247  1.00  0.00     0.004 C 
ENDBRANCH  30  31
ENDBRANCH  29  30
ENDBRANCH  28  29
ENDBRANCH  27  28
ENDBRANCH  26  27
ENDBRANCH  25  26
ENDBRANCH  24  25
ENDBRANCH  23  24
ENDBRANCH  22  23
ENDBRANCH  21  22
ENDBRANCH  20  21
ENDBRANCH  19  20
ENDBRANCH  18  19
ENDBRANCH   1  18
TORSDOF 28
ENDMDL
MODEL 8
REMARK VINA RESULT:    -3.388     10.962     15.433
REMARK INTER + INTRA:         -13.696
REMARK INTER:                  -8.115
REMARK INTRA:                  -5.581
REMARK UNBOUND:                -4.763
REMARK SMILES CCCCCCCCCCCCCCCCCCCCCCCCCCCCCC(=O)[O-]
REMARK SMILES IDX 16 1 17 2 18 3 19 4 20 5 21 6 22 7 23 8 24 9 25 10 26 11
REMARK SMILES IDX 27 12 28 13 29 14 30 15 31 16 32 17 15 18 14 19 13 20 12 21
REMARK SMILES IDX 11 22 10 23 9 24 8 25 7 26 6 27 5 28 4 29 3 30 2 31 1 32
REMARK H PARENT
REMARK Flexibility Score: inf
ROOT
ATOM      1  C   UNL     1      37.495   2.880   7.192  1.00  0.00     0.000 C 
ENDROOT
BRANCH   1   2
ATOM      2  C   UNL     1      38.090   1.901   6.164  1.00  0.00     0.000 C 
BRANCH   2   3
ATOM      3  C   UNL     1      39.614   1.764   6.298  1.00  0.00     0.000 C 
BRANCH   3   4
ATOM      4  C   UNL     1      40.344   3.107   6.130  1.00  0.00     0.000 C 
BRANCH   4   5
ATOM      5  C   UNL     1      40.708   3.410   4.667  1.00  0.00     0.000 C 
BRANCH   5   6
ATOM      6  C   UNL     1      41.387   2.228   3.940  1.00  0.00     0.000 C 
BRANCH   6   7
ATOM      7  C   UNL     1      40.788   1.979   2.543  1.00  0.00     0.000 C 
BRANCH   7   8
ATOM      8  C   UNL     1      39.285   2.314   2.466  1.00  0.00     0.000 C 
BRANCH   8   9
ATOM      9  C   UNL     1      38.351   1.140   2.812  1.00  0.00     0.000 C 
BRANCH   9  10
ATOM     10  C   UNL     1      37.533   0.659   1.601  1.00  0.00     0.000 C 
BRANCH  10  11
ATOM     11  C   UNL     1      36.038   1.009   1.712  1.00  0.00     0.000 C 
BRANCH  11  12
ATOM     12  C   UNL     1      35.632   1.731   3.010  1.00  0.00     0.000 C 
BRANCH  12  13
ATOM     13  C   UNL     1      34.108   1.810   3.209  1.00  0.00     0.006 C 
BRANCH  13  14
ATOM     14  C   UNL     1      33.522   3.135   2.704  1.00  0.00     0.053 C 
BRANCH  14  15
ATOM     15  C   UNL     1      32.695   2.945   1.468  1.00  0.00     0.041 C 
ATOM     16  O   UNL     1      31.488   2.594   1.559  1.00  0.00    -0.550 OA
ATOM     17  O   UNL     1      33.265   3.131   0.216  1.00  0.00    -0.550 OA
ENDBRANCH  14  15
ENDBRANCH  13  14
ENDBRANCH  12  13
ENDBRANCH  11  12
ENDBRANCH  10  11
ENDBRANCH   9  10
ENDBRANCH   8   9
ENDBRANCH   7   8
ENDBRANCH   6   7
ENDBRANCH   5   6
ENDBRANCH   4   5
ENDBRANCH   3   4
ENDBRANCH   2   3
ENDBRANCH   1   2
BRANCH   1  18
ATOM     18  C   UNL     1      36.882   4.129   6.541  1.00  0.00     0.000 C 
BRANCH  18  19
ATOM     19  C   UNL     1      37.015   4.130   5.008  1.00  0.00     0.000 C 
BRANCH  19  20
ATOM     20  C   UNL     1      37.667   5.415   4.471  1.00  0.00     0.000 C 
BRANCH  20  21
ATOM     21  C   UNL     1      37.967   6.436   5.578  1.00  0.00     0.000 C 
BRANCH  21  22
ATOM     22  C   UNL     1      38.034   7.858   5.002  1.00  0.00     0.000 C 
BRANCH  22  23
ATOM     23  C   UNL     1      37.415   7.969   3.598  1.00  0.00     0.000 C 
BRANCH  23  24
ATOM     24  C   UNL     1      36.252   8.976   3.472  1.00  0.00    -0.000 C 
BRANCH  24  25
ATOM     25  C   UNL     1      34.983   8.608   4.260  1.00  0.00    -0.000 C 
BRANCH  25  26
ATOM     26  C   UNL     1      34.200   7.448   3.628  1.00  0.00    -0.000 C 
BRANCH  26  27
ATOM     27  C   UNL     1      34.081   6.271   4.608  1.00  0.00    -0.000 C 
BRANCH  27  28
ATOM     28  C   UNL     1      33.814   6.728   6.052  1.00  0.00    -0.000 C 
BRANCH  28  29
ATOM     29  C   UNL     1      33.552   5.549   7.007  1.00  0.00    -0.000 C 
BRANCH  29  30
ATOM     30  C   UNL     1      33.191   4.249   6.266  1.00  0.00    -0.000 C 
BRANCH  30  31
ATOM     31  C   UNL     1      31.868   3.603   6.713  1.00  0.00    -0.003 C 
ATOM     32  C   UNL     1      31.588   2.273   6.016  1.00  0.00     0.004 C 
ENDBRANCH  30  31
ENDBRANCH  29  30
ENDBRANCH  28  29
ENDBRANCH  27  28
ENDBRANCH  26  27
ENDBRANCH  25  26
ENDBRANCH  24  25
ENDBRANCH  23  24
ENDBRANCH  22  23
ENDBRANCH  21  22
ENDBRANCH  20  21
ENDBRANCH  19  20
ENDBRANCH  18  19
ENDBRANCH   1  18
TORSDOF 28
ENDMDL
MODEL 9
REMARK VINA RESULT:    -3.347      2.357      7.970
REMARK INTER + INTRA:         -13.588
REMARK INTER:                  -7.503
REMARK INTRA:                  -6.085
REMARK UNBOUND:                -4.763
REMARK SMILES CCCCCCCCCCCCCCCCCCCCCCCCCCCCCC(=O)[O-]
REMARK SMILES IDX 16 1 17 2 18 3 19 4 20 5 21 6 22 7 23 8 24 9 25 10 26 11
REMARK SMILES IDX 27 12 28 13 29 14 30 15 31 16 32 17 15 18 14 19 13 20 12 21
REMARK SMILES IDX 11 22 10 23 9 24 8 25 7 26 6 27 5 28 4 29 3 30 2 31 1 32
REMARK H PARENT
REMARK Flexibility Score: inf
ROOT
ATOM      1  C   UNL     1      36.589   5.122  -7.442  1.00  0.00     0.000 C 
ENDROOT
BRANCH   1   2
ATOM      2  C   UNL     1      37.975   5.344  -8.074  1.00  0.00     0.000 C 
BRANCH   2   3
ATOM      3  C   UNL     1      39.058   4.458  -7.441  1.00  0.00     0.000 C 
BRANCH   3   4
ATOM      4  C   UNL     1      39.441   3.266  -8.333  1.00  0.00     0.000 C 
BRANCH   4   5
ATOM      5  C   UNL     1      39.673   3.668  -9.799  1.00  0.00     0.000 C 
BRANCH   5   6
ATOM      6  C   UNL     1      38.814   2.870 -10.804  1.00  0.00     0.000 C 
BRANCH   6   7
ATOM      7  C   UNL     1      37.636   3.696 -11.352  1.00  0.00     0.000 C 
BRANCH   7   8
ATOM      8  C   UNL     1      36.262   3.114 -10.960  1.00  0.00     0.000 C 
BRANCH   8   9
ATOM      9  C   UNL     1      36.329   1.774 -10.206  1.00  0.00     0.000 C 
BRANCH   9  10
ATOM     10  C   UNL     1      35.622   1.828  -8.840  1.00  0.00     0.000 C 
BRANCH  10  11
ATOM     11  C   UNL     1      36.477   1.246  -7.700  1.00  0.00     0.000 C 
BRANCH  11  12
ATOM     12  C   UNL     1      37.564   0.249  -8.144  1.00  0.00     0.000 C 
BRANCH  12  13
ATOM     13  C   UNL     1      38.184  -0.533  -6.972  1.00  0.00     0.006 C 
BRANCH  13  14
ATOM     14  C   UNL     1      39.706  -0.349  -6.891  1.00  0.00     0.053 C 
BRANCH  14  15
ATOM     15  C   UNL     1      40.124   0.264  -5.588  1.00  0.00     0.041 C 
ATOM     16  O   UNL     1      40.104   1.515  -5.438  1.00  0.00    -0.550 OA
ATOM     17  O   UNL     1      40.561  -0.547  -4.549  1.00  0.00    -0.550 OA
ENDBRANCH  14  15
ENDBRANCH  13  14
ENDBRANCH  12  13
ENDBRANCH  11  12
ENDBRANCH  10  11
ENDBRANCH   9  10
ENDBRANCH   8   9
ENDBRANCH   7   8
ENDBRANCH   6   7
ENDBRANCH   5   6
ENDBRANCH   4   5
ENDBRANCH   3   4
ENDBRANCH   2   3
ENDBRANCH   1   2
BRANCH   1  18
ATOM     18  C   UNL     1      36.398   5.903  -6.133  1.00  0.00     0.000 C 
BRANCH  18  19
ATOM     19  C   UNL     1      34.978   5.765  -5.556  1.00  0.00     0.000 C 
BRANCH  19  20
ATOM     20  C   UNL     1      34.139   4.710  -6.296  1.00  0.00     0.000 C 
BRANCH  20  21
ATOM     21  C   UNL     1      32.794   5.263  -6.792  1.00  0.00     0.000 C 
BRANCH  21  22
ATOM     22  C   UNL     1      32.790   6.798  -6.752  1.00  0.00     0.000 C 
BRANCH  22  23
ATOM     23  C   UNL     1      31.425   7.406  -7.120  1.00  0.00     0.000 C 
BRANCH  23  24
ATOM     24  C   UNL     1      30.851   6.953  -8.479  1.00  0.00    -0.000 C 
BRANCH  24  25
ATOM     25  C   UNL     1      31.752   7.234  -9.694  1.00  0.00    -0.000 C 
BRANCH  25  26
ATOM     26  C   UNL     1      31.646   6.155 -10.782  1.00  0.00    -0.000 C 
BRANCH  26  27
ATOM     27  C   UNL     1      32.939   5.328 -10.859  1.00  0.00    -0.000 C 
BRANCH  27  28
ATOM     28  C   UNL     1      34.083   5.939 -10.033  1.00  0.00    -0.000 C 
BRANCH  28  29
ATOM     29  C   UNL     1      35.182   6.560 -10.914  1.00  0.00    -0.000 C 
BRANCH  29  30
ATOM     30  C   UNL     1      35.947   7.693 -10.205  1.00  0.00    -0.000 C 
BRANCH  30  31
ATOM     31  C   UNL     1      35.216   8.299  -8.994  1.00  0.00    -0.003 C 
ATOM     32  C   UNL     1      36.157   9.017  -8.029  1.00  0.00     0.004 C 
ENDBRANCH  30  31
ENDBRANCH  29  30
ENDBRANCH  28  29
ENDBRANCH  27  28
ENDBRANCH  26  27
ENDBRANCH  25  26
ENDBRANCH  24  25
ENDBRANCH  23  24
ENDBRANCH  22  23
ENDBRANCH  21  22
ENDBRANCH  20  21
ENDBRANCH  19  20
ENDBRANCH  18  19
ENDBRANCH   1  18
TORSDOF 28
ENDMDL
