MODEL 1
REMARK VINA RESULT:    -6.600      0.000      0.000
REMARK INTER + INTRA:         -13.229
REMARK INTER:                 -12.001
REMARK INTRA:                  -1.227
REMARK UNBOUND:                -1.227
REMARK SMILES CCCCCCCCCCCCCCCC(=O)[O-]
REMARK SMILES IDX 9 1 10 2 11 3 12 4 13 5 14 6 15 7 16 8 17 9 18 10 8 11 7 12
REMARK SMILES IDX 6 13 5 14 4 15 3 16 2 17 1 18
REMARK H PARENT
REMARK Flexibility Score: inf
ROOT
ATOM      1  C   UNL     1      -4.010   1.083   3.088  1.00  0.00     0.000 C 
ENDROOT
BRANCH   1   2
ATOM      2  C   UNL     1      -5.130   0.371   2.308  1.00  0.00     0.000 C 
BRANCH   2   3
ATOM      3  C   UNL     1      -6.416   0.220   3.136  1.00  0.00     0.000 C 
BRANCH   3   4
ATOM      4  C   UNL     1      -6.674  -1.237   3.560  1.00  0.00     0.000 C 
BRANCH   4   5
ATOM      5  C   UNL     1      -6.231  -1.527   5.006  1.00  0.00     0.000 C 
BRANCH   5   6
ATOM      6  C   UNL     1      -4.881  -2.253   5.140  1.00  0.00     0.006 C 
BRANCH   6   7
ATOM      7  C   UNL     1      -3.866  -1.477   5.989  1.00  0.00     0.053 C 
BRANCH   7   8
ATOM      8  C   UNL     1      -2.932  -2.420   6.680  1.00  0.00     0.041 C 
ATOM      9  O   UNL     1      -3.274  -3.614   6.885  1.00  0.00    -0.550 OA
ATOM     10  O   UNL     1      -1.702  -1.968   7.142  1.00  0.00    -0.550 OA
ENDBRANCH   7   8
ENDBRANCH   6   7
ENDBRANCH   5   6
ENDBRANCH   4   5
ENDBRANCH   3   4
ENDBRANCH   2   3
ENDBRANCH   1   2
BRANCH   1  11
ATOM     11  C   UNL     1      -4.471   2.413   3.705  1.00  0.00     0.000 C 
BRANCH  11  12
ATOM     12  C   UNL     1      -3.480   2.962   4.743  1.00  0.00    -0.000 C 
BRANCH  12  13
ATOM     13  C   UNL     1      -3.527   4.494   4.792  1.00  0.00    -0.000 C 
BRANCH  13  14
ATOM     14  C   UNL     1      -4.904   4.989   5.258  1.00  0.00    -0.000 C 
BRANCH  14  15
ATOM     15  C   UNL     1      -5.531   6.003   4.288  1.00  0.00    -0.000 C 
BRANCH  15  16
ATOM     16  C   UNL     1      -6.655   5.389   3.437  1.00  0.00    -0.000 C 
BRANCH  16  17
ATOM     17  C   UNL     1      -6.966   6.222   2.184  1.00  0.00    -0.003 C 
ATOM     18  C   UNL     1      -5.744   6.971   1.652  1.00  0.00     0.004 C 
ENDBRANCH  16  17
ENDBRANCH  15  16
ENDBRANCH  14  15
ENDBRANCH  13  14
ENDBRANCH  12  13
ENDBRANCH  11  12
ENDBRANCH   1  11
TORSDOF 14
ENDMDL
MODEL 2
REMARK VINA RESULT:    -6.568      4.100      5.326
REMARK INTER + INTRA:         -13.172
REMARK INTER:                 -12.457
REMARK INTRA:                  -0.715
REMARK UNBOUND:                -1.227
REMARK SMILES CCCCCCCCCCCCCCCC(=O)[O-]
REMARK SMILES IDX 9 1 10 2 11 3 12 4 13 5 14 6 15 7 16 8 17 9 18 10 8 11 7 12
REMARK SMILES IDX 6 13 5 14 4 15 3 16 2 17 1 18
REMARK H PARENT
REMARK Flexibility Score: inf
ROOT
ATOM      1  C   UNL     1      -4.473   1.700   3.534  1.00  0.00     0.000 C 
ENDROOT
BRANCH   1   2
ATOM      2  C   UNL     1      -4.151   0.513   2.609  1.00  0.00     0.000 C 
BRANCH   2   3
ATOM      3  C   UNL     1      -4.954   0.555   1.299  1.00  0.00     0.000 C 
BRANCH   3   4
ATOM      4  C   UNL     1      -4.200  -0.098   0.126  1.00  0.00     0.000 C 
BRANCH   4   5
ATOM      5  C   UNL     1      -4.823   0.231  -1.244  1.00  0.00     0.000 C 
BRANCH   5   6
ATOM      6  C   UNL     1      -3.824   0.313  -2.411  1.00  0.00     0.006 C 
BRANCH   6   7
ATOM      7  C   UNL     1      -3.896  -0.901  -3.347  1.00  0.00     0.053 C 
BRANCH   7   8
ATOM      8  C   UNL     1      -3.099  -2.038  -2.790  1.00  0.00     0.041 C 
ATOM      9  O   UNL     1      -1.976  -1.827  -2.263  1.00  0.00    -0.550 OA
ATOM     10  O   UNL     1      -3.576  -3.338  -2.898  1.00  0.00    -0.550 OA
ENDBRANCH   7   8
ENDBRANCH   6   7
ENDBRANCH   5   6
ENDBRANCH   4   5
ENDBRANCH   3   4
ENDBRANCH   2   3
ENDBRANCH   1   2
BRANCH   1  11
ATOM     11  C   UNL     1      -3.233   2.545   3.866  1.00  0.00     0.000 C 
BRANCH  11  12
ATOM     12  C   UNL     1      -3.407   3.379   5.144  1.00  0.00    -0.000 C 
BRANCH  12  13
ATOM     13  C   UNL     1      -3.717   4.843   4.808  1.00  0.00    -0.000 C 
BRANCH  13  14
ATOM     14  C   UNL     1      -5.211   5.147   4.991  1.00  0.00    -0.000 C 
BRANCH  14  15
ATOM     15  C   UNL     1      -5.715   6.248   4.044  1.00  0.00    -0.000 C 
BRANCH  15  16
ATOM     16  C   UNL     1      -6.958   5.820   3.247  1.00  0.00    -0.000 C 
BRANCH  16  17
ATOM     17  C   UNL     1      -6.912   6.295   1.786  1.00  0.00    -0.003 C 
ATOM     18  C   UNL     1      -5.634   7.063   1.452  1.00  0.00     0.004 C 
ENDBRANCH  16  17
ENDBRANCH  15  16
ENDBRANCH  14  15
ENDBRANCH  13  14
ENDBRANCH  12  13
ENDBRANCH  11  12
ENDBRANCH   1  11
TORSDOF 14
ENDMDL
MODEL 3
REMARK VINA RESULT:    -6.480      3.966      7.702
REMARK INTER + INTRA:         -13.011
REMARK INTER:                 -11.512
REMARK INTRA:                  -1.499
REMARK UNBOUND:                -1.227
REMARK SMILES CCCCCCCCCCCCCCCC(=O)[O-]
REMARK SMILES IDX 9 1 10 2 11 3 12 4 13 5 14 6 15 7 16 8 17 9 18 10 8 11 7 12
REMARK SMILES IDX 6 13 5 14 4 15 3 16 2 17 1 18
REMARK H PARENT
REMARK Flexibility Score: inf
ROOT
ATOM      1  C   UNL     1      -4.336   1.751   3.901  1.00  0.00     0.000 C 
ENDROOT
BRANCH   1   2
ATOM      2  C   UNL     1      -3.201   2.749   4.191  1.00  0.00     0.000 C 
BRANCH   2   3
ATOM      3  C   UNL     1      -3.267   3.314   5.619  1.00  0.00     0.000 C 
BRANCH   3   4
ATOM      4  C   UNL     1      -4.292   4.454   5.753  1.00  0.00     0.000 C 
BRANCH   4   5
ATOM      5  C   UNL     1      -4.161   5.512   4.641  1.00  0.00     0.000 C 
BRANCH   5   6
ATOM      6  C   UNL     1      -5.462   6.253   4.290  1.00  0.00     0.006 C 
BRANCH   6   7
ATOM      7  C   UNL     1      -6.383   5.441   3.370  1.00  0.00     0.053 C 
BRANCH   7   8
ATOM      8  C   UNL     1      -6.812   6.267   2.198  1.00  0.00     0.041 C 
ATOM      9  O   UNL     1      -7.949   6.097   1.685  1.00  0.00    -0.550 OA
ATOM     10  O   UNL     1      -5.936   7.189   1.640  1.00  0.00    -0.550 OA
ENDBRANCH   7   8
ENDBRANCH   6   7
ENDBRANCH   5   6
ENDBRANCH   4   5
ENDBRANCH   3   4
ENDBRANCH   2   3
ENDBRANCH   1   2
BRANCH   1  11
ATOM     11  C   UNL     1      -4.056   0.879   2.667  1.00  0.00     0.000 C 
BRANCH  11  12
ATOM     12  C   UNL     1      -5.267   0.027   2.254  1.00  0.00    -0.000 C 
BRANCH  12  13
ATOM     13  C   UNL     1      -6.378   0.102   3.310  1.00  0.00    -0.000 C 
BRANCH  13  14
ATOM     14  C   UNL     1      -6.716  -1.294   3.853  1.00  0.00    -0.000 C 
BRANCH  14  15
ATOM     15  C   UNL     1      -5.935  -1.639   5.131  1.00  0.00    -0.000 C 
BRANCH  15  16
ATOM     16  C   UNL     1      -4.648  -2.430   4.843  1.00  0.00    -0.000 C 
BRANCH  16  17
ATOM     17  C   UNL     1      -3.613  -2.301   5.971  1.00  0.00    -0.003 C 
ATOM     18  C   UNL     1      -3.503  -0.877   6.515  1.00  0.00     0.004 C 
ENDBRANCH  16  17
ENDBRANCH  15  16
ENDBRANCH  14  15
ENDBRANCH  13  14
ENDBRANCH  12  13
ENDBRANCH  11  12
ENDBRANCH   1  11
TORSDOF 14
ENDMDL
MODEL 4
REMARK VINA RESULT:    -6.346      0.990      1.929
REMARK INTER + INTRA:         -12.767
REMARK INTER:                 -11.775
REMARK INTRA:                  -0.992
REMARK UNBOUND:                -1.227
REMARK SMILES CCCCCCCCCCCCCCCC(=O)[O-]
REMARK SMILES IDX 9 1 10 2 11 3 12 4 13 5 14 6 15 7 16 8 17 9 18 10 8 11 7 12
REMARK SMILES IDX 6 13 5 14 4 15 3 16 2 17 1 18
REMARK H PARENT
REMARK Flexibility Score: inf
ROOT
ATOM      1  C   UNL     1      -3.612   2.276   4.426  1.00  0.00     0.000 C 
ENDROOT
BRANCH   1   2
ATOM      2  C   UNL     1      -4.639   1.992   3.315  1.00  0.00     0.000 C 
BRANCH   2   3
ATOM      3  C   UNL     1      -4.622   0.523   2.861  1.00  0.00     0.000 C 
BRANCH   3   4
ATOM      4  C   UNL     1      -5.931  -0.212   3.202  1.00  0.00     0.000 C 
BRANCH   4   5
ATOM      5  C   UNL     1      -5.767  -1.225   4.350  1.00  0.00     0.000 C 
BRANCH   5   6
ATOM      6  C   UNL     1      -4.333  -1.737   4.569  1.00  0.00     0.006 C 
BRANCH   6   7
ATOM      7  C   UNL     1      -3.850  -1.566   6.015  1.00  0.00     0.053 C 
BRANCH   7   8
ATOM      8  C   UNL     1      -3.036  -2.748   6.438  1.00  0.00     0.041 C 
ATOM      9  O   UNL     1      -1.789  -2.641   6.577  1.00  0.00    -0.550 OA
ATOM     10  O   UNL     1      -3.648  -3.980   6.631  1.00  0.00    -0.550 OA
ENDBRANCH   7   8
ENDBRANCH   6   7
ENDBRANCH   5   6
ENDBRANCH   4   5
ENDBRANCH   3   4
ENDBRANCH   2   3
ENDBRANCH   1   2
BRANCH   1  11
ATOM     11  C   UNL     1      -3.357   3.778   4.626  1.00  0.00     0.000 C 
BRANCH  11  12
ATOM     12  C   UNL     1      -4.564   4.511   5.231  1.00  0.00    -0.000 C 
BRANCH  12  13
ATOM     13  C   UNL     1      -4.650   5.951   4.711  1.00  0.00    -0.000 C 
BRANCH  13  14
ATOM     14  C   UNL     1      -5.984   6.198   3.991  1.00  0.00    -0.000 C 
BRANCH  14  15
ATOM     15  C   UNL     1      -5.807   6.468   2.488  1.00  0.00    -0.000 C 
BRANCH  15  16
ATOM     16  C   UNL     1      -7.125   6.347   1.706  1.00  0.00    -0.000 C 
BRANCH  16  17
ATOM     17  C   UNL     1      -8.254   5.731   2.547  1.00  0.00    -0.003 C 
ATOM     18  C   UNL     1      -9.618   5.821   1.866  1.00  0.00     0.004 C 
ENDBRANCH  16  17
ENDBRANCH  15  16
ENDBRANCH  14  15
ENDBRANCH  13  14
ENDBRANCH  12  13
ENDBRANCH  11  12
ENDBRANCH   1  11
TORSDOF 14
ENDMDL
MODEL 5
REMARK VINA RESULT:    -6.262      1.872      2.466
REMARK INTER + INTRA:         -12.615
REMARK INTER:                 -11.424
REMARK INTRA:                  -1.191
REMARK UNBOUND:                -1.227
REMARK SMILES CCCCCCCCCCCCCCCC(=O)[O-]
REMARK SMILES IDX 9 1 10 2 11 3 12 4 13 5 14 6 15 7 16 8 17 9 18 10 8 11 7 12
REMARK SMILES IDX 6 13 5 14 4 15 3 16 2 17 1 18
REMARK H PARENT
REMARK Flexibility Score: inf
ROOT
ATOM      1  C   UNL     1      -4.079   0.629   3.247  1.00  0.00     0.000 C 
ENDROOT
BRANCH   1   2
ATOM      2  C   UNL     1      -5.391  -0.172   3.320  1.00  0.00     0.000 C 
BRANCH   2   3
ATOM      3  C   UNL     1      -5.390  -1.196   4.466  1.00  0.00     0.000 C 
BRANCH   3   4
ATOM      4  C   UNL     1      -3.992  -1.785   4.728  1.00  0.00     0.000 C 
BRANCH   4   5
ATOM      5  C   UNL     1      -3.600  -1.760   6.217  1.00  0.00     0.000 C 
BRANCH   5   6
ATOM      6  C   UNL     1      -3.276  -0.367   6.782  1.00  0.00     0.006 C 
BRANCH   6   7
ATOM      7  C   UNL     1      -2.137  -0.389   7.811  1.00  0.00     0.053 C 
BRANCH   7   8
ATOM      8  C   UNL     1      -2.095   0.899   8.571  1.00  0.00     0.041 C 
ATOM      9  O   UNL     1      -2.060   1.997   7.955  1.00  0.00    -0.550 OA
ATOM     10  O   UNL     1      -2.043   0.887   9.959  1.00  0.00    -0.550 OA
ENDBRANCH   7   8
ENDBRANCH   6   7
ENDBRANCH   5   6
ENDBRANCH   4   5
ENDBRANCH   3   4
ENDBRANCH   2   3
ENDBRANCH   1   2
BRANCH   1  11
ATOM     11  C   UNL     1      -4.271   2.112   3.602  1.00  0.00     0.000 C 
BRANCH  11  12
ATOM     12  C   UNL     1      -3.393   2.560   4.781  1.00  0.00    -0.000 C 
BRANCH  12  13
ATOM     13  C   UNL     1      -3.190   4.080   4.771  1.00  0.00    -0.000 C 
BRANCH  13  14
ATOM     14  C   UNL     1      -4.407   4.802   5.367  1.00  0.00    -0.000 C 
BRANCH  14  15
ATOM     15  C   UNL     1      -4.790   6.068   4.584  1.00  0.00    -0.000 C 
BRANCH  15  16
ATOM     16  C   UNL     1      -6.287   6.118   4.236  1.00  0.00    -0.000 C 
BRANCH  16  17
ATOM     17  C   UNL     1      -6.564   5.737   2.773  1.00  0.00    -0.003 C 
ATOM     18  C   UNL     1      -6.098   6.804   1.784  1.00  0.00     0.004 C 
ENDBRANCH  16  17
ENDBRANCH  15  16
ENDBRANCH  14  15
ENDBRANCH  13  14
ENDBRANCH  12  13
ENDBRANCH  11  12
ENDBRANCH   1  11
TORSDOF 14
ENDMDL
MODEL 6
REMARK VINA RESULT:    -6.259      4.136      8.040
REMARK INTER + INTRA:         -12.609
REMARK INTER:                 -11.537
REMARK INTRA:                  -1.072
REMARK UNBOUND:                -1.227
REMARK SMILES CCCCCCCCCCCCCCCC(=O)[O-]
REMARK SMILES IDX 9 1 10 2 11 3 12 4 13 5 14 6 15 7 16 8 17 9 18 10 8 11 7 12
REMARK SMILES IDX 6 13 5 14 4 15 3 16 2 17 1 18
REMARK H PARENT
REMARK Flexibility Score: inf
ROOT
ATOM      1  C   UNL     1      -3.221   3.575   4.786  1.00  0.00     0.000 C 
ENDROOT
BRANCH   1   2
ATOM      2  C   UNL     1      -4.474   4.468   4.805  1.00  0.00     0.000 C 
BRANCH   2   3
ATOM      3  C   UNL     1      -4.157   5.932   4.460  1.00  0.00     0.000 C 
BRANCH   3   4
ATOM      4  C   UNL     1      -5.411   6.722   4.043  1.00  0.00     0.000 C 
BRANCH   4   5
ATOM      5  C   UNL     1      -5.593   6.797   2.516  1.00  0.00     0.000 C 
BRANCH   5   6
ATOM      6  C   UNL     1      -6.875   6.137   1.979  1.00  0.00     0.006 C 
BRANCH   6   7
ATOM      7  C   UNL     1      -7.909   5.857   3.077  1.00  0.00     0.053 C 
BRANCH   7   8
ATOM      8  C   UNL     1      -9.238   5.529   2.473  1.00  0.00     0.041 C 
ATOM      9  O   UNL     1     -10.054   4.800   3.095  1.00  0.00    -0.550 OA
ATOM     10  O   UNL     1      -9.555   5.988   1.200  1.00  0.00    -0.550 OA
ENDBRANCH   7   8
ENDBRANCH   6   7
ENDBRANCH   5   6
ENDBRANCH   4   5
ENDBRANCH   3   4
ENDBRANCH   2   3
ENDBRANCH   1   2
BRANCH   1  11
ATOM     11  C   UNL     1      -3.554   2.092   4.557  1.00  0.00     0.000 C 
BRANCH  11  12
ATOM     12  C   UNL     1      -4.513   1.875   3.377  1.00  0.00    -0.000 C 
BRANCH  12  13
ATOM     13  C   UNL     1      -4.352   0.467   2.789  1.00  0.00    -0.000 C 
BRANCH  13  14
ATOM     14  C   UNL     1      -5.655  -0.336   2.917  1.00  0.00    -0.000 C 
BRANCH  14  15
ATOM     15  C   UNL     1      -5.739  -1.129   4.231  1.00  0.00    -0.000 C 
BRANCH  15  16
ATOM     16  C   UNL     1      -4.431  -1.869   4.559  1.00  0.00    -0.000 C 
BRANCH  16  17
ATOM     17  C   UNL     1      -3.851  -1.462   5.922  1.00  0.00    -0.003 C 
ATOM     18  C   UNL     1      -2.882  -2.500   6.488  1.00  0.00     0.004 C 
ENDBRANCH  16  17
ENDBRANCH  15  16
ENDBRANCH  14  15
ENDBRANCH  13  14
ENDBRANCH  12  13
ENDBRANCH  11  12
ENDBRANCH   1  11
TORSDOF 14
ENDMDL
MODEL 7
REMARK VINA RESULT:    -6.242      1.934      3.853
REMARK INTER + INTRA:         -12.578
REMARK INTER:                 -11.484
REMARK INTRA:                  -1.094
REMARK UNBOUND:                -1.227
REMARK SMILES CCCCCCCCCCCCCCCC(=O)[O-]
REMARK SMILES IDX 9 1 10 2 11 3 12 4 13 5 14 6 15 7 16 8 17 9 18 10 8 11 7 12
REMARK SMILES IDX 6 13 5 14 4 15 3 16 2 17 1 18
REMARK H PARENT
REMARK Flexibility Score: inf
ROOT
ATOM      1  C   UNL     1      -3.631   5.433   4.622  1.00  0.00     0.000 C 
ENDROOT
BRANCH   1   2
ATOM      2  C   UNL     1      -2.767   4.159   4.652  1.00  0.00     0.000 C 
BRANCH   2   3
ATOM      3  C   UNL     1      -3.594   2.896   4.940  1.00  0.00     0.000 C 
BRANCH   3   4
ATOM      4  C   UNL     1      -3.531   1.877   3.787  1.00  0.00     0.000 C 
BRANCH   4   5
ATOM      5  C   UNL     1      -4.911   1.591   3.165  1.00  0.00     0.000 C 
BRANCH   5   6
ATOM      6  C   UNL     1      -5.319   0.107   3.140  1.00  0.00     0.006 C 
BRANCH   6   7
ATOM      7  C   UNL     1      -4.414  -0.777   4.008  1.00  0.00     0.053 C 
BRANCH   7   8
ATOM      8  C   UNL     1      -5.237  -1.704   4.846  1.00  0.00     0.041 C 
ATOM      9  O   UNL     1      -6.480  -1.530   4.949  1.00  0.00    -0.550 OA
ATOM     10  O   UNL     1      -4.625  -2.731   5.552  1.00  0.00    -0.550 OA
ENDBRANCH   7   8
ENDBRANCH   6   7
ENDBRANCH   5   6
ENDBRANCH   4   5
ENDBRANCH   3   4
ENDBRANCH   2   3
ENDBRANCH   1   2
BRANCH   1  11
ATOM     11  C   UNL     1      -5.062   5.189   5.128  1.00  0.00     0.000 C 
BRANCH  11  12
ATOM     12  C   UNL     1      -6.123   5.902   4.276  1.00  0.00    -0.000 C 
BRANCH  12  13
ATOM     13  C   UNL     1      -5.530   6.380   2.944  1.00  0.00    -0.000 C 
BRANCH  13  14
ATOM     14  C   UNL     1      -6.618   6.500   1.868  1.00  0.00    -0.000 C 
BRANCH  14  15
ATOM     15  C   UNL     1      -7.967   5.916   2.318  1.00  0.00    -0.000 C 
BRANCH  15  16
ATOM     16  C   UNL     1      -9.020   5.928   1.198  1.00  0.00    -0.000 C 
BRANCH  16  17
ATOM     17  C   UNL     1     -10.456   5.988   1.741  1.00  0.00    -0.003 C 
ATOM     18  C   UNL     1     -10.534   5.713   3.242  1.00  0.00     0.004 C 
ENDBRANCH  16  17
ENDBRANCH  15  16
ENDBRANCH  14  15
ENDBRANCH  13  14
ENDBRANCH  12  13
ENDBRANCH  11  12
ENDBRANCH   1  11
TORSDOF 14
ENDMDL
MODEL 8
REMARK VINA RESULT:    -6.173      1.344      1.791
REMARK INTER + INTRA:         -12.453
REMARK INTER:                 -11.548
REMARK INTRA:                  -0.905
REMARK UNBOUND:                -1.227
REMARK SMILES CCCCCCCCCCCCCCCC(=O)[O-]
REMARK SMILES IDX 9 1 10 2 11 3 12 4 13 5 14 6 15 7 16 8 17 9 18 10 8 11 7 12
REMARK SMILES IDX 6 13 5 14 4 15 3 16 2 17 1 18
REMARK H PARENT
REMARK Flexibility Score: inf
ROOT
ATOM      1  C   UNL     1      -4.503   2.197   3.728  1.00  0.00     0.000 C 
ENDROOT
BRANCH   1   2
ATOM      2  C   UNL     1      -4.423   0.911   2.885  1.00  0.00     0.000 C 
BRANCH   2   3
ATOM      3  C   UNL     1      -5.003  -0.309   3.620  1.00  0.00     0.000 C 
BRANCH   3   4
ATOM      4  C   UNL     1      -3.909  -1.186   4.255  1.00  0.00     0.000 C 
BRANCH   4   5
ATOM      5  C   UNL     1      -4.200  -1.532   5.728  1.00  0.00     0.000 C 
BRANCH   5   6
ATOM      6  C   UNL     1      -3.187  -2.486   6.385  1.00  0.00     0.006 C 
BRANCH   6   7
ATOM      7  C   UNL     1      -3.737  -3.905   6.574  1.00  0.00     0.053 C 
BRANCH   7   8
ATOM      8  C   UNL     1      -2.841  -4.698   7.473  1.00  0.00     0.041 C 
ATOM      9  O   UNL     1      -2.069  -5.568   6.991  1.00  0.00    -0.550 OA
ATOM     10  O   UNL     1      -2.894  -4.510   8.848  1.00  0.00    -0.550 OA
ENDBRANCH   7   8
ENDBRANCH   6   7
ENDBRANCH   5   6
ENDBRANCH   4   5
ENDBRANCH   3   4
ENDBRANCH   2   3
ENDBRANCH   1   2
BRANCH   1  11
ATOM     11  C   UNL     1      -3.137   2.619   4.293  1.00  0.00     0.000 C 
BRANCH  11  12
ATOM     12  C   UNL     1      -3.257   3.439   5.587  1.00  0.00    -0.000 C 
BRANCH  12  13
ATOM     13  C   UNL     1      -4.406   4.451   5.492  1.00  0.00    -0.000 C 
BRANCH  13  14
ATOM     14  C   UNL     1      -3.994   5.675   4.661  1.00  0.00    -0.000 C 
BRANCH  14  15
ATOM     15  C   UNL     1      -5.200   6.458   4.118  1.00  0.00    -0.000 C 
BRANCH  15  16
ATOM     16  C   UNL     1      -6.218   5.555   3.402  1.00  0.00    -0.000 C 
BRANCH  16  17
ATOM     17  C   UNL     1      -6.900   6.259   2.219  1.00  0.00    -0.003 C 
ATOM     18  C   UNL     1      -5.906   6.948   1.286  1.00  0.00     0.004 C 
ENDBRANCH  16  17
ENDBRANCH  15  16
ENDBRANCH  14  15
ENDBRANCH  13  14
ENDBRANCH  12  13
ENDBRANCH  11  12
ENDBRANCH   1  11
TORSDOF 14
ENDMDL
MODEL 9
REMARK VINA RESULT:    -6.047      2.615      3.974
REMARK INTER + INTRA:         -12.224
REMARK INTER:                 -11.262
REMARK INTRA:                  -0.962
REMARK UNBOUND:                -1.227
REMARK SMILES CCCCCCCCCCCCCCCC(=O)[O-]
REMARK SMILES IDX 9 1 10 2 11 3 12 4 13 5 14 6 15 7 16 8 17 9 18 10 8 11 7 12
REMARK SMILES IDX 6 13 5 14 4 15 3 16 2 17 1 18
REMARK H PARENT
REMARK Flexibility Score: inf
ROOT
ATOM      1  C   UNL     1      -2.497   1.397   8.491  1.00  0.00     0.000 C 
ENDROOT
BRANCH   1   2
ATOM      2  C   UNL     1      -2.826   0.316   7.446  1.00  0.00     0.000 C 
BRANCH   2   3
ATOM      3  C   UNL     1      -2.035  -0.982   7.675  1.00  0.00     0.000 C 
BRANCH   3   4
ATOM      4  C   UNL     1      -2.523  -2.134   6.778  1.00  0.00     0.000 C 
BRANCH   4   5
ATOM      5  C   UNL     1      -3.890  -1.849   6.128  1.00  0.00     0.000 C 
BRANCH   5   6
ATOM      6  C   UNL     1      -3.855  -1.627   4.607  1.00  0.00     0.006 C 
BRANCH   6   7
ATOM      7  C   UNL     1      -5.104  -0.908   4.078  1.00  0.00     0.053 C 
BRANCH   7   8
ATOM      8  C   UNL     1      -4.716   0.198   3.148  1.00  0.00     0.041 C 
ATOM      9  O   UNL     1      -4.058   1.183   3.574  1.00  0.00    -0.550 OA
ATOM     10  O   UNL     1      -5.124   0.164   1.820  1.00  0.00    -0.550 OA
ENDBRANCH   7   8
ENDBRANCH   6   7
ENDBRANCH   5   6
ENDBRANCH   4   5
ENDBRANCH   3   4
ENDBRANCH   2   3
ENDBRANCH   1   2
BRANCH   1  11
ATOM     11  C   UNL     1      -2.838   2.814   8.003  1.00  0.00     0.000 C 
BRANCH  11  12
ATOM     12  C   UNL     1      -2.879   2.922   6.471  1.00  0.00    -0.000 C 
BRANCH  12  13
ATOM     13  C   UNL     1      -3.879   3.994   6.021  1.00  0.00    -0.000 C 
BRANCH  13  14
ATOM     14  C   UNL     1      -3.347   4.770   4.807  1.00  0.00    -0.000 C 
BRANCH  14  15
ATOM     15  C   UNL     1      -4.265   5.931   4.395  1.00  0.00    -0.000 C 
BRANCH  15  16
ATOM     16  C   UNL     1      -5.749   5.638   4.669  1.00  0.00    -0.000 C 
BRANCH  16  17
ATOM     17  C   UNL     1      -6.648   5.983   3.472  1.00  0.00    -0.003 C 
ATOM     18  C   UNL     1      -5.898   6.712   2.358  1.00  0.00     0.004 C 
ENDBRANCH  16  17
ENDBRANCH  15  16
ENDBRANCH  14  15
ENDBRANCH  13  14
ENDBRANCH  12  13
ENDBRANCH  11  12
ENDBRANCH   1  11
TORSDOF 14
ENDMDL
