MODEL 1
REMARK VINA RESULT:    -4.773      0.000      0.000
REMARK INTER + INTRA:         -13.077
REMARK INTER:                 -10.354
REMARK INTRA:                  -2.723
REMARK UNBOUND:                -2.723
REMARK SMILES CCCCCCCCCCCCCCCCCCCCCC(=O)[O-]
REMARK SMILES IDX 12 1 11 2 10 3 9 4 8 5 7 6 6 7 5 8 4 9 3 10 2 11 1 12 13 13
REMARK SMILES IDX 14 14 15 15 16 16 17 17 18 18 19 19 20 20 21 21 22 22 23 23
REMARK SMILES IDX 24 24
REMARK H PARENT
REMARK Flexibility Score: inf
ROOT
ATOM      1  C   UNL     1     -25.969 -14.639  17.433  1.00  0.00     0.000 C 
ENDROOT
BRANCH   1   2
ATOM      2  C   UNL     1     -27.364 -15.084  17.906  1.00  0.00     0.000 C 
BRANCH   2   3
ATOM      3  C   UNL     1     -28.066 -16.016  16.903  1.00  0.00     0.000 C 
BRANCH   3   4
ATOM      4  C   UNL     1     -27.497 -17.444  16.921  1.00  0.00    -0.000 C 
BRANCH   4   5
ATOM      5  C   UNL     1     -28.507 -18.496  16.420  1.00  0.00    -0.000 C 
BRANCH   5   6
ATOM      6  C   UNL     1     -29.858 -17.928  15.947  1.00  0.00    -0.000 C 
BRANCH   6   7
ATOM      7  C   UNL     1     -30.152 -18.234  14.470  1.00  0.00    -0.000 C 
BRANCH   7   8
ATOM      8  C   UNL     1     -29.933 -16.991  13.595  1.00  0.00    -0.000 C 
BRANCH   8   9
ATOM      9  C   UNL     1     -29.019 -17.271  12.391  1.00  0.00    -0.000 C 
BRANCH   9  10
ATOM     10  C   UNL     1     -28.140 -18.517  12.598  1.00  0.00    -0.000 C 
BRANCH  10  11
ATOM     11  C   UNL     1     -27.310 -18.862  11.350  1.00  0.00    -0.003 C 
ATOM     12  C   UNL     1     -27.820 -18.163  10.091  1.00  0.00     0.004 C 
ENDBRANCH  10  11
ENDBRANCH   9  10
ENDBRANCH   8   9
ENDBRANCH   7   8
ENDBRANCH   6   7
ENDBRANCH   5   6
ENDBRANCH   4   5
ENDBRANCH   3   4
ENDBRANCH   2   3
ENDBRANCH   1   2
BRANCH   1  13
ATOM     13  C   UNL     1     -25.521 -13.312  18.071  1.00  0.00     0.000 C 
BRANCH  13  14
ATOM     14  C   UNL     1     -25.461 -12.105  17.110  1.00  0.00     0.000 C 
BRANCH  14  15
ATOM     15  C   UNL     1     -26.827 -11.565  16.646  1.00  0.00     0.000 C 
BRANCH  15  16
ATOM     16  C   UNL     1     -27.753 -11.203  17.818  1.00  0.00     0.000 C 
BRANCH  16  17
ATOM     17  C   UNL     1     -29.243 -11.258  17.440  1.00  0.00     0.000 C 
BRANCH  17  18
ATOM     18  C   UNL     1     -29.589 -12.395  16.455  1.00  0.00     0.000 C 
BRANCH  18  19
ATOM     19  C   UNL     1     -30.684 -13.325  17.008  1.00  0.00     0.000 C 
BRANCH  19  20
ATOM     20  C   UNL     1     -31.140 -14.379  15.986  1.00  0.00     0.006 C 
BRANCH  20  21
ATOM     21  C   UNL     1     -32.483 -15.020  16.356  1.00  0.00     0.053 C 
BRANCH  21  22
ATOM     22  C   UNL     1     -33.568 -13.990  16.368  1.00  0.00     0.041 C 
ATOM     23  O   UNL     1     -34.023 -13.535  15.285  1.00  0.00    -0.550 OA
ATOM     24  O   UNL     1     -34.107 -13.560  17.575  1.00  0.00    -0.550 OA
ENDBRANCH  21  22
ENDBRANCH  20  21
ENDBRANCH  19  20
ENDBRANCH  18  19
ENDBRANCH  17  18
ENDBRANCH  16  17
ENDBRANCH  15  16
ENDBRANCH  14  15
ENDBRANCH  13  14
ENDBRANCH   1  13
TORSDOF 20
ENDMDL
MODEL 2
REMARK VINA RESULT:    -4.666      3.080      6.694
REMARK INTER + INTRA:         -12.845
REMARK INTER:                  -9.834
REMARK INTRA:                  -3.010
REMARK UNBOUND:                -2.723
REMARK SMILES CCCCCCCCCCCCCCCCCCCCCC(=O)[O-]
REMARK SMILES IDX 12 1 11 2 10 3 9 4 8 5 7 6 6 7 5 8 4 9 3 10 2 11 1 12 13 13
REMARK SMILES IDX 14 14 15 15 16 16 17 17 18 18 19 19 20 20 21 21 22 22 23 23
REMARK SMILES IDX 24 24
REMARK H PARENT
REMARK Flexibility Score: inf
ROOT
ATOM      1  C   UNL     1     -26.279 -14.940  17.380  1.00  0.00     0.000 C 
ENDROOT
BRANCH   1   2
ATOM      2  C   UNL     1     -25.925 -13.592  18.036  1.00  0.00     0.000 C 
BRANCH   2   3
ATOM      3  C   UNL     1     -25.451 -12.540  17.019  1.00  0.00     0.000 C 
BRANCH   3   4
ATOM      4  C   UNL     1     -26.450 -11.383  16.851  1.00  0.00    -0.000 C 
BRANCH   4   5
ATOM      5  C   UNL     1     -27.691 -11.530  17.753  1.00  0.00    -0.000 C 
BRANCH   5   6
ATOM      6  C   UNL     1     -29.041 -11.320  17.043  1.00  0.00    -0.000 C 
BRANCH   6   7
ATOM      7  C   UNL     1     -29.733 -12.639  16.670  1.00  0.00    -0.000 C 
BRANCH   7   8
ATOM      8  C   UNL     1     -30.693 -13.092  17.781  1.00  0.00    -0.000 C 
BRANCH   8   9
ATOM      9  C   UNL     1     -31.701 -14.146  17.295  1.00  0.00    -0.000 C 
BRANCH   9  10
ATOM     10  C   UNL     1     -31.663 -14.337  15.768  1.00  0.00    -0.000 C 
BRANCH  10  11
ATOM     11  C   UNL     1     -32.946 -14.986  15.225  1.00  0.00    -0.003 C 
ATOM     12  C   UNL     1     -33.899 -15.427  16.336  1.00  0.00     0.004 C 
ENDBRANCH  10  11
ENDBRANCH   9  10
ENDBRANCH   8   9
ENDBRANCH   7   8
ENDBRANCH   6   7
ENDBRANCH   5   6
ENDBRANCH   4   5
ENDBRANCH   3   4
ENDBRANCH   2   3
ENDBRANCH   1   2
BRANCH   1  13
ATOM     13  C   UNL     1     -27.475 -15.633  18.055  1.00  0.00     0.000 C 
BRANCH  13  14
ATOM     14  C   UNL     1     -28.536 -16.206  17.092  1.00  0.00     0.000 C 
BRANCH  14  15
ATOM     15  C   UNL     1     -29.521 -17.209  17.719  1.00  0.00     0.000 C 
BRANCH  15  16
ATOM     16  C   UNL     1     -30.654 -17.609  16.760  1.00  0.00     0.000 C 
BRANCH  16  17
ATOM     17  C   UNL     1     -30.163 -18.468  15.581  1.00  0.00     0.000 C 
BRANCH  17  18
ATOM     18  C   UNL     1     -30.685 -17.991  14.209  1.00  0.00     0.000 C 
BRANCH  18  19
ATOM     19  C   UNL     1     -29.833 -16.846  13.633  1.00  0.00     0.000 C 
BRANCH  19  20
ATOM     20  C   UNL     1     -28.534 -17.344  12.980  1.00  0.00     0.006 C 
BRANCH  20  21
ATOM     21  C   UNL     1     -28.577 -17.272  11.448  1.00  0.00     0.053 C 
BRANCH  21  22
ATOM     22  C   UNL     1     -27.721 -18.344  10.850  1.00  0.00     0.041 C 
ATOM     23  O   UNL     1     -26.970 -19.039  11.585  1.00  0.00    -0.550 OA
ATOM     24  O   UNL     1     -27.783 -18.605   9.486  1.00  0.00    -0.550 OA
ENDBRANCH  21  22
ENDBRANCH  20  21
ENDBRANCH  19  20
ENDBRANCH  18  19
ENDBRANCH  17  18
ENDBRANCH  16  17
ENDBRANCH  15  16
ENDBRANCH  14  15
ENDBRANCH  13  14
ENDBRANCH   1  13
TORSDOF 20
ENDMDL
MODEL 3
REMARK VINA RESULT:    -4.648      1.117      2.177
REMARK INTER + INTRA:         -12.805
REMARK INTER:                  -9.807
REMARK INTRA:                  -2.998
REMARK UNBOUND:                -2.723
REMARK SMILES CCCCCCCCCCCCCCCCCCCCCC(=O)[O-]
REMARK SMILES IDX 12 1 11 2 10 3 9 4 8 5 7 6 6 7 5 8 4 9 3 10 2 11 1 12 13 13
REMARK SMILES IDX 14 14 15 15 16 16 17 17 18 18 19 19 20 20 21 21 22 22 23 23
REMARK SMILES IDX 24 24
REMARK H PARENT
REMARK Flexibility Score: inf
ROOT
ATOM      1  C   UNL     1     -25.877 -14.799  17.459  1.00  0.00     0.000 C 
ENDROOT
BRANCH   1   2
ATOM      2  C   UNL     1     -27.160 -15.533  17.887  1.00  0.00     0.000 C 
BRANCH   2   3
ATOM      3  C   UNL     1     -27.493 -16.733  16.982  1.00  0.00     0.000 C 
BRANCH   3   4
ATOM      4  C   UNL     1     -26.257 -17.585  16.649  1.00  0.00    -0.000 C 
BRANCH   4   5
ATOM      5  C   UNL     1     -26.597 -18.820  15.793  1.00  0.00    -0.000 C 
BRANCH   5   6
ATOM      6  C   UNL     1     -26.358 -18.651  14.281  1.00  0.00    -0.000 C 
BRANCH   6   7
ATOM      7  C   UNL     1     -26.893 -19.830  13.454  1.00  0.00    -0.000 C 
BRANCH   7   8
ATOM      8  C   UNL     1     -27.733 -19.334  12.267  1.00  0.00    -0.000 C 
BRANCH   8   9
ATOM      9  C   UNL     1     -27.882 -17.804  12.248  1.00  0.00    -0.000 C 
BRANCH   9  10
ATOM     10  C   UNL     1     -29.333 -17.351  12.485  1.00  0.00    -0.000 C 
BRANCH  10  11
ATOM     11  C   UNL     1     -29.588 -16.939  13.944  1.00  0.00    -0.003 C 
ATOM     12  C   UNL     1     -30.246 -18.049  14.763  1.00  0.00     0.004 C 
ENDBRANCH  10  11
ENDBRANCH   9  10
ENDBRANCH   8   9
ENDBRANCH   7   8
ENDBRANCH   6   7
ENDBRANCH   5   6
ENDBRANCH   4   5
ENDBRANCH   3   4
ENDBRANCH   2   3
ENDBRANCH   1   2
BRANCH   1  13
ATOM     13  C   UNL     1     -25.778 -13.382  18.051  1.00  0.00     0.000 C 
BRANCH  13  14
ATOM     14  C   UNL     1     -25.594 -12.248  17.020  1.00  0.00     0.000 C 
BRANCH  14  15
ATOM     15  C   UNL     1     -26.824 -11.346  16.808  1.00  0.00     0.000 C 
BRANCH  15  16
ATOM     16  C   UNL     1     -28.034 -11.781  17.651  1.00  0.00     0.000 C 
BRANCH  16  17
ATOM     17  C   UNL     1     -29.334 -11.858  16.833  1.00  0.00     0.000 C 
BRANCH  17  18
ATOM     18  C   UNL     1     -29.670 -13.281  16.338  1.00  0.00     0.000 C 
BRANCH  18  19
ATOM     19  C   UNL     1     -30.400 -14.108  17.409  1.00  0.00     0.000 C 
BRANCH  19  20
ATOM     20  C   UNL     1     -31.452 -15.058  16.812  1.00  0.00     0.006 C 
BRANCH  20  21
ATOM     21  C   UNL     1     -32.051 -14.530  15.502  1.00  0.00     0.053 C 
BRANCH  21  22
ATOM     22  C   UNL     1     -33.545 -14.573  15.556  1.00  0.00     0.041 C 
ATOM     23  O   UNL     1     -34.196 -13.554  15.910  1.00  0.00    -0.550 OA
ATOM     24  O   UNL     1     -34.223 -15.726  15.177  1.00  0.00    -0.550 OA
ENDBRANCH  21  22
ENDBRANCH  20  21
ENDBRANCH  19  20
ENDBRANCH  18  19
ENDBRANCH  17  18
ENDBRANCH  16  17
ENDBRANCH  15  16
ENDBRANCH  14  15
ENDBRANCH  13  14
ENDBRANCH   1  13
TORSDOF 20
ENDMDL
MODEL 4
REMARK VINA RESULT:    -4.623      1.045      2.290
REMARK INTER + INTRA:         -12.751
REMARK INTER:                 -10.064
REMARK INTRA:                  -2.688
REMARK UNBOUND:                -2.723
REMARK SMILES CCCCCCCCCCCCCCCCCCCCCC(=O)[O-]
REMARK SMILES IDX 12 1 11 2 10 3 9 4 8 5 7 6 6 7 5 8 4 9 3 10 2 11 1 12 13 13
REMARK SMILES IDX 14 14 15 15 16 16 17 17 18 18 19 19 20 20 21 21 22 22 23 23
REMARK SMILES IDX 24 24
REMARK H PARENT
REMARK Flexibility Score: inf
ROOT
ATOM      1  C   UNL     1     -28.079 -16.121  16.991  1.00  0.00     0.000 C 
ENDROOT
BRANCH   1   2
ATOM      2  C   UNL     1     -28.782 -17.405  17.467  1.00  0.00     0.000 C 
BRANCH   2   3
ATOM      3  C   UNL     1     -30.173 -17.137  18.068  1.00  0.00     0.000 C 
BRANCH   3   4
ATOM      4  C   UNL     1     -31.317 -17.587  17.144  1.00  0.00    -0.000 C 
BRANCH   4   5
ATOM      5  C   UNL     1     -30.821 -18.039  15.757  1.00  0.00    -0.000 C 
BRANCH   5   6
ATOM      6  C   UNL     1     -31.274 -17.153  14.582  1.00  0.00    -0.000 C 
BRANCH   6   7
ATOM      7  C   UNL     1     -30.510 -17.446  13.282  1.00  0.00    -0.000 C 
BRANCH   7   8
ATOM      8  C   UNL     1     -28.992 -17.399  13.512  1.00  0.00    -0.000 C 
BRANCH   8   9
ATOM      9  C   UNL     1     -28.210 -18.186  12.447  1.00  0.00    -0.000 C 
BRANCH   9  10
ATOM     10  C   UNL     1     -28.299 -17.538  11.054  1.00  0.00    -0.000 C 
BRANCH  10  11
ATOM     11  C   UNL     1     -27.668 -18.413   9.959  1.00  0.00    -0.003 C 
ATOM     12  C   UNL     1     -27.242 -19.787  10.475  1.00  0.00     0.004 C 
ENDBRANCH  10  11
ENDBRANCH   9  10
ENDBRANCH   8   9
ENDBRANCH   7   8
ENDBRANCH   6   7
ENDBRANCH   5   6
ENDBRANCH   4   5
ENDBRANCH   3   4
ENDBRANCH   2   3
ENDBRANCH   1   2
BRANCH   1  13
ATOM     13  C   UNL     1     -27.245 -15.455  18.099  1.00  0.00     0.000 C 
BRANCH  13  14
ATOM     14  C   UNL     1     -25.946 -14.769  17.626  1.00  0.00     0.000 C 
BRANCH  14  15
ATOM     15  C   UNL     1     -25.753 -13.320  18.107  1.00  0.00     0.000 C 
BRANCH  15  16
ATOM     16  C   UNL     1     -25.732 -12.306  16.952  1.00  0.00     0.000 C 
BRANCH  16  17
ATOM     17  C   UNL     1     -26.794 -11.204  17.105  1.00  0.00     0.000 C 
BRANCH  17  18
ATOM     18  C   UNL     1     -28.064 -11.668  17.849  1.00  0.00     0.000 C 
BRANCH  18  19
ATOM     19  C   UNL     1     -29.221 -11.972  16.881  1.00  0.00     0.000 C 
BRANCH  19  20
ATOM     20  C   UNL     1     -30.157 -13.075  17.402  1.00  0.00     0.006 C 
BRANCH  20  21
ATOM     21  C   UNL     1     -30.860 -13.837  16.271  1.00  0.00     0.053 C 
BRANCH  21  22
ATOM     22  C   UNL     1     -32.323 -13.964  16.558  1.00  0.00     0.041 C 
ATOM     23  O   UNL     1     -32.720 -14.211  17.727  1.00  0.00    -0.550 OA
ATOM     24  O   UNL     1     -33.251 -13.770  15.541  1.00  0.00    -0.550 OA
ENDBRANCH  21  22
ENDBRANCH  20  21
ENDBRANCH  19  20
ENDBRANCH  18  19
ENDBRANCH  17  18
ENDBRANCH  16  17
ENDBRANCH  15  16
ENDBRANCH  14  15
ENDBRANCH  13  14
ENDBRANCH   1  13
TORSDOF 20
ENDMDL
MODEL 5
REMARK VINA RESULT:    -4.604      3.060      6.143
REMARK INTER + INTRA:         -12.710
REMARK INTER:                 -10.020
REMARK INTRA:                  -2.690
REMARK UNBOUND:                -2.723
REMARK SMILES CCCCCCCCCCCCCCCCCCCCCC(=O)[O-]
REMARK SMILES IDX 12 1 11 2 10 3 9 4 8 5 7 6 6 7 5 8 4 9 3 10 2 11 1 12 13 13
REMARK SMILES IDX 14 14 15 15 16 16 17 17 18 18 19 19 20 20 21 21 22 22 23 23
REMARK SMILES IDX 24 24
REMARK H PARENT
REMARK Flexibility Score: inf
ROOT
ATOM      1  C   UNL     1     -25.489 -11.986  17.199  1.00  0.00     0.000 C 
ENDROOT
BRANCH   1   2
ATOM      2  C   UNL     1     -26.913 -11.720  16.679  1.00  0.00     0.000 C 
BRANCH   2   3
ATOM      3  C   UNL     1     -27.623 -10.585  17.438  1.00  0.00     0.000 C 
BRANCH   3   4
ATOM      4  C   UNL     1     -29.152 -10.749  17.456  1.00  0.00    -0.000 C 
BRANCH   4   5
ATOM      5  C   UNL     1     -29.617 -12.091  16.859  1.00  0.00    -0.000 C 
BRANCH   5   6
ATOM      6  C   UNL     1     -30.603 -12.886  17.733  1.00  0.00    -0.000 C 
BRANCH   6   7
ATOM      7  C   UNL     1     -30.788 -14.336  17.260  1.00  0.00    -0.000 C 
BRANCH   7   8
ATOM      8  C   UNL     1     -31.658 -14.398  15.996  1.00  0.00    -0.000 C 
BRANCH   8   9
ATOM      9  C   UNL     1     -31.507 -15.728  15.240  1.00  0.00    -0.000 C 
BRANCH   9  10
ATOM     10  C   UNL     1     -30.280 -15.740  14.312  1.00  0.00    -0.000 C 
BRANCH  10  11
ATOM     11  C   UNL     1     -30.018 -17.128  13.703  1.00  0.00    -0.003 C 
ATOM     12  C   UNL     1     -30.596 -18.261  14.550  1.00  0.00     0.004 C 
ENDBRANCH  10  11
ENDBRANCH   9  10
ENDBRANCH   8   9
ENDBRANCH   7   8
ENDBRANCH   6   7
ENDBRANCH   5   6
ENDBRANCH   4   5
ENDBRANCH   3   4
ENDBRANCH   2   3
ENDBRANCH   1   2
BRANCH   1  13
ATOM     13  C   UNL     1     -25.404 -13.244  18.082  1.00  0.00     0.000 C 
BRANCH  13  14
ATOM     14  C   UNL     1     -26.658 -14.143  18.073  1.00  0.00     0.000 C 
BRANCH  14  15
ATOM     15  C   UNL     1     -26.456 -15.549  17.477  1.00  0.00     0.000 C 
BRANCH  15  16
ATOM     16  C   UNL     1     -27.769 -16.183  16.991  1.00  0.00     0.000 C 
BRANCH  16  17
ATOM     17  C   UNL     1     -27.654 -17.702  16.775  1.00  0.00     0.000 C 
BRANCH  17  18
ATOM     18  C   UNL     1     -26.629 -18.096  15.690  1.00  0.00     0.000 C 
BRANCH  18  19
ATOM     19  C   UNL     1     -26.511 -19.622  15.535  1.00  0.00     0.000 C 
BRANCH  19  20
ATOM     20  C   UNL     1     -26.241 -20.052  14.084  1.00  0.00     0.006 C 
BRANCH  20  21
ATOM     21  C   UNL     1     -27.409 -19.726  13.143  1.00  0.00     0.053 C 
BRANCH  21  22
ATOM     22  C   UNL     1     -26.908 -19.067  11.897  1.00  0.00     0.041 C 
ATOM     23  O   UNL     1     -25.780 -19.372  11.428  1.00  0.00    -0.550 OA
ATOM     24  O   UNL     1     -27.704 -18.143  11.230  1.00  0.00    -0.550 OA
ENDBRANCH  21  22
ENDBRANCH  20  21
ENDBRANCH  19  20
ENDBRANCH  18  19
ENDBRANCH  17  18
ENDBRANCH  16  17
ENDBRANCH  15  16
ENDBRANCH  14  15
ENDBRANCH  13  14
ENDBRANCH   1  13
TORSDOF 20
ENDMDL
MODEL 6
REMARK VINA RESULT:    -4.499      2.565      5.998
REMARK INTER + INTRA:         -12.483
REMARK INTER:                  -9.972
REMARK INTRA:                  -2.510
REMARK UNBOUND:                -2.723
REMARK SMILES CCCCCCCCCCCCCCCCCCCCCC(=O)[O-]
REMARK SMILES IDX 12 1 11 2 10 3 9 4 8 5 7 6 6 7 5 8 4 9 3 10 2 11 1 12 13 13
REMARK SMILES IDX 14 14 15 15 16 16 17 17 18 18 19 19 20 20 21 21 22 22 23 23
REMARK SMILES IDX 24 24
REMARK H PARENT
REMARK Flexibility Score: inf
ROOT
ATOM      1  C   UNL     1     -26.701 -11.601  16.618  1.00  0.00     0.000 C 
ENDROOT
BRANCH   1   2
ATOM      2  C   UNL     1     -27.658 -11.162  17.741  1.00  0.00     0.000 C 
BRANCH   2   3
ATOM      3  C   UNL     1     -29.126 -11.102  17.285  1.00  0.00     0.000 C 
BRANCH   3   4
ATOM      4  C   UNL     1     -29.595 -12.405  16.618  1.00  0.00    -0.000 C 
BRANCH   4   5
ATOM      5  C   UNL     1     -30.424 -13.296  17.563  1.00  0.00    -0.000 C 
BRANCH   5   6
ATOM      6  C   UNL     1     -31.795 -13.730  17.014  1.00  0.00    -0.000 C 
BRANCH   6   7
ATOM      7  C   UNL     1     -31.686 -14.703  15.830  1.00  0.00    -0.000 C 
BRANCH   7   8
ATOM      8  C   UNL     1     -32.205 -16.097  16.213  1.00  0.00    -0.000 C 
BRANCH   8   9
ATOM      9  C   UNL     1     -33.710 -16.101  16.525  1.00  0.00    -0.000 C 
BRANCH   9  10
ATOM     10  C   UNL     1     -34.557 -15.595  15.344  1.00  0.00    -0.000 C 
BRANCH  10  11
ATOM     11  C   UNL     1     -35.382 -14.349  15.704  1.00  0.00    -0.003 C 
ATOM     12  C   UNL     1     -36.380 -14.608  16.833  1.00  0.00     0.004 C 
ENDBRANCH  10  11
ENDBRANCH   9  10
ENDBRANCH   8   9
ENDBRANCH   7   8
ENDBRANCH   6   7
ENDBRANCH   5   6
ENDBRANCH   4   5
ENDBRANCH   3   4
ENDBRANCH   2   3
ENDBRANCH   1   2
BRANCH   1  13
ATOM     13  C   UNL     1     -25.543 -12.475  17.132  1.00  0.00     0.000 C 
BRANCH  13  14
ATOM     14  C   UNL     1     -25.948 -13.599  18.109  1.00  0.00     0.000 C 
BRANCH  14  15
ATOM     15  C   UNL     1     -26.134 -14.989  17.473  1.00  0.00     0.000 C 
BRANCH  15  16
ATOM     16  C   UNL     1     -27.387 -15.715  17.987  1.00  0.00     0.000 C 
BRANCH  16  17
ATOM     17  C   UNL     1     -28.393 -16.035  16.868  1.00  0.00     0.000 C 
BRANCH  17  18
ATOM     18  C   UNL     1     -28.083 -17.346  16.115  1.00  0.00     0.000 C 
BRANCH  18  19
ATOM     19  C   UNL     1     -29.334 -18.229  15.954  1.00  0.00     0.000 C 
BRANCH  19  20
ATOM     20  C   UNL     1     -29.646 -18.556  14.485  1.00  0.00     0.006 C 
BRANCH  20  21
ATOM     21  C   UNL     1     -29.528 -17.331  13.568  1.00  0.00     0.053 C 
BRANCH  21  22
ATOM     22  C   UNL     1     -28.613 -17.623  12.421  1.00  0.00     0.041 C 
ATOM     23  O   UNL     1     -28.102 -18.767  12.294  1.00  0.00    -0.550 OA
ATOM     24  O   UNL     1     -28.358 -16.644  11.468  1.00  0.00    -0.550 OA
ENDBRANCH  21  22
ENDBRANCH  20  21
ENDBRANCH  19  20
ENDBRANCH  18  19
ENDBRANCH  17  18
ENDBRANCH  16  17
ENDBRANCH  15  16
ENDBRANCH  14  15
ENDBRANCH  13  14
ENDBRANCH   1  13
TORSDOF 20
ENDMDL
MODEL 7
REMARK VINA RESULT:    -4.488      3.679      7.418
REMARK INTER + INTRA:         -12.458
REMARK INTER:                  -9.922
REMARK INTRA:                  -2.536
REMARK UNBOUND:                -2.723
REMARK SMILES CCCCCCCCCCCCCCCCCCCCCC(=O)[O-]
REMARK SMILES IDX 12 1 11 2 10 3 9 4 8 5 7 6 6 7 5 8 4 9 3 10 2 11 1 12 13 13
REMARK SMILES IDX 14 14 15 15 16 16 17 17 18 18 19 19 20 20 21 21 22 22 23 23
REMARK SMILES IDX 24 24
REMARK H PARENT
REMARK Flexibility Score: inf
ROOT
ATOM      1  C   UNL     1     -26.903 -16.250  17.070  1.00  0.00     0.000 C 
ENDROOT
BRANCH   1   2
ATOM      2  C   UNL     1     -25.870 -15.308  17.716  1.00  0.00     0.000 C 
BRANCH   2   3
ATOM      3  C   UNL     1     -26.441 -13.912  18.017  1.00  0.00     0.000 C 
BRANCH   3   4
ATOM      4  C   UNL     1     -25.745 -12.800  17.214  1.00  0.00    -0.000 C 
BRANCH   4   5
ATOM      5  C   UNL     1     -26.677 -11.612  16.907  1.00  0.00    -0.000 C 
BRANCH   5   6
ATOM      6  C   UNL     1     -27.863 -11.447  17.875  1.00  0.00    -0.000 C 
BRANCH   6   7
ATOM      7  C   UNL     1     -29.214 -11.332  17.153  1.00  0.00    -0.000 C 
BRANCH   7   8
ATOM      8  C   UNL     1     -29.568 -12.642  16.432  1.00  0.00    -0.000 C 
BRANCH   8   9
ATOM      9  C   UNL     1     -30.652 -13.445  17.168  1.00  0.00    -0.000 C 
BRANCH   9  10
ATOM     10  C   UNL     1     -31.695 -14.043  16.208  1.00  0.00    -0.000 C 
BRANCH  10  11
ATOM     11  C   UNL     1     -31.085 -15.081  15.251  1.00  0.00    -0.003 C 
ATOM     12  C   UNL     1     -32.004 -16.280  15.019  1.00  0.00     0.004 C 
ENDBRANCH  10  11
ENDBRANCH   9  10
ENDBRANCH   8   9
ENDBRANCH   7   8
ENDBRANCH   6   7
ENDBRANCH   5   6
ENDBRANCH   4   5
ENDBRANCH   3   4
ENDBRANCH   2   3
ENDBRANCH   1   2
BRANCH   1  13
ATOM     13  C   UNL     1     -28.285 -16.166  17.744  1.00  0.00     0.000 C 
BRANCH  13  14
ATOM     14  C   UNL     1     -29.275 -17.286  17.360  1.00  0.00     0.000 C 
BRANCH  14  15
ATOM     15  C   UNL     1     -28.640 -18.534  16.720  1.00  0.00     0.000 C 
BRANCH  15  16
ATOM     16  C   UNL     1     -29.518 -19.151  15.619  1.00  0.00     0.000 C 
BRANCH  16  17
ATOM     17  C   UNL     1     -28.863 -19.088  14.229  1.00  0.00     0.000 C 
BRANCH  17  18
ATOM     18  C   UNL     1     -28.805 -17.664  13.636  1.00  0.00     0.000 C 
BRANCH  18  19
ATOM     19  C   UNL     1     -28.214 -17.654  12.215  1.00  0.00     0.000 C 
BRANCH  19  20
ATOM     20  C   UNL     1     -27.757 -19.047  11.752  1.00  0.00     0.006 C 
BRANCH  20  21
ATOM     21  C   UNL     1     -27.014 -19.010  10.410  1.00  0.00     0.053 C 
BRANCH  21  22
ATOM     22  C   UNL     1     -25.801 -19.884  10.459  1.00  0.00     0.041 C 
ATOM     23  O   UNL     1     -24.790 -19.527  11.120  1.00  0.00    -0.550 OA
ATOM     24  O   UNL     1     -25.801 -21.112   9.809  1.00  0.00    -0.550 OA
ENDBRANCH  21  22
ENDBRANCH  20  21
ENDBRANCH  19  20
ENDBRANCH  18  19
ENDBRANCH  17  18
ENDBRANCH  16  17
ENDBRANCH  15  16
ENDBRANCH  14  15
ENDBRANCH  13  14
ENDBRANCH   1  13
TORSDOF 20
ENDMDL
MODEL 8
REMARK VINA RESULT:    -4.459      3.398      7.386
REMARK INTER + INTRA:         -12.395
REMARK INTER:                  -9.756
REMARK INTRA:                  -2.639
REMARK UNBOUND:                -2.723
REMARK SMILES CCCCCCCCCCCCCCCCCCCCCC(=O)[O-]
REMARK SMILES IDX 12 1 11 2 10 3 9 4 8 5 7 6 6 7 5 8 4 9 3 10 2 11 1 12 13 13
REMARK SMILES IDX 14 14 15 15 16 16 17 17 18 18 19 19 20 20 21 21 22 22 23 23
REMARK SMILES IDX 24 24
REMARK H PARENT
REMARK Flexibility Score: inf
ROOT
ATOM      1  C   UNL     1     -27.126 -16.846  16.929  1.00  0.00     0.000 C 
ENDROOT
BRANCH   1   2
ATOM      2  C   UNL     1     -26.255 -15.944  17.822  1.00  0.00     0.000 C 
BRANCH   2   3
ATOM      3  C   UNL     1     -26.765 -14.494  17.884  1.00  0.00     0.000 C 
BRANCH   3   4
ATOM      4  C   UNL     1     -25.632 -13.460  17.772  1.00  0.00    -0.000 C 
BRANCH   4   5
ATOM      5  C   UNL     1     -25.957 -12.321  16.787  1.00  0.00    -0.000 C 
BRANCH   5   6
ATOM      6  C   UNL     1     -26.275 -10.964  17.442  1.00  0.00    -0.000 C 
BRANCH   6   7
ATOM      7  C   UNL     1     -27.699 -10.474  17.142  1.00  0.00    -0.000 C 
BRANCH   7   8
ATOM      8  C   UNL     1     -28.748 -11.412  17.758  1.00  0.00    -0.000 C 
BRANCH   8   9
ATOM      9  C   UNL     1     -29.680 -12.028  16.702  1.00  0.00    -0.000 C 
BRANCH   9  10
ATOM     10  C   UNL     1     -30.133 -13.451  17.075  1.00  0.00    -0.000 C 
BRANCH  10  11
ATOM     11  C   UNL     1     -30.441 -14.312  15.839  1.00  0.00    -0.003 C 
ATOM     12  C   UNL     1     -31.927 -14.647  15.710  1.00  0.00     0.004 C 
ENDBRANCH  10  11
ENDBRANCH   9  10
ENDBRANCH   8   9
ENDBRANCH   7   8
ENDBRANCH   6   7
ENDBRANCH   5   6
ENDBRANCH   4   5
ENDBRANCH   3   4
ENDBRANCH   2   3
ENDBRANCH   1   2
BRANCH   1  13
ATOM     13  C   UNL     1     -28.596 -16.892  17.385  1.00  0.00     0.000 C 
BRANCH  13  14
ATOM     14  C   UNL     1     -29.277 -18.272  17.277  1.00  0.00     0.000 C 
BRANCH  14  15
ATOM     15  C   UNL     1     -30.665 -18.271  16.610  1.00  0.00     0.000 C 
BRANCH  15  16
ATOM     16  C   UNL     1     -30.638 -18.839  15.181  1.00  0.00     0.000 C 
BRANCH  16  17
ATOM     17  C   UNL     1     -31.086 -17.814  14.124  1.00  0.00     0.000 C 
BRANCH  17  18
ATOM     18  C   UNL     1     -29.912 -17.102  13.418  1.00  0.00     0.000 C 
BRANCH  18  19
ATOM     19  C   UNL     1     -28.598 -17.892  13.544  1.00  0.00     0.000 C 
BRANCH  19  20
ATOM     20  C   UNL     1     -27.943 -18.177  12.182  1.00  0.00     0.006 C 
BRANCH  20  21
ATOM     21  C   UNL     1     -26.597 -18.900  12.312  1.00  0.00     0.053 C 
BRANCH  21  22
ATOM     22  C   UNL     1     -26.395 -19.840  11.166  1.00  0.00     0.041 C 
ATOM     23  O   UNL     1     -27.383 -20.420  10.641  1.00  0.00    -0.550 OA
ATOM     24  O   UNL     1     -25.121 -20.047  10.650  1.00  0.00    -0.550 OA
ENDBRANCH  21  22
ENDBRANCH  20  21
ENDBRANCH  19  20
ENDBRANCH  18  19
ENDBRANCH  17  18
ENDBRANCH  16  17
ENDBRANCH  15  16
ENDBRANCH  14  15
ENDBRANCH  13  14
ENDBRANCH   1  13
TORSDOF 20
ENDMDL
MODEL 9
REMARK VINA RESULT:    -4.411      1.670      3.528
REMARK INTER + INTRA:         -12.291
REMARK INTER:                 -10.018
REMARK INTRA:                  -2.273
REMARK UNBOUND:                -2.723
REMARK SMILES CCCCCCCCCCCCCCCCCCCCCC(=O)[O-]
REMARK SMILES IDX 12 1 11 2 10 3 9 4 8 5 7 6 6 7 5 8 4 9 3 10 2 11 1 12 13 13
REMARK SMILES IDX 14 14 15 15 16 16 17 17 18 18 19 19 20 20 21 21 22 22 23 23
REMARK SMILES IDX 24 24
REMARK H PARENT
REMARK Flexibility Score: inf
ROOT
ATOM      1  C   UNL     1     -26.832 -11.593  16.633  1.00  0.00     0.000 C 
ENDROOT
BRANCH   1   2
ATOM      2  C   UNL     1     -25.433 -11.684  17.270  1.00  0.00     0.000 C 
BRANCH   2   3
ATOM      3  C   UNL     1     -25.203 -13.008  18.019  1.00  0.00     0.000 C 
BRANCH   3   4
ATOM      4  C   UNL     1     -26.389 -13.979  17.888  1.00  0.00    -0.000 C 
BRANCH   4   5
ATOM      5  C   UNL     1     -25.953 -15.456  17.871  1.00  0.00    -0.000 C 
BRANCH   5   6
ATOM      6  C   UNL     1     -26.889 -16.404  17.098  1.00  0.00    -0.000 C 
BRANCH   6   7
ATOM      7  C   UNL     1     -28.046 -16.935  17.958  1.00  0.00    -0.000 C 
BRANCH   7   8
ATOM      8  C   UNL     1     -29.328 -17.088  17.125  1.00  0.00    -0.000 C 
BRANCH   8   9
ATOM      9  C   UNL     1     -29.058 -17.027  15.613  1.00  0.00    -0.000 C 
BRANCH   9  10
ATOM     10  C   UNL     1     -29.268 -18.386  14.922  1.00  0.00    -0.000 C 
BRANCH  10  11
ATOM     11  C   UNL     1     -28.621 -18.443  13.529  1.00  0.00    -0.003 C 
ATOM     12  C   UNL     1     -29.130 -17.344  12.597  1.00  0.00     0.004 C 
ENDBRANCH  10  11
ENDBRANCH   9  10
ENDBRANCH   8   9
ENDBRANCH   7   8
ENDBRANCH   6   7
ENDBRANCH   5   6
ENDBRANCH   4   5
ENDBRANCH   3   4
ENDBRANCH   2   3
ENDBRANCH   1   2
BRANCH   1  13
ATOM     13  C   UNL     1     -27.762 -10.619  17.379  1.00  0.00     0.000 C 
BRANCH  13  14
ATOM     14  C   UNL     1     -29.216 -11.102  17.559  1.00  0.00     0.000 C 
BRANCH  14  15
ATOM     15  C   UNL     1     -29.656 -12.233  16.611  1.00  0.00     0.000 C 
BRANCH  15  16
ATOM     16  C   UNL     1     -30.011 -13.530  17.356  1.00  0.00     0.000 C 
BRANCH  16  17
ATOM     17  C   UNL     1     -31.522 -13.818  17.367  1.00  0.00     0.000 C 
BRANCH  17  18
ATOM     18  C   UNL     1     -32.101 -14.134  15.971  1.00  0.00     0.000 C 
BRANCH  18  19
ATOM     19  C   UNL     1     -32.411 -15.632  15.801  1.00  0.00     0.000 C 
BRANCH  19  20
ATOM     20  C   UNL     1     -33.846 -15.992  16.220  1.00  0.00     0.006 C 
BRANCH  20  21
ATOM     21  C   UNL     1     -34.903 -15.406  15.274  1.00  0.00     0.053 C 
BRANCH  21  22
ATOM     22  C   UNL     1     -36.262 -15.924  15.624  1.00  0.00     0.041 C 
ATOM     23  O   UNL     1     -36.399 -16.775  16.543  1.00  0.00    -0.550 OA
ATOM     24  O   UNL     1     -37.384 -15.437  14.964  1.00  0.00    -0.550 OA
ENDBRANCH  21  22
ENDBRANCH  20  21
ENDBRANCH  19  20
ENDBRANCH  18  19
ENDBRANCH  17  18
ENDBRANCH  16  17
ENDBRANCH  15  16
ENDBRANCH  14  15
ENDBRANCH  13  14
ENDBRANCH   1  13
TORSDOF 20
ENDMDL
