MODEL 1
REMARK VINA RESULT:    -4.508      0.000      0.000
REMARK INTER + INTRA:         -16.348
REMARK INTER:                 -11.886
REMARK INTRA:                  -4.462
REMARK UNBOUND:                -4.462
REMARK SMILES CCCCCCCCCCCCCCCCCCCCCCCCCCCCCC(=O)[O-]
REMARK SMILES IDX 16 1 17 2 18 3 19 4 20 5 21 6 22 7 23 8 24 9 25 10 26 11
REMARK SMILES IDX 27 12 28 13 29 14 30 15 31 16 32 17 15 18 14 19 13 20 12 21
REMARK SMILES IDX 11 22 10 23 9 24 8 25 7 26 6 27 5 28 4 29 3 30 2 31 1 32
REMARK H PARENT
REMARK Flexibility Score: inf
ROOT
ATOM      1  C   UNL     1      -5.184  -0.230  -6.140  1.00  0.00     0.000 C 
ENDROOT
BRANCH   1   2
ATOM      2  C   UNL     1      -4.696   1.086  -5.508  1.00  0.00     0.000 C 
BRANCH   2   3
ATOM      3  C   UNL     1      -4.626   2.235  -6.529  1.00  0.00     0.000 C 
BRANCH   3   4
ATOM      4  C   UNL     1      -3.196   2.763  -6.720  1.00  0.00     0.000 C 
BRANCH   4   5
ATOM      5  C   UNL     1      -2.219   2.059  -5.769  1.00  0.00     0.000 C 
BRANCH   5   6
ATOM      6  C   UNL     1      -1.152   1.237  -6.514  1.00  0.00     0.000 C 
BRANCH   6   7
ATOM      7  C   UNL     1      -1.365   1.110  -8.036  1.00  0.00     0.000 C 
BRANCH   7   8
ATOM      8  C   UNL     1      -0.089   1.209  -8.891  1.00  0.00     0.000 C 
BRANCH   8   9
ATOM      9  C   UNL     1      -0.135   2.373  -9.895  1.00  0.00     0.000 C 
BRANCH   9  10
ATOM     10  C   UNL     1      -1.572   2.812 -10.242  1.00  0.00     0.000 C 
BRANCH  10  11
ATOM     11  C   UNL     1      -1.882   2.913 -11.748  1.00  0.00     0.000 C 
BRANCH  11  12
ATOM     12  C   UNL     1      -3.348   3.232 -12.097  1.00  0.00     0.000 C 
BRANCH  12  13
ATOM     13  C   UNL     1      -3.510   4.234 -13.261  1.00  0.00     0.006 C 
BRANCH  13  14
ATOM     14  C   UNL     1      -2.188   4.603 -13.955  1.00  0.00     0.053 C 
BRANCH  14  15
ATOM     15  C   UNL     1      -2.341   5.776 -14.875  1.00  0.00     0.041 C 
ATOM     16  O   UNL     1      -3.310   5.833 -15.677  1.00  0.00    -0.550 OA
ATOM     17  O   UNL     1      -1.420   6.816 -14.834  1.00  0.00    -0.550 OA
ENDBRANCH  14  15
ENDBRANCH  13  14
ENDBRANCH  12  13
ENDBRANCH  11  12
ENDBRANCH  10  11
ENDBRANCH   9  10
ENDBRANCH   8   9
ENDBRANCH   7   8
ENDBRANCH   6   7
ENDBRANCH   5   6
ENDBRANCH   4   5
ENDBRANCH   3   4
ENDBRANCH   2   3
ENDBRANCH   1   2
BRANCH   1  18
ATOM     18  C   UNL     1      -4.025  -1.165  -6.523  1.00  0.00     0.000 C 
BRANCH  18  19
ATOM     19  C   UNL     1      -4.362  -2.647  -6.285  1.00  0.00     0.000 C 
BRANCH  19  20
ATOM     20  C   UNL     1      -5.330  -2.854  -5.109  1.00  0.00     0.000 C 
BRANCH  20  21
ATOM     21  C   UNL     1      -4.717  -3.701  -3.980  1.00  0.00     0.000 C 
BRANCH  21  22
ATOM     22  C   UNL     1      -3.265  -4.112  -4.273  1.00  0.00     0.000 C 
BRANCH  22  23
ATOM     23  C   UNL     1      -2.263  -3.492  -3.282  1.00  0.00     0.000 C 
BRANCH  23  24
ATOM     24  C   UNL     1      -1.557  -2.247  -3.849  1.00  0.00    -0.000 C 
BRANCH  24  25
ATOM     25  C   UNL     1      -2.277  -0.915  -3.576  1.00  0.00    -0.000 C 
BRANCH  25  26
ATOM     26  C   UNL     1      -1.452   0.038  -2.691  1.00  0.00    -0.000 C 
BRANCH  26  27
ATOM     27  C   UNL     1      -2.013   0.132  -1.263  1.00  0.00    -0.000 C 
BRANCH  27  28
ATOM     28  C   UNL     1      -1.482  -0.993  -0.354  1.00  0.00    -0.000 C 
BRANCH  28  29
ATOM     29  C   UNL     1      -2.621  -1.848   0.240  1.00  0.00    -0.000 C 
BRANCH  29  30
ATOM     30  C   UNL     1      -3.970  -1.644  -0.472  1.00  0.00    -0.000 C 
BRANCH  30  31
ATOM     31  C   UNL     1      -4.885  -2.874  -0.383  1.00  0.00    -0.003 C 
ATOM     32  C   UNL     1      -4.085  -4.131  -0.049  1.00  0.00     0.004 C 
ENDBRANCH  30  31
ENDBRANCH  29  30
ENDBRANCH  28  29
ENDBRANCH  27  28
ENDBRANCH  26  27
ENDBRANCH  25  26
ENDBRANCH  24  25
ENDBRANCH  23  24
ENDBRANCH  22  23
ENDBRANCH  21  22
ENDBRANCH  20  21
ENDBRANCH  19  20
ENDBRANCH  18  19
ENDBRANCH   1  18
TORSDOF 28
ENDMDL
MODEL 2
REMARK VINA RESULT:    -4.483      5.074     11.250
REMARK INTER + INTRA:         -16.284
REMARK INTER:                 -12.399
REMARK INTRA:                  -3.886
REMARK UNBOUND:                -4.462
REMARK SMILES CCCCCCCCCCCCCCCCCCCCCCCCCCCCCC(=O)[O-]
REMARK SMILES IDX 16 1 17 2 18 3 19 4 20 5 21 6 22 7 23 8 24 9 25 10 26 11
REMARK SMILES IDX 27 12 28 13 29 14 30 15 31 16 32 17 15 18 14 19 13 20 12 21
REMARK SMILES IDX 11 22 10 23 9 24 8 25 7 26 6 27 5 28 4 29 3 30 2 31 1 32
REMARK H PARENT
REMARK Flexibility Score: inf
ROOT
ATOM      1  C   UNL     1      -5.453  -0.809  -6.184  1.00  0.00     0.000 C 
ENDROOT
BRANCH   1   2
ATOM      2  C   UNL     1      -4.206  -1.601  -6.617  1.00  0.00     0.000 C 
BRANCH   2   3
ATOM      3  C   UNL     1      -4.242  -3.061  -6.132  1.00  0.00     0.000 C 
BRANCH   3   4
ATOM      4  C   UNL     1      -5.122  -3.243  -4.886  1.00  0.00     0.000 C 
BRANCH   4   5
ATOM      5  C   UNL     1      -4.288  -3.720  -3.690  1.00  0.00     0.000 C 
BRANCH   5   6
ATOM      6  C   UNL     1      -2.783  -3.450  -3.866  1.00  0.00     0.000 C 
BRANCH   6   7
ATOM      7  C   UNL     1      -2.270  -2.145  -3.222  1.00  0.00     0.000 C 
BRANCH   7   8
ATOM      8  C   UNL     1      -3.354  -1.250  -2.594  1.00  0.00     0.000 C 
BRANCH   8   9
ATOM      9  C   UNL     1      -3.060  -0.904  -1.125  1.00  0.00     0.000 C 
BRANCH   9  10
ATOM     10  C   UNL     1      -2.303  -2.023  -0.383  1.00  0.00     0.000 C 
BRANCH  10  11
ATOM     11  C   UNL     1      -3.145  -2.831   0.622  1.00  0.00     0.000 C 
BRANCH  11  12
ATOM     12  C   UNL     1      -4.223  -3.737  -0.002  1.00  0.00     0.000 C 
BRANCH  12  13
ATOM     13  C   UNL     1      -5.642  -3.126   0.018  1.00  0.00     0.006 C 
BRANCH  13  14
ATOM     14  C   UNL     1      -6.662  -3.890  -0.841  1.00  0.00     0.053 C 
BRANCH  14  15
ATOM     15  C   UNL     1      -7.860  -4.319  -0.049  1.00  0.00     0.041 C 
ATOM     16  O   UNL     1      -8.669  -3.462   0.397  1.00  0.00    -0.550 OA
ATOM     17  O   UNL     1      -8.092  -5.669   0.184  1.00  0.00    -0.550 OA
ENDBRANCH  14  15
ENDBRANCH  13  14
ENDBRANCH  12  13
ENDBRANCH  11  12
ENDBRANCH  10  11
ENDBRANCH   9  10
ENDBRANCH   8   9
ENDBRANCH   7   8
ENDBRANCH   6   7
ENDBRANCH   5   6
ENDBRANCH   4   5
ENDBRANCH   3   4
ENDBRANCH   2   3
ENDBRANCH   1   2
BRANCH   1  18
ATOM     18  C   UNL     1      -5.201   0.706  -6.136  1.00  0.00     0.000 C 
BRANCH  18  19
ATOM     19  C   UNL     1      -4.151   1.094  -5.081  1.00  0.00     0.000 C 
BRANCH  19  20
ATOM     20  C   UNL     1      -2.934   1.809  -5.689  1.00  0.00     0.000 C 
BRANCH  20  21
ATOM     21  C   UNL     1      -1.599   1.171  -5.266  1.00  0.00     0.000 C 
BRANCH  21  22
ATOM     22  C   UNL     1      -0.955   0.349  -6.394  1.00  0.00     0.000 C 
BRANCH  22  23
ATOM     23  C   UNL     1      -1.537   0.688  -7.779  1.00  0.00     0.000 C 
BRANCH  23  24
ATOM     24  C   UNL     1      -0.644   1.650  -8.583  1.00  0.00    -0.000 C 
BRANCH  24  25
ATOM     25  C   UNL     1      -1.183   3.087  -8.700  1.00  0.00    -0.000 C 
BRANCH  25  26
ATOM     26  C   UNL     1      -1.183   3.605 -10.150  1.00  0.00    -0.000 C 
BRANCH  26  27
ATOM     27  C   UNL     1      -1.524   2.499 -11.160  1.00  0.00    -0.000 C 
BRANCH  27  28
ATOM     28  C   UNL     1      -2.433   3.005 -12.296  1.00  0.00    -0.000 C 
BRANCH  28  29
ATOM     29  C   UNL     1      -1.794   4.171 -13.079  1.00  0.00    -0.000 C 
BRANCH  29  30
ATOM     30  C   UNL     1      -2.807   5.253 -13.491  1.00  0.00    -0.000 C 
BRANCH  30  31
ATOM     31  C   UNL     1      -4.168   4.673 -13.903  1.00  0.00    -0.003 C 
ATOM     32  C   UNL     1      -4.371   4.765 -15.413  1.00  0.00     0.004 C 
ENDBRANCH  30  31
ENDBRANCH  29  30
ENDBRANCH  28  29
ENDBRANCH  27  28
ENDBRANCH  26  27
ENDBRANCH  25  26
ENDBRANCH  24  25
ENDBRANCH  23  24
ENDBRANCH  22  23
ENDBRANCH  21  22
ENDBRANCH  20  21
ENDBRANCH  19  20
ENDBRANCH  18  19
ENDBRANCH   1  18
TORSDOF 28
ENDMDL
MODEL 3
REMARK VINA RESULT:    -4.440      1.283      2.894
REMARK INTER + INTRA:         -16.170
REMARK INTER:                 -11.935
REMARK INTRA:                  -4.235
REMARK UNBOUND:                -4.462
REMARK SMILES CCCCCCCCCCCCCCCCCCCCCCCCCCCCCC(=O)[O-]
REMARK SMILES IDX 16 1 17 2 18 3 19 4 20 5 21 6 22 7 23 8 24 9 25 10 26 11
REMARK SMILES IDX 27 12 28 13 29 14 30 15 31 16 32 17 15 18 14 19 13 20 12 21
REMARK SMILES IDX 11 22 10 23 9 24 8 25 7 26 6 27 5 28 4 29 3 30 2 31 1 32
REMARK H PARENT
REMARK Flexibility Score: inf
ROOT
ATOM      1  C   UNL     1      -5.364  -3.062  -5.108  1.00  0.00     0.000 C 
ENDROOT
BRANCH   1   2
ATOM      2  C   UNL     1      -4.297  -2.452  -6.035  1.00  0.00     0.000 C 
BRANCH   2   3
ATOM      3  C   UNL     1      -4.667  -1.033  -6.500  1.00  0.00     0.000 C 
BRANCH   3   4
ATOM      4  C   UNL     1      -4.089   0.053  -5.580  1.00  0.00     0.000 C 
BRANCH   4   5
ATOM      5  C   UNL     1      -3.272   1.075  -6.382  1.00  0.00     0.000 C 
BRANCH   5   6
ATOM      6  C   UNL     1      -1.757   0.818  -6.304  1.00  0.00     0.000 C 
BRANCH   6   7
ATOM      7  C   UNL     1      -1.211  -0.210  -7.316  1.00  0.00     0.000 C 
BRANCH   7   8
ATOM      8  C   UNL     1       0.118   0.172  -7.992  1.00  0.00     0.000 C 
BRANCH   8   9
ATOM      9  C   UNL     1       0.125   1.617  -8.517  1.00  0.00     0.000 C 
BRANCH   9  10
ATOM     10  C   UNL     1      -0.973   1.881  -9.566  1.00  0.00     0.000 C 
BRANCH  10  11
ATOM     11  C   UNL     1      -1.893   3.080  -9.267  1.00  0.00     0.000 C 
BRANCH  11  12
ATOM     12  C   UNL     1      -2.548   3.731 -10.500  1.00  0.00     0.000 C 
BRANCH  12  13
ATOM     13  C   UNL     1      -2.165   3.061 -11.838  1.00  0.00     0.006 C 
BRANCH  13  14
ATOM     14  C   UNL     1      -1.862   4.057 -12.969  1.00  0.00     0.053 C 
BRANCH  14  15
ATOM     15  C   UNL     1      -3.112   4.624 -13.573  1.00  0.00     0.041 C 
ATOM     16  O   UNL     1      -3.098   5.761 -14.114  1.00  0.00    -0.550 OA
ATOM     17  O   UNL     1      -4.289   3.887 -13.552  1.00  0.00    -0.550 OA
ENDBRANCH  14  15
ENDBRANCH  13  14
ENDBRANCH  12  13
ENDBRANCH  11  12
ENDBRANCH  10  11
ENDBRANCH   9  10
ENDBRANCH   8   9
ENDBRANCH   7   8
ENDBRANCH   6   7
ENDBRANCH   5   6
ENDBRANCH   4   5
ENDBRANCH   3   4
ENDBRANCH   2   3
ENDBRANCH   1   2
BRANCH   1  18
ATOM     18  C   UNL     1      -4.760  -3.999  -4.050  1.00  0.00     0.000 C 
BRANCH  18  19
ATOM     19  C   UNL     1      -3.251  -4.220  -4.254  1.00  0.00     0.000 C 
BRANCH  19  20
ATOM     20  C   UNL     1      -2.404  -3.602  -3.130  1.00  0.00     0.000 C 
BRANCH  20  21
ATOM     21  C   UNL     1      -1.413  -2.545  -3.647  1.00  0.00     0.000 C 
BRANCH  21  22
ATOM     22  C   UNL     1      -1.754  -1.128  -3.157  1.00  0.00     0.000 C 
BRANCH  22  23
ATOM     23  C   UNL     1      -3.077  -1.077  -2.371  1.00  0.00     0.000 C 
BRANCH  23  24
ATOM     24  C   UNL     1      -2.898  -0.553  -0.935  1.00  0.00    -0.000 C 
BRANCH  24  25
ATOM     25  C   UNL     1      -1.598  -0.996  -0.242  1.00  0.00    -0.000 C 
BRANCH  25  26
ATOM     26  C   UNL     1      -1.847  -1.978   0.919  1.00  0.00    -0.000 C 
BRANCH  26  27
ATOM     27  C   UNL     1      -2.324  -3.351   0.422  1.00  0.00    -0.000 C 
BRANCH  27  28
ATOM     28  C   UNL     1      -3.716  -3.718   0.971  1.00  0.00    -0.000 C 
BRANCH  28  29
ATOM     29  C   UNL     1      -4.705  -4.094  -0.152  1.00  0.00    -0.000 C 
BRANCH  29  30
ATOM     30  C   UNL     1      -5.664  -2.950  -0.525  1.00  0.00    -0.000 C 
BRANCH  30  31
ATOM     31  C   UNL     1      -6.827  -2.799   0.466  1.00  0.00    -0.003 C 
ATOM     32  C   UNL     1      -8.048  -3.591   0.007  1.00  0.00     0.004 C 
ENDBRANCH  30  31
ENDBRANCH  29  30
ENDBRANCH  28  29
ENDBRANCH  27  28
ENDBRANCH  26  27
ENDBRANCH  25  26
ENDBRANCH  24  25
ENDBRANCH  23  24
ENDBRANCH  22  23
ENDBRANCH  21  22
ENDBRANCH  20  21
ENDBRANCH  19  20
ENDBRANCH  18  19
ENDBRANCH   1  18
TORSDOF 28
ENDMDL
MODEL 4
REMARK VINA RESULT:    -4.410      1.482      2.205
REMARK INTER + INTRA:         -16.092
REMARK INTER:                 -12.781
REMARK INTRA:                  -3.311
REMARK UNBOUND:                -4.462
REMARK SMILES CCCCCCCCCCCCCCCCCCCCCCCCCCCCCC(=O)[O-]
REMARK SMILES IDX 16 1 17 2 18 3 19 4 20 5 21 6 22 7 23 8 24 9 25 10 26 11
REMARK SMILES IDX 27 12 28 13 29 14 30 15 31 16 32 17 15 18 14 19 13 20 12 21
REMARK SMILES IDX 11 22 10 23 9 24 8 25 7 26 6 27 5 28 4 29 3 30 2 31 1 32
REMARK H PARENT
REMARK Flexibility Score: inf
ROOT
ATOM      1  C   UNL     1      -5.173   0.826  -6.109  1.00  0.00     0.000 C 
ENDROOT
BRANCH   1   2
ATOM      2  C   UNL     1      -4.621   2.211  -5.725  1.00  0.00     0.000 C 
BRANCH   2   3
ATOM      3  C   UNL     1      -4.237   3.051  -6.955  1.00  0.00     0.000 C 
BRANCH   3   4
ATOM      4  C   UNL     1      -2.771   3.507  -6.918  1.00  0.00     0.000 C 
BRANCH   4   5
ATOM      5  C   UNL     1      -1.908   2.520  -6.120  1.00  0.00     0.000 C 
BRANCH   5   6
ATOM      6  C   UNL     1      -0.954   1.706  -7.013  1.00  0.00     0.000 C 
BRANCH   6   7
ATOM      7  C   UNL     1      -1.395   1.563  -8.485  1.00  0.00     0.000 C 
BRANCH   7   8
ATOM      8  C   UNL     1      -0.298   1.835  -9.530  1.00  0.00     0.000 C 
BRANCH   8   9
ATOM      9  C   UNL     1      -0.810   2.648 -10.730  1.00  0.00     0.000 C 
BRANCH   9  10
ATOM     10  C   UNL     1      -1.624   3.890 -10.314  1.00  0.00     0.000 C 
BRANCH  10  11
ATOM     11  C   UNL     1      -3.067   3.938 -10.850  1.00  0.00     0.000 C 
BRANCH  11  12
ATOM     12  C   UNL     1      -3.291   3.230 -12.200  1.00  0.00     0.000 C 
BRANCH  12  13
ATOM     13  C   UNL     1      -4.025   4.098 -13.246  1.00  0.00     0.006 C 
BRANCH  13  14
ATOM     14  C   UNL     1      -3.089   4.959 -14.110  1.00  0.00     0.053 C 
BRANCH  14  15
ATOM     15  C   UNL     1      -3.713   5.332 -15.421  1.00  0.00     0.041 C 
ATOM     16  O   UNL     1      -4.753   4.744 -15.821  1.00  0.00    -0.550 OA
ATOM     17  O   UNL     1      -3.155   6.342 -16.193  1.00  0.00    -0.550 OA
ENDBRANCH  14  15
ENDBRANCH  13  14
ENDBRANCH  12  13
ENDBRANCH  11  12
ENDBRANCH  10  11
ENDBRANCH   9  10
ENDBRANCH   8   9
ENDBRANCH   7   8
ENDBRANCH   6   7
ENDBRANCH   5   6
ENDBRANCH   4   5
ENDBRANCH   3   4
ENDBRANCH   2   3
ENDBRANCH   1   2
BRANCH   1  18
ATOM     18  C   UNL     1      -4.354  -0.324  -5.502  1.00  0.00     0.000 C 
BRANCH  18  19
ATOM     19  C   UNL     1      -4.155  -1.489  -6.486  1.00  0.00     0.000 C 
BRANCH  19  20
ATOM     20  C   UNL     1      -4.754  -2.808  -5.974  1.00  0.00     0.000 C 
BRANCH  20  21
ATOM     21  C   UNL     1      -4.737  -2.910  -4.439  1.00  0.00     0.000 C 
BRANCH  21  22
ATOM     22  C   UNL     1      -3.846  -4.057  -3.935  1.00  0.00     0.000 C 
BRANCH  22  23
ATOM     23  C   UNL     1      -2.520  -3.554  -3.333  1.00  0.00     0.000 C 
BRANCH  23  24
ATOM     24  C   UNL     1      -2.564  -2.063  -2.955  1.00  0.00    -0.000 C 
BRANCH  24  25
ATOM     25  C   UNL     1      -3.039  -1.773  -1.520  1.00  0.00    -0.000 C 
BRANCH  25  26
ATOM     26  C   UNL     1      -2.707  -2.915  -0.541  1.00  0.00    -0.000 C 
BRANCH  26  27
ATOM     27  C   UNL     1      -3.958  -3.439   0.182  1.00  0.00    -0.000 C 
BRANCH  27  28
ATOM     28  C   UNL     1      -5.226  -2.654  -0.205  1.00  0.00    -0.000 C 
BRANCH  28  29
ATOM     29  C   UNL     1      -6.368  -3.583  -0.666  1.00  0.00    -0.000 C 
BRANCH  29  30
ATOM     30  C   UNL     1      -7.758  -3.116  -0.200  1.00  0.00    -0.000 C 
BRANCH  30  31
ATOM     31  C   UNL     1      -8.535  -4.208   0.550  1.00  0.00    -0.003 C 
ATOM     32  C   UNL     1      -8.018  -5.598   0.188  1.00  0.00     0.004 C 
ENDBRANCH  30  31
ENDBRANCH  29  30
ENDBRANCH  28  29
ENDBRANCH  27  28
ENDBRANCH  26  27
ENDBRANCH  25  26
ENDBRANCH  24  25
ENDBRANCH  23  24
ENDBRANCH  22  23
ENDBRANCH  21  22
ENDBRANCH  20  21
ENDBRANCH  19  20
ENDBRANCH  18  19
ENDBRANCH   1  18
TORSDOF 28
ENDMDL
MODEL 5
REMARK VINA RESULT:    -4.395      1.765      3.461
REMARK INTER + INTRA:         -16.051
REMARK INTER:                 -11.940
REMARK INTRA:                  -4.111
REMARK UNBOUND:                -4.462
REMARK SMILES CCCCCCCCCCCCCCCCCCCCCCCCCCCCCC(=O)[O-]
REMARK SMILES IDX 16 1 17 2 18 3 19 4 20 5 21 6 22 7 23 8 24 9 25 10 26 11
REMARK SMILES IDX 27 12 28 13 29 14 30 15 31 16 32 17 15 18 14 19 13 20 12 21
REMARK SMILES IDX 11 22 10 23 9 24 8 25 7 26 6 27 5 28 4 29 3 30 2 31 1 32
REMARK H PARENT
REMARK Flexibility Score: inf
ROOT
ATOM      1  C   UNL     1      -4.297   2.038  -5.369  1.00  0.00     0.000 C 
ENDROOT
BRANCH   1   2
ATOM      2  C   UNL     1      -4.692   2.509  -6.781  1.00  0.00     0.000 C 
BRANCH   2   3
ATOM      3  C   UNL     1      -3.706   3.542  -7.351  1.00  0.00     0.000 C 
BRANCH   3   4
ATOM      4  C   UNL     1      -2.366   3.550  -6.599  1.00  0.00     0.000 C 
BRANCH   4   5
ATOM      5  C   UNL     1      -1.193   3.331  -7.563  1.00  0.00     0.000 C 
BRANCH   5   6
ATOM      6  C   UNL     1      -1.587   2.509  -8.804  1.00  0.00     0.000 C 
BRANCH   6   7
ATOM      7  C   UNL     1      -0.590   2.575  -9.979  1.00  0.00     0.000 C 
BRANCH   7   8
ATOM      8  C   UNL     1      -1.035   3.438 -11.173  1.00  0.00     0.000 C 
BRANCH   8   9
ATOM      9  C   UNL     1      -2.159   2.784 -11.994  1.00  0.00     0.000 C 
BRANCH   9  10
ATOM     10  C   UNL     1      -3.477   3.583 -11.952  1.00  0.00     0.000 C 
BRANCH  10  11
ATOM     11  C   UNL     1      -3.916   4.195 -13.296  1.00  0.00     0.000 C 
BRANCH  11  12
ATOM     12  C   UNL     1      -3.483   5.656 -13.525  1.00  0.00     0.000 C 
BRANCH  12  13
ATOM     13  C   UNL     1      -3.640   6.557 -12.280  1.00  0.00     0.006 C 
BRANCH  13  14
ATOM     14  C   UNL     1      -2.344   7.268 -11.858  1.00  0.00     0.053 C 
BRANCH  14  15
ATOM     15  C   UNL     1      -2.335   8.713 -12.258  1.00  0.00     0.041 C 
ATOM     16  O   UNL     1      -1.266   9.377 -12.220  1.00  0.00    -0.550 OA
ATOM     17  O   UNL     1      -3.507   9.321 -12.690  1.00  0.00    -0.550 OA
ENDBRANCH  14  15
ENDBRANCH  13  14
ENDBRANCH  12  13
ENDBRANCH  11  12
ENDBRANCH  10  11
ENDBRANCH   9  10
ENDBRANCH   8   9
ENDBRANCH   7   8
ENDBRANCH   6   7
ENDBRANCH   5   6
ENDBRANCH   4   5
ENDBRANCH   3   4
ENDBRANCH   2   3
ENDBRANCH   1   2
BRANCH   1  18
ATOM     18  C   UNL     1      -4.063   0.520  -5.299  1.00  0.00     0.000 C 
BRANCH  18  19
ATOM     19  C   UNL     1      -3.311  -0.016  -6.528  1.00  0.00     0.000 C 
BRANCH  19  20
ATOM     20  C   UNL     1      -1.913  -0.552  -6.182  1.00  0.00     0.000 C 
BRANCH  20  21
ATOM     21  C   UNL     1      -1.432  -0.100  -4.792  1.00  0.00     0.000 C 
BRANCH  21  22
ATOM     22  C   UNL     1      -0.863  -1.260  -3.959  1.00  0.00     0.000 C 
BRANCH  22  23
ATOM     23  C   UNL     1      -1.782  -1.654  -2.788  1.00  0.00     0.000 C 
BRANCH  23  24
ATOM     24  C   UNL     1      -2.495  -0.445  -2.157  1.00  0.00    -0.000 C 
BRANCH  24  25
ATOM     25  C   UNL     1      -3.307  -0.761  -0.889  1.00  0.00    -0.000 C 
BRANCH  25  26
ATOM     26  C   UNL     1      -3.256  -2.252  -0.506  1.00  0.00    -0.000 C 
BRANCH  26  27
ATOM     27  C   UNL     1      -4.658  -2.845  -0.301  1.00  0.00    -0.000 C 
BRANCH  27  28
ATOM     28  C   UNL     1      -4.815  -4.220  -0.977  1.00  0.00    -0.000 C 
BRANCH  28  29
ATOM     29  C   UNL     1      -5.468  -4.113  -2.371  1.00  0.00    -0.000 C 
BRANCH  29  30
ATOM     30  C   UNL     1      -4.450  -4.163  -3.525  1.00  0.00    -0.000 C 
BRANCH  30  31
ATOM     31  C   UNL     1      -4.640  -3.026  -4.539  1.00  0.00    -0.003 C 
ATOM     32  C   UNL     1      -4.353  -3.503  -5.960  1.00  0.00     0.004 C 
ENDBRANCH  30  31
ENDBRANCH  29  30
ENDBRANCH  28  29
ENDBRANCH  27  28
ENDBRANCH  26  27
ENDBRANCH  25  26
ENDBRANCH  24  25
ENDBRANCH  23  24
ENDBRANCH  22  23
ENDBRANCH  21  22
ENDBRANCH  20  21
ENDBRANCH  19  20
ENDBRANCH  18  19
ENDBRANCH   1  18
TORSDOF 28
ENDMDL
MODEL 6
REMARK VINA RESULT:    -4.368      1.961      3.590
REMARK INTER + INTRA:         -15.981
REMARK INTER:                 -13.136
REMARK INTRA:                  -2.845
REMARK UNBOUND:                -4.462
REMARK SMILES CCCCCCCCCCCCCCCCCCCCCCCCCCCCCC(=O)[O-]
REMARK SMILES IDX 16 1 17 2 18 3 19 4 20 5 21 6 22 7 23 8 24 9 25 10 26 11
REMARK SMILES IDX 27 12 28 13 29 14 30 15 31 16 32 17 15 18 14 19 13 20 12 21
REMARK SMILES IDX 11 22 10 23 9 24 8 25 7 26 6 27 5 28 4 29 3 30 2 31 1 32
REMARK H PARENT
REMARK Flexibility Score: inf
ROOT
ATOM      1  C   UNL     1      -4.021   2.328  -5.747  1.00  0.00     0.000 C 
ENDROOT
BRANCH   1   2
ATOM      2  C   UNL     1      -3.656   3.621  -6.499  1.00  0.00     0.000 C 
BRANCH   2   3
ATOM      3  C   UNL     1      -3.281   3.359  -7.968  1.00  0.00     0.000 C 
BRANCH   3   4
ATOM      4  C   UNL     1      -1.764   3.409  -8.203  1.00  0.00     0.000 C 
BRANCH   4   5
ATOM      5  C   UNL     1      -1.239   2.055  -8.697  1.00  0.00     0.000 C 
BRANCH   5   6
ATOM      6  C   UNL     1      -0.452   2.166 -10.015  1.00  0.00     0.000 C 
BRANCH   6   7
ATOM      7  C   UNL     1      -0.995   3.203 -11.019  1.00  0.00     0.000 C 
BRANCH   7   8
ATOM      8  C   UNL     1      -2.153   2.716 -11.908  1.00  0.00     0.000 C 
BRANCH   8   9
ATOM      9  C   UNL     1      -3.355   3.675 -11.897  1.00  0.00     0.000 C 
BRANCH   9  10
ATOM     10  C   UNL     1      -4.046   3.790 -13.271  1.00  0.00     0.000 C 
BRANCH  10  11
ATOM     11  C   UNL     1      -3.879   5.148 -13.978  1.00  0.00     0.000 C 
BRANCH  11  12
ATOM     12  C   UNL     1      -2.425   5.631 -14.138  1.00  0.00     0.000 C 
BRANCH  12  13
ATOM     13  C   UNL     1      -2.092   6.897 -13.317  1.00  0.00     0.006 C 
BRANCH  13  14
ATOM     14  C   UNL     1      -3.324   7.586 -12.708  1.00  0.00     0.053 C 
BRANCH  14  15
ATOM     15  C   UNL     1      -3.148   9.071 -12.607  1.00  0.00     0.041 C 
ATOM     16  O   UNL     1      -4.117   9.844 -12.832  1.00  0.00    -0.550 OA
ATOM     17  O   UNL     1      -1.916   9.601 -12.246  1.00  0.00    -0.550 OA
ENDBRANCH  14  15
ENDBRANCH  13  14
ENDBRANCH  12  13
ENDBRANCH  11  12
ENDBRANCH  10  11
ENDBRANCH   9  10
ENDBRANCH   8   9
ENDBRANCH   7   8
ENDBRANCH   6   7
ENDBRANCH   5   6
ENDBRANCH   4   5
ENDBRANCH   3   4
ENDBRANCH   2   3
ENDBRANCH   1   2
BRANCH   1  18
ATOM     18  C   UNL     1      -2.785   1.493  -5.377  1.00  0.00     0.000 C 
BRANCH  18  19
ATOM     19  C   UNL     1      -3.059   0.518  -4.219  1.00  0.00     0.000 C 
BRANCH  19  20
ATOM     20  C   UNL     1      -2.730  -0.940  -4.580  1.00  0.00     0.000 C 
BRANCH  20  21
ATOM     21  C   UNL     1      -2.796  -1.206  -6.093  1.00  0.00     0.000 C 
BRANCH  21  22
ATOM     22  C   UNL     1      -3.939  -2.160  -6.475  1.00  0.00     0.000 C 
BRANCH  22  23
ATOM     23  C   UNL     1      -4.977  -2.320  -5.348  1.00  0.00     0.000 C 
BRANCH  23  24
ATOM     24  C   UNL     1      -5.227  -3.792  -4.973  1.00  0.00    -0.000 C 
BRANCH  24  25
ATOM     25  C   UNL     1      -4.671  -4.214  -3.601  1.00  0.00    -0.000 C 
BRANCH  25  26
ATOM     26  C   UNL     1      -4.739  -3.083  -2.557  1.00  0.00    -0.000 C 
BRANCH  26  27
ATOM     27  C   UNL     1      -3.645  -3.217  -1.487  1.00  0.00    -0.000 C 
BRANCH  27  28
ATOM     28  C   UNL     1      -4.137  -2.788  -0.092  1.00  0.00    -0.000 C 
BRANCH  28  29
ATOM     29  C   UNL     1      -5.317  -3.651   0.401  1.00  0.00    -0.000 C 
BRANCH  29  30
ATOM     30  C   UNL     1      -6.607  -2.845   0.630  1.00  0.00    -0.000 C 
BRANCH  30  31
ATOM     31  C   UNL     1      -7.741  -3.249  -0.323  1.00  0.00    -0.003 C 
ATOM     32  C   UNL     1      -8.496  -4.467   0.206  1.00  0.00     0.004 C 
ENDBRANCH  30  31
ENDBRANCH  29  30
ENDBRANCH  28  29
ENDBRANCH  27  28
ENDBRANCH  26  27
ENDBRANCH  25  26
ENDBRANCH  24  25
ENDBRANCH  23  24
ENDBRANCH  22  23
ENDBRANCH  21  22
ENDBRANCH  20  21
ENDBRANCH  19  20
ENDBRANCH  18  19
ENDBRANCH   1  18
TORSDOF 28
ENDMDL
MODEL 7
REMARK VINA RESULT:    -4.351      1.501      3.035
REMARK INTER + INTRA:         -15.935
REMARK INTER:                 -11.873
REMARK INTRA:                  -4.062
REMARK UNBOUND:                -4.462
REMARK SMILES CCCCCCCCCCCCCCCCCCCCCCCCCCCCCC(=O)[O-]
REMARK SMILES IDX 16 1 17 2 18 3 19 4 20 5 21 6 22 7 23 8 24 9 25 10 26 11
REMARK SMILES IDX 27 12 28 13 29 14 30 15 31 16 32 17 15 18 14 19 13 20 12 21
REMARK SMILES IDX 11 22 10 23 9 24 8 25 7 26 6 27 5 28 4 29 3 30 2 31 1 32
REMARK H PARENT
REMARK Flexibility Score: inf
ROOT
ATOM      1  C   UNL     1      -4.174   3.077  -7.218  1.00  0.00     0.000 C 
ENDROOT
BRANCH   1   2
ATOM      2  C   UNL     1      -2.701   3.499  -7.372  1.00  0.00     0.000 C 
BRANCH   2   3
ATOM      3  C   UNL     1      -1.777   2.772  -6.380  1.00  0.00     0.000 C 
BRANCH   3   4
ATOM      4  C   UNL     1      -0.568   2.124  -7.073  1.00  0.00     0.000 C 
BRANCH   4   5
ATOM      5  C   UNL     1      -1.016   1.032  -8.053  1.00  0.00     0.000 C 
BRANCH   5   6
ATOM      6  C   UNL     1      -0.550   1.298  -9.495  1.00  0.00     0.000 C 
BRANCH   6   7
ATOM      7  C   UNL     1       0.039   2.701  -9.747  1.00  0.00     0.000 C 
BRANCH   7   8
ATOM      8  C   UNL     1      -0.568   3.468 -10.935  1.00  0.00     0.000 C 
BRANCH   8   9
ATOM      9  C   UNL     1      -1.736   2.715 -11.594  1.00  0.00     0.000 C 
BRANCH   9  10
ATOM     10  C   UNL     1      -3.057   3.509 -11.563  1.00  0.00     0.000 C 
BRANCH  10  11
ATOM     11  C   UNL     1      -3.874   3.475 -12.869  1.00  0.00     0.000 C 
BRANCH  11  12
ATOM     12  C   UNL     1      -3.987   4.821 -13.609  1.00  0.00     0.000 C 
BRANCH  12  13
ATOM     13  C   UNL     1      -2.981   5.888 -13.124  1.00  0.00     0.006 C 
BRANCH  13  14
ATOM     14  C   UNL     1      -3.627   7.051 -12.354  1.00  0.00     0.053 C 
BRANCH  14  15
ATOM     15  C   UNL     1      -2.825   8.312 -12.457  1.00  0.00     0.041 C 
ATOM     16  O   UNL     1      -3.385   9.401 -12.753  1.00  0.00    -0.550 OA
ATOM     17  O   UNL     1      -1.458   8.289 -12.209  1.00  0.00    -0.550 OA
ENDBRANCH  14  15
ENDBRANCH  13  14
ENDBRANCH  12  13
ENDBRANCH  11  12
ENDBRANCH  10  11
ENDBRANCH   9  10
ENDBRANCH   8   9
ENDBRANCH   7   8
ENDBRANCH   6   7
ENDBRANCH   5   6
ENDBRANCH   4   5
ENDBRANCH   3   4
ENDBRANCH   2   3
ENDBRANCH   1   2
BRANCH   1  18
ATOM     18  C   UNL     1      -4.398   2.150  -6.013  1.00  0.00     0.000 C 
BRANCH  18  19
ATOM     19  C   UNL     1      -5.513   1.120  -6.263  1.00  0.00     0.000 C 
BRANCH  19  20
ATOM     20  C   UNL     1      -5.084  -0.315  -5.916  1.00  0.00     0.000 C 
BRANCH  20  21
ATOM     21  C   UNL     1      -3.736  -0.701  -6.549  1.00  0.00     0.000 C 
BRANCH  21  22
ATOM     22  C   UNL     1      -2.684  -1.095  -5.500  1.00  0.00     0.000 C 
BRANCH  22  23
ATOM     23  C   UNL     1      -3.031  -0.579  -4.091  1.00  0.00     0.000 C 
BRANCH  23  24
ATOM     24  C   UNL     1      -1.964   0.374  -3.525  1.00  0.00    -0.000 C 
BRANCH  24  25
ATOM     25  C   UNL     1      -1.306  -0.096  -2.215  1.00  0.00    -0.000 C 
BRANCH  25  26
ATOM     26  C   UNL     1      -2.272  -0.053  -1.015  1.00  0.00    -0.000 C 
BRANCH  26  27
ATOM     27  C   UNL     1      -2.513  -1.449  -0.418  1.00  0.00    -0.000 C 
BRANCH  27  28
ATOM     28  C   UNL     1      -3.961  -1.931  -0.628  1.00  0.00    -0.000 C 
BRANCH  28  29
ATOM     29  C   UNL     1      -4.035  -3.443  -0.925  1.00  0.00    -0.000 C 
BRANCH  29  30
ATOM     30  C   UNL     1      -3.832  -3.782  -2.412  1.00  0.00    -0.000 C 
BRANCH  30  31
ATOM     31  C   UNL     1      -5.148  -4.102  -3.136  1.00  0.00    -0.003 C 
ATOM     32  C   UNL     1      -5.084  -3.682  -4.603  1.00  0.00     0.004 C 
ENDBRANCH  30  31
ENDBRANCH  29  30
ENDBRANCH  28  29
ENDBRANCH  27  28
ENDBRANCH  26  27
ENDBRANCH  25  26
ENDBRANCH  24  25
ENDBRANCH  23  24
ENDBRANCH  22  23
ENDBRANCH  21  22
ENDBRANCH  20  21
ENDBRANCH  19  20
ENDBRANCH  18  19
ENDBRANCH   1  18
TORSDOF 28
ENDMDL
MODEL 8
REMARK VINA RESULT:    -4.345      1.749      3.567
REMARK INTER + INTRA:         -15.919
REMARK INTER:                 -12.175
REMARK INTRA:                  -3.744
REMARK UNBOUND:                -4.462
REMARK SMILES CCCCCCCCCCCCCCCCCCCCCCCCCCCCCC(=O)[O-]
REMARK SMILES IDX 16 1 17 2 18 3 19 4 20 5 21 6 22 7 23 8 24 9 25 10 26 11
REMARK SMILES IDX 27 12 28 13 29 14 30 15 31 16 32 17 15 18 14 19 13 20 12 21
REMARK SMILES IDX 11 22 10 23 9 24 8 25 7 26 6 27 5 28 4 29 3 30 2 31 1 32
REMARK H PARENT
REMARK Flexibility Score: inf
ROOT
ATOM      1  C   UNL     1      -5.135  -3.409  -4.870  1.00  0.00     0.000 C 
ENDROOT
BRANCH   1   2
ATOM      2  C   UNL     1      -4.377  -2.895  -6.107  1.00  0.00     0.000 C 
BRANCH   2   3
ATOM      3  C   UNL     1      -4.814  -1.477  -6.514  1.00  0.00     0.000 C 
BRANCH   3   4
ATOM      4  C   UNL     1      -3.656  -0.469  -6.458  1.00  0.00     0.000 C 
BRANCH   4   5
ATOM      5  C   UNL     1      -4.154   0.915  -6.022  1.00  0.00     0.000 C 
BRANCH   5   6
ATOM      6  C   UNL     1      -3.047   1.985  -6.058  1.00  0.00     0.000 C 
BRANCH   6   7
ATOM      7  C   UNL     1      -1.607   1.437  -6.145  1.00  0.00     0.000 C 
BRANCH   7   8
ATOM      8  C   UNL     1      -0.762   1.989  -7.307  1.00  0.00     0.000 C 
BRANCH   8   9
ATOM      9  C   UNL     1      -1.019   1.253  -8.632  1.00  0.00     0.000 C 
BRANCH   9  10
ATOM     10  C   UNL     1      -0.990   2.190  -9.856  1.00  0.00     0.000 C 
BRANCH  10  11
ATOM     11  C   UNL     1      -1.829   3.475  -9.719  1.00  0.00     0.000 C 
BRANCH  11  12
ATOM     12  C   UNL     1      -2.883   3.693 -10.820  1.00  0.00     0.000 C 
BRANCH  12  13
ATOM     13  C   UNL     1      -2.503   3.072 -12.182  1.00  0.00     0.006 C 
BRANCH  13  14
ATOM     14  C   UNL     1      -2.114   4.105 -13.252  1.00  0.00     0.053 C 
BRANCH  14  15
ATOM     15  C   UNL     1      -3.239   5.045 -13.565  1.00  0.00     0.041 C 
ATOM     16  O   UNL     1      -4.426   4.626 -13.606  1.00  0.00    -0.550 OA
ATOM     17  O   UNL     1      -2.976   6.389 -13.796  1.00  0.00    -0.550 OA
ENDBRANCH  14  15
ENDBRANCH  13  14
ENDBRANCH  12  13
ENDBRANCH  11  12
ENDBRANCH  10  11
ENDBRANCH   9  10
ENDBRANCH   8   9
ENDBRANCH   7   8
ENDBRANCH   6   7
ENDBRANCH   5   6
ENDBRANCH   4   5
ENDBRANCH   3   4
ENDBRANCH   2   3
ENDBRANCH   1   2
BRANCH   1  18
ATOM     18  C   UNL     1      -4.256  -3.435  -3.609  1.00  0.00     0.000 C 
BRANCH  18  19
ATOM     19  C   UNL     1      -2.758  -3.302  -3.935  1.00  0.00     0.000 C 
BRANCH  19  20
ATOM     20  C   UNL     1      -2.127  -2.043  -3.320  1.00  0.00     0.000 C 
BRANCH  20  21
ATOM     21  C   UNL     1      -3.176  -1.009  -2.876  1.00  0.00     0.000 C 
BRANCH  21  22
ATOM     22  C   UNL     1      -2.852  -0.393  -1.505  1.00  0.00     0.000 C 
BRANCH  22  23
ATOM     23  C   UNL     1      -2.011  -1.330  -0.619  1.00  0.00     0.000 C 
BRANCH  23  24
ATOM     24  C   UNL     1      -2.862  -2.116   0.394  1.00  0.00    -0.000 C 
BRANCH  24  25
ATOM     25  C   UNL     1      -3.120  -3.586   0.020  1.00  0.00    -0.000 C 
BRANCH  25  26
ATOM     26  C   UNL     1      -4.620  -3.923  -0.070  1.00  0.00    -0.000 C 
BRANCH  26  27
ATOM     27  C   UNL     1      -5.492  -2.661  -0.161  1.00  0.00    -0.000 C 
BRANCH  27  28
ATOM     28  C   UNL     1      -6.969  -2.947   0.167  1.00  0.00    -0.000 C 
BRANCH  28  29
ATOM     29  C   UNL     1      -7.125  -3.993   1.290  1.00  0.00    -0.000 C 
BRANCH  29  30
ATOM     30  C   UNL     1      -7.957  -5.218   0.869  1.00  0.00    -0.000 C 
BRANCH  30  31
ATOM     31  C   UNL     1      -7.209  -6.544   1.067  1.00  0.00    -0.003 C 
ATOM     32  C   UNL     1      -7.409  -7.473  -0.128  1.00  0.00     0.004 C 
ENDBRANCH  30  31
ENDBRANCH  29  30
ENDBRANCH  28  29
ENDBRANCH  27  28
ENDBRANCH  26  27
ENDBRANCH  25  26
ENDBRANCH  24  25
ENDBRANCH  23  24
ENDBRANCH  22  23
ENDBRANCH  21  22
ENDBRANCH  20  21
ENDBRANCH  19  20
ENDBRANCH  18  19
ENDBRANCH   1  18
TORSDOF 28
ENDMDL
MODEL 9
REMARK VINA RESULT:    -4.327      3.214     10.914
REMARK INTER + INTRA:         -15.871
REMARK INTER:                 -11.875
REMARK INTRA:                  -3.996
REMARK UNBOUND:                -4.462
REMARK SMILES CCCCCCCCCCCCCCCCCCCCCCCCCCCCCC(=O)[O-]
REMARK SMILES IDX 16 1 17 2 18 3 19 4 20 5 21 6 22 7 23 8 24 9 25 10 26 11
REMARK SMILES IDX 27 12 28 13 29 14 30 15 31 16 32 17 15 18 14 19 13 20 12 21
REMARK SMILES IDX 11 22 10 23 9 24 8 25 7 26 6 27 5 28 4 29 3 30 2 31 1 32
REMARK H PARENT
REMARK Flexibility Score: inf
ROOT
ATOM      1  C   UNL     1      -0.653   1.505  -9.526  1.00  0.00     0.000 C 
ENDROOT
BRANCH   1   2
ATOM      2  C   UNL     1      -0.261   0.848  -8.190  1.00  0.00     0.000 C 
BRANCH   2   3
ATOM      3  C   UNL     1      -1.387   0.931  -7.145  1.00  0.00     0.000 C 
BRANCH   3   4
ATOM      4  C   UNL     1      -0.871   0.732  -5.711  1.00  0.00     0.000 C 
BRANCH   4   5
ATOM      5  C   UNL     1      -0.608  -0.752  -5.423  1.00  0.00     0.000 C 
BRANCH   5   6
ATOM      6  C   UNL     1      -1.342  -1.254  -4.167  1.00  0.00     0.000 C 
BRANCH   6   7
ATOM      7  C   UNL     1      -0.856  -2.612  -3.621  1.00  0.00     0.000 C 
BRANCH   7   8
ATOM      8  C   UNL     1      -1.964  -3.562  -3.133  1.00  0.00     0.000 C 
BRANCH   8   9
ATOM      9  C   UNL     1      -3.351  -2.897  -3.114  1.00  0.00     0.000 C 
BRANCH   9  10
ATOM     10  C   UNL     1      -4.435  -3.746  -3.808  1.00  0.00     0.000 C 
BRANCH  10  11
ATOM     11  C   UNL     1      -5.153  -3.060  -4.985  1.00  0.00     0.000 C 
BRANCH  11  12
ATOM     12  C   UNL     1      -4.250  -2.673  -6.171  1.00  0.00     0.000 C 
BRANCH  12  13
ATOM     13  C   UNL     1      -4.370  -1.192  -6.592  1.00  0.00     0.006 C 
BRANCH  13  14
ATOM     14  C   UNL     1      -4.396  -0.208  -5.411  1.00  0.00     0.053 C 
BRANCH  14  15
ATOM     15  C   UNL     1      -5.015   1.105  -5.783  1.00  0.00     0.041 C 
ATOM     16  O   UNL     1      -4.477   2.187  -5.427  1.00  0.00    -0.550 OA
ATOM     17  O   UNL     1      -6.180   1.135  -6.540  1.00  0.00    -0.550 OA
ENDBRANCH  14  15
ENDBRANCH  13  14
ENDBRANCH  12  13
ENDBRANCH  11  12
ENDBRANCH  10  11
ENDBRANCH   9  10
ENDBRANCH   8   9
ENDBRANCH   7   8
ENDBRANCH   6   7
ENDBRANCH   5   6
ENDBRANCH   4   5
ENDBRANCH   3   4
ENDBRANCH   2   3
ENDBRANCH   1   2
BRANCH   1  18
ATOM     18  C   UNL     1       0.006   2.879  -9.722  1.00  0.00     0.000 C 
BRANCH  18  19
ATOM     19  C   UNL     1      -0.635   3.680 -10.868  1.00  0.00     0.000 C 
BRANCH  19  20
ATOM     20  C   UNL     1      -1.834   2.955 -11.501  1.00  0.00     0.000 C 
BRANCH  20  21
ATOM     21  C   UNL     1      -3.064   3.866 -11.653  1.00  0.00     0.000 C 
BRANCH  21  22
ATOM     22  C   UNL     1      -3.827   3.611 -12.964  1.00  0.00     0.000 C 
BRANCH  22  23
ATOM     23  C   UNL     1      -4.346   4.910 -13.608  1.00  0.00     0.000 C 
BRANCH  23  24
ATOM     24  C   UNL     1      -3.942   5.044 -15.088  1.00  0.00    -0.000 C 
BRANCH  24  25
ATOM     25  C   UNL     1      -2.739   5.967 -15.349  1.00  0.00    -0.000 C 
BRANCH  25  26
ATOM     26  C   UNL     1      -1.389   5.272 -15.092  1.00  0.00    -0.000 C 
BRANCH  26  27
ATOM     27  C   UNL     1      -0.687   5.817 -13.839  1.00  0.00    -0.000 C 
BRANCH  27  28
ATOM     28  C   UNL     1      -0.668   7.357 -13.805  1.00  0.00    -0.000 C 
BRANCH  28  29
ATOM     29  C   UNL     1      -0.992   7.914 -12.403  1.00  0.00    -0.000 C 
BRANCH  29  30
ATOM     30  C   UNL     1      -2.397   7.530 -11.906  1.00  0.00    -0.000 C 
BRANCH  30  31
ATOM     31  C   UNL     1      -3.504   8.407 -12.509  1.00  0.00    -0.003 C 
ATOM     32  C   UNL     1      -3.099   9.878 -12.514  1.00  0.00     0.004 C 
ENDBRANCH  30  31
ENDBRANCH  29  30
ENDBRANCH  28  29
ENDBRANCH  27  28
ENDBRANCH  26  27
ENDBRANCH  25  26
ENDBRANCH  24  25
ENDBRANCH  23  24
ENDBRANCH  22  23
ENDBRANCH  21  22
ENDBRANCH  20  21
ENDBRANCH  19  20
ENDBRANCH  18  19
ENDBRANCH   1  18
TORSDOF 28
ENDMDL
