MODEL 1
REMARK VINA RESULT:    -4.407      0.000      0.000
REMARK INTER + INTRA:         -15.267
REMARK INTER:                 -11.105
REMARK INTRA:                  -4.161
REMARK UNBOUND:                -4.161
REMARK SMILES CCCCCCCCCCCCCCCCCCCCCCCCCCCC(=O)[O-]
REMARK SMILES IDX 15 1 16 2 17 3 18 4 19 5 20 6 21 7 22 8 23 9 24 10 25 11
REMARK SMILES IDX 26 12 27 13 28 14 29 15 30 16 14 17 13 18 12 19 11 20 10 21
REMARK SMILES IDX 9 22 8 23 7 24 6 25 5 26 4 27 3 28 2 29 1 30
REMARK H PARENT
REMARK Flexibility Score: inf
ROOT
ATOM      1  C   UNL     1     -27.379 -18.476  17.539  1.00  0.00     0.000 C 
ENDROOT
BRANCH   1   2
ATOM      2  C   UNL     1     -27.811 -19.687  16.697  1.00  0.00     0.000 C 
BRANCH   2   3
ATOM      3  C   UNL     1     -29.328 -19.726  16.443  1.00  0.00     0.000 C 
BRANCH   3   4
ATOM      4  C   UNL     1     -30.173 -19.820  17.731  1.00  0.00     0.000 C 
BRANCH   4   5
ATOM      5  C   UNL     1     -31.440 -18.949  17.662  1.00  0.00     0.000 C 
BRANCH   5   6
ATOM      6  C   UNL     1     -31.253 -17.710  16.772  1.00  0.00     0.000 C 
BRANCH   6   7
ATOM      7  C   UNL     1     -32.282 -17.647  15.631  1.00  0.00     0.000 C 
BRANCH   7   8
ATOM      8  C   UNL     1     -31.649 -17.899  14.253  1.00  0.00     0.000 C 
BRANCH   8   9
ATOM      9  C   UNL     1     -30.435 -16.992  13.988  1.00  0.00     0.000 C 
BRANCH   9  10
ATOM     10  C   UNL     1     -29.521 -17.545  12.877  1.00  0.00     0.000 C 
BRANCH  10  11
ATOM     11  C   UNL     1     -28.208 -18.166  13.396  1.00  0.00     0.000 C 
BRANCH  11  12
ATOM     12  C   UNL     1     -27.642 -19.290  12.503  1.00  0.00     0.006 C 
BRANCH  12  13
ATOM     13  C   UNL     1     -26.745 -18.780  11.363  1.00  0.00     0.053 C 
BRANCH  13  14
ATOM     14  C   UNL     1     -27.420 -18.893  10.030  1.00  0.00     0.041 C 
ATOM     15  O   UNL     1     -27.870 -17.866   9.457  1.00  0.00    -0.550 OA
ATOM     16  O   UNL     1     -27.566 -20.136   9.427  1.00  0.00    -0.550 OA
ENDBRANCH  13  14
ENDBRANCH  12  13
ENDBRANCH  11  12
ENDBRANCH  10  11
ENDBRANCH   9  10
ENDBRANCH   8   9
ENDBRANCH   7   8
ENDBRANCH   6   7
ENDBRANCH   5   6
ENDBRANCH   4   5
ENDBRANCH   3   4
ENDBRANCH   2   3
ENDBRANCH   1   2
BRANCH   1  17
ATOM     17  C   UNL     1     -27.663 -17.135  16.845  1.00  0.00     0.000 C 
BRANCH  17  18
ATOM     18  C   UNL     1     -27.405 -15.923  17.759  1.00  0.00     0.000 C 
BRANCH  18  19
ATOM     19  C   UNL     1     -26.093 -15.189  17.430  1.00  0.00     0.000 C 
BRANCH  19  20
ATOM     20  C   UNL     1     -25.952 -13.797  18.071  1.00  0.00     0.000 C 
BRANCH  20  21
ATOM     21  C   UNL     1     -25.436 -12.730  17.090  1.00  0.00     0.000 C 
BRANCH  21  22
ATOM     22  C   UNL     1     -26.371 -11.504  16.996  1.00  0.00    -0.000 C 
BRANCH  22  23
ATOM     23  C   UNL     1     -27.664 -11.631  17.829  1.00  0.00    -0.000 C 
BRANCH  23  24
ATOM     24  C   UNL     1     -28.967 -11.731  17.017  1.00  0.00    -0.000 C 
BRANCH  24  25
ATOM     25  C   UNL     1     -29.863 -12.939  17.357  1.00  0.00    -0.000 C 
BRANCH  25  26
ATOM     26  C   UNL     1     -30.099 -13.896  16.170  1.00  0.00    -0.000 C 
BRANCH  26  27
ATOM     27  C   UNL     1     -31.591 -14.189  15.934  1.00  0.00    -0.000 C 
BRANCH  27  28
ATOM     28  C   UNL     1     -32.462 -13.829  17.152  1.00  0.00    -0.000 C 
BRANCH  28  29
ATOM     29  C   UNL     1     -33.977 -13.898  16.890  1.00  0.00    -0.003 C 
ATOM     30  C   UNL     1     -34.324 -14.637  15.597  1.00  0.00     0.004 C 
ENDBRANCH  28  29
ENDBRANCH  27  28
ENDBRANCH  26  27
ENDBRANCH  25  26
ENDBRANCH  24  25
ENDBRANCH  23  24
ENDBRANCH  22  23
ENDBRANCH  21  22
ENDBRANCH  20  21
ENDBRANCH  19  20
ENDBRANCH  18  19
ENDBRANCH  17  18
ENDBRANCH   1  17
TORSDOF 26
ENDMDL
MODEL 2
REMARK VINA RESULT:    -4.397      1.305      2.445
REMARK INTER + INTRA:         -15.240
REMARK INTER:                 -11.083
REMARK INTRA:                  -4.158
REMARK UNBOUND:                -4.161
REMARK SMILES CCCCCCCCCCCCCCCCCCCCCCCCCCCC(=O)[O-]
REMARK SMILES IDX 15 1 16 2 17 3 18 4 19 5 20 6 21 7 22 8 23 9 24 10 25 11
REMARK SMILES IDX 26 12 27 13 28 14 29 15 30 16 14 17 13 18 12 19 11 20 10 21
REMARK SMILES IDX 9 22 8 23 7 24 6 25 5 26 4 27 3 28 2 29 1 30
REMARK H PARENT
REMARK Flexibility Score: inf
ROOT
ATOM      1  C   UNL     1     -29.457 -16.730  16.944  1.00  0.00     0.000 C 
ENDROOT
BRANCH   1   2
ATOM      2  C   UNL     1     -29.220 -16.667  15.427  1.00  0.00     0.000 C 
BRANCH   2   3
ATOM      3  C   UNL     1     -30.410 -16.061  14.662  1.00  0.00     0.000 C 
BRANCH   3   4
ATOM      4  C   UNL     1     -31.734 -16.828  14.861  1.00  0.00     0.000 C 
BRANCH   4   5
ATOM      5  C   UNL     1     -31.600 -18.322  14.513  1.00  0.00     0.000 C 
BRANCH   5   6
ATOM      6  C   UNL     1     -32.296 -19.229  15.541  1.00  0.00     0.000 C 
BRANCH   6   7
ATOM      7  C   UNL     1     -31.495 -20.510  15.829  1.00  0.00     0.000 C 
BRANCH   7   8
ATOM      8  C   UNL     1     -30.112 -20.216  16.433  1.00  0.00     0.000 C 
BRANCH   8   9
ATOM      9  C   UNL     1     -28.965 -20.520  15.453  1.00  0.00     0.000 C 
BRANCH   9  10
ATOM     10  C   UNL     1     -27.582 -20.187  16.047  1.00  0.00     0.000 C 
BRANCH  10  11
ATOM     11  C   UNL     1     -26.687 -19.341  15.119  1.00  0.00     0.000 C 
BRANCH  11  12
ATOM     12  C   UNL     1     -26.520 -19.920  13.699  1.00  0.00     0.006 C 
BRANCH  12  13
ATOM     13  C   UNL     1     -26.230 -18.856  12.627  1.00  0.00     0.053 C 
BRANCH  13  14
ATOM     14  C   UNL     1     -27.421 -18.611  11.751  1.00  0.00     0.041 C 
ATOM     15  O   UNL     1     -27.439 -19.043  10.569  1.00  0.00    -0.550 OA
ATOM     16  O   UNL     1     -28.505 -17.891  12.237  1.00  0.00    -0.550 OA
ENDBRANCH  13  14
ENDBRANCH  12  13
ENDBRANCH  11  12
ENDBRANCH  10  11
ENDBRANCH   9  10
ENDBRANCH   8   9
ENDBRANCH   7   8
ENDBRANCH   6   7
ENDBRANCH   5   6
ENDBRANCH   4   5
ENDBRANCH   3   4
ENDBRANCH   2   3
ENDBRANCH   1   2
BRANCH   1  17
ATOM     17  C   UNL     1     -28.317 -16.091  17.753  1.00  0.00     0.000 C 
BRANCH  17  18
ATOM     18  C   UNL     1     -26.938 -16.287  17.098  1.00  0.00     0.000 C 
BRANCH  18  19
ATOM     19  C   UNL     1     -25.866 -15.332  17.654  1.00  0.00     0.000 C 
BRANCH  19  20
ATOM     20  C   UNL     1     -26.394 -13.960  18.107  1.00  0.00     0.000 C 
BRANCH  20  21
ATOM     21  C   UNL     1     -25.654 -12.781  17.449  1.00  0.00     0.000 C 
BRANCH  21  22
ATOM     22  C   UNL     1     -26.597 -11.613  17.087  1.00  0.00    -0.000 C 
BRANCH  22  23
ATOM     23  C   UNL     1     -27.996 -11.707  17.730  1.00  0.00    -0.000 C 
BRANCH  23  24
ATOM     24  C   UNL     1     -29.178 -11.703  16.745  1.00  0.00    -0.000 C 
BRANCH  24  25
ATOM     25  C   UNL     1     -29.965 -13.026  16.657  1.00  0.00    -0.000 C 
BRANCH  25  26
ATOM     26  C   UNL     1     -30.955 -13.244  17.821  1.00  0.00    -0.000 C 
BRANCH  26  27
ATOM     27  C   UNL     1     -32.027 -14.299  17.495  1.00  0.00    -0.000 C 
BRANCH  27  28
ATOM     28  C   UNL     1     -33.421 -13.679  17.293  1.00  0.00    -0.000 C 
BRANCH  28  29
ATOM     29  C   UNL     1     -34.071 -14.009  15.937  1.00  0.00    -0.003 C 
ATOM     30  C   UNL     1     -35.248 -13.092  15.602  1.00  0.00     0.004 C 
ENDBRANCH  28  29
ENDBRANCH  27  28
ENDBRANCH  26  27
ENDBRANCH  25  26
ENDBRANCH  24  25
ENDBRANCH  23  24
ENDBRANCH  22  23
ENDBRANCH  21  22
ENDBRANCH  20  21
ENDBRANCH  19  20
ENDBRANCH  18  19
ENDBRANCH  17  18
ENDBRANCH   1  17
TORSDOF 26
ENDMDL
MODEL 3
REMARK VINA RESULT:    -4.393      1.254      2.407
REMARK INTER + INTRA:         -15.232
REMARK INTER:                 -11.373
REMARK INTRA:                  -3.859
REMARK UNBOUND:                -4.161
REMARK SMILES CCCCCCCCCCCCCCCCCCCCCCCCCCCC(=O)[O-]
REMARK SMILES IDX 15 1 16 2 17 3 18 4 19 5 20 6 21 7 22 8 23 9 24 10 25 11
REMARK SMILES IDX 26 12 27 13 28 14 29 15 30 16 14 17 13 18 12 19 11 20 10 21
REMARK SMILES IDX 9 22 8 23 7 24 6 25 5 26 4 27 3 28 2 29 1 30
REMARK H PARENT
REMARK Flexibility Score: inf
ROOT
ATOM      1  C   UNL     1     -27.202 -15.602  18.085  1.00  0.00     0.000 C 
ENDROOT
BRANCH   1   2
ATOM      2  C   UNL     1     -27.885 -16.602  17.140  1.00  0.00     0.000 C 
BRANCH   2   3
ATOM      3  C   UNL     1     -28.544 -17.775  17.887  1.00  0.00     0.000 C 
BRANCH   3   4
ATOM      4  C   UNL     1     -29.488 -18.622  17.008  1.00  0.00     0.000 C 
BRANCH   4   5
ATOM      5  C   UNL     1     -30.966 -18.244  17.208  1.00  0.00     0.000 C 
BRANCH   5   6
ATOM      6  C   UNL     1     -31.854 -18.706  16.041  1.00  0.00     0.000 C 
BRANCH   6   7
ATOM      7  C   UNL     1     -31.072 -18.820  14.721  1.00  0.00     0.000 C 
BRANCH   7   8
ATOM      8  C   UNL     1     -31.032 -17.494  13.944  1.00  0.00     0.000 C 
BRANCH   8   9
ATOM      9  C   UNL     1     -29.596 -17.001  13.695  1.00  0.00     0.000 C 
BRANCH   9  10
ATOM     10  C   UNL     1     -29.194 -17.090  12.210  1.00  0.00     0.000 C 
BRANCH  10  11
ATOM     11  C   UNL     1     -28.061 -18.096  11.925  1.00  0.00     0.000 C 
BRANCH  11  12
ATOM     12  C   UNL     1     -27.565 -18.863  13.169  1.00  0.00     0.006 C 
BRANCH  12  13
ATOM     13  C   UNL     1     -26.932 -20.226  12.844  1.00  0.00     0.053 C 
BRANCH  13  14
ATOM     14  C   UNL     1     -26.191 -20.199  11.543  1.00  0.00     0.041 C 
ATOM     15  O   UNL     1     -26.705 -20.699  10.508  1.00  0.00    -0.550 OA
ATOM     16  O   UNL     1     -24.924 -19.633  11.475  1.00  0.00    -0.550 OA
ENDBRANCH  13  14
ENDBRANCH  12  13
ENDBRANCH  11  12
ENDBRANCH  10  11
ENDBRANCH   9  10
ENDBRANCH   8   9
ENDBRANCH   7   8
ENDBRANCH   6   7
ENDBRANCH   5   6
ENDBRANCH   4   5
ENDBRANCH   3   4
ENDBRANCH   2   3
ENDBRANCH   1   2
BRANCH   1  17
ATOM     17  C   UNL     1     -26.119 -14.765  17.387  1.00  0.00     0.000 C 
BRANCH  17  18
ATOM     18  C   UNL     1     -25.896 -13.397  18.058  1.00  0.00     0.000 C 
BRANCH  18  19
ATOM     19  C   UNL     1     -25.547 -12.283  17.054  1.00  0.00     0.000 C 
BRANCH  19  20
ATOM     20  C   UNL     1     -26.727 -11.380  16.654  1.00  0.00     0.000 C 
BRANCH  20  21
ATOM     21  C   UNL     1     -27.749 -11.184  17.789  1.00  0.00     0.000 C 
BRANCH  21  22
ATOM     22  C   UNL     1     -29.209 -11.335  17.309  1.00  0.00    -0.000 C 
BRANCH  22  23
ATOM     23  C   UNL     1     -29.768 -12.768  17.425  1.00  0.00    -0.000 C 
BRANCH  23  24
ATOM     24  C   UNL     1     -29.906 -13.534  16.098  1.00  0.00    -0.000 C 
BRANCH  24  25
ATOM     25  C   UNL     1     -30.912 -14.702  16.115  1.00  0.00    -0.000 C 
BRANCH  25  26
ATOM     26  C   UNL     1     -32.388 -14.259  16.024  1.00  0.00    -0.000 C 
BRANCH  26  27
ATOM     27  C   UNL     1     -33.361 -15.335  16.537  1.00  0.00    -0.000 C 
BRANCH  27  28
ATOM     28  C   UNL     1     -34.276 -15.881  15.426  1.00  0.00    -0.000 C 
BRANCH  28  29
ATOM     29  C   UNL     1     -35.720 -16.165  15.878  1.00  0.00    -0.003 C 
ATOM     30  C   UNL     1     -36.725 -15.148  15.335  1.00  0.00     0.004 C 
ENDBRANCH  28  29
ENDBRANCH  27  28
ENDBRANCH  26  27
ENDBRANCH  25  26
ENDBRANCH  24  25
ENDBRANCH  23  24
ENDBRANCH  22  23
ENDBRANCH  21  22
ENDBRANCH  20  21
ENDBRANCH  19  20
ENDBRANCH  18  19
ENDBRANCH  17  18
ENDBRANCH   1  17
TORSDOF 26
ENDMDL
MODEL 4
REMARK VINA RESULT:    -4.282      2.186      3.712
REMARK INTER + INTRA:         -14.952
REMARK INTER:                 -11.928
REMARK INTRA:                  -3.024
REMARK UNBOUND:                -4.161
REMARK SMILES CCCCCCCCCCCCCCCCCCCCCCCCCCCC(=O)[O-]
REMARK SMILES IDX 15 1 16 2 17 3 18 4 19 5 20 6 21 7 22 8 23 9 24 10 25 11
REMARK SMILES IDX 26 12 27 13 28 14 29 15 30 16 14 17 13 18 12 19 11 20 10 21
REMARK SMILES IDX 9 22 8 23 7 24 6 25 5 26 4 27 3 28 2 29 1 30
REMARK H PARENT
REMARK Flexibility Score: inf
ROOT
ATOM      1  C   UNL     1     -27.973 -17.190  16.905  1.00  0.00     0.000 C 
ENDROOT
BRANCH   1   2
ATOM      2  C   UNL     1     -26.916 -17.708  15.917  1.00  0.00     0.000 C 
BRANCH   2   3
ATOM      3  C   UNL     1     -27.535 -18.405  14.692  1.00  0.00     0.000 C 
BRANCH   3   4
ATOM      4  C   UNL     1     -29.052 -18.167  14.542  1.00  0.00     0.000 C 
BRANCH   4   5
ATOM      5  C   UNL     1     -29.396 -17.392  13.257  1.00  0.00     0.000 C 
BRANCH   5   6
ATOM      6  C   UNL     1     -28.238 -17.389  12.246  1.00  0.00     0.000 C 
BRANCH   6   7
ATOM      7  C   UNL     1     -28.731 -17.337  10.791  1.00  0.00     0.000 C 
BRANCH   7   8
ATOM      8  C   UNL     1     -27.881 -18.206   9.849  1.00  0.00     0.000 C 
BRANCH   8   9
ATOM      9  C   UNL     1     -26.859 -19.070  10.609  1.00  0.00     0.000 C 
BRANCH   9  10
ATOM     10  C   UNL     1     -26.479 -20.346   9.832  1.00  0.00     0.000 C 
BRANCH  10  11
ATOM     11  C   UNL     1     -27.498 -21.495   9.975  1.00  0.00     0.000 C 
BRANCH  11  12
ATOM     12  C   UNL     1     -27.942 -22.119   8.635  1.00  0.00     0.006 C 
BRANCH  12  13
ATOM     13  C   UNL     1     -28.982 -23.241   8.790  1.00  0.00     0.053 C 
BRANCH  13  14
ATOM     14  C   UNL     1     -30.171 -23.023   7.905  1.00  0.00     0.041 C 
ATOM     15  O   UNL     1     -30.182 -22.074   7.078  1.00  0.00    -0.550 OA
ATOM     16  O   UNL     1     -31.275 -23.861   8.004  1.00  0.00    -0.550 OA
ENDBRANCH  13  14
ENDBRANCH  12  13
ENDBRANCH  11  12
ENDBRANCH  10  11
ENDBRANCH   9  10
ENDBRANCH   8   9
ENDBRANCH   7   8
ENDBRANCH   6   7
ENDBRANCH   5   6
ENDBRANCH   4   5
ENDBRANCH   3   4
ENDBRANCH   2   3
ENDBRANCH   1   2
BRANCH   1  17
ATOM     17  C   UNL     1     -27.411 -16.154  17.891  1.00  0.00     0.000 C 
BRANCH  17  18
ATOM     18  C   UNL     1     -26.197 -15.392  17.330  1.00  0.00     0.000 C 
BRANCH  18  19
ATOM     19  C   UNL     1     -26.001 -14.010  17.977  1.00  0.00     0.000 C 
BRANCH  19  20
ATOM     20  C   UNL     1     -25.482 -12.918  17.026  1.00  0.00     0.000 C 
BRANCH  20  21
ATOM     21  C   UNL     1     -26.415 -11.697  16.942  1.00  0.00     0.000 C 
BRANCH  21  22
ATOM     22  C   UNL     1     -27.630 -11.808  17.889  1.00  0.00    -0.000 C 
BRANCH  22  23
ATOM     23  C   UNL     1     -28.921 -11.170  17.337  1.00  0.00    -0.000 C 
BRANCH  23  24
ATOM     24  C   UNL     1     -29.824 -12.106  16.515  1.00  0.00    -0.000 C 
BRANCH  24  25
ATOM     25  C   UNL     1     -29.482 -13.606  16.617  1.00  0.00    -0.000 C 
BRANCH  25  26
ATOM     26  C   UNL     1     -30.374 -14.512  15.741  1.00  0.00    -0.000 C 
BRANCH  26  27
ATOM     27  C   UNL     1     -31.487 -15.203  16.548  1.00  0.00    -0.000 C 
BRANCH  27  28
ATOM     28  C   UNL     1     -31.930 -16.537  15.918  1.00  0.00    -0.000 C 
BRANCH  28  29
ATOM     29  C   UNL     1     -33.387 -16.549  15.420  1.00  0.00    -0.003 C 
ATOM     30  C   UNL     1     -34.044 -15.169  15.469  1.00  0.00     0.004 C 
ENDBRANCH  28  29
ENDBRANCH  27  28
ENDBRANCH  26  27
ENDBRANCH  25  26
ENDBRANCH  24  25
ENDBRANCH  23  24
ENDBRANCH  22  23
ENDBRANCH  21  22
ENDBRANCH  20  21
ENDBRANCH  19  20
ENDBRANCH  18  19
ENDBRANCH  17  18
ENDBRANCH   1  17
TORSDOF 26
ENDMDL
MODEL 5
REMARK VINA RESULT:    -4.249      1.525      4.951
REMARK INTER + INTRA:         -14.868
REMARK INTER:                 -10.811
REMARK INTRA:                  -4.057
REMARK UNBOUND:                -4.161
REMARK SMILES CCCCCCCCCCCCCCCCCCCCCCCCCCCC(=O)[O-]
REMARK SMILES IDX 15 1 16 2 17 3 18 4 19 5 20 6 21 7 22 8 23 9 24 10 25 11
REMARK SMILES IDX 26 12 27 13 28 14 29 15 30 16 14 17 13 18 12 19 11 20 10 21
REMARK SMILES IDX 9 22 8 23 7 24 6 25 5 26 4 27 3 28 2 29 1 30
REMARK H PARENT
REMARK Flexibility Score: inf
ROOT
ATOM      1  C   UNL     1     -29.626 -12.664  16.508  1.00  0.00     0.000 C 
ENDROOT
BRANCH   1   2
ATOM      2  C   UNL     1     -30.517 -13.438  17.492  1.00  0.00     0.000 C 
BRANCH   2   3
ATOM      3  C   UNL     1     -30.345 -14.964  17.379  1.00  0.00     0.000 C 
BRANCH   3   4
ATOM      4  C   UNL     1     -31.668 -15.749  17.496  1.00  0.00     0.000 C 
BRANCH   4   5
ATOM      5  C   UNL     1     -32.086 -16.389  16.159  1.00  0.00     0.000 C 
BRANCH   5   6
ATOM      6  C   UNL     1     -31.265 -15.859  14.973  1.00  0.00     0.000 C 
BRANCH   6   7
ATOM      7  C   UNL     1     -30.825 -16.981  14.017  1.00  0.00     0.000 C 
BRANCH   7   8
ATOM      8  C   UNL     1     -29.352 -16.851  13.596  1.00  0.00     0.000 C 
BRANCH   8   9
ATOM      9  C   UNL     1     -28.844 -18.095  12.846  1.00  0.00     0.000 C 
BRANCH   9  10
ATOM     10  C   UNL     1     -27.417 -18.494  13.271  1.00  0.00     0.000 C 
BRANCH  10  11
ATOM     11  C   UNL     1     -26.694 -19.410  12.264  1.00  0.00     0.000 C 
BRANCH  11  12
ATOM     12  C   UNL     1     -27.257 -19.344  10.828  1.00  0.00     0.006 C 
BRANCH  12  13
ATOM     13  C   UNL     1     -26.309 -19.923   9.765  1.00  0.00     0.053 C 
BRANCH  13  14
ATOM     14  C   UNL     1     -26.796 -21.240   9.244  1.00  0.00     0.041 C 
ATOM     15  O   UNL     1     -26.345 -21.701   8.163  1.00  0.00    -0.550 OA
ATOM     16  O   UNL     1     -27.760 -21.953   9.946  1.00  0.00    -0.550 OA
ENDBRANCH  13  14
ENDBRANCH  12  13
ENDBRANCH  11  12
ENDBRANCH  10  11
ENDBRANCH   9  10
ENDBRANCH   8   9
ENDBRANCH   7   8
ENDBRANCH   6   7
ENDBRANCH   5   6
ENDBRANCH   4   5
ENDBRANCH   3   4
ENDBRANCH   2   3
ENDBRANCH   1   2
BRANCH   1  17
ATOM     17  C   UNL     1     -29.216 -11.280  17.037  1.00  0.00     0.000 C 
BRANCH  17  18
ATOM     18  C   UNL     1     -27.882 -11.305  17.804  1.00  0.00     0.000 C 
BRANCH  18  19
ATOM     19  C   UNL     1     -26.657 -11.429  16.880  1.00  0.00     0.000 C 
BRANCH  19  20
ATOM     20  C   UNL     1     -25.612 -12.466  17.327  1.00  0.00     0.000 C 
BRANCH  20  21
ATOM     21  C   UNL     1     -26.233 -13.677  18.046  1.00  0.00     0.000 C 
BRANCH  21  22
ATOM     22  C   UNL     1     -25.934 -15.013  17.331  1.00  0.00    -0.000 C 
BRANCH  22  23
ATOM     23  C   UNL     1     -26.641 -16.234  17.954  1.00  0.00    -0.000 C 
BRANCH  23  24
ATOM     24  C   UNL     1     -27.360 -17.162  16.959  1.00  0.00    -0.000 C 
BRANCH  24  25
ATOM     25  C   UNL     1     -28.029 -18.403  17.581  1.00  0.00    -0.000 C 
BRANCH  25  26
ATOM     26  C   UNL     1     -29.436 -18.703  17.022  1.00  0.00    -0.000 C 
BRANCH  26  27
ATOM     27  C   UNL     1     -29.436 -19.866  16.014  1.00  0.00    -0.000 C 
BRANCH  27  28
ATOM     28  C   UNL     1     -28.173 -20.740  16.122  1.00  0.00    -0.000 C 
BRANCH  28  29
ATOM     29  C   UNL     1     -28.051 -21.815  15.028  1.00  0.00    -0.003 C 
ATOM     30  C   UNL     1     -26.603 -22.221  14.751  1.00  0.00     0.004 C 
ENDBRANCH  28  29
ENDBRANCH  27  28
ENDBRANCH  26  27
ENDBRANCH  25  26
ENDBRANCH  24  25
ENDBRANCH  23  24
ENDBRANCH  22  23
ENDBRANCH  21  22
ENDBRANCH  20  21
ENDBRANCH  19  20
ENDBRANCH  18  19
ENDBRANCH  17  18
ENDBRANCH   1  17
TORSDOF 26
ENDMDL
MODEL 6
REMARK VINA RESULT:    -4.229      2.998      8.127
REMARK INTER + INTRA:         -14.819
REMARK INTER:                 -11.494
REMARK INTRA:                  -3.325
REMARK UNBOUND:                -4.161
REMARK SMILES CCCCCCCCCCCCCCCCCCCCCCCCCCCC(=O)[O-]
REMARK SMILES IDX 15 1 16 2 17 3 18 4 19 5 20 6 21 7 22 8 23 9 24 10 25 11
REMARK SMILES IDX 26 12 27 13 28 14 29 15 30 16 14 17 13 18 12 19 11 20 10 21
REMARK SMILES IDX 9 22 8 23 7 24 6 25 5 26 4 27 3 28 2 29 1 30
REMARK H PARENT
REMARK Flexibility Score: inf
ROOT
ATOM      1  C   UNL     1     -27.320 -16.741  17.930  1.00  0.00     0.000 C 
ENDROOT
BRANCH   1   2
ATOM      2  C   UNL     1     -26.265 -15.756  17.403  1.00  0.00     0.000 C 
BRANCH   2   3
ATOM      3  C   UNL     1     -26.629 -14.287  17.682  1.00  0.00     0.000 C 
BRANCH   3   4
ATOM      4  C   UNL     1     -25.429 -13.423  18.125  1.00  0.00     0.000 C 
BRANCH   4   5
ATOM      5  C   UNL     1     -25.397 -12.060  17.411  1.00  0.00     0.000 C 
BRANCH   5   6
ATOM      6  C   UNL     1     -26.738 -11.717  16.741  1.00  0.00     0.000 C 
BRANCH   6   7
ATOM      7  C   UNL     1     -27.442 -10.526  17.414  1.00  0.00     0.000 C 
BRANCH   7   8
ATOM      8  C   UNL     1     -28.969 -10.695  17.460  1.00  0.00     0.000 C 
BRANCH   8   9
ATOM      9  C   UNL     1     -29.395 -12.170  17.574  1.00  0.00     0.000 C 
BRANCH   9  10
ATOM     10  C   UNL     1     -30.095 -12.678  16.298  1.00  0.00     0.000 C 
BRANCH  10  11
ATOM     11  C   UNL     1     -30.017 -14.206  16.106  1.00  0.00     0.000 C 
BRANCH  11  12
ATOM     12  C   UNL     1     -31.390 -14.908  16.035  1.00  0.00     0.006 C 
BRANCH  12  13
ATOM     13  C   UNL     1     -32.494 -14.186  16.825  1.00  0.00     0.053 C 
BRANCH  13  14
ATOM     14  C   UNL     1     -33.827 -14.303  16.151  1.00  0.00     0.041 C 
ATOM     15  O   UNL     1     -34.596 -15.262  16.426  1.00  0.00    -0.550 OA
ATOM     16  O   UNL     1     -34.215 -13.360  15.207  1.00  0.00    -0.550 OA
ENDBRANCH  13  14
ENDBRANCH  12  13
ENDBRANCH  11  12
ENDBRANCH  10  11
ENDBRANCH   9  10
ENDBRANCH   8   9
ENDBRANCH   7   8
ENDBRANCH   6   7
ENDBRANCH   5   6
ENDBRANCH   4   5
ENDBRANCH   3   4
ENDBRANCH   2   3
ENDBRANCH   1   2
BRANCH   1  17
ATOM     17  C   UNL     1     -27.734 -17.789  16.885  1.00  0.00     0.000 C 
BRANCH  17  18
ATOM     18  C   UNL     1     -29.259 -17.866  16.688  1.00  0.00     0.000 C 
BRANCH  18  19
ATOM     19  C   UNL     1     -29.663 -18.231  15.249  1.00  0.00     0.000 C 
BRANCH  19  20
ATOM     20  C   UNL     1     -29.137 -17.272  14.166  1.00  0.00     0.000 C 
BRANCH  20  21
ATOM     21  C   UNL     1     -28.280 -17.977  13.100  1.00  0.00     0.000 C 
BRANCH  21  22
ATOM     22  C   UNL     1     -28.673 -17.580  11.660  1.00  0.00    -0.000 C 
BRANCH  22  23
ATOM     23  C   UNL     1     -27.539 -17.745  10.628  1.00  0.00    -0.000 C 
BRANCH  23  24
ATOM     24  C   UNL     1     -27.632 -18.996   9.736  1.00  0.00    -0.000 C 
BRANCH  24  25
ATOM     25  C   UNL     1     -26.566 -20.076  10.004  1.00  0.00    -0.000 C 
BRANCH  25  26
ATOM     26  C   UNL     1     -25.461 -19.635  10.988  1.00  0.00    -0.000 C 
BRANCH  26  27
ATOM     27  C   UNL     1     -25.570 -20.339  12.352  1.00  0.00    -0.000 C 
BRANCH  27  28
ATOM     28  C   UNL     1     -26.455 -21.597  12.298  1.00  0.00    -0.000 C 
BRANCH  28  29
ATOM     29  C   UNL     1     -26.781 -22.202  13.675  1.00  0.00    -0.003 C 
ATOM     30  C   UNL     1     -27.500 -21.220  14.601  1.00  0.00     0.004 C 
ENDBRANCH  28  29
ENDBRANCH  27  28
ENDBRANCH  26  27
ENDBRANCH  25  26
ENDBRANCH  24  25
ENDBRANCH  23  24
ENDBRANCH  22  23
ENDBRANCH  21  22
ENDBRANCH  20  21
ENDBRANCH  19  20
ENDBRANCH  18  19
ENDBRANCH  17  18
ENDBRANCH   1  17
TORSDOF 26
ENDMDL
MODEL 7
REMARK VINA RESULT:    -4.207      2.796      7.768
REMARK INTER + INTRA:         -14.762
REMARK INTER:                 -10.882
REMARK INTRA:                  -3.880
REMARK UNBOUND:                -4.161
REMARK SMILES CCCCCCCCCCCCCCCCCCCCCCCCCCCC(=O)[O-]
REMARK SMILES IDX 15 1 16 2 17 3 18 4 19 5 20 6 21 7 22 8 23 9 24 10 25 11
REMARK SMILES IDX 26 12 27 13 28 14 29 15 30 16 14 17 13 18 12 19 11 20 10 21
REMARK SMILES IDX 9 22 8 23 7 24 6 25 5 26 4 27 3 28 2 29 1 30
REMARK H PARENT
REMARK Flexibility Score: inf
ROOT
ATOM      1  C   UNL     1     -29.209 -16.341  16.148  1.00  0.00     0.000 C 
ENDROOT
BRANCH   1   2
ATOM      2  C   UNL     1     -28.347 -15.868  17.329  1.00  0.00     0.000 C 
BRANCH   2   3
ATOM      3  C   UNL     1     -26.875 -16.297  17.202  1.00  0.00     0.000 C 
BRANCH   3   4
ATOM      4  C   UNL     1     -25.879 -15.293  17.821  1.00  0.00     0.000 C 
BRANCH   4   5
ATOM      5  C   UNL     1     -26.519 -13.915  18.068  1.00  0.00     0.000 C 
BRANCH   5   6
ATOM      6  C   UNL     1     -25.768 -12.782  17.347  1.00  0.00     0.000 C 
BRANCH   6   7
ATOM      7  C   UNL     1     -26.698 -11.622  16.953  1.00  0.00     0.000 C 
BRANCH   7   8
ATOM      8  C   UNL     1     -27.976 -11.576  17.806  1.00  0.00     0.000 C 
BRANCH   8   9
ATOM      9  C   UNL     1     -29.241 -11.349  16.960  1.00  0.00     0.000 C 
BRANCH   9  10
ATOM     10  C   UNL     1     -29.982 -12.664  16.649  1.00  0.00     0.000 C 
BRANCH  10  11
ATOM     11  C   UNL     1     -30.871 -13.172  17.802  1.00  0.00     0.000 C 
BRANCH  11  12
ATOM     12  C   UNL     1     -32.048 -14.063  17.351  1.00  0.00     0.006 C 
BRANCH  12  13
ATOM     13  C   UNL     1     -32.341 -13.984  15.844  1.00  0.00     0.053 C 
BRANCH  13  14
ATOM     14  C   UNL     1     -33.773 -14.301  15.538  1.00  0.00     0.041 C 
ATOM     15  O   UNL     1     -34.167 -15.496  15.515  1.00  0.00    -0.550 OA
ATOM     16  O   UNL     1     -34.669 -13.276  15.265  1.00  0.00    -0.550 OA
ENDBRANCH  13  14
ENDBRANCH  12  13
ENDBRANCH  11  12
ENDBRANCH  10  11
ENDBRANCH   9  10
ENDBRANCH   8   9
ENDBRANCH   7   8
ENDBRANCH   6   7
ENDBRANCH   5   6
ENDBRANCH   4   5
ENDBRANCH   3   4
ENDBRANCH   2   3
ENDBRANCH   1   2
BRANCH   1  17
ATOM     17  C   UNL     1     -30.408 -17.194  16.588  1.00  0.00     0.000 C 
BRANCH  17  18
ATOM     18  C   UNL     1     -30.126 -18.009  17.864  1.00  0.00     0.000 C 
BRANCH  18  19
ATOM     19  C   UNL     1     -30.255 -19.527  17.651  1.00  0.00     0.000 C 
BRANCH  19  20
ATOM     20  C   UNL     1     -30.985 -19.940  16.361  1.00  0.00     0.000 C 
BRANCH  20  21
ATOM     21  C   UNL     1     -30.214 -20.989  15.540  1.00  0.00     0.000 C 
BRANCH  21  22
ATOM     22  C   UNL     1     -29.126 -21.711  16.366  1.00  0.00    -0.000 C 
BRANCH  22  23
ATOM     23  C   UNL     1     -27.924 -22.202  15.533  1.00  0.00    -0.000 C 
BRANCH  23  24
ATOM     24  C   UNL     1     -27.455 -21.248  14.421  1.00  0.00    -0.000 C 
BRANCH  24  25
ATOM     25  C   UNL     1     -26.674 -20.009  14.902  1.00  0.00    -0.000 C 
BRANCH  25  26
ATOM     26  C   UNL     1     -27.192 -18.677  14.319  1.00  0.00    -0.000 C 
BRANCH  26  27
ATOM     27  C   UNL     1     -27.694 -18.822  12.872  1.00  0.00    -0.000 C 
BRANCH  27  28
ATOM     28  C   UNL     1     -28.600 -17.653  12.442  1.00  0.00    -0.000 C 
BRANCH  28  29
ATOM     29  C   UNL     1     -28.480 -17.273  10.955  1.00  0.00    -0.003 C 
ATOM     30  C   UNL     1     -27.726 -18.318  10.133  1.00  0.00     0.004 C 
ENDBRANCH  28  29
ENDBRANCH  27  28
ENDBRANCH  26  27
ENDBRANCH  25  26
ENDBRANCH  24  25
ENDBRANCH  23  24
ENDBRANCH  22  23
ENDBRANCH  21  22
ENDBRANCH  20  21
ENDBRANCH  19  20
ENDBRANCH  18  19
ENDBRANCH  17  18
ENDBRANCH   1  17
TORSDOF 26
ENDMDL
MODEL 8
REMARK VINA RESULT:    -4.203      3.383      6.574
REMARK INTER + INTRA:         -14.754
REMARK INTER:                 -10.511
REMARK INTRA:                  -4.243
REMARK UNBOUND:                -4.161
REMARK SMILES CCCCCCCCCCCCCCCCCCCCCCCCCCCC(=O)[O-]
REMARK SMILES IDX 15 1 16 2 17 3 18 4 19 5 20 6 21 7 22 8 23 9 24 10 25 11
REMARK SMILES IDX 26 12 27 13 28 14 29 15 30 16 14 17 13 18 12 19 11 20 10 21
REMARK SMILES IDX 9 22 8 23 7 24 6 25 5 26 4 27 3 28 2 29 1 30
REMARK H PARENT
REMARK Flexibility Score: inf
ROOT
ATOM      1  C   UNL     1     -30.261 -15.778  15.620  1.00  0.00     0.000 C 
ENDROOT
BRANCH   1   2
ATOM      2  C   UNL     1     -29.893 -16.067  14.156  1.00  0.00     0.000 C 
BRANCH   2   3
ATOM      3  C   UNL     1     -30.632 -17.291  13.586  1.00  0.00     0.000 C 
BRANCH   3   4
ATOM      4  C   UNL     1     -31.825 -17.755  14.449  1.00  0.00     0.000 C 
BRANCH   4   5
ATOM      5  C   UNL     1     -31.562 -19.112  15.126  1.00  0.00     0.000 C 
BRANCH   5   6
ATOM      6  C   UNL     1     -31.585 -19.016  16.660  1.00  0.00     0.000 C 
BRANCH   6   7
ATOM      7  C   UNL     1     -32.986 -18.694  17.206  1.00  0.00     0.000 C 
BRANCH   7   8
ATOM      8  C   UNL     1     -33.016 -17.388  18.016  1.00  0.00     0.000 C 
BRANCH   8   9
ATOM      9  C   UNL     1     -33.648 -16.224  17.233  1.00  0.00     0.000 C 
BRANCH   9  10
ATOM     10  C   UNL     1     -33.907 -14.991  18.122  1.00  0.00     0.000 C 
BRANCH  10  11
ATOM     11  C   UNL     1     -33.985 -13.661  17.345  1.00  0.00     0.000 C 
BRANCH  11  12
ATOM     12  C   UNL     1     -34.216 -13.825  15.828  1.00  0.00     0.006 C 
BRANCH  12  13
ATOM     13  C   UNL     1     -35.358 -12.956  15.279  1.00  0.00     0.053 C 
BRANCH  13  14
ATOM     14  C   UNL     1     -36.702 -13.542  15.590  1.00  0.00     0.041 C 
ATOM     15  O   UNL     1     -36.978 -14.719  15.238  1.00  0.00    -0.550 OA
ATOM     16  O   UNL     1     -37.655 -12.782  16.257  1.00  0.00    -0.550 OA
ENDBRANCH  13  14
ENDBRANCH  12  13
ENDBRANCH  11  12
ENDBRANCH  10  11
ENDBRANCH   9  10
ENDBRANCH   8   9
ENDBRANCH   7   8
ENDBRANCH   6   7
ENDBRANCH   5   6
ENDBRANCH   4   5
ENDBRANCH   3   4
ENDBRANCH   2   3
ENDBRANCH   1   2
BRANCH   1  17
ATOM     17  C   UNL     1     -30.381 -14.275  15.919  1.00  0.00     0.000 C 
BRANCH  17  18
ATOM     18  C   UNL     1     -30.410 -13.966  17.427  1.00  0.00     0.000 C 
BRANCH  18  19
ATOM     19  C   UNL     1     -29.969 -12.529  17.756  1.00  0.00     0.000 C 
BRANCH  19  20
ATOM     20  C   UNL     1     -29.131 -11.843  16.663  1.00  0.00     0.000 C 
BRANCH  20  21
ATOM     21  C   UNL     1     -27.875 -11.146  17.215  1.00  0.00     0.000 C 
BRANCH  21  22
ATOM     22  C   UNL     1     -26.566 -11.753  16.664  1.00  0.00    -0.000 C 
BRANCH  22  23
ATOM     23  C   UNL     1     -25.802 -12.633  17.675  1.00  0.00    -0.000 C 
BRANCH  23  24
ATOM     24  C   UNL     1     -26.530 -13.913  18.120  1.00  0.00    -0.000 C 
BRANCH  24  25
ATOM     25  C   UNL     1     -25.932 -15.230  17.587  1.00  0.00    -0.000 C 
BRANCH  25  26
ATOM     26  C   UNL     1     -26.954 -16.381  17.475  1.00  0.00    -0.000 C 
BRANCH  26  27
ATOM     27  C   UNL     1     -26.451 -17.533  16.586  1.00  0.00    -0.000 C 
BRANCH  27  28
ATOM     28  C   UNL     1     -27.600 -18.283  15.887  1.00  0.00    -0.000 C 
BRANCH  28  29
ATOM     29  C   UNL     1     -27.142 -19.450  14.993  1.00  0.00    -0.003 C 
ATOM     30  C   UNL     1     -27.756 -19.403  13.593  1.00  0.00     0.004 C 
ENDBRANCH  28  29
ENDBRANCH  27  28
ENDBRANCH  26  27
ENDBRANCH  25  26
ENDBRANCH  24  25
ENDBRANCH  23  24
ENDBRANCH  22  23
ENDBRANCH  21  22
ENDBRANCH  20  21
ENDBRANCH  19  20
ENDBRANCH  18  19
ENDBRANCH  17  18
ENDBRANCH   1  17
TORSDOF 26
ENDMDL
MODEL 9
REMARK VINA RESULT:    -4.150      1.884      3.218
REMARK INTER + INTRA:         -14.620
REMARK INTER:                 -11.343
REMARK INTRA:                  -3.277
REMARK UNBOUND:                -4.161
REMARK SMILES CCCCCCCCCCCCCCCCCCCCCCCCCCCC(=O)[O-]
REMARK SMILES IDX 15 1 16 2 17 3 18 4 19 5 20 6 21 7 22 8 23 9 24 10 25 11
REMARK SMILES IDX 26 12 27 13 28 14 29 15 30 16 14 17 13 18 12 19 11 20 10 21
REMARK SMILES IDX 9 22 8 23 7 24 6 25 5 26 4 27 3 28 2 29 1 30
REMARK H PARENT
REMARK Flexibility Score: inf
ROOT
ATOM      1  C   UNL     1     -27.152 -15.651  18.120  1.00  0.00     0.000 C 
ENDROOT
BRANCH   1   2
ATOM      2  C   UNL     1     -27.984 -16.318  17.014  1.00  0.00     0.000 C 
BRANCH   2   3
ATOM      3  C   UNL     1     -29.353 -16.814  17.514  1.00  0.00     0.000 C 
BRANCH   3   4
ATOM      4  C   UNL     1     -30.406 -16.966  16.395  1.00  0.00     0.000 C 
BRANCH   4   5
ATOM      5  C   UNL     1     -29.862 -16.535  15.021  1.00  0.00     0.000 C 
BRANCH   5   6
ATOM      6  C   UNL     1     -30.299 -17.486  13.894  1.00  0.00     0.000 C 
BRANCH   6   7
ATOM      7  C   UNL     1     -29.361 -17.421  12.677  1.00  0.00     0.000 C 
BRANCH   7   8
ATOM      8  C   UNL     1     -28.077 -18.242  12.879  1.00  0.00     0.000 C 
BRANCH   8   9
ATOM      9  C   UNL     1     -27.339 -18.516  11.557  1.00  0.00     0.000 C 
BRANCH   9  10
ATOM     10  C   UNL     1     -26.045 -19.328  11.765  1.00  0.00     0.000 C 
BRANCH  10  11
ATOM     11  C   UNL     1     -25.945 -20.588  10.883  1.00  0.00     0.000 C 
BRANCH  11  12
ATOM     12  C   UNL     1     -27.293 -21.299  10.637  1.00  0.00     0.006 C 
BRANCH  12  13
ATOM     13  C   UNL     1     -27.696 -21.364   9.155  1.00  0.00     0.053 C 
BRANCH  13  14
ATOM     14  C   UNL     1     -27.768 -22.776   8.659  1.00  0.00     0.041 C 
ATOM     15  O   UNL     1     -28.316 -23.035   7.555  1.00  0.00    -0.550 OA
ATOM     16  O   UNL     1     -27.242 -23.810   9.424  1.00  0.00    -0.550 OA
ENDBRANCH  13  14
ENDBRANCH  12  13
ENDBRANCH  11  12
ENDBRANCH  10  11
ENDBRANCH   9  10
ENDBRANCH   8   9
ENDBRANCH   7   8
ENDBRANCH   6   7
ENDBRANCH   5   6
ENDBRANCH   4   5
ENDBRANCH   3   4
ENDBRANCH   2   3
ENDBRANCH   1   2
BRANCH   1  17
ATOM     17  C   UNL     1     -25.952 -14.864  17.572  1.00  0.00     0.000 C 
BRANCH  17  18
ATOM     18  C   UNL     1     -25.879 -13.427  18.120  1.00  0.00     0.000 C 
BRANCH  18  19
ATOM     19  C   UNL     1     -25.336 -12.417  17.093  1.00  0.00     0.000 C 
BRANCH  19  20
ATOM     20  C   UNL     1     -26.359 -11.378  16.604  1.00  0.00     0.000 C 
BRANCH  20  21
ATOM     21  C   UNL     1     -27.251 -10.831  17.732  1.00  0.00     0.000 C 
BRANCH  21  22
ATOM     22  C   UNL     1     -28.757 -10.918  17.399  1.00  0.00    -0.000 C 
BRANCH  22  23
ATOM     23  C   UNL     1     -29.358 -12.330  17.556  1.00  0.00    -0.000 C 
BRANCH  23  24
ATOM     24  C   UNL     1     -29.834 -12.996  16.253  1.00  0.00    -0.000 C 
BRANCH  24  25
ATOM     25  C   UNL     1     -31.251 -13.600  16.302  1.00  0.00    -0.000 C 
BRANCH  25  26
ATOM     26  C   UNL     1     -31.867 -13.639  17.716  1.00  0.00    -0.000 C 
BRANCH  26  27
ATOM     27  C   UNL     1     -33.321 -14.144  17.714  1.00  0.00    -0.000 C 
BRANCH  27  28
ATOM     28  C   UNL     1     -33.418 -15.660  17.967  1.00  0.00    -0.000 C 
BRANCH  28  29
ATOM     29  C   UNL     1     -34.201 -16.432  16.889  1.00  0.00    -0.003 C 
ATOM     30  C   UNL     1     -34.104 -15.786  15.507  1.00  0.00     0.004 C 
ENDBRANCH  28  29
ENDBRANCH  27  28
ENDBRANCH  26  27
ENDBRANCH  25  26
ENDBRANCH  24  25
ENDBRANCH  23  24
ENDBRANCH  22  23
ENDBRANCH  21  22
ENDBRANCH  20  21
ENDBRANCH  19  20
ENDBRANCH  18  19
ENDBRANCH  17  18
ENDBRANCH   1  17
TORSDOF 26
ENDMDL
