MODEL 1
REMARK VINA RESULT:    -8.808      0.000      0.000
REMARK INTER + INTRA:         -12.988
REMARK INTER:                 -12.154
REMARK INTRA:                  -0.834
REMARK UNBOUND:                -0.834
REMARK SMILES CC[C@@H](CC[C@H](C)[C@@H]1CC[C@@H]2[C@@H]3CC=C4C[C@H](O)CC[C@]4(C)[C@H]3CC[C@]21C)C(C)C
REMARK SMILES IDX 5 1 4 2 3 3 2 4 1 5 28 6 29 7 30 8 6 9 7 10 8 11 9 12 26 13
REMARK SMILES IDX 10 14 11 15 25 16 27 17 12 18 24 19 23 20 13 21 21 22 14 23
REMARK SMILES IDX 15 24 20 25 22 26 16 27 19 28 17 29 18 30
REMARK H PARENT 18 31
REMARK Flexibility Score: inf
ROOT
ATOM      1  C   UNL     1     -24.033 -18.248 -14.284  1.00  0.00     0.004 C 
ENDROOT
BRANCH   1   2
ATOM      2  C   UNL     1     -24.108 -16.781 -13.832  1.00  0.00     0.004 C 
BRANCH   2   3
ATOM      3  C   UNL     1     -23.669 -15.759 -14.919  1.00  0.00    -0.009 C 
BRANCH   3   4
ATOM      4  C   UNL     1     -22.603 -14.732 -14.440  1.00  0.00     0.000 C 
ATOM      5  C   UNL     1     -21.159 -15.234 -14.365  1.00  0.00     0.004 C 
ENDBRANCH   3   4
BRANCH   3   6
ATOM      6  C   UNL     1     -24.905 -15.153 -15.670  1.00  0.00    -0.014 C 
ATOM      7  C   UNL     1     -24.582 -14.743 -17.114  1.00  0.00     0.007 C 
ATOM      8  C   UNL     1     -25.625 -14.008 -14.933  1.00  0.00     0.007 C 
ENDBRANCH   3   6
ENDBRANCH   2   3
ENDBRANCH   1   2
BRANCH   1   9
ATOM      9  C   UNL     1     -25.221 -19.144 -13.816  1.00  0.00    -0.011 C 
ATOM     10  C   UNL     1     -26.480 -18.254 -13.829  1.00  0.00     0.008 C 
BRANCH   9  11
ATOM     11  C   UNL     1     -24.949 -19.836 -12.421  1.00  0.00    -0.002 C 
ATOM     12  C   UNL     1     -23.587 -20.597 -12.359  1.00  0.00     0.005 C 
ATOM     13  C   UNL     1     -25.962 -20.891 -11.856  1.00  0.00    -0.026 C 
ATOM     14  C   UNL     1     -23.750 -21.742 -11.344  1.00  0.00     0.005 C 
ATOM     15  C   UNL     1     -25.103 -21.466 -10.708  1.00  0.00    -0.001 C 
ATOM     16  C   UNL     1     -27.263 -20.274 -11.247  1.00  0.00     0.007 C 
ATOM     17  C   UNL     1     -26.296 -21.986 -12.928  1.00  0.00     0.012 C 
ATOM     18  C   UNL     1     -25.773 -22.539  -9.796  1.00  0.00     0.000 C 
ATOM     19  C   UNL     1     -27.788 -20.999  -9.976  1.00  0.00     0.005 C 
ATOM     20  C   UNL     1     -27.320 -22.476  -9.869  1.00  0.00     0.003 C 
ATOM     21  C   UNL     1     -25.308 -23.989  -9.976  1.00  0.00     0.031 C 
ATOM     22  C   UNL     1     -27.966 -23.292  -8.681  1.00  0.00    -0.008 C 
ATOM     23  C   UNL     1     -26.020 -24.902  -9.012  1.00  0.00    -0.027 C 
ATOM     24  C   UNL     1     -27.240 -24.639  -8.483  1.00  0.00    -0.065 C 
ATOM     25  C   UNL     1     -29.454 -23.604  -9.030  1.00  0.00     0.014 C 
ATOM     26  C   UNL     1     -27.911 -22.483  -7.353  1.00  0.00     0.016 C 
ATOM     27  C   UNL     1     -27.881 -25.676  -7.577  1.00  0.00     0.063 C 
ATOM     28  C   UNL     1     -30.121 -24.599  -8.063  1.00  0.00     0.033 C 
ATOM     29  C   UNL     1     -29.342 -25.921  -7.972  1.00  0.00     0.118 C 
BRANCH  29  30
ATOM     30  O   UNL     1     -29.383 -26.601  -9.202  1.00  0.00    -0.393 OA
ATOM     31  H   UNL     1     -30.092 -26.168  -9.747  1.00  0.00     0.210 HD
ENDBRANCH  29  30
ENDBRANCH   9  11
ENDBRANCH   1   9
TORSDOF 7
ENDMDL
MODEL 2
REMARK VINA RESULT:    -6.613      3.834      9.077
REMARK INTER + INTRA:          -9.959
REMARK INTER:                  -9.522
REMARK INTRA:                  -0.438
REMARK UNBOUND:                -0.834
REMARK SMILES CC[C@@H](CC[C@H](C)[C@@H]1CC[C@@H]2[C@@H]3CC=C4C[C@H](O)CC[C@]4(C)[C@H]3CC[C@]21C)C(C)C
REMARK SMILES IDX 5 1 4 2 3 3 2 4 1 5 28 6 29 7 30 8 6 9 7 10 8 11 9 12 26 13
REMARK SMILES IDX 10 14 11 15 25 16 27 17 12 18 24 19 23 20 13 21 21 22 14 23
REMARK SMILES IDX 15 24 20 25 22 26 16 27 19 28 17 29 18 30
REMARK H PARENT 18 31
REMARK Flexibility Score: inf
ROOT
ATOM      1  C   UNL     1     -29.558 -23.810  -7.857  1.00  0.00     0.004 C 
ENDROOT
BRANCH   1   2
ATOM      2  C   UNL     1     -29.414 -25.067  -6.982  1.00  0.00     0.004 C 
BRANCH   2   3
ATOM      3  C   UNL     1     -28.586 -26.207  -7.640  1.00  0.00    -0.009 C 
BRANCH   3   4
ATOM      4  C   UNL     1     -29.374 -27.533  -7.847  1.00  0.00     0.000 C 
ATOM      5  C   UNL     1     -29.952 -27.770  -9.244  1.00  0.00     0.004 C 
ENDBRANCH   3   4
BRANCH   3   6
ATOM      6  C   UNL     1     -27.176 -26.353  -6.970  1.00  0.00    -0.014 C 
ATOM      7  C   UNL     1     -26.060 -26.631  -7.987  1.00  0.00     0.007 C 
ATOM      8  C   UNL     1     -27.104 -27.356  -5.803  1.00  0.00     0.007 C 
ENDBRANCH   3   6
ENDBRANCH   2   3
ENDBRANCH   1   2
BRANCH   1   9
ATOM      9  C   UNL     1     -28.950 -22.510  -7.247  1.00  0.00    -0.011 C 
ATOM     10  C   UNL     1     -30.125 -21.540  -7.007  1.00  0.00     0.008 C 
BRANCH   9  11
ATOM     11  C   UNL     1     -27.798 -21.899  -8.140  1.00  0.00    -0.002 C 
ATOM     12  C   UNL     1     -28.009 -20.392  -8.484  1.00  0.00     0.005 C 
ATOM     13  C   UNL     1     -27.468 -22.531  -9.537  1.00  0.00    -0.026 C 
ATOM     14  C   UNL     1     -27.315 -20.130  -9.832  1.00  0.00     0.005 C 
ATOM     15  C   UNL     1     -26.556 -21.419 -10.100  1.00  0.00    -0.001 C 
ATOM     16  C   UNL     1     -26.650 -23.862  -9.466  1.00  0.00     0.007 C 
ATOM     17  C   UNL     1     -28.765 -22.703 -10.402  1.00  0.00     0.012 C 
ATOM     18  C   UNL     1     -25.915 -21.674 -11.499  1.00  0.00     0.000 C 
ATOM     19  C   UNL     1     -25.581 -24.022 -10.583  1.00  0.00     0.005 C 
ATOM     20  C   UNL     1     -25.884 -23.182 -11.854  1.00  0.00     0.003 C 
ATOM     21  C   UNL     1     -26.487 -20.880 -12.679  1.00  0.00     0.031 C 
ATOM     22  C   UNL     1     -24.911 -23.447 -13.071  1.00  0.00    -0.008 C 
ATOM     23  C   UNL     1     -25.753 -21.210 -13.952  1.00  0.00    -0.027 C 
ATOM     24  C   UNL     1     -25.107 -22.382 -14.169  1.00  0.00    -0.065 C 
ATOM     25  C   UNL     1     -25.247 -24.837 -13.695  1.00  0.00     0.014 C 
ATOM     26  C   UNL     1     -23.425 -23.438 -12.610  1.00  0.00     0.016 C 
ATOM     27  C   UNL     1     -24.464 -22.619 -15.525  1.00  0.00     0.063 C 
ATOM     28  C   UNL     1     -24.532 -25.103 -15.032  1.00  0.00     0.033 C 
ATOM     29  C   UNL     1     -24.828 -24.006 -16.069  1.00  0.00     0.118 C 
BRANCH  29  30
ATOM     30  O   UNL     1     -26.187 -24.023 -16.428  1.00  0.00    -0.393 OA
ATOM     31  H   UNL     1     -26.326 -24.826 -16.995  1.00  0.00     0.210 HD
ENDBRANCH  29  30
ENDBRANCH   9  11
ENDBRANCH   1   9
TORSDOF 7
ENDMDL
MODEL 3
REMARK VINA RESULT:    -6.600      4.031      7.988
REMARK INTER + INTRA:          -9.942
REMARK INTER:                  -9.683
REMARK INTRA:                  -0.259
REMARK UNBOUND:                -0.834
REMARK SMILES CC[C@@H](CC[C@H](C)[C@@H]1CC[C@@H]2[C@@H]3CC=C4C[C@H](O)CC[C@]4(C)[C@H]3CC[C@]21C)C(C)C
REMARK SMILES IDX 5 1 4 2 3 3 2 4 1 5 28 6 29 7 30 8 6 9 7 10 8 11 9 12 26 13
REMARK SMILES IDX 10 14 11 15 25 16 27 17 12 18 24 19 23 20 13 21 21 22 14 23
REMARK SMILES IDX 15 24 20 25 22 26 16 27 19 28 17 29 18 30
REMARK H PARENT 18 31
REMARK Flexibility Score: inf
ROOT
ATOM      1  C   UNL     1     -28.801 -21.083  -6.564  1.00  0.00     0.004 C 
ENDROOT
BRANCH   1   2
ATOM      2  C   UNL     1     -30.050 -20.251  -6.228  1.00  0.00     0.004 C 
BRANCH   2   3
ATOM      3  C   UNL     1     -29.737 -18.821  -5.702  1.00  0.00    -0.009 C 
BRANCH   3   4
ATOM      4  C   UNL     1     -28.915 -17.942  -6.688  1.00  0.00     0.000 C 
ATOM      5  C   UNL     1     -29.578 -17.622  -8.030  1.00  0.00     0.004 C 
ENDBRANCH   3   4
BRANCH   3   6
ATOM      6  C   UNL     1     -29.213 -18.855  -4.225  1.00  0.00    -0.014 C 
ATOM      7  C   UNL     1     -27.942 -18.017  -4.024  1.00  0.00     0.007 C 
ATOM      8  C   UNL     1     -29.031 -20.262  -3.625  1.00  0.00     0.007 C 
ENDBRANCH   3   6
ENDBRANCH   2   3
ENDBRANCH   1   2
BRANCH   1   9
ATOM      9  C   UNL     1     -28.852 -21.825  -7.935  1.00  0.00    -0.011 C 
ATOM     10  C   UNL     1     -28.895 -23.334  -7.623  1.00  0.00     0.008 C 
BRANCH   9  11
ATOM     11  C   UNL     1     -27.667 -21.410  -8.895  1.00  0.00    -0.002 C 
ATOM     12  C   UNL     1     -27.832 -19.984  -9.507  1.00  0.00     0.005 C 
ATOM     13  C   UNL     1     -27.328 -22.288 -10.150  1.00  0.00    -0.026 C 
ATOM     14  C   UNL     1     -27.106 -19.982 -10.864  1.00  0.00     0.005 C 
ATOM     15  C   UNL     1     -26.376 -21.316 -10.881  1.00  0.00    -0.001 C 
ATOM     16  C   UNL     1     -26.547 -23.604  -9.825  1.00  0.00     0.007 C 
ATOM     17  C   UNL     1     -28.613 -22.582 -11.000  1.00  0.00     0.012 C 
ATOM     18  C   UNL     1     -25.716 -21.831 -12.197  1.00  0.00     0.000 C 
ATOM     19  C   UNL     1     -25.463 -23.985 -10.870  1.00  0.00     0.005 C 
ATOM     20  C   UNL     1     -25.719 -23.379 -12.277  1.00  0.00     0.003 C 
ATOM     21  C   UNL     1     -26.245 -21.247 -13.512  1.00  0.00     0.031 C 
ATOM     22  C   UNL     1     -24.731 -23.878 -13.404  1.00  0.00    -0.008 C 
ATOM     23  C   UNL     1     -25.496 -21.815 -14.689  1.00  0.00    -0.027 C 
ATOM     24  C   UNL     1     -24.878 -23.022 -14.679  1.00  0.00    -0.065 C 
ATOM     25  C   UNL     1     -25.092 -25.349 -13.779  1.00  0.00     0.014 C 
ATOM     26  C   UNL     1     -23.254 -23.821 -12.919  1.00  0.00     0.016 C 
ATOM     27  C   UNL     1     -24.217 -23.512 -15.956  1.00  0.00     0.063 C 
ATOM     28  C   UNL     1     -24.360 -25.866 -15.031  1.00  0.00     0.033 C 
ATOM     29  C   UNL     1     -24.607 -24.965 -16.253  1.00  0.00     0.118 C 
BRANCH  29  30
ATOM     30  O   UNL     1     -25.959 -25.014 -16.634  1.00  0.00    -0.393 OA
ATOM     31  H   UNL     1     -25.979 -25.239 -17.601  1.00  0.00     0.210 HD
ENDBRANCH  29  30
ENDBRANCH   9  11
ENDBRANCH   1   9
TORSDOF 7
ENDMDL
MODEL 4
REMARK VINA RESULT:    -6.111      2.868      9.707
REMARK INTER + INTRA:          -9.267
REMARK INTER:                  -8.294
REMARK INTRA:                  -0.972
REMARK UNBOUND:                -0.834
REMARK SMILES CC[C@@H](CC[C@H](C)[C@@H]1CC[C@@H]2[C@@H]3CC=C4C[C@H](O)CC[C@]4(C)[C@H]3CC[C@]21C)C(C)C
REMARK SMILES IDX 5 1 4 2 3 3 2 4 1 5 28 6 29 7 30 8 6 9 7 10 8 11 9 12 26 13
REMARK SMILES IDX 10 14 11 15 25 16 27 17 12 18 24 19 23 20 13 21 21 22 14 23
REMARK SMILES IDX 15 24 20 25 22 26 16 27 19 28 17 29 18 30
REMARK H PARENT 18 31
REMARK Flexibility Score: inf
ROOT
ATOM      1  C   UNL     1     -25.977 -24.318  -8.795  1.00  0.00     0.004 C 
ENDROOT
BRANCH   1   2
ATOM      2  C   UNL     1     -27.222 -25.203  -8.972  1.00  0.00     0.004 C 
BRANCH   2   3
ATOM      3  C   UNL     1     -27.711 -25.880  -7.660  1.00  0.00    -0.009 C 
BRANCH   3   4
ATOM      4  C   UNL     1     -26.805 -27.045  -7.165  1.00  0.00     0.000 C 
ATOM      5  C   UNL     1     -26.776 -27.290  -5.655  1.00  0.00     0.004 C 
ENDBRANCH   3   4
BRANCH   3   6
ATOM      6  C   UNL     1     -29.247 -26.189  -7.711  1.00  0.00    -0.014 C 
ATOM      7  C   UNL     1     -29.564 -27.522  -8.405  1.00  0.00     0.007 C 
ATOM      8  C   UNL     1     -30.125 -25.061  -8.285  1.00  0.00     0.007 C 
ENDBRANCH   3   6
ENDBRANCH   2   3
ENDBRANCH   1   2
BRANCH   1   9
ATOM      9  C   UNL     1     -26.213 -22.794  -9.031  1.00  0.00    -0.011 C 
ATOM     10  C   UNL     1     -27.526 -22.431  -8.309  1.00  0.00     0.008 C 
BRANCH   9  11
ATOM     11  C   UNL     1     -26.205 -22.408 -10.564  1.00  0.00    -0.002 C 
ATOM     12  C   UNL     1     -25.434 -23.427 -11.459  1.00  0.00     0.005 C 
ATOM     13  C   UNL     1     -25.616 -21.028 -11.024  1.00  0.00    -0.026 C 
ATOM     14  C   UNL     1     -24.892 -22.651 -12.672  1.00  0.00     0.005 C 
ATOM     15  C   UNL     1     -25.547 -21.286 -12.544  1.00  0.00    -0.001 C 
ATOM     16  C   UNL     1     -26.557 -19.807 -10.764  1.00  0.00     0.007 C 
ATOM     17  C   UNL     1     -24.190 -20.790 -10.415  1.00  0.00     0.012 C 
ATOM     18  C   UNL     1     -25.068 -20.101 -13.439  1.00  0.00     0.000 C 
ATOM     19  C   UNL     1     -26.537 -18.728 -11.882  1.00  0.00     0.005 C 
ATOM     20  C   UNL     1     -25.232 -18.735 -12.725  1.00  0.00     0.003 C 
ATOM     21  C   UNL     1     -23.658 -20.205 -14.031  1.00  0.00     0.031 C 
ATOM     22  C   UNL     1     -25.104 -17.548 -13.759  1.00  0.00    -0.008 C 
ATOM     23  C   UNL     1     -23.348 -19.007 -14.890  1.00  0.00    -0.027 C 
ATOM     24  C   UNL     1     -23.933 -17.794 -14.733  1.00  0.00    -0.065 C 
ATOM     25  C   UNL     1     -24.805 -16.228 -12.983  1.00  0.00     0.014 C 
ATOM     26  C   UNL     1     -26.418 -17.375 -14.576  1.00  0.00     0.016 C 
ATOM     27  C   UNL     1     -23.480 -16.647 -15.619  1.00  0.00     0.063 C 
ATOM     28  C   UNL     1     -24.420 -15.049 -13.894  1.00  0.00     0.033 C 
ATOM     29  C   UNL     1     -23.217 -15.384 -14.791  1.00  0.00     0.118 C 
BRANCH  29  30
ATOM     30  O   UNL     1     -22.062 -15.571 -14.012  1.00  0.00    -0.393 OA
ATOM     31  H   UNL     1     -22.239 -16.345 -13.414  1.00  0.00     0.210 HD
ENDBRANCH  29  30
ENDBRANCH   9  11
ENDBRANCH   1   9
TORSDOF 7
ENDMDL
MODEL 5
REMARK VINA RESULT:    -6.083      3.339      5.976
REMARK INTER + INTRA:          -9.228
REMARK INTER:                  -8.960
REMARK INTRA:                  -0.268
REMARK UNBOUND:                -0.834
REMARK SMILES CC[C@@H](CC[C@H](C)[C@@H]1CC[C@@H]2[C@@H]3CC=C4C[C@H](O)CC[C@]4(C)[C@H]3CC[C@]21C)C(C)C
REMARK SMILES IDX 5 1 4 2 3 3 2 4 1 5 28 6 29 7 30 8 6 9 7 10 8 11 9 12 26 13
REMARK SMILES IDX 10 14 11 15 25 16 27 17 12 18 24 19 23 20 13 21 21 22 14 23
REMARK SMILES IDX 15 24 20 25 22 26 16 27 19 28 17 29 18 30
REMARK H PARENT 18 31
REMARK Flexibility Score: inf
ROOT
ATOM      1  C   UNL     1     -23.361 -23.168 -14.360  1.00  0.00     0.004 C 
ENDROOT
BRANCH   1   2
ATOM      2  C   UNL     1     -24.004 -24.478 -13.874  1.00  0.00     0.004 C 
BRANCH   2   3
ATOM      3  C   UNL     1     -25.152 -24.998 -14.785  1.00  0.00    -0.009 C 
BRANCH   3   4
ATOM      4  C   UNL     1     -24.668 -25.761 -16.052  1.00  0.00     0.000 C 
ATOM      5  C   UNL     1     -23.620 -26.855 -15.829  1.00  0.00     0.004 C 
ENDBRANCH   3   4
BRANCH   3   6
ATOM      6  C   UNL     1     -26.234 -23.891 -15.032  1.00  0.00    -0.014 C 
ATOM      7  C   UNL     1     -27.608 -24.473 -15.396  1.00  0.00     0.007 C 
ATOM      8  C   UNL     1     -25.833 -22.791 -16.033  1.00  0.00     0.007 C 
ENDBRANCH   3   6
ENDBRANCH   2   3
ENDBRANCH   1   2
BRANCH   1   9
ATOM      9  C   UNL     1     -23.298 -22.030 -13.296  1.00  0.00    -0.011 C 
ATOM     10  C   UNL     1     -22.708 -22.651 -12.014  1.00  0.00     0.008 C 
BRANCH   9  11
ATOM     11  C   UNL     1     -24.697 -21.327 -13.073  1.00  0.00    -0.002 C 
ATOM     12  C   UNL     1     -24.678 -19.796 -13.373  1.00  0.00     0.005 C 
ATOM     13  C   UNL     1     -25.398 -21.397 -11.672  1.00  0.00    -0.026 C 
ATOM     14  C   UNL     1     -25.758 -19.145 -12.491  1.00  0.00     0.005 C 
ATOM     15  C   UNL     1     -26.494 -20.333 -11.892  1.00  0.00    -0.001 C 
ATOM     16  C   UNL     1     -26.085 -22.768 -11.362  1.00  0.00     0.007 C 
ATOM     17  C   UNL     1     -24.413 -20.981 -10.524  1.00  0.00     0.012 C 
ATOM     18  C   UNL     1     -27.512 -20.117 -10.729  1.00  0.00     0.000 C 
ATOM     19  C   UNL     1     -27.430 -22.655 -10.592  1.00  0.00     0.005 C 
ATOM     20  C   UNL     1     -27.568 -21.340  -9.778  1.00  0.00     0.003 C 
ATOM     21  C   UNL     1     -27.363 -18.833  -9.907  1.00  0.00     0.031 C 
ATOM     22  C   UNL     1     -28.846 -21.264  -8.852  1.00  0.00    -0.008 C 
ATOM     23  C   UNL     1     -28.428 -18.751  -8.844  1.00  0.00    -0.027 C 
ATOM     24  C   UNL     1     -29.046 -19.834  -8.311  1.00  0.00    -0.065 C 
ATOM     25  C   UNL     1     -28.641 -22.209  -7.627  1.00  0.00     0.014 C 
ATOM     26  C   UNL     1     -30.124 -21.701  -9.626  1.00  0.00     0.016 C 
ATOM     27  C   UNL     1     -30.053 -19.621  -7.194  1.00  0.00     0.063 C 
ATOM     28  C   UNL     1     -29.709 -22.041  -6.531  1.00  0.00     0.033 C 
ATOM     29  C   UNL     1     -29.798 -20.589  -6.033  1.00  0.00     0.118 C 
BRANCH  29  30
ATOM     30  O   UNL     1     -28.610 -20.223  -5.376  1.00  0.00    -0.393 OA
ATOM     31  H   UNL     1     -28.228 -19.454  -5.876  1.00  0.00     0.210 HD
ENDBRANCH  29  30
ENDBRANCH   9  11
ENDBRANCH   1   9
TORSDOF 7
ENDMDL
MODEL 6
REMARK VINA RESULT:    -5.907      1.322      2.478
REMARK INTER + INTRA:          -8.986
REMARK INTER:                  -8.667
REMARK INTRA:                  -0.318
REMARK UNBOUND:                -0.834
REMARK SMILES CC[C@@H](CC[C@H](C)[C@@H]1CC[C@@H]2[C@@H]3CC=C4C[C@H](O)CC[C@]4(C)[C@H]3CC[C@]21C)C(C)C
REMARK SMILES IDX 5 1 4 2 3 3 2 4 1 5 28 6 29 7 30 8 6 9 7 10 8 11 9 12 26 13
REMARK SMILES IDX 10 14 11 15 25 16 27 17 12 18 24 19 23 20 13 21 21 22 14 23
REMARK SMILES IDX 15 24 20 25 22 26 16 27 19 28 17 29 18 30
REMARK H PARENT 18 31
REMARK Flexibility Score: inf
ROOT
ATOM      1  C   UNL     1     -24.598 -18.583 -14.182  1.00  0.00     0.004 C 
ENDROOT
BRANCH   1   2
ATOM      2  C   UNL     1     -24.275 -17.141 -13.754  1.00  0.00     0.004 C 
BRANCH   2   3
ATOM      3  C   UNL     1     -23.592 -16.289 -14.862  1.00  0.00    -0.009 C 
BRANCH   3   4
ATOM      4  C   UNL     1     -22.179 -15.758 -14.480  1.00  0.00     0.000 C 
ATOM      5  C   UNL     1     -21.995 -14.239 -14.501  1.00  0.00     0.004 C 
ENDBRANCH   3   4
BRANCH   3   6
ATOM      6  C   UNL     1     -24.577 -15.227 -15.460  1.00  0.00    -0.014 C 
ATOM      7  C   UNL     1     -26.047 -15.528 -15.135  1.00  0.00     0.007 C 
ATOM      8  C   UNL     1     -24.405 -14.946 -16.965  1.00  0.00     0.007 C 
ENDBRANCH   3   6
ENDBRANCH   2   3
ENDBRANCH   1   2
BRANCH   1   9
ATOM      9  C   UNL     1     -24.503 -19.644 -13.043  1.00  0.00    -0.011 C 
ATOM     10  C   UNL     1     -23.893 -20.914 -13.669  1.00  0.00     0.008 C 
BRANCH   9  11
ATOM     11  C   UNL     1     -25.890 -19.894 -12.327  1.00  0.00    -0.002 C 
ATOM     12  C   UNL     1     -26.310 -18.740 -11.364  1.00  0.00     0.005 C 
ATOM     13  C   UNL     1     -26.100 -21.175 -11.445  1.00  0.00    -0.026 C 
ATOM     14  C   UNL     1     -27.191 -19.360 -10.265  1.00  0.00     0.005 C 
ATOM     15  C   UNL     1     -27.422 -20.782 -10.752  1.00  0.00    -0.001 C 
ATOM     16  C   UNL     1     -26.332 -22.488 -12.261  1.00  0.00     0.007 C 
ATOM     17  C   UNL     1     -24.935 -21.345 -10.408  1.00  0.00     0.012 C 
ATOM     18  C   UNL     1     -28.062 -21.840  -9.802  1.00  0.00     0.000 C 
ATOM     19  C   UNL     1     -27.370 -23.461 -11.635  1.00  0.00     0.005 C 
ATOM     20  C   UNL     1     -27.550 -23.272 -10.104  1.00  0.00     0.003 C 
ATOM     21  C   UNL     1     -27.967 -21.568  -8.296  1.00  0.00     0.031 C 
ATOM     22  C   UNL     1     -28.471 -24.349  -9.407  1.00  0.00    -0.008 C 
ATOM     23  C   UNL     1     -28.651 -22.657  -7.511  1.00  0.00    -0.027 C 
ATOM     24  C   UNL     1     -28.817 -23.923  -7.965  1.00  0.00    -0.065 C 
ATOM     25  C   UNL     1     -27.697 -25.702  -9.327  1.00  0.00     0.014 C 
ATOM     26  C   UNL     1     -29.789 -24.560 -10.206  1.00  0.00     0.016 C 
ATOM     27  C   UNL     1     -29.460 -24.948  -7.046  1.00  0.00     0.063 C 
ATOM     28  C   UNL     1     -28.394 -26.762  -8.455  1.00  0.00     0.033 C 
ATOM     29  C   UNL     1     -28.654 -26.251  -7.028  1.00  0.00     0.118 C 
BRANCH  29  30
ATOM     30  O   UNL     1     -27.438 -26.037  -6.355  1.00  0.00    -0.393 OA
ATOM     31  H   UNL     1     -27.169 -25.097  -6.536  1.00  0.00     0.210 HD
ENDBRANCH  29  30
ENDBRANCH   9  11
ENDBRANCH   1   9
TORSDOF 7
ENDMDL
