MODEL 1
REMARK VINA RESULT:    -6.973      0.000      0.000
REMARK INTER + INTRA:         -11.389
REMARK INTER:                 -10.031
REMARK INTRA:                  -1.358
REMARK UNBOUND:                -1.358
REMARK SMILES O=c1c(O[C@@H]2O[C@@H](CO)[C@H](O)[C@@H](O)[C@@H]2O)c(-c2ccc(O)cc2)oc2cc(O)cc(O)c12
REMARK SMILES IDX 4 1 3 2 16 3 24 4 2 5 25 6 1 7 32 8 26 9 30 10 27 11 29 12
REMARK SMILES IDX 17 13 18 14 19 15 20 16 23 17 22 18 21 19 31 21 28 23 5 25
REMARK SMILES IDX 14 26 6 27 12 28 7 29 10 30 15 31 13 33 8 35 9 36 11 38
REMARK H PARENT 21 20 31 22 28 24 15 32 13 34 9 37 11 39
REMARK Flexibility Score: inf
ROOT
ATOM      1  O   UNL     1      54.943   5.888  80.132  1.00  0.00    -0.454 OA
ENDROOT
BRANCH   1   2
ATOM      2  C   UNL     1      54.662   6.770  79.077  1.00  0.00     0.214 A 
ATOM      3  C   UNL     1      53.531   6.550  78.268  1.00  0.00     0.180 A 
ATOM      4  O   UNL     1      53.283   7.355  77.242  1.00  0.00    -0.452 OA
ATOM      5  C   UNL     1      55.467   7.894  78.818  1.00  0.00     0.239 A 
ATOM      6  C   UNL     1      54.049   8.394  76.927  1.00  0.00     0.146 A 
ATOM      7  O   UNL     1      56.366   8.207  79.643  1.00  0.00    -0.285 OA
ATOM      8  C   UNL     1      55.209   8.696  77.684  1.00  0.00     0.111 A 
ATOM      9  C   UNL     1      53.679   9.198  75.845  1.00  0.00     0.094 A 
ATOM     10  C   UNL     1      56.014   9.803  77.289  1.00  0.00     0.134 A 
ATOM     11  C   UNL     1      54.437  10.318  75.507  1.00  0.00     0.123 A 
ATOM     12  C   UNL     1      55.595  10.618  76.230  1.00  0.00     0.093 A 
BRANCH   3  13
ATOM     13  C   UNL     1      52.601   5.427  78.516  1.00  0.00     0.021 A 
ATOM     14  C   UNL     1      52.561   4.312  77.660  1.00  0.00     0.016 A 
ATOM     15  C   UNL     1      51.652   3.276  77.894  1.00  0.00     0.047 A 
ATOM     16  C   UNL     1      50.786   3.335  78.991  1.00  0.00     0.115 A 
ATOM     17  C   UNL     1      51.750   5.467  79.631  1.00  0.00     0.016 A 
ATOM     18  C   UNL     1      50.840   4.429  79.862  1.00  0.00     0.047 A 
BRANCH  16  19
ATOM     19  O   UNL     1      49.878   2.301  79.206  1.00  0.00    -0.508 OA
ATOM     20  H   UNL     1      49.109   2.399  79.856  1.00  0.00     0.293 HD
ENDBRANCH  16  19
ENDBRANCH   3  13
BRANCH  10  21
ATOM     21  O   UNL     1      57.237  10.116  77.888  1.00  0.00    -0.507 OA
ATOM     22  H   UNL     1      57.326  10.431  78.845  1.00  0.00     0.293 HD
ENDBRANCH  10  21
BRANCH  11  23
ATOM     23  O   UNL     1      54.037  11.124  74.444  1.00  0.00    -0.508 OA
ATOM     24  H   UNL     1      53.309  10.829  73.801  1.00  0.00     0.293 HD
ENDBRANCH  11  23
ENDBRANCH   1   2
BRANCH   1  25
ATOM     25  C   UNL     1      55.402   4.541  79.953  1.00  0.00     0.339 C 
ATOM     26  C   UNL     1      56.886   4.415  80.353  1.00  0.00     0.214 C 
ATOM     27  O   UNL     1      54.592   3.623  80.673  1.00  0.00    -0.332 OA
ATOM     28  C   UNL     1      57.049   4.597  81.866  1.00  0.00     0.180 C 
ATOM     29  C   UNL     1      54.654   3.850  82.075  1.00  0.00     0.179 C 
ATOM     30  C   UNL     1      56.091   3.652  82.609  1.00  0.00     0.177 C 
BRANCH  26  31
ATOM     31  O   UNL     1      57.656   5.375  79.677  1.00  0.00    -0.384 OA
ATOM     32  H   UNL     1      57.018   6.026  79.282  1.00  0.00     0.211 HD
ENDBRANCH  26  31
BRANCH  28  33
ATOM     33  O   UNL     1      58.378   4.311  82.221  1.00  0.00    -0.387 OA
ATOM     34  H   UNL     1      58.637   4.957  82.930  1.00  0.00     0.211 HD
ENDBRANCH  28  33
BRANCH  29  35
ATOM     35  C   UNL     1      53.680   2.883  82.765  1.00  0.00     0.191 C 
BRANCH  35  36
ATOM     36  O   UNL     1      54.302   1.649  82.998  1.00  0.00    -0.394 OA
ATOM     37  H   UNL     1      55.235   1.848  83.278  1.00  0.00     0.210 HD
ENDBRANCH  35  36
ENDBRANCH  29  35
BRANCH  30  38
ATOM     38  O   UNL     1      56.124   3.934  83.986  1.00  0.00    -0.387 OA
ATOM     39  H   UNL     1      55.217   4.248  84.238  1.00  0.00     0.211 HD
ENDBRANCH  30  38
ENDBRANCH   1  25
TORSDOF 11
ENDMDL
MODEL 2
REMARK VINA RESULT:    -6.871      3.020      4.820
REMARK INTER + INTRA:         -11.242
REMARK INTER:                 -10.495
REMARK INTRA:                  -0.747
REMARK UNBOUND:                -1.358
REMARK SMILES O=c1c(O[C@@H]2O[C@@H](CO)[C@H](O)[C@@H](O)[C@@H]2O)c(-c2ccc(O)cc2)oc2cc(O)cc(O)c12
REMARK SMILES IDX 4 1 3 2 16 3 24 4 2 5 25 6 1 7 32 8 26 9 30 10 27 11 29 12
REMARK SMILES IDX 17 13 18 14 19 15 20 16 23 17 22 18 21 19 31 21 28 23 5 25
REMARK SMILES IDX 14 26 6 27 12 28 7 29 10 30 15 31 13 33 8 35 9 36 11 38
REMARK H PARENT 21 20 31 22 28 24 15 32 13 34 9 37 11 39
REMARK Flexibility Score: inf
ROOT
ATOM      1  O   UNL     1      53.899   3.126  81.724  1.00  0.00    -0.454 OA
ENDROOT
BRANCH   1   2
ATOM      2  C   UNL     1      54.814   3.877  80.970  1.00  0.00     0.214 A 
ATOM      3  C   UNL     1      54.451   4.335  79.689  1.00  0.00     0.180 A 
ATOM      4  O   UNL     1      55.327   5.008  78.952  1.00  0.00    -0.452 OA
ATOM      5  C   UNL     1      56.085   4.213  81.470  1.00  0.00     0.239 A 
ATOM      6  C   UNL     1      56.557   5.297  79.363  1.00  0.00     0.146 A 
ATOM      7  O   UNL     1      56.351   3.975  82.678  1.00  0.00    -0.285 OA
ATOM      8  C   UNL     1      57.013   4.879  80.638  1.00  0.00     0.111 A 
ATOM      9  C   UNL     1      57.388   6.040  78.521  1.00  0.00     0.094 A 
ATOM     10  C   UNL     1      58.349   5.190  81.022  1.00  0.00     0.134 A 
ATOM     11  C   UNL     1      58.672   6.395  78.932  1.00  0.00     0.123 A 
ATOM     12  C   UNL     1      59.145   5.974  80.178  1.00  0.00     0.093 A 
BRANCH   3  13
ATOM     13  C   UNL     1      53.111   4.076  79.120  1.00  0.00     0.021 A 
ATOM     14  C   UNL     1      52.880   2.979  78.270  1.00  0.00     0.016 A 
ATOM     15  C   UNL     1      51.613   2.770  77.717  1.00  0.00     0.047 A 
ATOM     16  C   UNL     1      50.563   3.644  78.015  1.00  0.00     0.115 A 
ATOM     17  C   UNL     1      52.046   4.932  79.438  1.00  0.00     0.016 A 
ATOM     18  C   UNL     1      50.780   4.722  78.882  1.00  0.00     0.047 A 
BRANCH  16  19
ATOM     19  O   UNL     1      49.309   3.430  77.448  1.00  0.00    -0.508 OA
ATOM     20  H   UNL     1      48.639   4.182  77.347  1.00  0.00     0.293 HD
ENDBRANCH  16  19
ENDBRANCH   3  13
BRANCH  10  21
ATOM     21  O   UNL     1      58.939   4.725  82.201  1.00  0.00    -0.507 OA
ATOM     22  H   UNL     1      59.580   3.943  82.233  1.00  0.00     0.293 HD
ENDBRANCH  10  21
BRANCH  11  23
ATOM     23  O   UNL     1      59.476   7.161  78.091  1.00  0.00    -0.508 OA
ATOM     24  H   UNL     1      59.257   7.272  77.106  1.00  0.00     0.293 HD
ENDBRANCH  11  23
ENDBRANCH   1   2
BRANCH   1  25
ATOM     25  C   UNL     1      53.739   3.244  83.144  1.00  0.00     0.339 C 
ATOM     26  C   UNL     1      52.300   3.671  83.495  1.00  0.00     0.214 C 
ATOM     27  O   UNL     1      54.096   2.037  83.803  1.00  0.00    -0.332 OA
ATOM     28  C   UNL     1      51.313   2.546  83.167  1.00  0.00     0.180 C 
ATOM     29  C   UNL     1      53.250   0.959  83.426  1.00  0.00     0.179 C 
ATOM     30  C   UNL     1      51.783   1.236  83.822  1.00  0.00     0.177 C 
BRANCH  26  31
ATOM     31  O   UNL     1      51.948   4.829  82.783  1.00  0.00    -0.384 OA
ATOM     32  H   UNL     1      52.105   5.598  83.393  1.00  0.00     0.211 HD
ENDBRANCH  26  31
BRANCH  28  33
ATOM     33  O   UNL     1      50.041   2.895  83.650  1.00  0.00    -0.387 OA
ATOM     34  H   UNL     1      49.606   3.452  82.952  1.00  0.00     0.211 HD
ENDBRANCH  28  33
BRANCH  29  35
ATOM     35  C   UNL     1      53.765  -0.319  84.105  1.00  0.00     0.191 C 
BRANCH  35  36
ATOM     36  O   UNL     1      53.256  -1.454  83.456  1.00  0.00    -0.394 OA
ATOM     37  H   UNL     1      53.969  -2.146  83.492  1.00  0.00     0.210 HD
ENDBRANCH  35  36
ENDBRANCH  29  35
BRANCH  30  38
ATOM     38  O   UNL     1      50.969   0.175  83.388  1.00  0.00    -0.387 OA
ATOM     39  H   UNL     1      50.028   0.452  83.539  1.00  0.00     0.211 HD
ENDBRANCH  30  38
ENDBRANCH   1  25
TORSDOF 11
ENDMDL
MODEL 3
REMARK VINA RESULT:    -6.813      2.011      6.745
REMARK INTER + INTRA:         -11.159
REMARK INTER:                  -9.190
REMARK INTRA:                  -1.968
REMARK UNBOUND:                -1.358
REMARK SMILES O=c1c(O[C@@H]2O[C@@H](CO)[C@H](O)[C@@H](O)[C@@H]2O)c(-c2ccc(O)cc2)oc2cc(O)cc(O)c12
REMARK SMILES IDX 4 1 3 2 16 3 24 4 2 5 25 6 1 7 32 8 26 9 30 10 27 11 29 12
REMARK SMILES IDX 17 13 18 14 19 15 20 16 23 17 22 18 21 19 31 21 28 23 5 25
REMARK SMILES IDX 14 26 6 27 12 28 7 29 10 30 15 31 13 33 8 35 9 36 11 38
REMARK H PARENT 21 20 31 22 28 24 15 32 13 34 9 37 11 39
REMARK Flexibility Score: inf
ROOT
ATOM      1  O   UNL     1      55.914   6.033  79.968  1.00  0.00    -0.454 OA
ENDROOT
BRANCH   1   2
ATOM      2  C   UNL     1      54.821   5.382  80.562  1.00  0.00     0.214 A 
ATOM      3  C   UNL     1      53.516   5.660  80.111  1.00  0.00     0.180 A 
ATOM      4  O   UNL     1      52.475   5.082  80.698  1.00  0.00    -0.452 OA
ATOM      5  C   UNL     1      54.993   4.432  81.585  1.00  0.00     0.239 A 
ATOM      6  C   UNL     1      52.588   4.223  81.705  1.00  0.00     0.146 A 
ATOM      7  O   UNL     1      56.155   4.036  81.865  1.00  0.00    -0.285 OA
ATOM      8  C   UNL     1      53.862   3.880  82.226  1.00  0.00     0.111 A 
ATOM      9  C   UNL     1      51.429   3.645  82.229  1.00  0.00     0.094 A 
ATOM     10  C   UNL     1      53.929   2.975  83.324  1.00  0.00     0.134 A 
ATOM     11  C   UNL     1      51.510   2.711  83.260  1.00  0.00     0.123 A 
ATOM     12  C   UNL     1      52.756   2.377  83.800  1.00  0.00     0.093 A 
BRANCH   3  13
ATOM     13  C   UNL     1      53.260   6.600  78.999  1.00  0.00     0.021 A 
ATOM     14  C   UNL     1      52.668   7.855  79.227  1.00  0.00     0.016 A 
ATOM     15  C   UNL     1      52.404   8.715  78.158  1.00  0.00     0.047 A 
ATOM     16  C   UNL     1      52.740   8.339  76.853  1.00  0.00     0.115 A 
ATOM     17  C   UNL     1      53.621   6.241  77.692  1.00  0.00     0.016 A 
ATOM     18  C   UNL     1      53.355   7.103  76.623  1.00  0.00     0.047 A 
BRANCH  16  19
ATOM     19  O   UNL     1      52.462   9.202  75.796  1.00  0.00    -0.508 OA
ATOM     20  H   UNL     1      52.630   8.932  74.835  1.00  0.00     0.293 HD
ENDBRANCH  16  19
ENDBRANCH   3  13
BRANCH  10  21
ATOM     21  O   UNL     1      55.117   2.662  83.991  1.00  0.00    -0.507 OA
ATOM     22  H   UNL     1      55.453   3.169  84.800  1.00  0.00     0.293 HD
ENDBRANCH  10  21
BRANCH  11  23
ATOM     23  O   UNL     1      50.345   2.125  83.750  1.00  0.00    -0.508 OA
ATOM     24  H   UNL     1      49.774   2.587  84.450  1.00  0.00     0.293 HD
ENDBRANCH  11  23
ENDBRANCH   1   2
BRANCH   1  25
ATOM     25  C   UNL     1      56.614   7.135  80.561  1.00  0.00     0.339 C 
ATOM     26  C   UNL     1      58.138   6.928  80.461  1.00  0.00     0.214 C 
ATOM     27  O   UNL     1      56.219   8.367  79.976  1.00  0.00    -0.332 OA
ATOM     28  C   UNL     1      58.596   7.023  79.002  1.00  0.00     0.180 C 
ATOM     29  C   UNL     1      56.545   8.426  78.594  1.00  0.00     0.179 C 
ATOM     30  C   UNL     1      58.072   8.327  78.377  1.00  0.00     0.177 C 
BRANCH  26  31
ATOM     31  O   UNL     1      58.496   5.676  80.987  1.00  0.00    -0.384 OA
ATOM     32  H   UNL     1      59.421   5.768  81.339  1.00  0.00     0.211 HD
ENDBRANCH  26  31
BRANCH  28  33
ATOM     33  O   UNL     1      60.000   7.000  78.959  1.00  0.00    -0.387 OA
ATOM     34  H   UNL     1      60.264   6.202  78.430  1.00  0.00     0.211 HD
ENDBRANCH  28  33
BRANCH  29  35
ATOM     35  C   UNL     1      55.999   9.743  78.024  1.00  0.00     0.191 C 
BRANCH  35  36
ATOM     36  O   UNL     1      55.914   9.670  76.626  1.00  0.00    -0.394 OA
ATOM     37  H   UNL     1      56.299  10.515  76.272  1.00  0.00     0.210 HD
ENDBRANCH  35  36
ENDBRANCH  29  35
BRANCH  30  38
ATOM     38  O   UNL     1      58.353   8.336  77.000  1.00  0.00    -0.387 OA
ATOM     39  H   UNL     1      59.253   7.932  76.886  1.00  0.00     0.211 HD
ENDBRANCH  30  38
ENDBRANCH   1  25
TORSDOF 11
ENDMDL
MODEL 4
REMARK VINA RESULT:    -6.351      2.638      6.022
REMARK INTER + INTRA:         -10.494
REMARK INTER:                 -10.097
REMARK INTRA:                  -0.397
REMARK UNBOUND:                -1.358
REMARK SMILES O=c1c(O[C@@H]2O[C@@H](CO)[C@H](O)[C@@H](O)[C@@H]2O)c(-c2ccc(O)cc2)oc2cc(O)cc(O)c12
REMARK SMILES IDX 4 1 3 2 16 3 24 4 2 5 25 6 1 7 32 8 26 9 30 10 27 11 29 12
REMARK SMILES IDX 17 13 18 14 19 15 20 16 23 17 22 18 21 19 31 21 28 23 5 25
REMARK SMILES IDX 14 26 6 27 12 28 7 29 10 30 15 31 13 33 8 35 9 36 11 38
REMARK H PARENT 21 20 31 22 28 24 15 32 13 34 9 37 11 39
REMARK Flexibility Score: inf
ROOT
ATOM      1  O   UNL     1      54.455   6.261  81.484  1.00  0.00    -0.454 OA
ENDROOT
BRANCH   1   2
ATOM      2  C   UNL     1      53.739   5.546  80.510  1.00  0.00     0.214 A 
ATOM      3  C   UNL     1      54.337   5.273  79.265  1.00  0.00     0.180 A 
ATOM      4  O   UNL     1      53.650   4.636  78.325  1.00  0.00    -0.452 OA
ATOM      5  C   UNL     1      52.439   5.064  80.754  1.00  0.00     0.239 A 
ATOM      6  C   UNL     1      52.401   4.214  78.492  1.00  0.00     0.146 A 
ATOM      7  O   UNL     1      51.968   5.134  81.920  1.00  0.00    -0.285 OA
ATOM      8  C   UNL     1      51.716   4.441  79.713  1.00  0.00     0.111 A 
ATOM      9  C   UNL     1      51.780   3.523  77.449  1.00  0.00     0.094 A 
ATOM     10  C   UNL     1      50.369   3.994  79.833  1.00  0.00     0.134 A 
ATOM     11  C   UNL     1      50.485   3.032  77.600  1.00  0.00     0.123 A 
ATOM     12  C   UNL     1      49.787   3.265  78.789  1.00  0.00     0.093 A 
BRANCH   3  13
ATOM     13  C   UNL     1      55.721   5.692  78.958  1.00  0.00     0.021 A 
ATOM     14  C   UNL     1      56.823   4.914  79.354  1.00  0.00     0.016 A 
ATOM     15  C   UNL     1      58.125   5.345  79.082  1.00  0.00     0.047 A 
ATOM     16  C   UNL     1      58.340   6.547  78.399  1.00  0.00     0.115 A 
ATOM     17  C   UNL     1      55.943   6.882  78.248  1.00  0.00     0.016 A 
ATOM     18  C   UNL     1      57.246   7.312  77.978  1.00  0.00     0.047 A 
BRANCH  16  19
ATOM     19  O   UNL     1      59.642   6.969  78.144  1.00  0.00    -0.508 OA
ATOM     20  H   UNL     1      60.360   6.931  78.857  1.00  0.00     0.293 HD
ENDBRANCH  16  19
ENDBRANCH   3  13
BRANCH  10  21
ATOM     21  O   UNL     1      49.563   4.271  80.942  1.00  0.00    -0.507 OA
ATOM     22  H   UNL     1      48.555   4.343  80.895  1.00  0.00     0.293 HD
ENDBRANCH  10  21
BRANCH  11  23
ATOM     23  O   UNL     1      49.893   2.320  76.559  1.00  0.00    -0.508 OA
ATOM     24  H   UNL     1      48.886   2.215  76.495  1.00  0.00     0.293 HD
ENDBRANCH  11  23
ENDBRANCH   1   2
BRANCH   1  25
ATOM     25  C   UNL     1      54.495   5.910  82.873  1.00  0.00     0.339 C 
ATOM     26  C   UNL     1      55.279   4.599  83.079  1.00  0.00     0.214 C 
ATOM     27  O   UNL     1      55.035   6.966  83.654  1.00  0.00    -0.332 OA
ATOM     28  C   UNL     1      56.766   4.813  82.773  1.00  0.00     0.180 C 
ATOM     29  C   UNL     1      56.385   7.244  83.306  1.00  0.00     0.179 C 
ATOM     30  C   UNL     1      57.291   6.020  83.568  1.00  0.00     0.177 C 
BRANCH  26  31
ATOM     31  O   UNL     1      54.768   3.588  82.250  1.00  0.00    -0.384 OA
ATOM     32  H   UNL     1      55.480   3.373  81.590  1.00  0.00     0.211 HD
ENDBRANCH  26  31
BRANCH  28  33
ATOM     33  O   UNL     1      57.479   3.656  83.130  1.00  0.00    -0.387 OA
ATOM     34  H   UNL     1      58.430   3.919  83.234  1.00  0.00     0.211 HD
ENDBRANCH  28  33
BRANCH  29  35
ATOM     35  C   UNL     1      56.856   8.455  84.125  1.00  0.00     0.191 C 
BRANCH  35  36
ATOM     36  O   UNL     1      57.885   9.127  83.451  1.00  0.00    -0.394 OA
ATOM     37  H   UNL     1      57.868   8.807  82.510  1.00  0.00     0.210 HD
ENDBRANCH  35  36
ENDBRANCH  29  35
BRANCH  30  38
ATOM     38  O   UNL     1      58.606   6.313  83.164  1.00  0.00    -0.387 OA
ATOM     39  H   UNL     1      58.801   5.740  82.377  1.00  0.00     0.211 HD
ENDBRANCH  30  38
ENDBRANCH   1  25
TORSDOF 11
ENDMDL
MODEL 5
REMARK VINA RESULT:    -6.326      2.675      6.441
REMARK INTER + INTRA:         -10.457
REMARK INTER:                  -9.378
REMARK INTRA:                  -1.079
REMARK UNBOUND:                -1.358
REMARK SMILES O=c1c(O[C@@H]2O[C@@H](CO)[C@H](O)[C@@H](O)[C@@H]2O)c(-c2ccc(O)cc2)oc2cc(O)cc(O)c12
REMARK SMILES IDX 4 1 3 2 16 3 24 4 2 5 25 6 1 7 32 8 26 9 30 10 27 11 29 12
REMARK SMILES IDX 17 13 18 14 19 15 20 16 23 17 22 18 21 19 31 21 28 23 5 25
REMARK SMILES IDX 14 26 6 27 12 28 7 29 10 30 15 31 13 33 8 35 9 36 11 38
REMARK H PARENT 21 20 31 22 28 24 15 32 13 34 9 37 11 39
REMARK Flexibility Score: inf
ROOT
ATOM      1  O   UNL     1      54.410   6.046  81.636  1.00  0.00    -0.454 OA
ENDROOT
BRANCH   1   2
ATOM      2  C   UNL     1      53.690   5.406  80.614  1.00  0.00     0.214 A 
ATOM      3  C   UNL     1      54.294   5.204  79.358  1.00  0.00     0.180 A 
ATOM      4  O   UNL     1      53.605   4.640  78.374  1.00  0.00    -0.452 OA
ATOM      5  C   UNL     1      52.381   4.932  80.817  1.00  0.00     0.239 A 
ATOM      6  C   UNL     1      52.348   4.230  78.505  1.00  0.00     0.146 A 
ATOM      7  O   UNL     1      51.902   4.935  81.981  1.00  0.00    -0.285 OA
ATOM      8  C   UNL     1      51.657   4.390  79.732  1.00  0.00     0.111 A 
ATOM      9  C   UNL     1      51.725   3.617  77.415  1.00  0.00     0.094 A 
ATOM     10  C   UNL     1      50.301   3.958  79.814  1.00  0.00     0.134 A 
ATOM     11  C   UNL     1      50.420   3.140  77.524  1.00  0.00     0.123 A 
ATOM     12  C   UNL     1      49.716   3.308  78.721  1.00  0.00     0.093 A 
BRANCH   3  13
ATOM     13  C   UNL     1      55.688   5.619  79.088  1.00  0.00     0.021 A 
ATOM     14  C   UNL     1      56.777   4.875  79.576  1.00  0.00     0.016 A 
ATOM     15  C   UNL     1      58.086   5.303  79.337  1.00  0.00     0.047 A 
ATOM     16  C   UNL     1      58.322   6.466  78.598  1.00  0.00     0.115 A 
ATOM     17  C   UNL     1      55.932   6.769  78.322  1.00  0.00     0.016 A 
ATOM     18  C   UNL     1      57.243   7.195  78.085  1.00  0.00     0.047 A 
BRANCH  16  19
ATOM     19  O   UNL     1      59.632   6.886  78.376  1.00  0.00    -0.508 OA
ATOM     20  H   UNL     1      59.869   7.867  78.311  1.00  0.00     0.293 HD
ENDBRANCH  16  19
ENDBRANCH   3  13
BRANCH  10  21
ATOM     21  O   UNL     1      49.491   4.177  80.932  1.00  0.00    -0.507 OA
ATOM     22  H   UNL     1      49.340   3.486  81.655  1.00  0.00     0.293 HD
ENDBRANCH  10  21
BRANCH  11  23
ATOM     23  O   UNL     1      49.825   2.507  76.435  1.00  0.00    -0.508 OA
ATOM     24  H   UNL     1      50.260   2.510  75.519  1.00  0.00     0.293 HD
ENDBRANCH  11  23
ENDBRANCH   1   2
BRANCH   1  25
ATOM     25  C   UNL     1      53.902   7.138  82.415  1.00  0.00     0.339 C 
ATOM     26  C   UNL     1      54.992   7.684  83.358  1.00  0.00     0.214 C 
ATOM     27  O   UNL     1      53.378   8.161  81.582  1.00  0.00    -0.332 OA
ATOM     28  C   UNL     1      56.102   8.370  82.553  1.00  0.00     0.180 C 
ATOM     29  C   UNL     1      54.380   8.735  80.753  1.00  0.00     0.179 C 
ATOM     30  C   UNL     1      55.486   9.406  81.599  1.00  0.00     0.177 C 
BRANCH  26  31
ATOM     31  O   UNL     1      55.541   6.644  84.125  1.00  0.00    -0.384 OA
ATOM     32  H   UNL     1      56.128   7.069  84.805  1.00  0.00     0.211 HD
ENDBRANCH  26  31
BRANCH  28  33
ATOM     33  O   UNL     1      56.989   9.002  83.441  1.00  0.00    -0.387 OA
ATOM     34  H   UNL     1      56.957   9.975  83.242  1.00  0.00     0.211 HD
ENDBRANCH  28  33
BRANCH  29  35
ATOM     35  C   UNL     1      53.711   9.757  79.823  1.00  0.00     0.191 C 
BRANCH  35  36
ATOM     36  O   UNL     1      54.493   9.957  78.676  1.00  0.00    -0.394 OA
ATOM     37  H   UNL     1      55.368   9.518  78.848  1.00  0.00     0.210 HD
ENDBRANCH  35  36
ENDBRANCH  29  35
BRANCH  30  38
ATOM     38  O   UNL     1      56.483   9.916  80.749  1.00  0.00    -0.387 OA
ATOM     39  H   UNL     1      57.209  10.262  81.332  1.00  0.00     0.211 HD
ENDBRANCH  30  38
ENDBRANCH   1  25
TORSDOF 11
ENDMDL
MODEL 6
REMARK VINA RESULT:    -6.254      2.882      5.716
REMARK INTER + INTRA:         -10.355
REMARK INTER:                  -9.450
REMARK INTRA:                  -0.905
REMARK UNBOUND:                -1.358
REMARK SMILES O=c1c(O[C@@H]2O[C@@H](CO)[C@H](O)[C@@H](O)[C@@H]2O)c(-c2ccc(O)cc2)oc2cc(O)cc(O)c12
REMARK SMILES IDX 4 1 3 2 16 3 24 4 2 5 25 6 1 7 32 8 26 9 30 10 27 11 29 12
REMARK SMILES IDX 17 13 18 14 19 15 20 16 23 17 22 18 21 19 31 21 28 23 5 25
REMARK SMILES IDX 14 26 6 27 12 28 7 29 10 30 15 31 13 33 8 35 9 36 11 38
REMARK H PARENT 21 20 31 22 28 24 15 32 13 34 9 37 11 39
REMARK Flexibility Score: inf
ROOT
ATOM      1  O   UNL     1      54.945   3.790  79.856  1.00  0.00    -0.454 OA
ENDROOT
BRANCH   1   2
ATOM      2  C   UNL     1      55.691   4.635  80.694  1.00  0.00     0.214 A 
ATOM      3  C   UNL     1      55.295   4.815  82.033  1.00  0.00     0.180 A 
ATOM      4  O   UNL     1      55.969   5.646  82.818  1.00  0.00    -0.452 OA
ATOM      5  C   UNL     1      56.849   5.292  80.240  1.00  0.00     0.239 A 
ATOM      6  C   UNL     1      57.033   6.330  82.414  1.00  0.00     0.146 A 
ATOM      7  O   UNL     1      57.320   4.994  79.111  1.00  0.00    -0.285 OA
ATOM      8  C   UNL     1      57.509   6.213  81.084  1.00  0.00     0.111 A 
ATOM      9  C   UNL     1      57.691   7.153  83.332  1.00  0.00     0.094 A 
ATOM     10  C   UNL     1      58.638   6.988  80.691  1.00  0.00     0.134 A 
ATOM     11  C   UNL     1      58.833   7.857  82.956  1.00  0.00     0.123 A 
ATOM     12  C   UNL     1      59.304   7.770  81.642  1.00  0.00     0.093 A 
BRANCH   3  13
ATOM     13  C   UNL     1      54.125   4.110  82.601  1.00  0.00     0.021 A 
ATOM     14  C   UNL     1      54.176   2.737  82.902  1.00  0.00     0.016 A 
ATOM     15  C   UNL     1      53.049   2.084  83.407  1.00  0.00     0.047 A 
ATOM     16  C   UNL     1      51.865   2.794  83.631  1.00  0.00     0.115 A 
ATOM     17  C   UNL     1      52.943   4.823  82.855  1.00  0.00     0.016 A 
ATOM     18  C   UNL     1      51.816   4.166  83.359  1.00  0.00     0.047 A 
BRANCH  16  19
ATOM     19  O   UNL     1      50.747   2.127  84.125  1.00  0.00    -0.508 OA
ATOM     20  H   UNL     1      49.815   2.509  84.022  1.00  0.00     0.293 HD
ENDBRANCH  16  19
ENDBRANCH   3  13
BRANCH  10  21
ATOM     21  O   UNL     1      59.114   7.042  79.378  1.00  0.00    -0.507 OA
ATOM     22  H   UNL     1      59.133   6.244  78.758  1.00  0.00     0.293 HD
ENDBRANCH  10  21
BRANCH  11  23
ATOM     23  O   UNL     1      59.492   8.650  83.893  1.00  0.00    -0.508 OA
ATOM     24  H   UNL     1      60.005   9.481  83.617  1.00  0.00     0.293 HD
ENDBRANCH  11  23
ENDBRANCH   1   2
BRANCH   1  25
ATOM     25  C   UNL     1      54.412   4.185  78.585  1.00  0.00     0.339 C 
ATOM     26  C   UNL     1      53.291   3.223  78.145  1.00  0.00     0.214 C 
ATOM     27  O   UNL     1      53.959   5.530  78.615  1.00  0.00    -0.332 OA
ATOM     28  C   UNL     1      52.066   3.378  79.053  1.00  0.00     0.180 C 
ATOM     29  C   UNL     1      52.889   5.708  79.534  1.00  0.00     0.179 C 
ATOM     30  C   UNL     1      51.662   4.859  79.132  1.00  0.00     0.177 C 
BRANCH  26  31
ATOM     31  O   UNL     1      53.743   1.895  78.186  1.00  0.00    -0.384 OA
ATOM     32  H   UNL     1      53.779   1.577  77.245  1.00  0.00     0.211 HD
ENDBRANCH  26  31
BRANCH  28  33
ATOM     33  O   UNL     1      51.007   2.618  78.529  1.00  0.00    -0.387 OA
ATOM     34  H   UNL     1      51.400   1.785  78.158  1.00  0.00     0.211 HD
ENDBRANCH  28  33
BRANCH  29  35
ATOM     35  C   UNL     1      52.529   7.201  79.573  1.00  0.00     0.191 C 
BRANCH  35  36
ATOM     36  O   UNL     1      51.330   7.431  78.883  1.00  0.00    -0.394 OA
ATOM     37  H   UNL     1      51.563   7.967  78.078  1.00  0.00     0.210 HD
ENDBRANCH  35  36
ENDBRANCH  29  35
BRANCH  30  38
ATOM     38  O   UNL     1      50.645   5.020  80.089  1.00  0.00    -0.387 OA
ATOM     39  H   UNL     1      50.174   5.866  79.871  1.00  0.00     0.211 HD
ENDBRANCH  30  38
ENDBRANCH   1  25
TORSDOF 11
ENDMDL
MODEL 7
REMARK VINA RESULT:    -6.241      2.287      7.766
REMARK INTER + INTRA:         -10.335
REMARK INTER:                  -8.911
REMARK INTRA:                  -1.424
REMARK UNBOUND:                -1.358
REMARK SMILES O=c1c(O[C@@H]2O[C@@H](CO)[C@H](O)[C@@H](O)[C@@H]2O)c(-c2ccc(O)cc2)oc2cc(O)cc(O)c12
REMARK SMILES IDX 4 1 3 2 16 3 24 4 2 5 25 6 1 7 32 8 26 9 30 10 27 11 29 12
REMARK SMILES IDX 17 13 18 14 19 15 20 16 23 17 22 18 21 19 31 21 28 23 5 25
REMARK SMILES IDX 14 26 6 27 12 28 7 29 10 30 15 31 13 33 8 35 9 36 11 38
REMARK H PARENT 21 20 31 22 28 24 15 32 13 34 9 37 11 39
REMARK Flexibility Score: inf
ROOT
ATOM      1  O   UNL     1      53.805   7.086  78.572  1.00  0.00    -0.454 OA
ENDROOT
BRANCH   1   2
ATOM      2  C   UNL     1      53.646   6.145  79.602  1.00  0.00     0.214 A 
ATOM      3  C   UNL     1      54.781   5.615  80.243  1.00  0.00     0.180 A 
ATOM      4  O   UNL     1      54.640   4.692  81.186  1.00  0.00    -0.452 OA
ATOM      5  C   UNL     1      52.373   5.731  80.034  1.00  0.00     0.239 A 
ATOM      6  C   UNL     1      53.460   4.231  81.585  1.00  0.00     0.146 A 
ATOM      7  O   UNL     1      51.353   6.332  79.603  1.00  0.00    -0.285 OA
ATOM      8  C   UNL     1      52.259   4.705  80.999  1.00  0.00     0.111 A 
ATOM      9  C   UNL     1      53.421   3.283  82.611  1.00  0.00     0.094 A 
ATOM     10  C   UNL     1      51.020   4.159  81.442  1.00  0.00     0.134 A 
ATOM     11  C   UNL     1      52.200   2.803  83.082  1.00  0.00     0.123 A 
ATOM     12  C   UNL     1      51.008   3.244  82.501  1.00  0.00     0.093 A 
BRANCH   3  13
ATOM     13  C   UNL     1      56.150   6.048  79.887  1.00  0.00     0.021 A 
ATOM     14  C   UNL     1      56.792   7.084  80.587  1.00  0.00     0.016 A 
ATOM     15  C   UNL     1      58.074   7.500  80.213  1.00  0.00     0.047 A 
ATOM     16  C   UNL     1      58.732   6.876  79.148  1.00  0.00     0.115 A 
ATOM     17  C   UNL     1      56.827   5.407  78.838  1.00  0.00     0.016 A 
ATOM     18  C   UNL     1      58.109   5.825  78.465  1.00  0.00     0.047 A 
BRANCH  16  19
ATOM     19  O   UNL     1      60.004   7.307  78.780  1.00  0.00    -0.508 OA
ATOM     20  H   UNL     1      60.686   6.670  78.391  1.00  0.00     0.293 HD
ENDBRANCH  16  19
ENDBRANCH   3  13
BRANCH  10  21
ATOM     21  O   UNL     1      49.791   4.464  80.851  1.00  0.00    -0.507 OA
ATOM     22  H   UNL     1      48.922   4.518  81.366  1.00  0.00     0.293 HD
ENDBRANCH  10  21
BRANCH  11  23
ATOM     23  O   UNL     1      52.181   1.879  84.125  1.00  0.00    -0.508 OA
ATOM     24  H   UNL     1      51.865   0.925  83.982  1.00  0.00     0.293 HD
ENDBRANCH  11  23
ENDBRANCH   1   2
BRANCH   1  25
ATOM     25  C   UNL     1      54.057   8.481  78.789  1.00  0.00     0.339 C 
ATOM     26  C   UNL     1      54.762   9.102  77.567  1.00  0.00     0.214 C 
ATOM     27  O   UNL     1      52.859   9.175  79.105  1.00  0.00    -0.332 OA
ATOM     28  C   UNL     1      53.811   9.145  76.366  1.00  0.00     0.180 C 
ATOM     29  C   UNL     1      51.925   9.133  78.035  1.00  0.00     0.179 C 
ATOM     30  C   UNL     1      52.492   9.823  76.773  1.00  0.00     0.177 C 
BRANCH  26  31
ATOM     31  O   UNL     1      55.907   8.361  77.235  1.00  0.00    -0.384 OA
ATOM     32  H   UNL     1      56.626   8.652  77.857  1.00  0.00     0.211 HD
ENDBRANCH  26  31
BRANCH  28  33
ATOM     33  O   UNL     1      54.419   9.866  75.325  1.00  0.00    -0.387 OA
ATOM     34  H   UNL     1      55.391   9.665  75.359  1.00  0.00     0.211 HD
ENDBRANCH  28  33
BRANCH  29  35
ATOM     35  C   UNL     1      50.631   9.820  78.495  1.00  0.00     0.191 C 
BRANCH  35  36
ATOM     36  O   UNL     1      49.528   9.289  77.810  1.00  0.00    -0.394 OA
ATOM     37  H   UNL     1      49.573   8.302  77.919  1.00  0.00     0.210 HD
ENDBRANCH  35  36
ENDBRANCH  29  35
BRANCH  30  38
ATOM     38  O   UNL     1      51.564   9.716  75.722  1.00  0.00    -0.387 OA
ATOM     39  H   UNL     1      50.984   8.937  75.926  1.00  0.00     0.211 HD
ENDBRANCH  30  38
ENDBRANCH   1  25
TORSDOF 11
ENDMDL
MODEL 8
REMARK VINA RESULT:    -6.158      1.697      4.840
REMARK INTER + INTRA:         -10.215
REMARK INTER:                  -8.772
REMARK INTRA:                  -1.444
REMARK UNBOUND:                -1.358
REMARK SMILES O=c1c(O[C@@H]2O[C@@H](CO)[C@H](O)[C@@H](O)[C@@H]2O)c(-c2ccc(O)cc2)oc2cc(O)cc(O)c12
REMARK SMILES IDX 4 1 3 2 16 3 24 4 2 5 25 6 1 7 32 8 26 9 30 10 27 11 29 12
REMARK SMILES IDX 17 13 18 14 19 15 20 16 23 17 22 18 21 19 31 21 28 23 5 25
REMARK SMILES IDX 14 26 6 27 12 28 7 29 10 30 15 31 13 33 8 35 9 36 11 38
REMARK H PARENT 21 20 31 22 28 24 15 32 13 34 9 37 11 39
REMARK Flexibility Score: inf
ROOT
ATOM      1  O   UNL     1      53.869   5.609  80.997  1.00  0.00    -0.454 OA
ENDROOT
BRANCH   1   2
ATOM      2  C   UNL     1      54.380   6.553  80.091  1.00  0.00     0.214 A 
ATOM      3  C   UNL     1      55.753   6.864  80.110  1.00  0.00     0.180 A 
ATOM      4  O   UNL     1      56.234   7.787  79.286  1.00  0.00    -0.452 OA
ATOM      5  C   UNL     1      53.559   7.182  79.138  1.00  0.00     0.239 A 
ATOM      6  C   UNL     1      55.485   8.446  78.410  1.00  0.00     0.146 A 
ATOM      7  O   UNL     1      52.376   6.776  78.984  1.00  0.00    -0.285 OA
ATOM      8  C   UNL     1      54.092   8.200  78.317  1.00  0.00     0.111 A 
ATOM      9  C   UNL     1      56.099   9.375  77.565  1.00  0.00     0.094 A 
ATOM     10  C   UNL     1      53.326   8.953  77.380  1.00  0.00     0.134 A 
ATOM     11  C   UNL     1      55.352  10.059  76.608  1.00  0.00     0.123 A 
ATOM     12  C   UNL     1      53.974   9.844  76.516  1.00  0.00     0.093 A 
BRANCH   3  13
ATOM     13  C   UNL     1      56.690   6.199  81.040  1.00  0.00     0.021 A 
ATOM     14  C   UNL     1      57.389   5.037  80.665  1.00  0.00     0.016 A 
ATOM     15  C   UNL     1      58.245   4.406  81.571  1.00  0.00     0.047 A 
ATOM     16  C   UNL     1      58.425   4.934  82.854  1.00  0.00     0.115 A 
ATOM     17  C   UNL     1      56.897   6.740  82.318  1.00  0.00     0.016 A 
ATOM     18  C   UNL     1      57.754   6.105  83.224  1.00  0.00     0.047 A 
BRANCH  16  19
ATOM     19  O   UNL     1      59.274   4.288  83.750  1.00  0.00    -0.508 OA
ATOM     20  H   UNL     1      59.576   3.335  83.599  1.00  0.00     0.293 HD
ENDBRANCH  16  19
ENDBRANCH   3  13
BRANCH  10  21
ATOM     21  O   UNL     1      51.933   8.878  77.290  1.00  0.00    -0.507 OA
ATOM     22  H   UNL     1      51.360   8.347  77.932  1.00  0.00     0.293 HD
ENDBRANCH  10  21
BRANCH  11  23
ATOM     23  O   UNL     1      55.987  10.960  75.755  1.00  0.00    -0.508 OA
ATOM     24  H   UNL     1      56.259  11.885  76.071  1.00  0.00     0.293 HD
ENDBRANCH  11  23
ENDBRANCH   1   2
BRANCH   1  25
ATOM     25  C   UNL     1      53.835   4.197  80.754  1.00  0.00     0.339 C 
ATOM     26  C   UNL     1      53.893   3.416  82.082  1.00  0.00     0.214 C 
ATOM     27  O   UNL     1      52.695   3.835  79.989  1.00  0.00    -0.332 OA
ATOM     28  C   UNL     1      52.600   3.621  82.879  1.00  0.00     0.180 C 
ATOM     29  C   UNL     1      51.484   4.119  80.678  1.00  0.00     0.179 C 
ATOM     30  C   UNL     1      51.386   3.308  81.990  1.00  0.00     0.177 C 
BRANCH  26  31
ATOM     31  O   UNL     1      54.991   3.836  82.849  1.00  0.00    -0.384 OA
ATOM     32  H   UNL     1      54.701   4.649  83.341  1.00  0.00     0.211 HD
ENDBRANCH  26  31
BRANCH  28  33
ATOM     33  O   UNL     1      52.610   2.770  83.997  1.00  0.00    -0.387 OA
ATOM     34  H   UNL     1      51.720   2.330  84.037  1.00  0.00     0.211 HD
ENDBRANCH  28  33
BRANCH  29  35
ATOM     35  C   UNL     1      50.309   3.790  79.746  1.00  0.00     0.191 C 
BRANCH  35  36
ATOM     36  O   UNL     1      50.242   4.721  78.699  1.00  0.00    -0.394 OA
ATOM     37  H   UNL     1      50.008   4.211  77.879  1.00  0.00     0.210 HD
ENDBRANCH  35  36
ENDBRANCH  29  35
BRANCH  30  38
ATOM     38  O   UNL     1      50.203   3.652  82.668  1.00  0.00    -0.387 OA
ATOM     39  H   UNL     1      49.704   4.277  82.080  1.00  0.00     0.211 HD
ENDBRANCH  30  38
ENDBRANCH   1  25
TORSDOF 11
ENDMDL
MODEL 9
REMARK VINA RESULT:    -6.149      2.047      7.817
REMARK INTER + INTRA:         -10.203
REMARK INTER:                  -8.243
REMARK INTRA:                  -1.960
REMARK UNBOUND:                -1.358
REMARK SMILES O=c1c(O[C@@H]2O[C@@H](CO)[C@H](O)[C@@H](O)[C@@H]2O)c(-c2ccc(O)cc2)oc2cc(O)cc(O)c12
REMARK SMILES IDX 4 1 3 2 16 3 24 4 2 5 25 6 1 7 32 8 26 9 30 10 27 11 29 12
REMARK SMILES IDX 17 13 18 14 19 15 20 16 23 17 22 18 21 19 31 21 28 23 5 25
REMARK SMILES IDX 14 26 6 27 12 28 7 29 10 30 15 31 13 33 8 35 9 36 11 38
REMARK H PARENT 21 20 31 22 28 24 15 32 13 34 9 37 11 39
REMARK Flexibility Score: inf
ROOT
ATOM      1  O   UNL     1      54.463   7.486  78.839  1.00  0.00    -0.454 OA
ENDROOT
BRANCH   1   2
ATOM      2  C   UNL     1      54.195   6.493  79.796  1.00  0.00     0.214 A 
ATOM      3  C   UNL     1      55.253   5.942  80.543  1.00  0.00     0.180 A 
ATOM      4  O   UNL     1      55.012   4.972  81.417  1.00  0.00    -0.452 OA
ATOM      5  C   UNL     1      52.885   6.049  80.052  1.00  0.00     0.239 A 
ATOM      6  C   UNL     1      53.799   4.483  81.649  1.00  0.00     0.146 A 
ATOM      7  O   UNL     1      51.916   6.663  79.531  1.00  0.00    -0.285 OA
ATOM      8  C   UNL     1      52.671   4.976  80.945  1.00  0.00     0.111 A 
ATOM      9  C   UNL     1      53.651   3.484  82.615  1.00  0.00     0.094 A 
ATOM     10  C   UNL     1      51.395   4.399  81.209  1.00  0.00     0.134 A 
ATOM     11  C   UNL     1      52.389   2.972  82.913  1.00  0.00     0.123 A 
ATOM     12  C   UNL     1      51.269   3.433  82.214  1.00  0.00     0.093 A 
BRANCH   3  13
ATOM     13  C   UNL     1      56.648   6.401  80.375  1.00  0.00     0.021 A 
ATOM     14  C   UNL     1      57.099   7.594  80.968  1.00  0.00     0.016 A 
ATOM     15  C   UNL     1      58.413   8.028  80.770  1.00  0.00     0.047 A 
ATOM     16  C   UNL     1      59.294   7.270  79.991  1.00  0.00     0.115 A 
ATOM     17  C   UNL     1      57.545   5.631  79.619  1.00  0.00     0.016 A 
ATOM     18  C   UNL     1      58.859   6.067  79.421  1.00  0.00     0.047 A 
BRANCH  16  19
ATOM     19  O   UNL     1      60.597   7.719  79.793  1.00  0.00    -0.508 OA
ATOM     20  H   UNL     1      60.997   7.790  78.867  1.00  0.00     0.293 HD
ENDBRANCH  16  19
ENDBRANCH   3  13
BRANCH  10  21
ATOM     21  O   UNL     1      50.241   4.724  80.490  1.00  0.00    -0.507 OA
ATOM     22  H   UNL     1      50.241   5.326  79.678  1.00  0.00     0.293 HD
ENDBRANCH  10  21
BRANCH  11  23
ATOM     23  O   UNL     1      52.258   1.998  83.900  1.00  0.00    -0.508 OA
ATOM     24  H   UNL     1      52.172   2.246  84.880  1.00  0.00     0.293 HD
ENDBRANCH  11  23
ENDBRANCH   1   2
BRANCH   1  25
ATOM     25  C   UNL     1      54.791   7.216  77.470  1.00  0.00     0.339 C 
ATOM     26  C   UNL     1      53.870   8.010  76.524  1.00  0.00     0.214 C 
ATOM     27  O   UNL     1      56.161   7.486  77.208  1.00  0.00    -0.332 OA
ATOM     28  C   UNL     1      54.169   9.510  76.621  1.00  0.00     0.180 C 
ATOM     29  C   UNL     1      56.474   8.859  77.396  1.00  0.00     0.179 C 
ATOM     30  C   UNL     1      55.674   9.753  76.422  1.00  0.00     0.177 C 
BRANCH  26  31
ATOM     31  O   UNL     1      52.523   7.777  76.844  1.00  0.00    -0.384 OA
ATOM     32  H   UNL     1      52.058   8.653  76.776  1.00  0.00     0.211 HD
ENDBRANCH  26  31
BRANCH  28  33
ATOM     33  O   UNL     1      53.438  10.189  75.632  1.00  0.00    -0.387 OA
ATOM     34  H   UNL     1      54.096  10.645  75.043  1.00  0.00     0.211 HD
ENDBRANCH  28  33
BRANCH  29  35
ATOM     35  C   UNL     1      57.985   9.044  77.188  1.00  0.00     0.191 C 
BRANCH  35  36
ATOM     36  O   UNL     1      58.452  10.126  77.946  1.00  0.00    -0.394 OA
ATOM     37  H   UNL     1      59.130   9.762  78.576  1.00  0.00     0.210 HD
ENDBRANCH  35  36
ENDBRANCH  29  35
BRANCH  30  38
ATOM     38  O   UNL     1      55.970  11.105  76.672  1.00  0.00    -0.387 OA
ATOM     39  H   UNL     1      56.485  11.135  77.520  1.00  0.00     0.211 HD
ENDBRANCH  30  38
ENDBRANCH   1  25
TORSDOF 11
ENDMDL
