MODEL 1
REMARK VINA RESULT:    -7.630      0.000      0.000
REMARK INTER + INTRA:          -8.939
REMARK INTER:                  -9.191
REMARK INTRA:                   0.252
REMARK UNBOUND:                 0.252
REMARK SMILES O=c1c(O)c(-c2ccc(O)c(O)c2)oc2cc(O)cc(O)c12
REMARK SMILES IDX 5 1 3 2 2 3 1 4 22 5 20 6 19 7 17 8 16 9 15 10 14 11 6 12
REMARK SMILES IDX 7 13 8 14 9 15 13 16 11 17 10 18 12 20 4 22 21 24 18 26
REMARK H PARENT 10 19 12 21 4 23 21 25 18 27
REMARK Flexibility Score: inf
ROOT
ATOM      1  C   UNL     1     -23.297  61.007  32.373  1.00  0.00     0.180 A 
ATOM      2  C   UNL     1     -22.028  60.920  32.971  1.00  0.00     0.208 A 
ATOM      3  C   UNL     1     -20.886  61.093  32.173  1.00  0.00     0.238 A 
ATOM      4  O   UNL     1     -19.752  60.960  32.702  1.00  0.00    -0.285 OA
ATOM      5  C   UNL     1     -21.027  61.368  30.791  1.00  0.00     0.111 A 
ATOM      6  C   UNL     1     -19.940  61.602  29.896  1.00  0.00     0.134 A 
ATOM      7  C   UNL     1     -20.192  61.734  28.524  1.00  0.00     0.093 A 
ATOM      8  C   UNL     1     -21.496  61.707  28.026  1.00  0.00     0.123 A 
ATOM      9  C   UNL     1     -22.567  61.539  28.898  1.00  0.00     0.094 A 
ATOM     10  C   UNL     1     -22.346  61.368  30.267  1.00  0.00     0.146 A 
ATOM     11  O   UNL     1     -23.396  61.200  31.064  1.00  0.00    -0.452 OA
ENDROOT
BRANCH   1  12
ATOM     12  C   UNL     1     -24.547  60.859  33.153  1.00  0.00     0.025 A 
ATOM     13  C   UNL     1     -24.608  61.218  34.509  1.00  0.00     0.016 A 
ATOM     14  C   UNL     1     -25.804  61.092  35.218  1.00  0.00     0.051 A 
ATOM     15  C   UNL     1     -26.963  60.623  34.590  1.00  0.00     0.157 A 
ATOM     16  C   UNL     1     -25.712  60.408  32.515  1.00  0.00     0.062 A 
ATOM     17  C   UNL     1     -26.917  60.280  33.218  1.00  0.00     0.158 A 
BRANCH  15  18
ATOM     18  O   UNL     1     -28.125  60.517  35.357  1.00  0.00    -0.504 OA
ATOM     19  H   UNL     1     -28.897  59.907  35.129  1.00  0.00     0.293 HD
ENDBRANCH  15  18
BRANCH  17  20
ATOM     20  O   UNL     1     -28.032  59.812  32.520  1.00  0.00    -0.504 OA
ATOM     21  H   UNL     1     -28.339  60.183  31.631  1.00  0.00     0.293 HD
ENDBRANCH  17  20
ENDBRANCH   1  12
BRANCH   2  22
ATOM     22  O   UNL     1     -21.910  60.626  34.332  1.00  0.00    -0.502 OA
ATOM     23  H   UNL     1     -21.184  60.022  34.698  1.00  0.00     0.293 HD
ENDBRANCH   2  22
BRANCH   6  24
ATOM     24  O   UNL     1     -18.610  61.738  30.303  1.00  0.00    -0.507 OA
ATOM     25  H   UNL     1     -18.156  62.617  30.503  1.00  0.00     0.293 HD
ENDBRANCH   6  24
BRANCH   8  26
ATOM     26  O   UNL     1     -21.737  61.856  26.661  1.00  0.00    -0.508 OA
ATOM     27  H   UNL     1     -21.373  61.198  25.983  1.00  0.00     0.293 HD
ENDBRANCH   8  26
TORSDOF 6
ENDMDL
MODEL 2
REMARK VINA RESULT:    -7.516      3.361      7.139
REMARK INTER + INTRA:          -8.803
REMARK INTER:                  -8.480
REMARK INTRA:                  -0.323
REMARK UNBOUND:                 0.252
REMARK SMILES O=c1c(O)c(-c2ccc(O)c(O)c2)oc2cc(O)cc(O)c12
REMARK SMILES IDX 5 1 3 2 2 3 1 4 22 5 20 6 19 7 17 8 16 9 15 10 14 11 6 12
REMARK SMILES IDX 7 13 8 14 9 15 13 16 11 17 10 18 12 20 4 22 21 24 18 26
REMARK H PARENT 10 19 12 21 4 23 21 25 18 27
REMARK Flexibility Score: inf
ROOT
ATOM      1  C   UNL     1     -22.973  60.011  34.432  1.00  0.00     0.180 A 
ATOM      2  C   UNL     1     -23.437  59.232  33.358  1.00  0.00     0.208 A 
ATOM      3  C   UNL     1     -24.799  59.282  33.018  1.00  0.00     0.238 A 
ATOM      4  O   UNL     1     -25.219  58.542  32.091  1.00  0.00    -0.285 OA
ATOM      5  C   UNL     1     -25.676  60.123  33.746  1.00  0.00     0.111 A 
ATOM      6  C   UNL     1     -27.066  60.283  33.462  1.00  0.00     0.134 A 
ATOM      7  C   UNL     1     -27.864  61.040  34.329  1.00  0.00     0.093 A 
ATOM      8  C   UNL     1     -27.309  61.696  35.430  1.00  0.00     0.123 A 
ATOM      9  C   UNL     1     -25.943  61.595  35.681  1.00  0.00     0.094 A 
ATOM     10  C   UNL     1     -25.128  60.817  34.855  1.00  0.00     0.146 A 
ATOM     11  O   UNL     1     -23.832  60.739  35.136  1.00  0.00    -0.452 OA
ENDROOT
BRANCH   1  12
ATOM     12  C   UNL     1     -21.549  60.029  34.834  1.00  0.00     0.025 A 
ATOM     13  C   UNL     1     -21.044  59.120  35.777  1.00  0.00     0.016 A 
ATOM     14  C   UNL     1     -19.691  59.140  36.122  1.00  0.00     0.051 A 
ATOM     15  C   UNL     1     -18.814  60.054  35.527  1.00  0.00     0.157 A 
ATOM     16  C   UNL     1     -20.667  60.932  34.220  1.00  0.00     0.062 A 
ATOM     17  C   UNL     1     -19.309  60.959  34.560  1.00  0.00     0.158 A 
BRANCH  15  18
ATOM     18  O   UNL     1     -17.475  60.024  35.921  1.00  0.00    -0.504 OA
ATOM     19  H   UNL     1     -17.168  60.082  36.881  1.00  0.00     0.293 HD
ENDBRANCH  15  18
BRANCH  17  20
ATOM     20  O   UNL     1     -18.494  61.893  33.916  1.00  0.00    -0.504 OA
ATOM     21  H   UNL     1     -18.603  62.167  32.950  1.00  0.00     0.293 HD
ENDBRANCH  17  20
ENDBRANCH   1  12
BRANCH   2  22
ATOM     22  O   UNL     1     -22.559  58.393  32.667  1.00  0.00    -0.502 OA
ATOM     23  H   UNL     1     -21.865  57.824  33.138  1.00  0.00     0.293 HD
ENDBRANCH   2  22
BRANCH   6  24
ATOM     24  O   UNL     1     -27.700  59.746  32.338  1.00  0.00    -0.507 OA
ATOM     25  H   UNL     1     -27.497  60.006  31.385  1.00  0.00     0.293 HD
ENDBRANCH   6  24
BRANCH   8  26
ATOM     26  O   UNL     1     -28.109  62.461  36.278  1.00  0.00    -0.508 OA
ATOM     27  H   UNL     1     -27.761  62.811  37.162  1.00  0.00     0.293 HD
ENDBRANCH   8  26
TORSDOF 6
ENDMDL
MODEL 3
REMARK VINA RESULT:    -7.462      2.617      7.068
REMARK INTER + INTRA:          -8.737
REMARK INTER:                  -8.450
REMARK INTRA:                  -0.286
REMARK UNBOUND:                 0.252
REMARK SMILES O=c1c(O)c(-c2ccc(O)c(O)c2)oc2cc(O)cc(O)c12
REMARK SMILES IDX 5 1 3 2 2 3 1 4 22 5 20 6 19 7 17 8 16 9 15 10 14 11 6 12
REMARK SMILES IDX 7 13 8 14 9 15 13 16 11 17 10 18 12 20 4 22 21 24 18 26
REMARK H PARENT 10 19 12 21 4 23 21 25 18 27
REMARK Flexibility Score: inf
ROOT
ATOM      1  C   UNL     1     -23.330  60.694  33.148  1.00  0.00     0.180 A 
ATOM      2  C   UNL     1     -23.922  60.923  31.894  1.00  0.00     0.208 A 
ATOM      3  C   UNL     1     -25.270  61.313  31.838  1.00  0.00     0.238 A 
ATOM      4  O   UNL     1     -25.809  61.465  30.712  1.00  0.00    -0.285 OA
ATOM      5  C   UNL     1     -26.003  61.485  33.038  1.00  0.00     0.111 A 
ATOM      6  C   UNL     1     -27.363  61.916  33.100  1.00  0.00     0.134 A 
ATOM      7  C   UNL     1     -28.027  61.925  34.333  1.00  0.00     0.093 A 
ATOM      8  C   UNL     1     -27.362  61.580  35.512  1.00  0.00     0.123 A 
ATOM      9  C   UNL     1     -26.020  61.215  35.468  1.00  0.00     0.094 A 
ATOM     10  C   UNL     1     -25.340  61.162  34.249  1.00  0.00     0.146 A 
ATOM     11  O   UNL     1     -24.062  60.799  34.250  1.00  0.00    -0.452 OA
ENDROOT
BRANCH   1  12
ATOM     12  C   UNL     1     -21.909  60.303  33.288  1.00  0.00     0.025 A 
ATOM     13  C   UNL     1     -21.487  58.985  33.056  1.00  0.00     0.016 A 
ATOM     14  C   UNL     1     -20.137  58.646  33.171  1.00  0.00     0.051 A 
ATOM     15  C   UNL     1     -19.182  59.613  33.504  1.00  0.00     0.157 A 
ATOM     16  C   UNL     1     -20.951  61.280  33.601  1.00  0.00     0.062 A 
ATOM     17  C   UNL     1     -19.594  60.949  33.718  1.00  0.00     0.158 A 
BRANCH  15  18
ATOM     18  O   UNL     1     -17.850  59.206  33.607  1.00  0.00    -0.504 OA
ATOM     19  H   UNL     1     -17.511  58.557  34.302  1.00  0.00     0.293 HD
ENDBRANCH  15  18
BRANCH  17  20
ATOM     20  O   UNL     1     -18.700  61.970  34.045  1.00  0.00    -0.504 OA
ATOM     21  H   UNL     1     -18.830  62.610  34.816  1.00  0.00     0.293 HD
ENDBRANCH  17  20
ENDBRANCH   1  12
BRANCH   2  22
ATOM     22  O   UNL     1     -23.186  60.727  30.723  1.00  0.00    -0.502 OA
ATOM     23  H   UNL     1     -23.072  61.451  30.023  1.00  0.00     0.293 HD
ENDBRANCH   2  22
BRANCH   6  24
ATOM     24  O   UNL     1     -28.090  62.369  31.995  1.00  0.00    -0.507 OA
ATOM     25  H   UNL     1     -28.690  61.791  31.426  1.00  0.00     0.293 HD
ENDBRANCH   6  24
BRANCH   8  26
ATOM     26  O   UNL     1     -28.028  61.607  36.737  1.00  0.00    -0.508 OA
ATOM     27  H   UNL     1     -27.568  61.919  37.583  1.00  0.00     0.293 HD
ENDBRANCH   8  26
TORSDOF 6
ENDMDL
MODEL 4
REMARK VINA RESULT:    -7.224      1.315      3.309
REMARK INTER + INTRA:          -8.450
REMARK INTER:                  -8.822
REMARK INTRA:                   0.372
REMARK UNBOUND:                 0.252
REMARK SMILES O=c1c(O)c(-c2ccc(O)c(O)c2)oc2cc(O)cc(O)c12
REMARK SMILES IDX 5 1 3 2 2 3 1 4 22 5 20 6 19 7 17 8 16 9 15 10 14 11 6 12
REMARK SMILES IDX 7 13 8 14 9 15 13 16 11 17 10 18 12 20 4 22 21 24 18 26
REMARK H PARENT 10 19 12 21 4 23 21 25 18 27
REMARK Flexibility Score: inf
ROOT
ATOM      1  C   UNL     1     -24.264  61.215  31.195  1.00  0.00     0.180 A 
ATOM      2  C   UNL     1     -24.627  61.503  29.869  1.00  0.00     0.208 A 
ATOM      3  C   UNL     1     -23.618  61.674  28.907  1.00  0.00     0.238 A 
ATOM      4  O   UNL     1     -23.946  61.985  27.733  1.00  0.00    -0.285 OA
ATOM      5  C   UNL     1     -22.259  61.536  29.282  1.00  0.00     0.111 A 
ATOM      6  C   UNL     1     -21.156  61.648  28.382  1.00  0.00     0.134 A 
ATOM      7  C   UNL     1     -19.849  61.624  28.887  1.00  0.00     0.093 A 
ATOM      8  C   UNL     1     -19.606  61.428  30.248  1.00  0.00     0.123 A 
ATOM      9  C   UNL     1     -20.675  61.259  31.124  1.00  0.00     0.094 A 
ATOM     10  C   UNL     1     -21.990  61.313  30.657  1.00  0.00     0.146 A 
ATOM     11  O   UNL     1     -22.980  61.158  31.528  1.00  0.00    -0.452 OA
ENDROOT
BRANCH   1  12
ATOM     12  C   UNL     1     -25.271  60.999  32.258  1.00  0.00     0.025 A 
ATOM     13  C   UNL     1     -26.605  60.690  31.949  1.00  0.00     0.016 A 
ATOM     14  C   UNL     1     -27.533  60.467  32.968  1.00  0.00     0.051 A 
ATOM     15  C   UNL     1     -27.148  60.531  34.312  1.00  0.00     0.157 A 
ATOM     16  C   UNL     1     -24.878  61.043  33.604  1.00  0.00     0.062 A 
ATOM     17  C   UNL     1     -25.801  60.819  34.634  1.00  0.00     0.158 A 
BRANCH  15  18
ATOM     18  O   UNL     1     -28.125  60.302  35.283  1.00  0.00    -0.504 OA
ATOM     19  H   UNL     1     -28.089  60.679  36.219  1.00  0.00     0.293 HD
ENDBRANCH  15  18
BRANCH  17  20
ATOM     20  O   UNL     1     -25.339  60.892  35.950  1.00  0.00    -0.504 OA
ATOM     21  H   UNL     1     -25.431  60.144  36.623  1.00  0.00     0.293 HD
ENDBRANCH  17  20
ENDBRANCH   1  12
BRANCH   2  22
ATOM     22  O   UNL     1     -25.973  61.655  29.525  1.00  0.00    -0.502 OA
ATOM     23  H   UNL     1     -26.491  60.945  29.022  1.00  0.00     0.293 HD
ENDBRANCH   2  22
BRANCH   6  24
ATOM     24  O   UNL     1     -21.288  61.755  26.995  1.00  0.00    -0.507 OA
ATOM     25  H   UNL     1     -21.197  60.987  26.348  1.00  0.00     0.293 HD
ENDBRANCH   6  24
BRANCH   8  26
ATOM     26  O   UNL     1     -18.302  61.390  30.738  1.00  0.00    -0.508 OA
ATOM     27  H   UNL     1     -17.773  62.237  30.904  1.00  0.00     0.293 HD
ENDBRANCH   8  26
TORSDOF 6
ENDMDL
MODEL 5
REMARK VINA RESULT:    -6.916     17.650     19.929
REMARK INTER + INTRA:          -8.079
REMARK INTER:                  -8.181
REMARK INTRA:                   0.102
REMARK UNBOUND:                 0.252
REMARK SMILES O=c1c(O)c(-c2ccc(O)c(O)c2)oc2cc(O)cc(O)c12
REMARK SMILES IDX 5 1 3 2 2 3 1 4 22 5 20 6 19 7 17 8 16 9 15 10 14 11 6 12
REMARK SMILES IDX 7 13 8 14 9 15 13 16 11 17 10 18 12 20 4 22 21 24 18 26
REMARK H PARENT 10 19 12 21 4 23 21 25 18 27
REMARK Flexibility Score: inf
ROOT
ATOM      1  C   UNL     1     -14.845  45.523  25.223  1.00  0.00     0.180 A 
ATOM      2  C   UNL     1     -14.924  46.859  25.651  1.00  0.00     0.208 A 
ATOM      3  C   UNL     1     -15.655  47.160  26.812  1.00  0.00     0.238 A 
ATOM      4  O   UNL     1     -15.767  48.364  27.161  1.00  0.00    -0.285 OA
ATOM      5  C   UNL     1     -16.283  46.119  27.539  1.00  0.00     0.111 A 
ATOM      6  C   UNL     1     -17.014  46.304  28.751  1.00  0.00     0.134 A 
ATOM      7  C   UNL     1     -17.704  45.222  29.312  1.00  0.00     0.093 A 
ATOM      8  C   UNL     1     -17.633  43.950  28.742  1.00  0.00     0.123 A 
ATOM      9  C   UNL     1     -16.874  43.747  27.593  1.00  0.00     0.094 A 
ATOM     10  C   UNL     1     -16.204  44.814  26.989  1.00  0.00     0.146 A 
ATOM     11  O   UNL     1     -15.499  44.579  25.888  1.00  0.00    -0.452 OA
ENDROOT
BRANCH   1  12
ATOM     12  C   UNL     1     -14.074  45.125  24.023  1.00  0.00     0.025 A 
ATOM     13  C   UNL     1     -14.619  44.265  23.057  1.00  0.00     0.016 A 
ATOM     14  C   UNL     1     -13.882  43.923  21.922  1.00  0.00     0.051 A 
ATOM     15  C   UNL     1     -12.597  44.441  21.719  1.00  0.00     0.157 A 
ATOM     16  C   UNL     1     -12.795  45.663  23.813  1.00  0.00     0.062 A 
ATOM     17  C   UNL     1     -12.049  45.326  22.676  1.00  0.00     0.158 A 
BRANCH  15  18
ATOM     18  O   UNL     1     -11.913  44.055  20.565  1.00  0.00    -0.504 OA
ATOM     19  H   UNL     1     -10.927  44.217  20.413  1.00  0.00     0.293 HD
ENDBRANCH  15  18
BRANCH  17  20
ATOM     20  O   UNL     1     -10.779  45.890  22.540  1.00  0.00    -0.504 OA
ATOM     21  H   UNL     1     -10.544  46.595  21.855  1.00  0.00     0.293 HD
ENDBRANCH  17  20
ENDBRANCH   1  12
BRANCH   2  22
ATOM     22  O   UNL     1     -14.315  47.873  24.908  1.00  0.00    -0.502 OA
ATOM     23  H   UNL     1     -14.472  48.857  25.096  1.00  0.00     0.293 HD
ENDBRANCH   2  22
BRANCH   6  24
ATOM     24  O   UNL     1     -17.072  47.513  29.450  1.00  0.00    -0.507 OA
ATOM     25  H   UNL     1     -17.548  48.342  29.128  1.00  0.00     0.293 HD
ENDBRANCH   6  24
BRANCH   8  26
ATOM     26  O   UNL     1     -18.310  42.875  29.317  1.00  0.00    -0.508 OA
ATOM     27  H   UNL     1     -17.889  41.957  29.383  1.00  0.00     0.293 HD
ENDBRANCH   8  26
TORSDOF 6
ENDMDL
MODEL 6
REMARK VINA RESULT:    -6.890      2.231      3.205
REMARK INTER + INTRA:          -8.049
REMARK INTER:                  -8.002
REMARK INTRA:                  -0.047
REMARK UNBOUND:                 0.252
REMARK SMILES O=c1c(O)c(-c2ccc(O)c(O)c2)oc2cc(O)cc(O)c12
REMARK SMILES IDX 5 1 3 2 2 3 1 4 22 5 20 6 19 7 17 8 16 9 15 10 14 11 6 12
REMARK SMILES IDX 7 13 8 14 9 15 13 16 11 17 10 18 12 20 4 22 21 24 18 26
REMARK H PARENT 10 19 12 21 4 23 21 25 18 27
REMARK Flexibility Score: inf
ROOT
ATOM      1  C   UNL     1     -23.767  60.180  32.234  1.00  0.00     0.180 A 
ATOM      2  C   UNL     1     -23.932  59.191  31.250  1.00  0.00     0.208 A 
ATOM      3  C   UNL     1     -22.800  58.700  30.581  1.00  0.00     0.238 A 
ATOM      4  O   UNL     1     -22.959  57.853  29.664  1.00  0.00    -0.285 OA
ATOM      5  C   UNL     1     -21.515  59.192  30.916  1.00  0.00     0.111 A 
ATOM      6  C   UNL     1     -20.295  58.737  30.330  1.00  0.00     0.134 A 
ATOM      7  C   UNL     1     -19.095  59.388  30.643  1.00  0.00     0.093 A 
ATOM      8  C   UNL     1     -19.063  60.433  31.569  1.00  0.00     0.123 A 
ATOM      9  C   UNL     1     -20.239  60.844  32.189  1.00  0.00     0.094 A 
ATOM     10  C   UNL     1     -21.457  60.239  31.871  1.00  0.00     0.146 A 
ATOM     11  O   UNL     1     -22.557  60.669  32.479  1.00  0.00    -0.452 OA
ENDROOT
BRANCH   1  12
ATOM     12  C   UNL     1     -24.909  60.730  32.999  1.00  0.00     0.025 A 
ATOM     13  C   UNL     1     -24.922  60.720  34.402  1.00  0.00     0.016 A 
ATOM     14  C   UNL     1     -26.000  61.265  35.102  1.00  0.00     0.051 A 
ATOM     15  C   UNL     1     -27.077  61.843  34.421  1.00  0.00     0.157 A 
ATOM     16  C   UNL     1     -25.978  61.327  32.313  1.00  0.00     0.062 A 
ATOM     17  C   UNL     1     -27.063  61.878  33.006  1.00  0.00     0.158 A 
BRANCH  15  18
ATOM     18  O   UNL     1     -28.124  62.367  35.180  1.00  0.00    -0.504 OA
ATOM     19  H   UNL     1     -27.998  62.850  36.058  1.00  0.00     0.293 HD
ENDBRANCH  15  18
BRANCH  17  20
ATOM     20  O   UNL     1     -28.096  62.444  32.257  1.00  0.00    -0.504 OA
ATOM     21  H   UNL     1     -28.797  61.908  31.765  1.00  0.00     0.293 HD
ENDBRANCH  17  20
ENDBRANCH   1  12
BRANCH   2  22
ATOM     22  O   UNL     1     -25.211  58.734  30.920  1.00  0.00    -0.502 OA
ATOM     23  H   UNL     1     -25.368  57.865  30.424  1.00  0.00     0.293 HD
ENDBRANCH   2  22
BRANCH   6  24
ATOM     24  O   UNL     1     -20.205  57.642  29.465  1.00  0.00    -0.507 OA
ATOM     25  H   UNL     1     -19.559  57.570  28.695  1.00  0.00     0.293 HD
ENDBRANCH   6  24
BRANCH   8  26
ATOM     26  O   UNL     1     -17.860  61.064  31.886  1.00  0.00    -0.508 OA
ATOM     27  H   UNL     1     -17.839  61.942  32.388  1.00  0.00     0.293 HD
ENDBRANCH   8  26
TORSDOF 6
ENDMDL
MODEL 7
REMARK VINA RESULT:    -6.873      2.386      6.305
REMARK INTER + INTRA:          -8.028
REMARK INTER:                  -7.693
REMARK INTRA:                  -0.335
REMARK UNBOUND:                 0.252
REMARK SMILES O=c1c(O)c(-c2ccc(O)c(O)c2)oc2cc(O)cc(O)c12
REMARK SMILES IDX 5 1 3 2 2 3 1 4 22 5 20 6 19 7 17 8 16 9 15 10 14 11 6 12
REMARK SMILES IDX 7 13 8 14 9 15 13 16 11 17 10 18 12 20 4 22 21 24 18 26
REMARK H PARENT 10 19 12 21 4 23 21 25 18 27
REMARK Flexibility Score: inf
ROOT
ATOM      1  C   UNL     1     -21.916  60.891  33.089  1.00  0.00     0.180 A 
ATOM      2  C   UNL     1     -21.894  61.516  31.831  1.00  0.00     0.208 A 
ATOM      3  C   UNL     1     -23.112  61.798  31.190  1.00  0.00     0.238 A 
ATOM      4  O   UNL     1     -23.086  62.309  30.040  1.00  0.00    -0.285 OA
ATOM      5  C   UNL     1     -24.335  61.468  31.823  1.00  0.00     0.111 A 
ATOM      6  C   UNL     1     -25.627  61.745  31.284  1.00  0.00     0.134 A 
ATOM      7  C   UNL     1     -26.766  61.255  31.936  1.00  0.00     0.093 A 
ATOM      8  C   UNL     1     -26.661  60.556  33.140  1.00  0.00     0.123 A 
ATOM      9  C   UNL     1     -25.408  60.333  33.705  1.00  0.00     0.094 A 
ATOM     10  C   UNL     1     -24.252  60.777  33.060  1.00  0.00     0.146 A 
ATOM     11  O   UNL     1     -23.075  60.534  33.627  1.00  0.00    -0.452 OA
ENDROOT
BRANCH   1  12
ATOM     12  C   UNL     1     -20.675  60.583  33.836  1.00  0.00     0.025 A 
ATOM     13  C   UNL     1     -20.099  61.517  34.713  1.00  0.00     0.016 A 
ATOM     14  C   UNL     1     -18.942  61.195  35.425  1.00  0.00     0.051 A 
ATOM     15  C   UNL     1     -18.346  59.936  35.290  1.00  0.00     0.157 A 
ATOM     16  C   UNL     1     -20.092  59.313  33.715  1.00  0.00     0.062 A 
ATOM     17  C   UNL     1     -18.931  58.981  34.427  1.00  0.00     0.158 A 
BRANCH  15  18
ATOM     18  O   UNL     1     -17.188  59.680  36.028  1.00  0.00    -0.504 OA
ATOM     19  H   UNL     1     -17.047  59.985  36.980  1.00  0.00     0.293 HD
ENDBRANCH  15  18
BRANCH  17  20
ATOM     20  O   UNL     1     -18.400  57.702  34.247  1.00  0.00    -0.504 OA
ATOM     21  H   UNL     1     -18.960  56.870  34.122  1.00  0.00     0.293 HD
ENDBRANCH  17  20
ENDBRANCH   1  12
BRANCH   2  22
ATOM     22  O   UNL     1     -20.677  61.814  31.214  1.00  0.00    -0.502 OA
ATOM     23  H   UNL     1     -19.948  61.123  31.084  1.00  0.00     0.293 HD
ENDBRANCH   2  22
BRANCH   6  24
ATOM     24  O   UNL     1     -25.845  62.512  30.136  1.00  0.00    -0.507 OA
ATOM     25  H   UNL     1     -26.200  62.153  29.263  1.00  0.00     0.293 HD
ENDBRANCH   6  24
BRANCH   8  26
ATOM     26  O   UNL     1     -27.802  60.087  33.790  1.00  0.00    -0.508 OA
ATOM     27  H   UNL     1     -28.250  60.619  34.526  1.00  0.00     0.293 HD
ENDBRANCH   8  26
TORSDOF 6
ENDMDL
MODEL 8
REMARK VINA RESULT:    -6.866      2.134      6.915
REMARK INTER + INTRA:          -8.019
REMARK INTER:                  -7.708
REMARK INTRA:                  -0.311
REMARK UNBOUND:                 0.252
REMARK SMILES O=c1c(O)c(-c2ccc(O)c(O)c2)oc2cc(O)cc(O)c12
REMARK SMILES IDX 5 1 3 2 2 3 1 4 22 5 20 6 19 7 17 8 16 9 15 10 14 11 6 12
REMARK SMILES IDX 7 13 8 14 9 15 13 16 11 17 10 18 12 20 4 22 21 24 18 26
REMARK H PARENT 10 19 12 21 4 23 21 25 18 27
REMARK Flexibility Score: inf
ROOT
ATOM      1  C   UNL     1     -24.057  60.221  30.956  1.00  0.00     0.180 A 
ATOM      2  C   UNL     1     -25.360  60.699  31.179  1.00  0.00     0.208 A 
ATOM      3  C   UNL     1     -25.766  60.981  32.493  1.00  0.00     0.238 A 
ATOM      4  O   UNL     1     -26.950  61.357  32.694  1.00  0.00    -0.285 OA
ATOM      5  C   UNL     1     -24.858  60.799  33.565  1.00  0.00     0.111 A 
ATOM      6  C   UNL     1     -25.149  61.092  34.932  1.00  0.00     0.134 A 
ATOM      7  C   UNL     1     -24.222  60.748  35.924  1.00  0.00     0.093 A 
ATOM      8  C   UNL     1     -22.988  60.184  35.591  1.00  0.00     0.123 A 
ATOM      9  C   UNL     1     -22.671  59.949  34.256  1.00  0.00     0.094 A 
ATOM     10  C   UNL     1     -23.590  60.247  33.247  1.00  0.00     0.146 A 
ATOM     11  O   UNL     1     -23.252  59.998  31.987  1.00  0.00    -0.452 OA
ENDROOT
BRANCH   1  12
ATOM     12  C   UNL     1     -23.550  59.924  29.597  1.00  0.00     0.025 A 
ATOM     13  C   UNL     1     -23.810  58.694  28.973  1.00  0.00     0.016 A 
ATOM     14  C   UNL     1     -23.341  58.446  27.681  1.00  0.00     0.051 A 
ATOM     15  C   UNL     1     -22.620  59.420  26.982  1.00  0.00     0.157 A 
ATOM     16  C   UNL     1     -22.846  60.911  28.890  1.00  0.00     0.062 A 
ATOM     17  C   UNL     1     -22.372  60.671  27.594  1.00  0.00     0.158 A 
BRANCH  15  18
ATOM     18  O   UNL     1     -22.177  59.106  25.696  1.00  0.00    -0.504 OA
ATOM     19  H   UNL     1     -22.593  58.393  25.114  1.00  0.00     0.293 HD
ENDBRANCH  15  18
BRANCH  17  20
ATOM     20  O   UNL     1     -21.668  61.695  26.957  1.00  0.00    -0.504 OA
ATOM     21  H   UNL     1     -22.048  62.614  26.776  1.00  0.00     0.293 HD
ENDBRANCH  17  20
ENDBRANCH   1  12
BRANCH   2  22
ATOM     22  O   UNL     1     -26.246  60.851  30.110  1.00  0.00    -0.502 OA
ATOM     23  H   UNL     1     -26.668  60.062  29.634  1.00  0.00     0.293 HD
ENDBRANCH   2  22
BRANCH   6  24
ATOM     24  O   UNL     1     -26.313  61.737  35.361  1.00  0.00    -0.507 OA
ATOM     25  H   UNL     1     -26.885  61.437  36.135  1.00  0.00     0.293 HD
ENDBRANCH   6  24
BRANCH   8  26
ATOM     26  O   UNL     1     -22.065  59.861  36.584  1.00  0.00    -0.508 OA
ATOM     27  H   UNL     1     -21.554  58.987  36.569  1.00  0.00     0.293 HD
ENDBRANCH   8  26
TORSDOF 6
ENDMDL
MODEL 9
REMARK VINA RESULT:    -6.803      3.022      4.121
REMARK INTER + INTRA:          -7.944
REMARK INTER:                  -7.718
REMARK INTRA:                  -0.225
REMARK UNBOUND:                 0.252
REMARK SMILES O=c1c(O)c(-c2ccc(O)c(O)c2)oc2cc(O)cc(O)c12
REMARK SMILES IDX 5 1 3 2 2 3 1 4 22 5 20 6 19 7 17 8 16 9 15 10 14 11 6 12
REMARK SMILES IDX 7 13 8 14 9 15 13 16 11 17 10 18 12 20 4 22 21 24 18 26
REMARK H PARENT 10 19 12 21 4 23 21 25 18 27
REMARK Flexibility Score: inf
ROOT
ATOM      1  C   UNL     1     -24.975  60.322  30.859  1.00  0.00     0.180 A 
ATOM      2  C   UNL     1     -24.680  61.190  29.794  1.00  0.00     0.208 A 
ATOM      3  C   UNL     1     -23.922  60.710  28.714  1.00  0.00     0.238 A 
ATOM      4  O   UNL     1     -23.615  61.506  27.788  1.00  0.00    -0.285 OA
ATOM      5  C   UNL     1     -23.484  59.363  28.704  1.00  0.00     0.111 A 
ATOM      6  C   UNL     1     -22.745  58.759  27.643  1.00  0.00     0.134 A 
ATOM      7  C   UNL     1     -22.251  57.458  27.799  1.00  0.00     0.093 A 
ATOM      8  C   UNL     1     -22.525  56.718  28.951  1.00  0.00     0.123 A 
ATOM      9  C   UNL     1     -23.295  57.277  29.967  1.00  0.00     0.094 A 
ATOM     10  C   UNL     1     -23.772  58.586  29.855  1.00  0.00     0.146 A 
ATOM     11  O   UNL     1     -24.494  59.085  30.852  1.00  0.00    -0.452 OA
ENDROOT
BRANCH   1  12
ATOM     12  C   UNL     1     -25.788  60.749  32.020  1.00  0.00     0.025 A 
ATOM     13  C   UNL     1     -27.156  61.035  31.889  1.00  0.00     0.016 A 
ATOM     14  C   UNL     1     -27.908  61.413  33.003  1.00  0.00     0.051 A 
ATOM     15  C   UNL     1     -27.318  61.498  34.269  1.00  0.00     0.157 A 
ATOM     16  C   UNL     1     -25.199  60.812  33.292  1.00  0.00     0.062 A 
ATOM     17  C   UNL     1     -25.945  61.189  34.416  1.00  0.00     0.158 A 
BRANCH  15  18
ATOM     18  O   UNL     1     -28.125  61.885  35.341  1.00  0.00    -0.504 OA
ATOM     19  H   UNL     1     -28.692  62.721  35.346  1.00  0.00     0.293 HD
ENDBRANCH  15  18
BRANCH  17  20
ATOM     20  O   UNL     1     -25.288  61.242  35.647  1.00  0.00    -0.504 OA
ATOM     21  H   UNL     1     -25.728  61.529  36.510  1.00  0.00     0.293 HD
ENDBRANCH  17  20
ENDBRANCH   1  12
BRANCH   2  22
ATOM     22  O   UNL     1     -25.104  62.521  29.833  1.00  0.00    -0.502 OA
ATOM     23  H   UNL     1     -26.058  62.783  30.053  1.00  0.00     0.293 HD
ENDBRANCH   2  22
BRANCH   6  24
ATOM     24  O   UNL     1     -22.495  59.379  26.415  1.00  0.00    -0.507 OA
ATOM     25  H   UNL     1     -21.814  60.108  26.267  1.00  0.00     0.293 HD
ENDBRANCH   6  24
BRANCH   8  26
ATOM     26  O   UNL     1     -22.042  55.417  29.091  1.00  0.00    -0.508 OA
ATOM     27  H   UNL     1     -21.730  54.879  28.292  1.00  0.00     0.293 HD
ENDBRANCH   8  26
TORSDOF 6
ENDMDL
