MODEL 1
REMARK VINA RESULT:    -4.507      0.000      0.000
REMARK INTER + INTRA:         -10.856
REMARK INTER:                  -8.196
REMARK INTRA:                  -2.660
REMARK UNBOUND:                -2.660
REMARK SMILES CCCCCCCCCCCCCCCC(=O)[O-]
REMARK SMILES IDX 9 1 10 2 11 3 12 4 13 5 14 6 15 7 16 8 17 9 18 10 8 11 7 12
REMARK SMILES IDX 6 13 5 14 4 15 3 16 2 17 1 18
REMARK H PARENT
REMARK Flexibility Score: inf
ROOT
ATOM      1  C   UNL     1     184.854 180.829 182.678  1.00  0.00     0.000 C 
ENDROOT
BRANCH   1   2
ATOM      2  C   UNL     1     183.402 180.466 183.033  1.00  0.00     0.000 C 
BRANCH   2   3
ATOM      3  C   UNL     1     183.012 180.912 184.451  1.00  0.00     0.000 C 
BRANCH   3   4
ATOM      4  C   UNL     1     182.034 182.101 184.453  1.00  0.00     0.000 C 
BRANCH   4   5
ATOM      5  C   UNL     1     181.085 182.088 183.243  1.00  0.00     0.000 C 
BRANCH   5   6
ATOM      6  C   UNL     1     180.508 183.477 182.931  1.00  0.00     0.006 C 
BRANCH   6   7
ATOM      7  C   UNL     1     179.625 183.434 181.680  1.00  0.00     0.053 C 
BRANCH   7   8
ATOM      8  C   UNL     1     178.304 182.803 181.992  1.00  0.00     0.041 C 
ATOM      9  O   UNL     1     177.922 181.786 181.354  1.00  0.00    -0.550 OA
ATOM     10  O   UNL     1     177.518 183.309 183.018  1.00  0.00    -0.550 OA
ENDBRANCH   7   8
ENDBRANCH   6   7
ENDBRANCH   5   6
ENDBRANCH   4   5
ENDBRANCH   3   4
ENDBRANCH   2   3
ENDBRANCH   1   2
BRANCH   1  11
ATOM     11  C   UNL     1     184.949 181.739 181.443  1.00  0.00     0.000 C 
BRANCH  11  12
ATOM     12  C   UNL     1     184.267 183.099 181.654  1.00  0.00    -0.000 C 
BRANCH  12  13
ATOM     13  C   UNL     1     183.278 183.397 180.518  1.00  0.00    -0.000 C 
BRANCH  13  14
ATOM     14  C   UNL     1     183.136 182.225 179.533  1.00  0.00    -0.000 C 
BRANCH  14  15
ATOM     15  C   UNL     1     181.780 182.225 178.805  1.00  0.00    -0.000 C 
BRANCH  15  16
ATOM     16  C   UNL     1     180.845 181.110 179.299  1.00  0.00    -0.000 C 
BRANCH  16  17
ATOM     17  C   UNL     1     181.559 180.106 180.216  1.00  0.00    -0.003 C 
ATOM     18  C   UNL     1     180.555 179.270 181.003  1.00  0.00     0.004 C 
ENDBRANCH  16  17
ENDBRANCH  15  16
ENDBRANCH  14  15
ENDBRANCH  13  14
ENDBRANCH  12  13
ENDBRANCH  11  12
ENDBRANCH   1  11
TORSDOF 14
ENDMDL
MODEL 2
REMARK VINA RESULT:    -4.453      1.248      4.134
REMARK INTER + INTRA:         -10.757
REMARK INTER:                  -8.419
REMARK INTRA:                  -2.338
REMARK UNBOUND:                -2.660
REMARK SMILES CCCCCCCCCCCCCCCC(=O)[O-]
REMARK SMILES IDX 9 1 10 2 11 3 12 4 13 5 14 6 15 7 16 8 17 9 18 10 8 11 7 12
REMARK SMILES IDX 6 13 5 14 4 15 3 16 2 17 1 18
REMARK H PARENT
REMARK Flexibility Score: inf
ROOT
ATOM      1  C   UNL     1     181.250 181.471 179.363  1.00  0.00     0.000 C 
ENDROOT
BRANCH   1   2
ATOM      2  C   UNL     1     182.674 182.031 179.202  1.00  0.00     0.000 C 
BRANCH   2   3
ATOM      3  C   UNL     1     182.826 183.439 179.800  1.00  0.00     0.000 C 
BRANCH   3   4
ATOM      4  C   UNL     1     181.571 183.898 180.565  1.00  0.00     0.000 C 
BRANCH   4   5
ATOM      5  C   UNL     1     181.777 183.905 182.088  1.00  0.00     0.000 C 
BRANCH   5   6
ATOM      6  C   UNL     1     180.783 182.993 182.822  1.00  0.00     0.006 C 
BRANCH   6   7
ATOM      7  C   UNL     1     179.383 183.616 182.846  1.00  0.00     0.053 C 
BRANCH   7   8
ATOM      8  C   UNL     1     178.400 182.721 182.159  1.00  0.00     0.041 C 
ATOM      9  O   UNL     1     178.651 181.494 182.018  1.00  0.00    -0.550 OA
ATOM     10  O   UNL     1     177.186 183.231 181.718  1.00  0.00    -0.550 OA
ENDBRANCH   7   8
ENDBRANCH   6   7
ENDBRANCH   5   6
ENDBRANCH   4   5
ENDBRANCH   3   4
ENDBRANCH   2   3
ENDBRANCH   1   2
BRANCH   1  11
ATOM     11  C   UNL     1     181.207 180.219 180.254  1.00  0.00     0.000 C 
BRANCH  11  12
ATOM     12  C   UNL     1     182.598 179.792 180.745  1.00  0.00    -0.000 C 
BRANCH  12  13
ATOM     13  C   UNL     1     182.750 180.054 182.251  1.00  0.00    -0.000 C 
BRANCH  13  14
ATOM     14  C   UNL     1     184.026 180.842 182.588  1.00  0.00    -0.000 C 
BRANCH  14  15
ATOM     15  C   UNL     1     185.029 180.872 181.421  1.00  0.00    -0.000 C 
BRANCH  15  16
ATOM     16  C   UNL     1     186.198 181.837 181.673  1.00  0.00    -0.000 C 
BRANCH  16  17
ATOM     17  C   UNL     1     185.727 183.235 182.101  1.00  0.00    -0.003 C 
ATOM     18  C   UNL     1     186.869 184.244 182.035  1.00  0.00     0.004 C 
ENDBRANCH  16  17
ENDBRANCH  15  16
ENDBRANCH  14  15
ENDBRANCH  13  14
ENDBRANCH  12  13
ENDBRANCH  11  12
ENDBRANCH   1  11
TORSDOF 14
ENDMDL
MODEL 3
REMARK VINA RESULT:    -4.424      2.919      4.997
REMARK INTER + INTRA:         -10.705
REMARK INTER:                  -8.387
REMARK INTRA:                  -2.317
REMARK UNBOUND:                -2.660
REMARK SMILES CCCCCCCCCCCCCCCC(=O)[O-]
REMARK SMILES IDX 9 1 10 2 11 3 12 4 13 5 14 6 15 7 16 8 17 9 18 10 8 11 7 12
REMARK SMILES IDX 6 13 5 14 4 15 3 16 2 17 1 18
REMARK H PARENT
REMARK Flexibility Score: inf
ROOT
ATOM      1  C   UNL     1     182.862 183.069 179.278  1.00  0.00     0.000 C 
ENDROOT
BRANCH   1   2
ATOM      2  C   UNL     1     181.695 182.087 179.075  1.00  0.00     0.000 C 
BRANCH   2   3
ATOM      3  C   UNL     1     182.043 180.657 179.519  1.00  0.00     0.000 C 
BRANCH   3   4
ATOM      4  C   UNL     1     181.396 180.279 180.864  1.00  0.00     0.000 C 
BRANCH   4   5
ATOM      5  C   UNL     1     182.404 179.679 181.857  1.00  0.00     0.000 C 
BRANCH   5   6
ATOM      6  C   UNL     1     183.107 180.750 182.704  1.00  0.00     0.006 C 
BRANCH   6   7
ATOM      7  C   UNL     1     184.622 180.518 182.733  1.00  0.00     0.053 C 
BRANCH   7   8
ATOM      8  C   UNL     1     185.303 181.373 181.711  1.00  0.00     0.041 C 
ATOM      9  O   UNL     1     185.776 182.494 182.038  1.00  0.00    -0.550 OA
ATOM     10  O   UNL     1     185.458 180.912 180.411  1.00  0.00    -0.550 OA
ENDBRANCH   7   8
ENDBRANCH   6   7
ENDBRANCH   5   6
ENDBRANCH   4   5
ENDBRANCH   3   4
ENDBRANCH   2   3
ENDBRANCH   1   2
BRANCH   1  11
ATOM     11  C   UNL     1     182.766 183.829 180.611  1.00  0.00     0.000 C 
BRANCH  11  12
ATOM     12  C   UNL     1     181.319 184.162 181.001  1.00  0.00    -0.000 C 
BRANCH  12  13
ATOM     13  C   UNL     1     181.074 183.878 182.491  1.00  0.00    -0.000 C 
BRANCH  13  14
ATOM     14  C   UNL     1     179.639 183.408 182.776  1.00  0.00    -0.000 C 
BRANCH  14  15
ATOM     15  C   UNL     1     178.967 182.778 181.543  1.00  0.00    -0.000 C 
BRANCH  15  16
ATOM     16  C   UNL     1     177.730 181.942 181.908  1.00  0.00    -0.000 C 
BRANCH  16  17
ATOM     17  C   UNL     1     178.083 180.489 182.258  1.00  0.00    -0.003 C 
ATOM     18  C   UNL     1     176.838 179.606 182.261  1.00  0.00     0.004 C 
ENDBRANCH  16  17
ENDBRANCH  15  16
ENDBRANCH  14  15
ENDBRANCH  13  14
ENDBRANCH  12  13
ENDBRANCH  11  12
ENDBRANCH   1  11
TORSDOF 14
ENDMDL
MODEL 4
REMARK VINA RESULT:    -4.422      1.599      3.958
REMARK INTER + INTRA:         -10.701
REMARK INTER:                  -8.618
REMARK INTRA:                  -2.082
REMARK UNBOUND:                -2.660
REMARK SMILES CCCCCCCCCCCCCCCC(=O)[O-]
REMARK SMILES IDX 9 1 10 2 11 3 12 4 13 5 14 6 15 7 16 8 17 9 18 10 8 11 7 12
REMARK SMILES IDX 6 13 5 14 4 15 3 16 2 17 1 18
REMARK H PARENT
REMARK Flexibility Score: inf
ROOT
ATOM      1  C   UNL     1     182.978 182.803 179.431  1.00  0.00     0.000 C 
ENDROOT
BRANCH   1   2
ATOM      2  C   UNL     1     182.802 183.893 180.503  1.00  0.00     0.000 C 
BRANCH   2   3
ATOM      3  C   UNL     1     181.330 184.113 180.885  1.00  0.00     0.000 C 
BRANCH   3   4
ATOM      4  C   UNL     1     181.018 183.676 182.328  1.00  0.00     0.000 C 
BRANCH   4   5
ATOM      5  C   UNL     1     179.513 183.489 182.577  1.00  0.00     0.000 C 
BRANCH   5   6
ATOM      6  C   UNL     1     178.829 182.667 181.474  1.00  0.00     0.006 C 
BRANCH   6   7
ATOM      7  C   UNL     1     177.567 181.980 182.006  1.00  0.00     0.053 C 
BRANCH   7   8
ATOM      8  C   UNL     1     177.803 180.514 182.182  1.00  0.00     0.041 C 
ATOM      9  O   UNL     1     176.832 179.733 182.371  1.00  0.00    -0.550 OA
ATOM     10  O   UNL     1     179.091 180.001 182.090  1.00  0.00    -0.550 OA
ENDBRANCH   7   8
ENDBRANCH   6   7
ENDBRANCH   5   6
ENDBRANCH   4   5
ENDBRANCH   3   4
ENDBRANCH   2   3
ENDBRANCH   1   2
BRANCH   1  11
ATOM     11  C   UNL     1     181.655 182.104 179.079  1.00  0.00     0.000 C 
BRANCH  11  12
ATOM     12  C   UNL     1     181.482 180.761 179.804  1.00  0.00    -0.000 C 
BRANCH  12  13
ATOM     13  C   UNL     1     182.773 180.363 180.534  1.00  0.00    -0.000 C 
BRANCH  13  14
ATOM     14  C   UNL     1     182.600 180.319 182.061  1.00  0.00    -0.000 C 
BRANCH  14  15
ATOM     15  C   UNL     1     183.706 181.089 182.805  1.00  0.00    -0.000 C 
BRANCH  15  16
ATOM     16  C   UNL     1     185.036 180.321 182.843  1.00  0.00    -0.000 C 
BRANCH  16  17
ATOM     17  C   UNL     1     186.130 180.993 182.000  1.00  0.00    -0.003 C 
ATOM     18  C   UNL     1     185.843 182.479 181.811  1.00  0.00     0.004 C 
ENDBRANCH  16  17
ENDBRANCH  15  16
ENDBRANCH  14  15
ENDBRANCH  13  14
ENDBRANCH  12  13
ENDBRANCH  11  12
ENDBRANCH   1  11
TORSDOF 14
ENDMDL
MODEL 5
REMARK VINA RESULT:    -4.395      2.897      4.825
REMARK INTER + INTRA:         -10.652
REMARK INTER:                  -8.142
REMARK INTRA:                  -2.510
REMARK UNBOUND:                -2.660
REMARK SMILES CCCCCCCCCCCCCCCC(=O)[O-]
REMARK SMILES IDX 9 1 10 2 11 3 12 4 13 5 14 6 15 7 16 8 17 9 18 10 8 11 7 12
REMARK SMILES IDX 6 13 5 14 4 15 3 16 2 17 1 18
REMARK H PARENT
REMARK Flexibility Score: inf
ROOT
ATOM      1  C   UNL     1     181.485 184.273 180.806  1.00  0.00     0.000 C 
ENDROOT
BRANCH   1   2
ATOM      2  C   UNL     1     181.362 183.889 182.291  1.00  0.00     0.000 C 
BRANCH   2   3
ATOM      3  C   UNL     1     182.518 182.996 182.767  1.00  0.00     0.000 C 
BRANCH   3   4
ATOM      4  C   UNL     1     182.047 181.858 183.691  1.00  0.00     0.000 C 
BRANCH   4   5
ATOM      5  C   UNL     1     183.064 180.708 183.778  1.00  0.00     0.000 C 
BRANCH   5   6
ATOM      6  C   UNL     1     183.793 180.461 182.449  1.00  0.00     0.006 C 
BRANCH   6   7
ATOM      7  C   UNL     1     185.286 180.781 182.575  1.00  0.00     0.053 C 
BRANCH   7   8
ATOM      8  C   UNL     1     185.712 181.729 181.498  1.00  0.00     0.041 C 
ATOM      9  O   UNL     1     186.412 182.737 181.783  1.00  0.00    -0.550 OA
ATOM     10  O   UNL     1     185.377 181.474 180.175  1.00  0.00    -0.550 OA
ENDBRANCH   7   8
ENDBRANCH   6   7
ENDBRANCH   5   6
ENDBRANCH   4   5
ENDBRANCH   3   4
ENDBRANCH   2   3
ENDBRANCH   1   2
BRANCH   1  11
ATOM     11  C   UNL     1     182.628 183.528 180.098  1.00  0.00     0.000 C 
BRANCH  11  12
ATOM     12  C   UNL     1     182.130 182.608 178.973  1.00  0.00    -0.000 C 
BRANCH  12  13
ATOM     13  C   UNL     1     181.947 181.171 179.483  1.00  0.00    -0.000 C 
BRANCH  13  14
ATOM     14  C   UNL     1     180.481 180.837 179.798  1.00  0.00    -0.000 C 
BRANCH  14  15
ATOM     15  C   UNL     1     180.284 180.343 181.243  1.00  0.00    -0.000 C 
BRANCH  15  16
ATOM     16  C   UNL     1     178.928 180.763 181.831  1.00  0.00    -0.000 C 
BRANCH  16  17
ATOM     17  C   UNL     1     178.415 182.086 181.241  1.00  0.00    -0.003 C 
ATOM     18  C   UNL     1     177.822 182.978 182.327  1.00  0.00     0.004 C 
ENDBRANCH  16  17
ENDBRANCH  15  16
ENDBRANCH  14  15
ENDBRANCH  13  14
ENDBRANCH  12  13
ENDBRANCH  11  12
ENDBRANCH   1  11
TORSDOF 14
ENDMDL
MODEL 6
REMARK VINA RESULT:    -4.395      2.148      4.298
REMARK INTER + INTRA:         -10.652
REMARK INTER:                  -8.287
REMARK INTRA:                  -2.365
REMARK UNBOUND:                -2.660
REMARK SMILES CCCCCCCCCCCCCCCC(=O)[O-]
REMARK SMILES IDX 9 1 10 2 11 3 12 4 13 5 14 6 15 7 16 8 17 9 18 10 8 11 7 12
REMARK SMILES IDX 6 13 5 14 4 15 3 16 2 17 1 18
REMARK H PARENT
REMARK Flexibility Score: inf
ROOT
ATOM      1  C   UNL     1     183.239 184.564 180.982  1.00  0.00     0.000 C 
ENDROOT
BRANCH   1   2
ATOM      2  C   UNL     1     184.025 183.406 181.622  1.00  0.00     0.000 C 
BRANCH   2   3
ATOM      3  C   UNL     1     184.585 182.425 180.579  1.00  0.00     0.000 C 
BRANCH   3   4
ATOM      4  C   UNL     1     184.613 180.972 181.084  1.00  0.00     0.000 C 
BRANCH   4   5
ATOM      5  C   UNL     1     184.034 180.827 182.501  1.00  0.00     0.000 C 
BRANCH   5   6
ATOM      6  C   UNL     1     182.720 180.033 182.524  1.00  0.00     0.006 C 
BRANCH   6   7
ATOM      7  C   UNL     1     182.493 179.309 181.193  1.00  0.00     0.053 C 
BRANCH   7   8
ATOM      8  C   UNL     1     181.520 178.187 181.366  1.00  0.00     0.041 C 
ATOM      9  O   UNL     1     180.338 178.303 180.942  1.00  0.00    -0.550 OA
ATOM     10  O   UNL     1     181.928 176.995 181.950  1.00  0.00    -0.550 OA
ENDBRANCH   7   8
ENDBRANCH   6   7
ENDBRANCH   5   6
ENDBRANCH   4   5
ENDBRANCH   3   4
ENDBRANCH   2   3
ENDBRANCH   1   2
BRANCH   1  11
ATOM     11  C   UNL     1     181.745 184.530 181.341  1.00  0.00     0.000 C 
BRANCH  11  12
ATOM     12  C   UNL     1     181.419 183.493 182.426  1.00  0.00    -0.000 C 
BRANCH  12  13
ATOM     13  C   UNL     1     179.942 183.578 182.838  1.00  0.00    -0.000 C 
BRANCH  13  14
ATOM     14  C   UNL     1     179.001 182.937 181.806  1.00  0.00    -0.000 C 
BRANCH  14  15
ATOM     15  C   UNL     1     179.635 181.727 181.098  1.00  0.00    -0.000 C 
BRANCH  15  16
ATOM     16  C   UNL     1     179.595 181.850 179.567  1.00  0.00    -0.000 C 
BRANCH  16  17
ATOM     17  C   UNL     1     180.797 181.177 178.889  1.00  0.00    -0.003 C 
ATOM     18  C   UNL     1     181.792 182.214 178.378  1.00  0.00     0.004 C 
ENDBRANCH  16  17
ENDBRANCH  15  16
ENDBRANCH  14  15
ENDBRANCH  13  14
ENDBRANCH  12  13
ENDBRANCH  11  12
ENDBRANCH   1  11
TORSDOF 14
ENDMDL
MODEL 7
REMARK VINA RESULT:    -4.369      2.989      4.987
REMARK INTER + INTRA:         -10.604
REMARK INTER:                  -8.205
REMARK INTRA:                  -2.399
REMARK UNBOUND:                -2.660
REMARK SMILES CCCCCCCCCCCCCCCC(=O)[O-]
REMARK SMILES IDX 9 1 10 2 11 3 12 4 13 5 14 6 15 7 16 8 17 9 18 10 8 11 7 12
REMARK SMILES IDX 6 13 5 14 4 15 3 16 2 17 1 18
REMARK H PARENT
REMARK Flexibility Score: inf
ROOT
ATOM      1  C   UNL     1     181.690 182.750 179.187  1.00  0.00     0.000 C 
ENDROOT
BRANCH   1   2
ATOM      2  C   UNL     1     181.491 181.257 178.870  1.00  0.00     0.000 C 
BRANCH   2   3
ATOM      3  C   UNL     1     181.181 180.424 180.124  1.00  0.00     0.000 C 
BRANCH   3   4
ATOM      4  C   UNL     1     182.379 179.574 180.584  1.00  0.00     0.000 C 
BRANCH   4   5
ATOM      5  C   UNL     1     182.527 179.540 182.114  1.00  0.00     0.000 C 
BRANCH   5   6
ATOM      6  C   UNL     1     183.286 180.757 182.662  1.00  0.00     0.006 C 
BRANCH   6   7
ATOM      7  C   UNL     1     184.784 180.457 182.788  1.00  0.00     0.053 C 
BRANCH   7   8
ATOM      8  C   UNL     1     185.565 181.265 181.801  1.00  0.00     0.041 C 
ATOM      9  O   UNL     1     186.141 182.325 182.165  1.00  0.00    -0.550 OA
ATOM     10  O   UNL     1     185.699 180.823 180.491  1.00  0.00    -0.550 OA
ENDBRANCH   7   8
ENDBRANCH   6   7
ENDBRANCH   5   6
ENDBRANCH   4   5
ENDBRANCH   3   4
ENDBRANCH   2   3
ENDBRANCH   1   2
BRANCH   1  11
ATOM     11  C   UNL     1     183.081 183.048 179.769  1.00  0.00     0.000 C 
BRANCH  11  12
ATOM     12  C   UNL     1     183.025 183.959 181.004  1.00  0.00    -0.000 C 
BRANCH  12  13
ATOM     13  C   UNL     1     181.579 184.380 181.308  1.00  0.00    -0.000 C 
BRANCH  13  14
ATOM     14  C   UNL     1     181.085 183.858 182.667  1.00  0.00    -0.000 C 
BRANCH  14  15
ATOM     15  C   UNL     1     180.126 182.662 182.528  1.00  0.00    -0.000 C 
BRANCH  15  16
ATOM     16  C   UNL     1     178.717 183.085 182.084  1.00  0.00    -0.000 C 
BRANCH  16  17
ATOM     17  C   UNL     1     177.921 181.925 181.464  1.00  0.00    -0.003 C 
ATOM     18  C   UNL     1     178.229 180.609 182.171  1.00  0.00     0.004 C 
ENDBRANCH  16  17
ENDBRANCH  15  16
ENDBRANCH  14  15
ENDBRANCH  13  14
ENDBRANCH  12  13
ENDBRANCH  11  12
ENDBRANCH   1  11
TORSDOF 14
ENDMDL
MODEL 8
REMARK VINA RESULT:    -4.338      2.267      4.741
REMARK INTER + INTRA:         -10.549
REMARK INTER:                  -8.741
REMARK INTRA:                  -1.808
REMARK UNBOUND:                -2.660
REMARK SMILES CCCCCCCCCCCCCCCC(=O)[O-]
REMARK SMILES IDX 9 1 10 2 11 3 12 4 13 5 14 6 15 7 16 8 17 9 18 10 8 11 7 12
REMARK SMILES IDX 6 13 5 14 4 15 3 16 2 17 1 18
REMARK H PARENT
REMARK Flexibility Score: inf
ROOT
ATOM      1  C   UNL     1     181.565 184.713 181.389  1.00  0.00     0.000 C 
ENDROOT
BRANCH   1   2
ATOM      2  C   UNL     1     183.050 184.867 181.018  1.00  0.00     0.000 C 
BRANCH   2   3
ATOM      3  C   UNL     1     183.801 183.527 181.023  1.00  0.00     0.000 C 
BRANCH   3   4
ATOM      4  C   UNL     1     185.106 183.580 181.839  1.00  0.00     0.000 C 
BRANCH   4   5
ATOM      5  C   UNL     1     186.075 182.443 181.480  1.00  0.00     0.000 C 
BRANCH   5   6
ATOM      6  C   UNL     1     185.386 181.071 181.434  1.00  0.00     0.006 C 
BRANCH   6   7
ATOM      7  C   UNL     1     185.060 180.574 182.846  1.00  0.00     0.053 C 
BRANCH   7   8
ATOM      8  C   UNL     1     183.585 180.391 183.010  1.00  0.00     0.041 C 
ATOM      9  O   UNL     1     182.917 179.797 182.121  1.00  0.00    -0.550 OA
ATOM     10  O   UNL     1     182.954 180.833 184.166  1.00  0.00    -0.550 OA
ENDBRANCH   7   8
ENDBRANCH   6   7
ENDBRANCH   5   6
ENDBRANCH   4   5
ENDBRANCH   3   4
ENDBRANCH   2   3
ENDBRANCH   1   2
BRANCH   1  11
ATOM     11  C   UNL     1     181.335 183.643 182.469  1.00  0.00     0.000 C 
BRANCH  11  12
ATOM     12  C   UNL     1     179.861 183.524 182.883  1.00  0.00    -0.000 C 
BRANCH  12  13
ATOM     13  C   UNL     1     178.995 183.071 181.698  1.00  0.00    -0.000 C 
BRANCH  13  14
ATOM     14  C   UNL     1     178.808 181.546 181.650  1.00  0.00    -0.000 C 
BRANCH  14  15
ATOM     15  C   UNL     1     179.941 180.834 180.888  1.00  0.00    -0.000 C 
BRANCH  15  16
ATOM     16  C   UNL     1     180.291 181.534 179.566  1.00  0.00    -0.000 C 
BRANCH  16  17
ATOM     17  C   UNL     1     181.756 181.317 179.155  1.00  0.00    -0.003 C 
ATOM     18  C   UNL     1     182.137 182.219 177.985  1.00  0.00     0.004 C 
ENDBRANCH  16  17
ENDBRANCH  15  16
ENDBRANCH  14  15
ENDBRANCH  13  14
ENDBRANCH  12  13
ENDBRANCH  11  12
ENDBRANCH   1  11
TORSDOF 14
ENDMDL
MODEL 9
REMARK VINA RESULT:    -4.329      2.889      5.391
REMARK INTER + INTRA:         -10.532
REMARK INTER:                  -8.252
REMARK INTRA:                  -2.281
REMARK UNBOUND:                -2.660
REMARK SMILES CCCCCCCCCCCCCCCC(=O)[O-]
REMARK SMILES IDX 9 1 10 2 11 3 12 4 13 5 14 6 15 7 16 8 17 9 18 10 8 11 7 12
REMARK SMILES IDX 6 13 5 14 4 15 3 16 2 17 1 18
REMARK H PARENT
REMARK Flexibility Score: inf
ROOT
ATOM      1  C   UNL     1     180.078 183.258 182.778  1.00  0.00     0.000 C 
ENDROOT
BRANCH   1   2
ATOM      2  C   UNL     1     181.582 183.347 182.466  1.00  0.00     0.000 C 
BRANCH   2   3
ATOM      3  C   UNL     1     181.877 184.195 181.219  1.00  0.00     0.000 C 
BRANCH   3   4
ATOM      4  C   UNL     1     183.384 184.394 180.979  1.00  0.00     0.000 C 
BRANCH   4   5
ATOM      5  C   UNL     1     184.247 183.398 181.771  1.00  0.00     0.000 C 
BRANCH   5   6
ATOM      6  C   UNL     1     184.813 182.276 180.889  1.00  0.00     0.006 C 
BRANCH   6   7
ATOM      7  C   UNL     1     186.116 181.722 181.477  1.00  0.00     0.053 C 
BRANCH   7   8
ATOM      8  C   UNL     1     185.824 180.760 182.584  1.00  0.00     0.041 C 
ATOM      9  O   UNL     1     186.729 180.443 183.403  1.00  0.00    -0.550 OA
ATOM     10  O   UNL     1     184.542 180.250 182.743  1.00  0.00    -0.550 OA
ENDBRANCH   7   8
ENDBRANCH   6   7
ENDBRANCH   5   6
ENDBRANCH   4   5
ENDBRANCH   3   4
ENDBRANCH   2   3
ENDBRANCH   1   2
BRANCH   1  11
ATOM     11  C   UNL     1     179.221 183.112 181.510  1.00  0.00     0.000 C 
BRANCH  11  12
ATOM     12  C   UNL     1     178.288 181.893 181.562  1.00  0.00    -0.000 C 
BRANCH  12  13
ATOM     13  C   UNL     1     179.018 180.669 182.134  1.00  0.00    -0.000 C 
BRANCH  13  14
ATOM     14  C   UNL     1     179.803 179.894 181.063  1.00  0.00    -0.000 C 
BRANCH  14  15
ATOM     15  C   UNL     1     181.321 179.909 181.315  1.00  0.00    -0.000 C 
BRANCH  15  16
ATOM     16  C   UNL     1     182.108 180.513 180.142  1.00  0.00    -0.000 C 
BRANCH  16  17
ATOM     17  C   UNL     1     181.199 181.212 179.120  1.00  0.00    -0.003 C 
ATOM     18  C   UNL     1     182.011 182.087 178.170  1.00  0.00     0.004 C 
ENDBRANCH  16  17
ENDBRANCH  15  16
ENDBRANCH  14  15
ENDBRANCH  13  14
ENDBRANCH  12  13
ENDBRANCH  11  12
ENDBRANCH   1  11
TORSDOF 14
ENDMDL
