MODEL 1
REMARK VINA RESULT:    -7.407      0.000      0.000
REMARK INTER + INTRA:          -9.215
REMARK INTER:                  -8.923
REMARK INTRA:                  -0.292
REMARK UNBOUND:                -0.292
REMARK SMILES O=c1c(O)c(-c2ccc(O)c(O)c2)oc2cc(O)cc(O)c12
REMARK SMILES IDX 5 1 3 2 2 3 1 4 22 5 20 6 19 7 17 8 16 9 15 10 14 11 6 12
REMARK SMILES IDX 7 13 8 14 9 15 13 16 11 17 10 18 12 20 4 22 21 24 18 26
REMARK H PARENT 10 19 12 21 4 23 21 25 18 27
REMARK Flexibility Score: inf
ROOT
ATOM      1  C   UNL     1      10.546  96.194  27.450  1.00  0.00     0.180 A 
ATOM      2  C   UNL     1      11.523  97.202  27.524  1.00  0.00     0.208 A 
ATOM      3  C   UNL     1      11.546  98.201  26.538  1.00  0.00     0.238 A 
ATOM      4  O   UNL     1      12.375  99.140  26.651  1.00  0.00    -0.285 OA
ATOM      5  C   UNL     1      10.629  98.150  25.460  1.00  0.00     0.111 A 
ATOM      6  C   UNL     1      10.591  99.084  24.381  1.00  0.00     0.134 A 
ATOM      7  C   UNL     1       9.569  98.995  23.427  1.00  0.00     0.093 A 
ATOM      8  C   UNL     1       8.624  97.968  23.476  1.00  0.00     0.123 A 
ATOM      9  C   UNL     1       8.686  97.020  24.494  1.00  0.00     0.094 A 
ATOM     10  C   UNL     1       9.670  97.104  25.482  1.00  0.00     0.146 A 
ATOM     11  O   UNL     1       9.678  96.191  26.447  1.00  0.00    -0.452 OA
ENDROOT
BRANCH   1  12
ATOM     12  C   UNL     1      10.449  95.116  28.460  1.00  0.00     0.025 A 
ATOM     13  C   UNL     1      11.312  94.011  28.375  1.00  0.00     0.016 A 
ATOM     14  C   UNL     1      11.225  92.972  29.303  1.00  0.00     0.051 A 
ATOM     15  C   UNL     1      10.266  93.010  30.321  1.00  0.00     0.157 A 
ATOM     16  C   UNL     1       9.472  95.144  29.471  1.00  0.00     0.062 A 
ATOM     17  C   UNL     1       9.382  94.099  30.404  1.00  0.00     0.158 A 
BRANCH  15  18
ATOM     18  O   UNL     1      10.204  91.960  31.235  1.00  0.00    -0.504 OA
ATOM     19  H   UNL     1       9.431  91.853  31.882  1.00  0.00     0.293 HD
ENDBRANCH  15  18
BRANCH  17  20
ATOM     20  O   UNL     1       8.414  94.138  31.407  1.00  0.00    -0.504 OA
ATOM     21  H   UNL     1       7.984  93.291  31.762  1.00  0.00     0.293 HD
ENDBRANCH  17  20
ENDBRANCH   1  12
BRANCH   2  22
ATOM     22  O   UNL     1      12.469  97.191  28.553  1.00  0.00    -0.502 OA
ATOM     23  H   UNL     1      12.856  96.332  28.926  1.00  0.00     0.293 HD
ENDBRANCH   2  22
BRANCH   6  24
ATOM     24  O   UNL     1      11.536 100.095  24.187  1.00  0.00    -0.507 OA
ATOM     25  H   UNL     1      11.836 100.750  24.893  1.00  0.00     0.293 HD
ENDBRANCH   6  24
BRANCH   8  26
ATOM     26  O   UNL     1       7.622  97.876  22.512  1.00  0.00    -0.508 OA
ATOM     27  H   UNL     1       7.736  98.280  21.590  1.00  0.00     0.293 HD
ENDBRANCH   8  26
TORSDOF 6
ENDMDL
MODEL 2
REMARK VINA RESULT:    -7.209      1.579      6.916
REMARK INTER + INTRA:          -8.976
REMARK INTER:                  -8.706
REMARK INTRA:                  -0.271
REMARK UNBOUND:                -0.292
REMARK SMILES O=c1c(O)c(-c2ccc(O)c(O)c2)oc2cc(O)cc(O)c12
REMARK SMILES IDX 5 1 3 2 2 3 1 4 22 5 20 6 19 7 17 8 16 9 15 10 14 11 6 12
REMARK SMILES IDX 7 13 8 14 9 15 13 16 11 17 10 18 12 20 4 22 21 24 18 26
REMARK H PARENT 10 19 12 21 4 23 21 25 18 27
REMARK Flexibility Score: inf
ROOT
ATOM      1  C   UNL     1      10.512  96.009  26.203  1.00  0.00     0.180 A 
ATOM      2  C   UNL     1      11.560  95.093  26.004  1.00  0.00     0.208 A 
ATOM      3  C   UNL     1      11.802  94.112  26.978  1.00  0.00     0.238 A 
ATOM      4  O   UNL     1      12.692  93.251  26.759  1.00  0.00    -0.285 OA
ATOM      5  C   UNL     1      11.030  94.092  28.166  1.00  0.00     0.111 A 
ATOM      6  C   UNL     1      11.218  93.172  29.242  1.00  0.00     0.134 A 
ATOM      7  C   UNL     1      10.324  93.179  30.319  1.00  0.00     0.093 A 
ATOM      8  C   UNL     1       9.290  94.116  30.393  1.00  0.00     0.123 A 
ATOM      9  C   UNL     1       9.133  95.053  29.376  1.00  0.00     0.094 A 
ATOM     10  C   UNL     1       9.984  95.047  28.268  1.00  0.00     0.146 A 
ATOM     11  O   UNL     1       9.784  95.945  27.311  1.00  0.00    -0.452 OA
ENDROOT
BRANCH   1  12
ATOM     12  C   UNL     1      10.187  97.061  25.214  1.00  0.00     0.025 A 
ATOM     13  C   UNL     1      10.987  98.213  25.144  1.00  0.00     0.016 A 
ATOM     14  C   UNL     1      10.687  99.229  24.234  1.00  0.00     0.051 A 
ATOM     15  C   UNL     1       9.577  99.119  23.390  1.00  0.00     0.157 A 
ATOM     16  C   UNL     1       9.058  96.961  24.380  1.00  0.00     0.062 A 
ATOM     17  C   UNL     1       8.755  97.982  23.467  1.00  0.00     0.158 A 
BRANCH  15  18
ATOM     18  O   UNL     1       9.303 100.148  22.491  1.00  0.00    -0.504 OA
ATOM     19  H   UNL     1       8.955 101.050  22.793  1.00  0.00     0.293 HD
ENDBRANCH  15  18
BRANCH  17  20
ATOM     20  O   UNL     1       7.637  97.872  22.640  1.00  0.00    -0.504 OA
ATOM     21  H   UNL     1       7.722  97.601  21.667  1.00  0.00     0.293 HD
ENDBRANCH  17  20
ENDBRANCH   1  12
BRANCH   2  22
ATOM     22  O   UNL     1      12.360  95.178  24.860  1.00  0.00    -0.502 OA
ATOM     23  H   UNL     1      13.129  94.542  24.687  1.00  0.00     0.293 HD
ENDBRANCH   2  22
BRANCH   6  24
ATOM     24  O   UNL     1      12.269  92.254  29.311  1.00  0.00    -0.507 OA
ATOM     25  H   UNL     1      12.892  92.147  30.097  1.00  0.00     0.293 HD
ENDBRANCH   6  24
BRANCH   8  26
ATOM     26  O   UNL     1       8.417  94.127  31.479  1.00  0.00    -0.508 OA
ATOM     27  H   UNL     1       8.721  94.421  32.400  1.00  0.00     0.293 HD
ENDBRANCH   8  26
TORSDOF 6
ENDMDL
MODEL 3
REMARK VINA RESULT:    -7.196      3.841      6.268
REMARK INTER + INTRA:          -8.961
REMARK INTER:                  -8.644
REMARK INTRA:                  -0.317
REMARK UNBOUND:                -0.292
REMARK SMILES O=c1c(O)c(-c2ccc(O)c(O)c2)oc2cc(O)cc(O)c12
REMARK SMILES IDX 5 1 3 2 2 3 1 4 22 5 20 6 19 7 17 8 16 9 15 10 14 11 6 12
REMARK SMILES IDX 7 13 8 14 9 15 13 16 11 17 10 18 12 20 4 22 21 24 18 26
REMARK H PARENT 10 19 12 21 4 23 21 25 18 27
REMARK Flexibility Score: inf
ROOT
ATOM      1  C   UNL     1      11.773  98.288  25.433  1.00  0.00     0.180 A 
ATOM      2  C   UNL     1      12.906  97.551  25.048  1.00  0.00     0.208 A 
ATOM      3  C   UNL     1      14.175  97.987  25.461  1.00  0.00     0.238 A 
ATOM      4  O   UNL     1      15.177  97.282  25.175  1.00  0.00    -0.285 OA
ATOM      5  C   UNL     1      14.302  99.184  26.207  1.00  0.00     0.111 A 
ATOM      6  C   UNL     1      15.541  99.744  26.641  1.00  0.00     0.134 A 
ATOM      7  C   UNL     1      15.536 100.876  27.465  1.00  0.00     0.093 A 
ATOM      8  C   UNL     1      14.341 101.506  27.818  1.00  0.00     0.123 A 
ATOM      9  C   UNL     1      13.130 100.999  27.355  1.00  0.00     0.094 A 
ATOM     10  C   UNL     1      13.098  99.849  26.562  1.00  0.00     0.146 A 
ATOM     11  O   UNL     1      11.920  99.388  26.161  1.00  0.00    -0.452 OA
ENDROOT
BRANCH   1  12
ATOM     12  C   UNL     1      10.402  97.884  25.049  1.00  0.00     0.025 A 
ATOM     13  C   UNL     1       9.717  96.938  25.829  1.00  0.00     0.016 A 
ATOM     14  C   UNL     1       8.430  96.526  25.474  1.00  0.00     0.051 A 
ATOM     15  C   UNL     1       7.814  97.038  24.328  1.00  0.00     0.157 A 
ATOM     16  C   UNL     1       9.790  98.382  23.884  1.00  0.00     0.062 A 
ATOM     17  C   UNL     1       8.499  97.967  23.525  1.00  0.00     0.158 A 
BRANCH  15  18
ATOM     18  O   UNL     1       6.529  96.609  23.999  1.00  0.00    -0.504 OA
ATOM     19  H   UNL     1       5.754  96.684  24.647  1.00  0.00     0.293 HD
ENDBRANCH  15  18
BRANCH  17  20
ATOM     20  O   UNL     1       7.897  98.470  22.372  1.00  0.00    -0.504 OA
ATOM     21  H   UNL     1       7.459  97.859  21.693  1.00  0.00     0.293 HD
ENDBRANCH  17  20
ENDBRANCH   1  12
BRANCH   2  22
ATOM     22  O   UNL     1      12.767  96.415  24.245  1.00  0.00    -0.502 OA
ATOM     23  H   UNL     1      13.206  95.531  24.473  1.00  0.00     0.293 HD
ENDBRANCH   2  22
BRANCH   6  24
ATOM     24  O   UNL     1      16.796  99.247  26.275  1.00  0.00    -0.507 OA
ATOM     25  H   UNL     1      17.535  99.793  25.860  1.00  0.00     0.293 HD
ENDBRANCH   6  24
BRANCH   8  26
ATOM     26  O   UNL     1      14.346 102.643  28.624  1.00  0.00    -0.508 OA
ATOM     27  H   UNL     1      14.558 102.589  29.614  1.00  0.00     0.293 HD
ENDBRANCH   8  26
TORSDOF 6
ENDMDL
MODEL 4
REMARK VINA RESULT:    -7.173      3.058      6.817
REMARK INTER + INTRA:          -8.932
REMARK INTER:                  -8.600
REMARK INTRA:                  -0.332
REMARK UNBOUND:                -0.292
REMARK SMILES O=c1c(O)c(-c2ccc(O)c(O)c2)oc2cc(O)cc(O)c12
REMARK SMILES IDX 5 1 3 2 2 3 1 4 22 5 20 6 19 7 17 8 16 9 15 10 14 11 6 12
REMARK SMILES IDX 7 13 8 14 9 15 13 16 11 17 10 18 12 20 4 22 21 24 18 26
REMARK H PARENT 10 19 12 21 4 23 21 25 18 27
REMARK Flexibility Score: inf
ROOT
ATOM      1  C   UNL     1      12.204  99.344  26.630  1.00  0.00     0.180 A 
ATOM      2  C   UNL     1      12.028  99.020  27.986  1.00  0.00     0.208 A 
ATOM      3  C   UNL     1      11.045  98.082  28.341  1.00  0.00     0.238 A 
ATOM      4  O   UNL     1      10.944  97.742  29.547  1.00  0.00    -0.285 OA
ATOM      5  C   UNL     1      10.212  97.522  27.342  1.00  0.00     0.111 A 
ATOM      6  C   UNL     1       9.153  96.597  27.591  1.00  0.00     0.134 A 
ATOM      7  C   UNL     1       8.465  96.028  26.513  1.00  0.00     0.093 A 
ATOM      8  C   UNL     1       8.753  96.399  25.197  1.00  0.00     0.123 A 
ATOM      9  C   UNL     1       9.746  97.342  24.946  1.00  0.00     0.094 A 
ATOM     10  C   UNL     1      10.477  97.899  25.999  1.00  0.00     0.146 A 
ATOM     11  O   UNL     1      11.430  98.778  25.712  1.00  0.00    -0.452 OA
ENDROOT
BRANCH   1  12
ATOM     12  C   UNL     1      13.229 100.311  26.177  1.00  0.00     0.025 A 
ATOM     13  C   UNL     1      12.867 101.651  25.962  1.00  0.00     0.016 A 
ATOM     14  C   UNL     1      13.812 102.577  25.515  1.00  0.00     0.051 A 
ATOM     15  C   UNL     1      15.128 102.179  25.261  1.00  0.00     0.157 A 
ATOM     16  C   UNL     1      14.548  99.907  25.901  1.00  0.00     0.062 A 
ATOM     17  C   UNL     1      15.498 100.836  25.450  1.00  0.00     0.158 A 
BRANCH  15  18
ATOM     18  O   UNL     1      16.050 103.125  24.817  1.00  0.00    -0.504 OA
ATOM     19  H   UNL     1      16.939 102.861  24.410  1.00  0.00     0.293 HD
ENDBRANCH  15  18
BRANCH  17  20
ATOM     20  O   UNL     1      16.804 100.428  25.184  1.00  0.00    -0.504 OA
ATOM     21  H   UNL     1      17.013  99.763  24.447  1.00  0.00     0.293 HD
ENDBRANCH  17  20
ENDBRANCH   1  12
BRANCH   2  22
ATOM     22  O   UNL     1      12.809  99.642  28.965  1.00  0.00    -0.502 OA
ATOM     23  H   UNL     1      12.524 100.500  29.423  1.00  0.00     0.293 HD
ENDBRANCH   2  22
BRANCH   6  24
ATOM     24  O   UNL     1       8.725  96.225  28.869  1.00  0.00    -0.507 OA
ATOM     25  H   UNL     1       7.965  96.656  29.372  1.00  0.00     0.293 HD
ENDBRANCH   6  24
BRANCH   8  26
ATOM     26  O   UNL     1       8.051  95.841  24.131  1.00  0.00    -0.508 OA
ATOM     27  H   UNL     1       7.316  95.160  24.279  1.00  0.00     0.293 HD
ENDBRANCH   8  26
TORSDOF 6
ENDMDL
MODEL 5
REMARK VINA RESULT:    -7.157      3.505      5.839
REMARK INTER + INTRA:          -8.914
REMARK INTER:                  -8.645
REMARK INTRA:                  -0.269
REMARK UNBOUND:                -0.292
REMARK SMILES O=c1c(O)c(-c2ccc(O)c(O)c2)oc2cc(O)cc(O)c12
REMARK SMILES IDX 5 1 3 2 2 3 1 4 22 5 20 6 19 7 17 8 16 9 15 10 14 11 6 12
REMARK SMILES IDX 7 13 8 14 9 15 13 16 11 17 10 18 12 20 4 22 21 24 18 26
REMARK H PARENT 10 19 12 21 4 23 21 25 18 27
REMARK Flexibility Score: inf
ROOT
ATOM      1  C   UNL     1      11.726  99.022  25.548  1.00  0.00     0.180 A 
ATOM      2  C   UNL     1      11.151  97.869  26.110  1.00  0.00     0.208 A 
ATOM      3  C   UNL     1      10.027  97.298  25.492  1.00  0.00     0.238 A 
ATOM      4  O   UNL     1       9.563  96.225  25.958  1.00  0.00    -0.285 OA
ATOM      5  C   UNL     1       9.457  97.918  24.353  1.00  0.00     0.111 A 
ATOM      6  C   UNL     1       8.290  97.453  23.673  1.00  0.00     0.134 A 
ATOM      7  C   UNL     1       7.881  98.086  22.494  1.00  0.00     0.093 A 
ATOM      8  C   UNL     1       8.556  99.207  22.005  1.00  0.00     0.123 A 
ATOM      9  C   UNL     1       9.661  99.702  22.692  1.00  0.00     0.094 A 
ATOM     10  C   UNL     1      10.118  99.069  23.850  1.00  0.00     0.146 A 
ATOM     11  O   UNL     1      11.190  99.562  24.461  1.00  0.00    -0.452 OA
ENDROOT
BRANCH   1  12
ATOM     12  C   UNL     1      12.920  99.672  26.133  1.00  0.00     0.025 A 
ATOM     13  C   UNL     1      14.184  99.087  25.949  1.00  0.00     0.016 A 
ATOM     14  C   UNL     1      15.322  99.671  26.510  1.00  0.00     0.051 A 
ATOM     15  C   UNL     1      15.216 100.837  27.274  1.00  0.00     0.157 A 
ATOM     16  C   UNL     1      12.812 100.833  26.919  1.00  0.00     0.062 A 
ATOM     17  C   UNL     1      13.954 101.419  27.485  1.00  0.00     0.158 A 
BRANCH  15  18
ATOM     18  O   UNL     1      16.369 101.398  27.820  1.00  0.00    -0.504 OA
ATOM     19  H   UNL     1      16.982 102.000  27.282  1.00  0.00     0.293 HD
ENDBRANCH  15  18
BRANCH  17  20
ATOM     20  O   UNL     1      13.839 102.573  28.259  1.00  0.00    -0.504 OA
ATOM     21  H   UNL     1      14.348 103.419  28.030  1.00  0.00     0.293 HD
ENDBRANCH  17  20
ENDBRANCH   1  12
BRANCH   2  22
ATOM     22  O   UNL     1      11.682  97.316  27.279  1.00  0.00    -0.502 OA
ATOM     23  H   UNL     1      11.291  97.503  28.195  1.00  0.00     0.293 HD
ENDBRANCH   2  22
BRANCH   6  24
ATOM     24  O   UNL     1       7.491  96.397  24.122  1.00  0.00    -0.507 OA
ATOM     25  H   UNL     1       7.325  96.169  25.090  1.00  0.00     0.293 HD
ENDBRANCH   6  24
BRANCH   8  26
ATOM     26  O   UNL     1       8.130  99.842  20.840  1.00  0.00    -0.508 OA
ATOM     27  H   UNL     1       8.779 100.335  20.238  1.00  0.00     0.293 HD
ENDBRANCH   8  26
TORSDOF 6
ENDMDL
MODEL 6
REMARK VINA RESULT:    -7.024      1.226      2.841
REMARK INTER + INTRA:          -8.754
REMARK INTER:                  -8.548
REMARK INTRA:                  -0.205
REMARK UNBOUND:                -0.292
REMARK SMILES O=c1c(O)c(-c2ccc(O)c(O)c2)oc2cc(O)cc(O)c12
REMARK SMILES IDX 5 1 3 2 2 3 1 4 22 5 20 6 19 7 17 8 16 9 15 10 14 11 6 12
REMARK SMILES IDX 7 13 8 14 9 15 13 16 11 17 10 18 12 20 4 22 21 24 18 26
REMARK H PARENT 10 19 12 21 4 23 21 25 18 27
REMARK Flexibility Score: inf
ROOT
ATOM      1  C   UNL     1      10.305  95.940  27.385  1.00  0.00     0.180 A 
ATOM      2  C   UNL     1       9.357  95.759  26.364  1.00  0.00     0.208 A 
ATOM      3  C   UNL     1       9.337  96.658  25.286  1.00  0.00     0.238 A 
ATOM      4  O   UNL     1       8.535  96.447  24.340  1.00  0.00    -0.285 OA
ATOM      5  C   UNL     1      10.227  97.760  25.269  1.00  0.00     0.111 A 
ATOM      6  C   UNL     1      10.264  98.759  24.250  1.00  0.00     0.134 A 
ATOM      7  C   UNL     1      11.261  99.743  24.284  1.00  0.00     0.093 A 
ATOM      8  C   UNL     1      12.180  99.803  25.335  1.00  0.00     0.123 A 
ATOM      9  C   UNL     1      12.116  98.865  26.362  1.00  0.00     0.094 A 
ATOM     10  C   UNL     1      11.159  97.848  26.337  1.00  0.00     0.146 A 
ATOM     11  O   UNL     1      11.149  96.963  27.326  1.00  0.00    -0.452 OA
ENDROOT
BRANCH   1  12
ATOM     12  C   UNL     1      10.398  95.026  28.546  1.00  0.00     0.025 A 
ATOM     13  C   UNL     1      11.492  94.151  28.650  1.00  0.00     0.016 A 
ATOM     14  C   UNL     1      11.590  93.265  29.725  1.00  0.00     0.051 A 
ATOM     15  C   UNL     1      10.591  93.226  30.703  1.00  0.00     0.157 A 
ATOM     16  C   UNL     1       9.383  94.971  29.518  1.00  0.00     0.062 A 
ATOM     17  C   UNL     1       9.479  94.079  30.598  1.00  0.00     0.158 A 
BRANCH  15  18
ATOM     18  O   UNL     1      10.716  92.332  31.765  1.00  0.00    -0.504 OA
ATOM     19  H   UNL     1       9.982  92.205  32.452  1.00  0.00     0.293 HD
ENDBRANCH  15  18
BRANCH  17  20
ATOM     20  O   UNL     1       8.472  94.035  31.561  1.00  0.00    -0.504 OA
ATOM     21  H   UNL     1       8.684  93.932  32.547  1.00  0.00     0.293 HD
ENDBRANCH  17  20
ENDBRANCH   1  12
BRANCH   2  22
ATOM     22  O   UNL     1       8.435  94.711  26.438  1.00  0.00    -0.502 OA
ATOM     23  H   UNL     1       8.575  93.830  25.957  1.00  0.00     0.293 HD
ENDBRANCH   2  22
BRANCH   6  24
ATOM     24  O   UNL     1       9.341  98.845  23.204  1.00  0.00    -0.507 OA
ATOM     25  H   UNL     1       8.837  98.065  22.813  1.00  0.00     0.293 HD
ENDBRANCH   6  24
BRANCH   8  26
ATOM     26  O   UNL     1      13.156 100.796  25.370  1.00  0.00    -0.508 OA
ATOM     27  H   UNL     1      13.992 100.737  24.800  1.00  0.00     0.293 HD
ENDBRANCH   8  26
TORSDOF 6
ENDMDL
MODEL 7
REMARK VINA RESULT:    -6.769      2.878      7.037
REMARK INTER + INTRA:          -8.446
REMARK INTER:                  -8.125
REMARK INTRA:                  -0.321
REMARK UNBOUND:                -0.292
REMARK SMILES O=c1c(O)c(-c2ccc(O)c(O)c2)oc2cc(O)cc(O)c12
REMARK SMILES IDX 5 1 3 2 2 3 1 4 22 5 20 6 19 7 17 8 16 9 15 10 14 11 6 12
REMARK SMILES IDX 7 13 8 14 9 15 13 16 11 17 10 18 12 20 4 22 21 24 18 26
REMARK H PARENT 10 19 12 21 4 23 21 25 18 27
REMARK Flexibility Score: inf
ROOT
ATOM      1  C   UNL     1      12.051  99.115  26.553  1.00  0.00     0.180 A 
ATOM      2  C   UNL     1      11.319  98.856  25.382  1.00  0.00     0.208 A 
ATOM      3  C   UNL     1      10.306  97.884  25.412  1.00  0.00     0.238 A 
ATOM      4  O   UNL     1       9.606  97.711  24.382  1.00  0.00    -0.285 OA
ATOM      5  C   UNL     1      10.075  97.143  26.597  1.00  0.00     0.111 A 
ATOM      6  C   UNL     1       9.106  96.103  26.728  1.00  0.00     0.134 A 
ATOM      7  C   UNL     1       8.892  95.513  27.980  1.00  0.00     0.093 A 
ATOM      8  C   UNL     1       9.658  95.878  29.090  1.00  0.00     0.123 A 
ATOM      9  C   UNL     1      10.644  96.852  28.958  1.00  0.00     0.094 A 
ATOM     10  C   UNL     1      10.855  97.488  27.732  1.00  0.00     0.146 A 
ATOM     11  O   UNL     1      11.790  98.427  27.658  1.00  0.00    -0.452 OA
ENDROOT
BRANCH   1  12
ATOM     12  C   UNL     1      13.123 100.134  26.603  1.00  0.00     0.025 A 
ATOM     13  C   UNL     1      12.805 101.454  26.964  1.00  0.00     0.016 A 
ATOM     14  C   UNL     1      13.796 102.437  26.997  1.00  0.00     0.051 A 
ATOM     15  C   UNL     1      15.116 102.124  26.657  1.00  0.00     0.157 A 
ATOM     16  C   UNL     1      14.447  99.825  26.241  1.00  0.00     0.062 A 
ATOM     17  C   UNL     1      15.443 100.812  26.272  1.00  0.00     0.158 A 
BRANCH  15  18
ATOM     18  O   UNL     1      16.085 103.125  26.702  1.00  0.00    -0.504 OA
ATOM     19  H   UNL     1      15.861 104.080  26.956  1.00  0.00     0.293 HD
ENDBRANCH  15  18
BRANCH  17  20
ATOM     20  O   UNL     1      16.754 100.496  25.916  1.00  0.00    -0.504 OA
ATOM     21  H   UNL     1      17.016 100.325  24.952  1.00  0.00     0.293 HD
ENDBRANCH  17  20
ENDBRANCH   1  12
BRANCH   2  22
ATOM     22  O   UNL     1      11.614  99.544  24.201  1.00  0.00    -0.502 OA
ATOM     23  H   UNL     1      12.286 100.302  24.167  1.00  0.00     0.293 HD
ENDBRANCH   2  22
BRANCH   6  24
ATOM     24  O   UNL     1       8.348  95.600  25.666  1.00  0.00    -0.507 OA
ATOM     25  H   UNL     1       8.649  94.873  25.036  1.00  0.00     0.293 HD
ENDBRANCH   6  24
BRANCH   8  26
ATOM     26  O   UNL     1       9.452  95.272  30.327  1.00  0.00    -0.508 OA
ATOM     27  H   UNL     1      10.087  94.568  30.685  1.00  0.00     0.293 HD
ENDBRANCH   8  26
TORSDOF 6
ENDMDL
MODEL 8
REMARK VINA RESULT:    -6.731      2.641      4.375
REMARK INTER + INTRA:          -8.400
REMARK INTER:                  -8.078
REMARK INTRA:                  -0.322
REMARK UNBOUND:                -0.292
REMARK SMILES O=c1c(O)c(-c2ccc(O)c(O)c2)oc2cc(O)cc(O)c12
REMARK SMILES IDX 5 1 3 2 2 3 1 4 22 5 20 6 19 7 17 8 16 9 15 10 14 11 6 12
REMARK SMILES IDX 7 13 8 14 9 15 13 16 11 17 10 18 12 20 4 22 21 24 18 26
REMARK H PARENT 10 19 12 21 4 23 21 25 18 27
REMARK Flexibility Score: inf
ROOT
ATOM      1  C   UNL     1      11.563  97.623  26.769  1.00  0.00     0.180 A 
ATOM      2  C   UNL     1      10.620  96.593  26.934  1.00  0.00     0.208 A 
ATOM      3  C   UNL     1       9.567  96.479  26.013  1.00  0.00     0.238 A 
ATOM      4  O   UNL     1       8.771  95.512  26.125  1.00  0.00    -0.285 OA
ATOM      5  C   UNL     1       9.436  97.428  24.970  1.00  0.00     0.111 A 
ATOM      6  C   UNL     1       8.383  97.437  24.006  1.00  0.00     0.134 A 
ATOM      7  C   UNL     1       8.416  98.361  22.955  1.00  0.00     0.093 A 
ATOM      8  C   UNL     1       9.429  99.320  22.870  1.00  0.00     0.123 A 
ATOM      9  C   UNL     1      10.431  99.355  23.836  1.00  0.00     0.094 A 
ATOM     10  C   UNL     1      10.447  98.421  24.875  1.00  0.00     0.146 A 
ATOM     11  O   UNL     1      11.434  98.478  25.762  1.00  0.00    -0.452 OA
ENDROOT
BRANCH   1  12
ATOM     12  C   UNL     1      12.708  97.798  27.690  1.00  0.00     0.025 A 
ATOM     13  C   UNL     1      13.920  97.143  27.417  1.00  0.00     0.016 A 
ATOM     14  C   UNL     1      15.008  97.277  28.283  1.00  0.00     0.051 A 
ATOM     15  C   UNL     1      14.899  98.052  29.441  1.00  0.00     0.157 A 
ATOM     16  C   UNL     1      12.593  98.560  28.866  1.00  0.00     0.062 A 
ATOM     17  C   UNL     1      13.684  98.694  29.738  1.00  0.00     0.158 A 
BRANCH  15  18
ATOM     18  O   UNL     1      16.001  98.169  30.286  1.00  0.00    -0.504 OA
ATOM     19  H   UNL     1      16.444  99.061  30.474  1.00  0.00     0.293 HD
ENDBRANCH  15  18
BRANCH  17  20
ATOM     20  O   UNL     1      13.563  99.456  30.899  1.00  0.00    -0.504 OA
ATOM     21  H   UNL     1      12.877  99.234  31.612  1.00  0.00     0.293 HD
ENDBRANCH  17  20
ENDBRANCH   1  12
BRANCH   2  22
ATOM     22  O   UNL     1      10.723  95.713  28.016  1.00  0.00    -0.502 OA
ATOM     23  H   UNL     1      11.131  95.986  28.902  1.00  0.00     0.293 HD
ENDBRANCH   2  22
BRANCH   6  24
ATOM     24  O   UNL     1       7.277  96.582  24.048  1.00  0.00    -0.507 OA
ATOM     25  H   UNL     1       7.289  95.609  23.784  1.00  0.00     0.293 HD
ENDBRANCH   6  24
BRANCH   8  26
ATOM     26  O   UNL     1       9.444 100.248  21.830  1.00  0.00    -0.508 OA
ATOM     27  H   UNL     1       9.907 100.050  20.951  1.00  0.00     0.293 HD
ENDBRANCH   8  26
TORSDOF 6
ENDMDL
MODEL 9
REMARK VINA RESULT:    -6.707      3.100      6.197
REMARK INTER + INTRA:          -8.372
REMARK INTER:                  -8.893
REMARK INTRA:                   0.521
REMARK UNBOUND:                -0.292
REMARK SMILES O=c1c(O)c(-c2ccc(O)c(O)c2)oc2cc(O)cc(O)c12
REMARK SMILES IDX 5 1 3 2 2 3 1 4 22 5 20 6 19 7 17 8 16 9 15 10 14 11 6 12
REMARK SMILES IDX 7 13 8 14 9 15 13 16 11 17 10 18 12 20 4 22 21 24 18 26
REMARK H PARENT 10 19 12 21 4 23 21 25 18 27
REMARK Flexibility Score: inf
ROOT
ATOM      1  C   UNL     1      11.718  99.093  26.240  1.00  0.00     0.180 A 
ATOM      2  C   UNL     1      12.154 100.282  25.630  1.00  0.00     0.208 A 
ATOM      3  C   UNL     1      13.187 101.017  26.232  1.00  0.00     0.238 A 
ATOM      4  O   UNL     1      13.622 102.040  25.642  1.00  0.00    -0.285 OA
ATOM      5  C   UNL     1      13.735 100.585  27.464  1.00  0.00     0.111 A 
ATOM      6  C   UNL     1      14.755 101.276  28.187  1.00  0.00     0.134 A 
ATOM      7  C   UNL     1      15.295 100.698  29.342  1.00  0.00     0.093 A 
ATOM      8  C   UNL     1      14.807  99.486  29.838  1.00  0.00     0.123 A 
ATOM      9  C   UNL     1      13.775  98.832  29.170  1.00  0.00     0.094 A 
ATOM     10  C   UNL     1      13.241  99.364  27.994  1.00  0.00     0.146 A 
ATOM     11  O   UNL     1      12.273  98.695  27.378  1.00  0.00    -0.452 OA
ENDROOT
BRANCH   1  12
ATOM     12  C   UNL     1      10.644  98.256  25.659  1.00  0.00     0.025 A 
ATOM     13  C   UNL     1      10.181  98.531  24.361  1.00  0.00     0.016 A 
ATOM     14  C   UNL     1       9.155  97.769  23.800  1.00  0.00     0.051 A 
ATOM     15  C   UNL     1       8.564  96.731  24.529  1.00  0.00     0.157 A 
ATOM     16  C   UNL     1      10.035  97.227  26.398  1.00  0.00     0.062 A 
ATOM     17  C   UNL     1       9.002  96.461  25.836  1.00  0.00     0.158 A 
BRANCH  15  18
ATOM     18  O   UNL     1       7.542  95.986  23.942  1.00  0.00    -0.504 OA
ATOM     19  H   UNL     1       7.401  95.961  22.939  1.00  0.00     0.293 HD
ENDBRANCH  15  18
BRANCH  17  20
ATOM     20  O   UNL     1       8.407  95.439  26.574  1.00  0.00    -0.504 OA
ATOM     21  H   UNL     1       7.494  95.072  26.332  1.00  0.00     0.293 HD
ENDBRANCH  17  20
ENDBRANCH   1  12
BRANCH   2  22
ATOM     22  O   UNL     1      11.547 100.732  24.454  1.00  0.00    -0.502 OA
ATOM     23  H   UNL     1      11.936 101.481  23.893  1.00  0.00     0.293 HD
ENDBRANCH   2  22
BRANCH   6  24
ATOM     24  O   UNL     1      15.252 102.533  27.830  1.00  0.00    -0.507 OA
ATOM     25  H   UNL     1      16.021 102.692  27.198  1.00  0.00     0.293 HD
ENDBRANCH   6  24
BRANCH   8  26
ATOM     26  O   UNL     1      15.338  98.927  30.998  1.00  0.00    -0.508 OA
ATOM     27  H   UNL     1      15.039  98.018  31.333  1.00  0.00     0.293 HD
ENDBRANCH   8  26
TORSDOF 6
ENDMDL
