MODEL 1
REMARK VINA RESULT:    -9.349      0.000      0.000
REMARK INTER + INTRA:         -11.574
REMARK INTER:                 -11.535
REMARK INTRA:                  -0.038
REMARK UNBOUND:                -0.038
REMARK SMILES Oc1cc(O)c2cc(O)c(-c3cc(O)c(O)c(O)c3)[o+]c2c1
REMARK SMILES IDX 10 1 20 2 21 3 22 4 2 5 3 6 4 7 6 8 7 9 8 10 11 11 12 12
REMARK SMILES IDX 13 13 19 14 15 15 17 16 14 17 16 19 18 21 9 23 1 25 5 27
REMARK H PARENT 14 18 16 20 18 22 9 24 1 26 5 28
REMARK Flexibility Score: inf
ROOT
ATOM      1  C   UNL     1      57.060  -0.927  15.525  1.00  0.00     0.402 A 
ATOM      2  O   UNL     1      57.325  -0.496  16.755  1.00  0.00    -0.202 OA
ATOM      3  C   UNL     1      57.406   0.792  17.076  1.00  0.00     0.368 A 
ATOM      4  C   UNL     1      57.692   1.147  18.396  1.00  0.00     0.162 A 
ATOM      5  C   UNL     1      57.786   2.490  18.760  1.00  0.00     0.128 A 
ATOM      6  C   UNL     1      57.594   3.488  17.798  1.00  0.00     0.093 A 
ATOM      7  C   UNL     1      57.306   3.158  16.468  1.00  0.00     0.136 A 
ATOM      8  C   UNL     1      57.207   1.792  16.094  1.00  0.00     0.125 A 
ATOM      9  C   UNL     1      56.909   1.369  14.789  1.00  0.00     0.078 A 
ATOM     10  C   UNL     1      56.823   0.004  14.497  1.00  0.00     0.223 A 
ENDROOT
BRANCH   1  11
ATOM     11  C   UNL     1      57.006  -2.389  15.291  1.00  0.00     0.091 A 
ATOM     12  C   UNL     1      55.880  -2.947  14.670  1.00  0.00     0.068 A 
ATOM     13  C   UNL     1      55.786  -4.327  14.451  1.00  0.00     0.162 A 
ATOM     14  C   UNL     1      58.034  -3.237  15.730  1.00  0.00     0.068 A 
ATOM     15  C   UNL     1      56.837  -5.174  14.875  1.00  0.00     0.200 A 
ATOM     16  C   UNL     1      57.953  -4.620  15.518  1.00  0.00     0.162 A 
BRANCH  13  17
ATOM     17  O   UNL     1      54.639  -4.807  13.816  1.00  0.00    -0.504 OA
ATOM     18  H   UNL     1      54.397  -4.606  12.857  1.00  0.00     0.293 HD
ENDBRANCH  13  17
BRANCH  15  19
ATOM     19  O   UNL     1      56.810  -6.557  14.684  1.00  0.00    -0.502 OA
ATOM     20  H   UNL     1      56.700  -7.230  15.428  1.00  0.00     0.293 HD
ENDBRANCH  15  19
BRANCH  16  21
ATOM     21  O   UNL     1      58.983  -5.455  15.950  1.00  0.00    -0.504 OA
ATOM     22  H   UNL     1      59.803  -5.625  15.380  1.00  0.00     0.293 HD
ENDBRANCH  16  21
ENDBRANCH   1  11
BRANCH  10  23
ATOM     23  O   UNL     1      56.479  -0.415  13.212  1.00  0.00    -0.500 OA
ATOM     24  H   UNL     1      56.815   0.065  12.387  1.00  0.00     0.294 HD
ENDBRANCH  10  23
BRANCH   5  25
ATOM     25  O   UNL     1      58.072   2.824  20.082  1.00  0.00    -0.507 OA
ATOM     26  H   UNL     1      58.606   3.653  20.316  1.00  0.00     0.293 HD
ENDBRANCH   5  25
BRANCH   7  27
ATOM     27  O   UNL     1      57.130   4.212  15.567  1.00  0.00    -0.507 OA
ATOM     28  H   UNL     1      57.270   4.139  14.570  1.00  0.00     0.293 HD
ENDBRANCH   7  27
TORSDOF 7
ENDMDL
MODEL 2
REMARK VINA RESULT:    -9.319      0.079      1.800
REMARK INTER + INTRA:         -11.537
REMARK INTER:                 -11.495
REMARK INTRA:                  -0.042
REMARK UNBOUND:                -0.038
REMARK SMILES Oc1cc(O)c2cc(O)c(-c3cc(O)c(O)c(O)c3)[o+]c2c1
REMARK SMILES IDX 10 1 20 2 21 3 22 4 2 5 3 6 4 7 6 8 7 9 8 10 11 11 12 12
REMARK SMILES IDX 13 13 19 14 15 15 17 16 14 17 16 19 18 21 9 23 1 25 5 27
REMARK H PARENT 14 18 16 20 18 22 9 24 1 26 5 28
REMARK Flexibility Score: inf
ROOT
ATOM      1  C   UNL     1      57.014  -0.880  15.546  1.00  0.00     0.402 A 
ATOM      2  O   UNL     1      57.278  -0.439  16.773  1.00  0.00    -0.202 OA
ATOM      3  C   UNL     1      57.386   0.851  17.077  1.00  0.00     0.368 A 
ATOM      4  C   UNL     1      57.670   1.217  18.395  1.00  0.00     0.162 A 
ATOM      5  C   UNL     1      57.791   2.563  18.742  1.00  0.00     0.128 A 
ATOM      6  C   UNL     1      57.630   3.552  17.765  1.00  0.00     0.093 A 
ATOM      7  C   UNL     1      57.346   3.210  16.437  1.00  0.00     0.136 A 
ATOM      8  C   UNL     1      57.218   1.843  16.081  1.00  0.00     0.125 A 
ATOM      9  C   UNL     1      56.922   1.409  14.779  1.00  0.00     0.078 A 
ATOM     10  C   UNL     1      56.807   0.042  14.504  1.00  0.00     0.223 A 
ENDROOT
BRANCH   1  11
ATOM     11  C   UNL     1      56.928  -2.343  15.332  1.00  0.00     0.091 A 
ATOM     12  C   UNL     1      57.983  -3.165  15.754  1.00  0.00     0.068 A 
ATOM     13  C   UNL     1      57.945  -4.550  15.550  1.00  0.00     0.162 A 
ATOM     14  C   UNL     1      55.839  -2.921  14.662  1.00  0.00     0.068 A 
ATOM     15  C   UNL     1      56.833  -5.129  14.895  1.00  0.00     0.200 A 
ATOM     16  C   UNL     1      55.789  -4.305  14.450  1.00  0.00     0.162 A 
BRANCH  13  17
ATOM     17  O   UNL     1      59.027  -5.304  16.009  1.00  0.00    -0.504 OA
ATOM     18  H   UNL     1      59.833  -5.537  15.449  1.00  0.00     0.293 HD
ENDBRANCH  13  17
BRANCH  15  19
ATOM     19  O   UNL     1      56.729  -6.502  14.664  1.00  0.00    -0.502 OA
ATOM     20  H   UNL     1      57.023  -7.211  15.320  1.00  0.00     0.293 HD
ENDBRANCH  15  19
BRANCH  16  21
ATOM     21  O   UNL     1      54.699  -4.873  13.790  1.00  0.00    -0.504 OA
ATOM     22  H   UNL     1      54.229  -4.393  13.031  1.00  0.00     0.293 HD
ENDBRANCH  16  21
ENDBRANCH   1  11
BRANCH  10  23
ATOM     23  O   UNL     1      56.465  -0.387  13.222  1.00  0.00    -0.500 OA
ATOM     24  H   UNL     1      57.150  -0.447  12.480  1.00  0.00     0.294 HD
ENDBRANCH  10  23
BRANCH   5  25
ATOM     25  O   UNL     1      58.073   2.909  20.062  1.00  0.00    -0.507 OA
ATOM     26  H   UNL     1      57.512   3.586  20.565  1.00  0.00     0.293 HD
ENDBRANCH   5  25
BRANCH   7  27
ATOM     27  O   UNL     1      57.202   4.256  15.521  1.00  0.00    -0.507 OA
ATOM     28  H   UNL     1      56.316   4.641  15.229  1.00  0.00     0.293 HD
ENDBRANCH   7  27
TORSDOF 7
ENDMDL
MODEL 3
REMARK VINA RESULT:    -9.014      1.148      3.236
REMARK INTER + INTRA:         -11.160
REMARK INTER:                 -11.149
REMARK INTRA:                  -0.011
REMARK UNBOUND:                -0.038
REMARK SMILES Oc1cc(O)c2cc(O)c(-c3cc(O)c(O)c(O)c3)[o+]c2c1
REMARK SMILES IDX 10 1 20 2 21 3 22 4 2 5 3 6 4 7 6 8 7 9 8 10 11 11 12 12
REMARK SMILES IDX 13 13 19 14 15 15 17 16 14 17 16 19 18 21 9 23 1 25 5 27
REMARK H PARENT 14 18 16 20 18 22 9 24 1 26 5 28
REMARK Flexibility Score: inf
ROOT
ATOM      1  C   UNL     1      57.780  -1.266  16.866  1.00  0.00     0.402 A 
ATOM      2  O   UNL     1      57.543  -0.184  16.130  1.00  0.00    -0.202 OA
ATOM      3  C   UNL     1      57.549   1.050  16.623  1.00  0.00     0.368 A 
ATOM      4  C   UNL     1      57.285   2.124  15.770  1.00  0.00     0.162 A 
ATOM      5  C   UNL     1      57.282   3.430  16.261  1.00  0.00     0.128 A 
ATOM      6  C   UNL     1      57.541   3.666  17.616  1.00  0.00     0.093 A 
ATOM      7  C   UNL     1      57.807   2.606  18.491  1.00  0.00     0.136 A 
ATOM      8  C   UNL     1      57.815   1.276  17.995  1.00  0.00     0.125 A 
ATOM      9  C   UNL     1      58.085   0.155  18.795  1.00  0.00     0.078 A 
ATOM     10  C   UNL     1      58.080  -1.126  18.234  1.00  0.00     0.223 A 
ENDROOT
BRANCH   1  11
ATOM     11  C   UNL     1      57.736  -2.589  16.201  1.00  0.00     0.091 A 
ATOM     12  C   UNL     1      58.802  -3.484  16.372  1.00  0.00     0.068 A 
ATOM     13  C   UNL     1      58.803  -4.734  15.743  1.00  0.00     0.162 A 
ATOM     14  C   UNL     1      56.674  -2.947  15.356  1.00  0.00     0.068 A 
ATOM     15  C   UNL     1      57.719  -5.098  14.911  1.00  0.00     0.200 A 
ATOM     16  C   UNL     1      56.663  -4.195  14.720  1.00  0.00     0.162 A 
BRANCH  13  17
ATOM     17  O   UNL     1      59.894  -5.575  15.971  1.00  0.00    -0.504 OA
ATOM     18  H   UNL     1      59.938  -6.257  16.715  1.00  0.00     0.293 HD
ENDBRANCH  13  17
BRANCH  15  19
ATOM     19  O   UNL     1      57.654  -6.331  14.258  1.00  0.00    -0.502 OA
ATOM     20  H   UNL     1      57.649  -7.223  14.732  1.00  0.00     0.293 HD
ENDBRANCH  15  19
BRANCH  16  21
ATOM     21  O   UNL     1      55.601  -4.547  13.887  1.00  0.00    -0.504 OA
ATOM     22  H   UNL     1      55.357  -3.992  13.074  1.00  0.00     0.293 HD
ENDBRANCH  16  21
ENDBRANCH   1  11
BRANCH  10  23
ATOM     23  O   UNL     1      58.396  -2.235  19.018  1.00  0.00    -0.500 OA
ATOM     24  H   UNL     1      58.378  -2.194  20.029  1.00  0.00     0.294 HD
ENDBRANCH  10  23
BRANCH   5  25
ATOM     25  O   UNL     1      57.017   4.489  15.394  1.00  0.00    -0.507 OA
ATOM     26  H   UNL     1      56.551   4.344  14.507  1.00  0.00     0.293 HD
ENDBRANCH   5  25
BRANCH   7  27
ATOM     27  O   UNL     1      58.054   2.924  19.830  1.00  0.00    -0.507 OA
ATOM     28  H   UNL     1      58.756   2.478  20.402  1.00  0.00     0.293 HD
ENDBRANCH   7  27
TORSDOF 7
ENDMDL
MODEL 4
REMARK VINA RESULT:    -7.994      1.091      7.395
REMARK INTER + INTRA:          -9.901
REMARK INTER:                  -9.821
REMARK INTRA:                  -0.080
REMARK UNBOUND:                -0.038
REMARK SMILES Oc1cc(O)c2cc(O)c(-c3cc(O)c(O)c(O)c3)[o+]c2c1
REMARK SMILES IDX 10 1 20 2 21 3 22 4 2 5 3 6 4 7 6 8 7 9 8 10 11 11 12 12
REMARK SMILES IDX 13 13 19 14 15 15 17 16 14 17 16 19 18 21 9 23 1 25 5 27
REMARK H PARENT 14 18 16 20 18 22 9 24 1 26 5 28
REMARK Flexibility Score: inf
ROOT
ATOM      1  C   UNL     1      57.729  -0.856  16.659  1.00  0.00     0.402 A 
ATOM      2  O   UNL     1      56.727  -1.368  15.951  1.00  0.00    -0.202 OA
ATOM      3  C   UNL     1      56.667  -2.645  15.587  1.00  0.00     0.368 A 
ATOM      4  C   UNL     1      55.574  -3.090  14.840  1.00  0.00     0.162 A 
ATOM      5  C   UNL     1      55.487  -4.424  14.443  1.00  0.00     0.128 A 
ATOM      6  C   UNL     1      56.502  -5.322  14.791  1.00  0.00     0.093 A 
ATOM      7  C   UNL     1      57.609  -4.901  15.539  1.00  0.00     0.136 A 
ATOM      8  C   UNL     1      57.699  -3.545  15.948  1.00  0.00     0.125 A 
ATOM      9  C   UNL     1      58.764  -3.038  16.710  1.00  0.00     0.078 A 
ATOM     10  C   UNL     1      58.781  -1.690  17.081  1.00  0.00     0.223 A 
ENDROOT
BRANCH   1  11
ATOM     11  C   UNL     1      57.685   0.586  16.994  1.00  0.00     0.091 A 
ATOM     12  C   UNL     1      57.775   0.987  18.335  1.00  0.00     0.068 A 
ATOM     13  C   UNL     1      57.717   2.339  18.690  1.00  0.00     0.162 A 
ATOM     14  C   UNL     1      57.496   1.562  16.002  1.00  0.00     0.068 A 
ATOM     15  C   UNL     1      57.550   3.319  17.682  1.00  0.00     0.200 A 
ATOM     16  C   UNL     1      57.435   2.919  16.344  1.00  0.00     0.162 A 
BRANCH  13  17
ATOM     17  O   UNL     1      57.826   2.661  20.044  1.00  0.00    -0.504 OA
ATOM     18  H   UNL     1      57.990   1.985  20.775  1.00  0.00     0.293 HD
ENDBRANCH  13  17
BRANCH  15  19
ATOM     19  O   UNL     1      57.489   4.685  17.967  1.00  0.00    -0.502 OA
ATOM     20  H   UNL     1      56.644   5.172  18.228  1.00  0.00     0.293 HD
ENDBRANCH  15  19
BRANCH  16  21
ATOM     21  O   UNL     1      57.255   3.882  15.351  1.00  0.00    -0.504 OA
ATOM     22  H   UNL     1      57.153   3.627  14.376  1.00  0.00     0.293 HD
ENDBRANCH  16  21
ENDBRANCH   1  11
BRANCH  10  23
ATOM     23  O   UNL     1      59.813  -1.197  17.879  1.00  0.00    -0.500 OA
ATOM     24  H   UNL     1      60.263  -1.770  18.582  1.00  0.00     0.294 HD
ENDBRANCH  10  23
BRANCH   5  25
ATOM     25  O   UNL     1      54.389  -4.849  13.698  1.00  0.00    -0.507 OA
ATOM     26  H   UNL     1      54.175  -4.449  12.793  1.00  0.00     0.293 HD
ENDBRANCH   5  25
BRANCH   7  27
ATOM     27  O   UNL     1      58.581  -5.859  15.845  1.00  0.00    -0.507 OA
ATOM     28  H   UNL     1      59.292  -5.743  16.551  1.00  0.00     0.293 HD
ENDBRANCH   7  27
TORSDOF 7
ENDMDL
MODEL 5
REMARK VINA RESULT:    -7.783      7.749      9.037
REMARK INTER + INTRA:          -9.642
REMARK INTER:                  -9.275
REMARK INTRA:                  -0.367
REMARK UNBOUND:                -0.038
REMARK SMILES Oc1cc(O)c2cc(O)c(-c3cc(O)c(O)c(O)c3)[o+]c2c1
REMARK SMILES IDX 10 1 20 2 21 3 22 4 2 5 3 6 4 7 6 8 7 9 8 10 11 11 12 12
REMARK SMILES IDX 13 13 19 14 15 15 17 16 14 17 16 19 18 21 9 23 1 25 5 27
REMARK H PARENT 14 18 16 20 18 22 9 24 1 26 5 28
REMARK Flexibility Score: inf
ROOT
ATOM      1  C   UNL     1      53.769  -7.007  20.972  1.00  0.00     0.402 A 
ATOM      2  O   UNL     1      53.257  -5.789  21.128  1.00  0.00    -0.202 OA
ATOM      3  C   UNL     1      53.566  -4.993  22.147  1.00  0.00     0.368 A 
ATOM      4  C   UNL     1      52.973  -3.731  22.227  1.00  0.00     0.162 A 
ATOM      5  C   UNL     1      53.277  -2.875  23.286  1.00  0.00     0.128 A 
ATOM      6  C   UNL     1      54.178  -3.284  24.276  1.00  0.00     0.093 A 
ATOM      7  C   UNL     1      54.785  -4.545  24.218  1.00  0.00     0.136 A 
ATOM      8  C   UNL     1      54.481  -5.417  23.140  1.00  0.00     0.125 A 
ATOM      9  C   UNL     1      55.051  -6.691  22.995  1.00  0.00     0.078 A 
ATOM     10  C   UNL     1      54.707  -7.493  21.901  1.00  0.00     0.223 A 
ENDROOT
BRANCH   1  11
ATOM     11  C   UNL     1      53.338  -7.803  19.799  1.00  0.00     0.091 A 
ATOM     12  C   UNL     1      54.106  -7.775  18.626  1.00  0.00     0.068 A 
ATOM     13  C   UNL     1      53.718  -8.499  17.492  1.00  0.00     0.162 A 
ATOM     14  C   UNL     1      52.144  -8.540  19.815  1.00  0.00     0.068 A 
ATOM     15  C   UNL     1      52.525  -9.259  17.523  1.00  0.00     0.200 A 
ATOM     16  C   UNL     1      51.743  -9.268  18.687  1.00  0.00     0.162 A 
BRANCH  13  17
ATOM     17  O   UNL     1      54.541  -8.432  16.366  1.00  0.00    -0.504 OA
ATOM     18  H   UNL     1      54.430  -7.758  15.623  1.00  0.00     0.293 HD
ENDBRANCH  13  17
BRANCH  15  19
ATOM     19  O   UNL     1      52.084 -10.007  16.430  1.00  0.00    -0.502 OA
ATOM     20  H   UNL     1      52.680 -10.600  15.871  1.00  0.00     0.293 HD
ENDBRANCH  15  19
BRANCH  16  21
ATOM     21  O   UNL     1      50.559 -10.004  18.713  1.00  0.00    -0.504 OA
ATOM     22  H   UNL     1      49.883  -9.950  17.960  1.00  0.00     0.293 HD
ENDBRANCH  16  21
ENDBRANCH   1  11
BRANCH  10  23
ATOM     23  O   UNL     1      55.310  -8.739  21.730  1.00  0.00    -0.500 OA
ATOM     24  H   UNL     1      56.195  -8.966  22.164  1.00  0.00     0.294 HD
ENDBRANCH  10  23
BRANCH   5  25
ATOM     25  O   UNL     1      52.676  -1.620  23.349  1.00  0.00    -0.507 OA
ATOM     26  H   UNL     1      51.878  -1.443  23.948  1.00  0.00     0.293 HD
ENDBRANCH   5  25
BRANCH   7  27
ATOM     27  O   UNL     1      55.672  -4.880  25.246  1.00  0.00    -0.507 OA
ATOM     28  H   UNL     1      56.507  -4.360  25.470  1.00  0.00     0.293 HD
ENDBRANCH   7  27
TORSDOF 7
ENDMDL
MODEL 6
REMARK VINA RESULT:    -7.777      7.804      8.993
REMARK INTER + INTRA:          -9.634
REMARK INTER:                  -9.272
REMARK INTRA:                  -0.362
REMARK UNBOUND:                -0.038
REMARK SMILES Oc1cc(O)c2cc(O)c(-c3cc(O)c(O)c(O)c3)[o+]c2c1
REMARK SMILES IDX 10 1 20 2 21 3 22 4 2 5 3 6 4 7 6 8 7 9 8 10 11 11 12 12
REMARK SMILES IDX 13 13 19 14 15 15 17 16 14 17 16 19 18 21 9 23 1 25 5 27
REMARK H PARENT 14 18 16 20 18 22 9 24 1 26 5 28
REMARK Flexibility Score: inf
ROOT
ATOM      1  C   UNL     1      53.793  -6.966  21.017  1.00  0.00     0.402 A 
ATOM      2  O   UNL     1      53.277  -5.756  21.210  1.00  0.00    -0.202 OA
ATOM      3  C   UNL     1      53.585  -4.988  22.250  1.00  0.00     0.368 A 
ATOM      4  C   UNL     1      52.988  -3.731  22.369  1.00  0.00     0.162 A 
ATOM      5  C   UNL     1      53.291  -2.905  23.451  1.00  0.00     0.128 A 
ATOM      6  C   UNL     1      54.198  -3.339  24.425  1.00  0.00     0.093 A 
ATOM      7  C   UNL     1      54.810  -4.594  24.329  1.00  0.00     0.136 A 
ATOM      8  C   UNL     1      54.507  -5.436  23.228  1.00  0.00     0.125 A 
ATOM      9  C   UNL     1      55.082  -6.703  23.043  1.00  0.00     0.078 A 
ATOM     10  C   UNL     1      54.737  -7.474  21.928  1.00  0.00     0.223 A 
ENDROOT
BRANCH   1  11
ATOM     11  C   UNL     1      53.361  -7.730  19.823  1.00  0.00     0.091 A 
ATOM     12  C   UNL     1      52.194  -8.504  19.884  1.00  0.00     0.068 A 
ATOM     13  C   UNL     1      51.767  -9.254  18.782  1.00  0.00     0.162 A 
ATOM     14  C   UNL     1      54.126  -7.741  18.646  1.00  0.00     0.068 A 
ATOM     15  C   UNL     1      52.531  -9.242  17.591  1.00  0.00     0.200 A 
ATOM     16  C   UNL     1      53.711  -8.488  17.536  1.00  0.00     0.162 A 
BRANCH  13  17
ATOM     17  O   UNL     1      50.588  -9.991  18.915  1.00  0.00    -0.504 OA
ATOM     18  H   UNL     1      49.665  -9.582  18.944  1.00  0.00     0.293 HD
ENDBRANCH  13  17
BRANCH  15  19
ATOM     19  O   UNL     1      52.159  -9.963  16.454  1.00  0.00    -0.502 OA
ATOM     20  H   UNL     1      51.237 -10.344  16.301  1.00  0.00     0.293 HD
ENDBRANCH  15  19
BRANCH  16  21
ATOM     21  O   UNL     1      54.473  -8.487  16.368  1.00  0.00    -0.504 OA
ATOM     22  H   UNL     1      55.202  -7.802  16.210  1.00  0.00     0.293 HD
ENDBRANCH  16  21
ENDBRANCH   1  11
BRANCH  10  23
ATOM     23  O   UNL     1      55.345  -8.712  21.719  1.00  0.00    -0.500 OA
ATOM     24  H   UNL     1      56.293  -8.787  21.371  1.00  0.00     0.294 HD
ENDBRANCH  10  23
BRANCH   5  25
ATOM     25  O   UNL     1      52.685  -1.655  23.552  1.00  0.00    -0.507 OA
ATOM     26  H   UNL     1      51.678  -1.551  23.532  1.00  0.00     0.293 HD
ENDBRANCH   5  25
BRANCH   7  27
ATOM     27  O   UNL     1      55.703  -4.954  25.344  1.00  0.00    -0.507 OA
ATOM     28  H   UNL     1      56.415  -4.346  25.719  1.00  0.00     0.293 HD
ENDBRANCH   7  27
TORSDOF 7
ENDMDL
MODEL 7
REMARK VINA RESULT:    -7.709      1.073      6.950
REMARK INTER + INTRA:          -9.550
REMARK INTER:                  -9.460
REMARK INTRA:                  -0.089
REMARK UNBOUND:                -0.038
REMARK SMILES Oc1cc(O)c2cc(O)c(-c3cc(O)c(O)c(O)c3)[o+]c2c1
REMARK SMILES IDX 10 1 20 2 21 3 22 4 2 5 3 6 4 7 6 8 7 9 8 10 11 11 12 12
REMARK SMILES IDX 13 13 19 14 15 15 17 16 14 17 16 19 18 21 9 23 1 25 5 27
REMARK H PARENT 14 18 16 20 18 22 9 24 1 26 5 28
REMARK Flexibility Score: inf
ROOT
ATOM      1  C   UNL     1      57.008  -0.630  15.971  1.00  0.00     0.402 A 
ATOM      2  O   UNL     1      57.961  -1.526  16.213  1.00  0.00    -0.202 OA
ATOM      3  C   UNL     1      57.916  -2.778  15.769  1.00  0.00     0.368 A 
ATOM      4  C   UNL     1      58.964  -3.647  16.078  1.00  0.00     0.162 A 
ATOM      5  C   UNL     1      58.942  -4.967  15.627  1.00  0.00     0.128 A 
ATOM      6  C   UNL     1      57.862  -5.424  14.862  1.00  0.00     0.093 A 
ATOM      7  C   UNL     1      56.799  -4.572  14.539  1.00  0.00     0.136 A 
ATOM      8  C   UNL     1      56.820  -3.228  14.993  1.00  0.00     0.125 A 
ATOM      9  C   UNL     1      55.805  -2.301  14.707  1.00  0.00     0.078 A 
ATOM     10  C   UNL     1      55.897  -0.990  15.186  1.00  0.00     0.223 A 
ENDROOT
BRANCH   1  11
ATOM     11  C   UNL     1      57.169   0.732  16.531  1.00  0.00     0.091 A 
ATOM     12  C   UNL     1      57.142   1.839  15.671  1.00  0.00     0.068 A 
ATOM     13  C   UNL     1      57.311   3.139  16.162  1.00  0.00     0.162 A 
ATOM     14  C   UNL     1      57.405   0.937  17.899  1.00  0.00     0.068 A 
ATOM     15  C   UNL     1      57.525   3.340  17.546  1.00  0.00     0.200 A 
ATOM     16  C   UNL     1      57.576   2.233  18.404  1.00  0.00     0.162 A 
BRANCH  13  17
ATOM     17  O   UNL     1      57.260   4.192  15.246  1.00  0.00    -0.504 OA
ATOM     18  H   UNL     1      57.261   5.168  15.504  1.00  0.00     0.293 HD
ENDBRANCH  13  17
BRANCH  15  19
ATOM     19  O   UNL     1      57.696   4.610  18.103  1.00  0.00    -0.502 OA
ATOM     20  H   UNL     1      57.020   5.061  18.702  1.00  0.00     0.293 HD
ENDBRANCH  15  19
BRANCH  16  21
ATOM     21  O   UNL     1      57.803   2.428  19.766  1.00  0.00    -0.504 OA
ATOM     22  H   UNL     1      58.427   1.828  20.292  1.00  0.00     0.293 HD
ENDBRANCH  16  21
ENDBRANCH   1  11
BRANCH  10  23
ATOM     23  O   UNL     1      54.915  -0.055  14.860  1.00  0.00    -0.500 OA
ATOM     24  H   UNL     1      55.047   0.935  15.023  1.00  0.00     0.294 HD
ENDBRANCH  10  23
BRANCH   5  25
ATOM     25  O   UNL     1      59.997  -5.820  15.946  1.00  0.00    -0.507 OA
ATOM     26  H   UNL     1      60.207  -6.067  16.905  1.00  0.00     0.293 HD
ENDBRANCH   5  25
BRANCH   7  27
ATOM     27  O   UNL     1      55.757  -5.105  13.774  1.00  0.00    -0.507 OA
ATOM     28  H   UNL     1      54.802  -5.184  14.088  1.00  0.00     0.293 HD
ENDBRANCH   7  27
TORSDOF 7
ENDMDL
MODEL 8
REMARK VINA RESULT:    -7.226      7.819      8.902
REMARK INTER + INTRA:          -8.954
REMARK INTER:                  -8.614
REMARK INTRA:                  -0.339
REMARK UNBOUND:                -0.038
REMARK SMILES Oc1cc(O)c2cc(O)c(-c3cc(O)c(O)c(O)c3)[o+]c2c1
REMARK SMILES IDX 10 1 20 2 21 3 22 4 2 5 3 6 4 7 6 8 7 9 8 10 11 11 12 12
REMARK SMILES IDX 13 13 19 14 15 15 17 16 14 17 16 19 18 21 9 23 1 25 5 27
REMARK H PARENT 14 18 16 20 18 22 9 24 1 26 5 28
REMARK Flexibility Score: inf
ROOT
ATOM      1  C   UNL     1      52.875  -6.330  20.684  1.00  0.00     0.402 A 
ATOM      2  O   UNL     1      53.542  -6.627  21.796  1.00  0.00    -0.202 OA
ATOM      3  C   UNL     1      53.795  -5.742  22.755  1.00  0.00     0.368 A 
ATOM      4  C   UNL     1      54.507  -6.148  23.885  1.00  0.00     0.162 A 
ATOM      5  C   UNL     1      54.789  -5.240  24.906  1.00  0.00     0.128 A 
ATOM      6  C   UNL     1      54.358  -3.913  24.796  1.00  0.00     0.093 A 
ATOM      7  C   UNL     1      53.643  -3.481  23.672  1.00  0.00     0.136 A 
ATOM      8  C   UNL     1      53.351  -4.403  22.633  1.00  0.00     0.125 A 
ATOM      9  C   UNL     1      52.630  -4.061  21.479  1.00  0.00     0.078 A 
ATOM     10  C   UNL     1      52.377  -5.027  20.499  1.00  0.00     0.223 A 
ENDROOT
BRANCH   1  11
ATOM     11  C   UNL     1      52.666  -7.402  19.685  1.00  0.00     0.091 A 
ATOM     12  C   UNL     1      51.760  -8.436  19.961  1.00  0.00     0.068 A 
ATOM     13  C   UNL     1      51.552  -9.477  19.048  1.00  0.00     0.162 A 
ATOM     14  C   UNL     1      53.398  -7.439  18.488  1.00  0.00     0.068 A 
ATOM     15  C   UNL     1      52.277  -9.495  17.833  1.00  0.00     0.200 A 
ATOM     16  C   UNL     1      53.201  -8.475  17.566  1.00  0.00     0.162 A 
BRANCH  13  17
ATOM     17  O   UNL     1      50.625 -10.464  19.388  1.00  0.00    -0.504 OA
ATOM     18  H   UNL     1      50.857 -11.311  19.886  1.00  0.00     0.293 HD
ENDBRANCH  13  17
BRANCH  15  19
ATOM     19  O   UNL     1      52.114 -10.500  16.877  1.00  0.00    -0.502 OA
ATOM     20  H   UNL     1      52.256 -11.483  17.058  1.00  0.00     0.293 HD
ENDBRANCH  15  19
BRANCH  16  21
ATOM     21  O   UNL     1      53.927  -8.500  16.375  1.00  0.00    -0.504 OA
ATOM     22  H   UNL     1      53.471  -8.415  15.474  1.00  0.00     0.293 HD
ENDBRANCH  16  21
ENDBRANCH   1  11
BRANCH  10  23
ATOM     23  O   UNL     1      51.618  -4.701  19.375  1.00  0.00    -0.500 OA
ATOM     24  H   UNL     1      50.875  -4.015  19.415  1.00  0.00     0.294 HD
ENDBRANCH  10  23
BRANCH   5  25
ATOM     25  O   UNL     1      55.500  -5.665  26.026  1.00  0.00    -0.507 OA
ATOM     26  H   UNL     1      55.909  -5.004  26.676  1.00  0.00     0.293 HD
ENDBRANCH   5  25
BRANCH   7  27
ATOM     27  O   UNL     1      53.250  -2.139  23.637  1.00  0.00    -0.507 OA
ATOM     28  H   UNL     1      53.225  -1.575  22.801  1.00  0.00     0.293 HD
ENDBRANCH   7  27
TORSDOF 7
ENDMDL
MODEL 9
REMARK VINA RESULT:    -6.838      8.988     12.042
REMARK INTER + INTRA:          -8.475
REMARK INTER:                  -8.148
REMARK INTRA:                  -0.327
REMARK UNBOUND:                -0.038
REMARK SMILES Oc1cc(O)c2cc(O)c(-c3cc(O)c(O)c(O)c3)[o+]c2c1
REMARK SMILES IDX 10 1 20 2 21 3 22 4 2 5 3 6 4 7 6 8 7 9 8 10 11 11 12 12
REMARK SMILES IDX 13 13 19 14 15 15 17 16 14 17 16 19 18 21 9 23 1 25 5 27
REMARK H PARENT 14 18 16 20 18 22 9 24 1 26 5 28
REMARK Flexibility Score: inf
ROOT
ATOM      1  C   UNL     1      60.962  -4.753   8.161  1.00  0.00     0.402 A 
ATOM      2  O   UNL     1      60.657  -5.736   7.318  1.00  0.00    -0.202 OA
ATOM      3  C   UNL     1      60.932  -7.015   7.558  1.00  0.00     0.368 A 
ATOM      4  C   UNL     1      60.575  -7.977   6.610  1.00  0.00     0.162 A 
ATOM      5  C   UNL     1      60.854  -9.325   6.835  1.00  0.00     0.128 A 
ATOM      6  C   UNL     1      61.496  -9.717   8.015  1.00  0.00     0.093 A 
ATOM      7  C   UNL     1      61.864  -8.772   8.980  1.00  0.00     0.136 A 
ATOM      8  C   UNL     1      61.580  -7.399   8.757  1.00  0.00     0.125 A 
ATOM      9  C   UNL     1      61.900  -6.386   9.674  1.00  0.00     0.078 A 
ATOM     10  C   UNL     1      61.583  -5.054   9.387  1.00  0.00     0.223 A 
ENDROOT
BRANCH   1  11
ATOM     11  C   UNL     1      60.612  -3.367   7.774  1.00  0.00     0.091 A 
ATOM     12  C   UNL     1      59.265  -2.978   7.742  1.00  0.00     0.068 A 
ATOM     13  C   UNL     1      58.896  -1.682   7.363  1.00  0.00     0.162 A 
ATOM     14  C   UNL     1      61.597  -2.446   7.384  1.00  0.00     0.068 A 
ATOM     15  C   UNL     1      59.897  -0.752   6.992  1.00  0.00     0.200 A 
ATOM     16  C   UNL     1      61.242  -1.146   7.001  1.00  0.00     0.162 A 
BRANCH  13  17
ATOM     17  O   UNL     1      57.537  -1.366   7.367  1.00  0.00    -0.504 OA
ATOM     18  H   UNL     1      56.796  -2.050   7.320  1.00  0.00     0.293 HD
ENDBRANCH  13  17
BRANCH  15  19
ATOM     19  O   UNL     1      59.599   0.558   6.609  1.00  0.00    -0.502 OA
ATOM     20  H   UNL     1      60.247   1.328   6.675  1.00  0.00     0.293 HD
ENDBRANCH  15  19
BRANCH  16  21
ATOM     21  O   UNL     1      62.228  -0.235   6.622  1.00  0.00    -0.504 OA
ATOM     22  H   UNL     1      62.905   0.122   7.286  1.00  0.00     0.293 HD
ENDBRANCH  16  21
ENDBRANCH   1  11
BRANCH  10  23
ATOM     23  O   UNL     1      61.857  -4.053  10.319  1.00  0.00    -0.500 OA
ATOM     24  H   UNL     1      61.131  -3.656  10.902  1.00  0.00     0.294 HD
ENDBRANCH  10  23
BRANCH   5  25
ATOM     25  O   UNL     1      60.490 -10.270   5.877  1.00  0.00    -0.507 OA
ATOM     26  H   UNL     1      61.072 -10.458   5.070  1.00  0.00     0.293 HD
ENDBRANCH   5  25
BRANCH   7  27
ATOM     27  O   UNL     1      62.505  -9.243  10.130  1.00  0.00    -0.507 OA
ATOM     28  H   UNL     1      63.099 -10.058  10.158  1.00  0.00     0.293 HD
ENDBRANCH   7  27
TORSDOF 7
ENDMDL
