MODEL 1
REMARK VINA RESULT:    -4.835      0.000      0.000
REMARK INTER + INTRA:          -9.025
REMARK INTER:                  -7.661
REMARK INTRA:                  -1.364
REMARK UNBOUND:                -1.364
REMARK SMILES CCCCCCCCCCCC(=O)[O-]
REMARK SMILES IDX 7 1 8 2 9 3 10 4 11 5 12 6 13 7 14 8 6 9 5 10 4 11 3 12 2 13
REMARK SMILES IDX 1 14
REMARK H PARENT
REMARK Flexibility Score: inf
ROOT
ATOM      1  C   UNL     1      13.521  16.505 163.589  1.00  0.00     0.000 C 
ENDROOT
BRANCH   1   2
ATOM      2  C   UNL     1      12.310  16.130 164.467  1.00  0.00     0.000 C 
BRANCH   2   3
ATOM      3  C   UNL     1      10.941  16.537 163.893  1.00  0.00     0.000 C 
BRANCH   3   4
ATOM      4  C   UNL     1      11.050  17.241 162.533  1.00  0.00     0.006 C 
BRANCH   4   5
ATOM      5  C   UNL     1      10.624  16.306 161.398  1.00  0.00     0.053 C 
BRANCH   5   6
ATOM      6  C   UNL     1      11.527  16.470 160.216  1.00  0.00     0.041 C 
ATOM      7  O   UNL     1      12.376  15.582 159.940  1.00  0.00    -0.550 OA
ATOM      8  O   UNL     1      11.396  17.579 159.390  1.00  0.00    -0.550 OA
ENDBRANCH   5   6
ENDBRANCH   4   5
ENDBRANCH   3   4
ENDBRANCH   2   3
ENDBRANCH   1   2
BRANCH   1   9
ATOM      9  C   UNL     1      14.238  15.316 162.916  1.00  0.00     0.000 C 
BRANCH   9  10
ATOM     10  C   UNL     1      13.847  13.928 163.454  1.00  0.00    -0.000 C 
BRANCH  10  11
ATOM     11  C   UNL     1      13.114  13.067 162.410  1.00  0.00    -0.000 C 
BRANCH  11  12
ATOM     12  C   UNL     1      11.600  12.970 162.670  1.00  0.00    -0.000 C 
BRANCH  12  13
ATOM     13  C   UNL     1      10.745  12.652 161.430  1.00  0.00    -0.003 C 
ATOM     14  C   UNL     1      10.060  11.289 161.507  1.00  0.00     0.004 C 
ENDBRANCH  12  13
ENDBRANCH  11  12
ENDBRANCH  10  11
ENDBRANCH   9  10
ENDBRANCH   1   9
TORSDOF 10
ENDMDL
MODEL 2
REMARK VINA RESULT:    -4.788      1.926      4.060
REMARK INTER + INTRA:          -8.952
REMARK INTER:                  -7.367
REMARK INTRA:                  -1.584
REMARK UNBOUND:                -1.364
REMARK SMILES CCCCCCCCCCCC(=O)[O-]
REMARK SMILES IDX 7 1 8 2 9 3 10 4 11 5 12 6 13 7 14 8 6 9 5 10 4 11 3 12 2 13
REMARK SMILES IDX 1 14
REMARK H PARENT
REMARK Flexibility Score: inf
ROOT
ATOM      1  C   UNL     1      14.247  15.664 162.878  1.00  0.00     0.000 C 
ENDROOT
BRANCH   1   2
ATOM      2  C   UNL     1      14.280  14.323 163.639  1.00  0.00     0.000 C 
BRANCH   2   3
ATOM      3  C   UNL     1      14.032  13.078 162.769  1.00  0.00     0.000 C 
BRANCH   3   4
ATOM      4  C   UNL     1      12.761  13.191 161.915  1.00  0.00     0.006 C 
BRANCH   4   5
ATOM      5  C   UNL     1      11.509  12.951 162.764  1.00  0.00     0.053 C 
BRANCH   5   6
ATOM      6  C   UNL     1      10.310  12.766 161.889  1.00  0.00     0.041 C 
ATOM      7  O   UNL     1       9.277  13.463 162.073  1.00  0.00    -0.550 OA
ATOM      8  O   UNL     1      10.350  11.860 160.837  1.00  0.00    -0.550 OA
ENDBRANCH   5   6
ENDBRANCH   4   5
ENDBRANCH   3   4
ENDBRANCH   2   3
ENDBRANCH   1   2
BRANCH   1   9
ATOM      9  C   UNL     1      13.411  16.776 163.544  1.00  0.00     0.000 C 
BRANCH   9  10
ATOM     10  C   UNL     1      12.163  16.291 164.304  1.00  0.00    -0.000 C 
BRANCH  10  11
ATOM     11  C   UNL     1      10.860  16.514 163.519  1.00  0.00    -0.000 C 
BRANCH  11  12
ATOM     12  C   UNL     1      11.086  17.221 162.171  1.00  0.00    -0.000 C 
BRANCH  12  13
ATOM     13  C   UNL     1      10.664  16.411 160.931  1.00  0.00    -0.003 C 
ATOM     14  C   UNL     1      11.826  16.112 159.986  1.00  0.00     0.004 C 
ENDBRANCH  12  13
ENDBRANCH  11  12
ENDBRANCH  10  11
ENDBRANCH   9  10
ENDBRANCH   1   9
TORSDOF 10
ENDMDL
MODEL 3
REMARK VINA RESULT:    -4.709      1.351      3.314
REMARK INTER + INTRA:          -8.825
REMARK INTER:                  -7.314
REMARK INTRA:                  -1.511
REMARK UNBOUND:                -1.364
REMARK SMILES CCCCCCCCCCCC(=O)[O-]
REMARK SMILES IDX 7 1 8 2 9 3 10 4 11 5 12 6 13 7 14 8 6 9 5 10 4 11 3 12 2 13
REMARK SMILES IDX 1 14
REMARK H PARENT
REMARK Flexibility Score: inf
ROOT
ATOM      1  C   UNL     1      12.205  12.745 161.978  1.00  0.00     0.000 C 
ENDROOT
BRANCH   1   2
ATOM      2  C   UNL     1      10.924  13.136 162.743  1.00  0.00     0.000 C 
BRANCH   2   3
ATOM      3  C   UNL     1       9.861  13.863 161.900  1.00  0.00     0.000 C 
BRANCH   3   4
ATOM      4  C   UNL     1      10.132  15.369 161.770  1.00  0.00     0.006 C 
BRANCH   4   5
ATOM      5  C   UNL     1      10.604  15.720 160.356  1.00  0.00     0.053 C 
BRANCH   5   6
ATOM      6  C   UNL     1      11.103  17.129 160.303  1.00  0.00     0.041 C 
ATOM      7  O   UNL     1      11.565  17.598 159.230  1.00  0.00    -0.550 OA
ATOM      8  O   UNL     1      11.012  17.940 161.427  1.00  0.00    -0.550 OA
ENDBRANCH   5   6
ENDBRANCH   4   5
ENDBRANCH   3   4
ENDBRANCH   2   3
ENDBRANCH   1   2
BRANCH   1   9
ATOM      9  C   UNL     1      13.508  13.371 162.517  1.00  0.00     0.000 C 
BRANCH   9  10
ATOM     10  C   UNL     1      13.792  14.806 162.038  1.00  0.00    -0.000 C 
BRANCH  10  11
ATOM     11  C   UNL     1      14.146  15.762 163.190  1.00  0.00    -0.000 C 
BRANCH  11  12
ATOM     12  C   UNL     1      12.907  16.403 163.838  1.00  0.00    -0.000 C 
BRANCH  12  13
ATOM     13  C   UNL     1      12.370  15.672 165.082  1.00  0.00    -0.003 C 
ATOM     14  C   UNL     1      10.876  15.896 165.311  1.00  0.00     0.004 C 
ENDBRANCH  12  13
ENDBRANCH  11  12
ENDBRANCH  10  11
ENDBRANCH   9  10
ENDBRANCH   1   9
TORSDOF 10
ENDMDL
MODEL 4
REMARK VINA RESULT:    -4.695      2.518      3.450
REMARK INTER + INTRA:          -8.803
REMARK INTER:                  -7.357
REMARK INTRA:                  -1.447
REMARK UNBOUND:                -1.364
REMARK SMILES CCCCCCCCCCCC(=O)[O-]
REMARK SMILES IDX 7 1 8 2 9 3 10 4 11 5 12 6 13 7 14 8 6 9 5 10 4 11 3 12 2 13
REMARK SMILES IDX 1 14
REMARK H PARENT
REMARK Flexibility Score: inf
ROOT
ATOM      1  C   UNL     1      11.887  15.904 160.256  1.00  0.00     0.000 C 
ENDROOT
BRANCH   1   2
ATOM      2  C   UNL     1      10.985  16.201 161.471  1.00  0.00     0.000 C 
BRANCH   2   3
ATOM      3  C   UNL     1      11.257  17.546 162.168  1.00  0.00     0.000 C 
BRANCH   3   4
ATOM      4  C   UNL     1      10.835  17.549 163.644  1.00  0.00     0.006 C 
BRANCH   4   5
ATOM      5  C   UNL     1      10.386  16.154 164.087  1.00  0.00     0.053 C 
BRANCH   5   6
ATOM      6  C   UNL     1      11.114  15.737 165.326  1.00  0.00     0.041 C 
ATOM      7  O   UNL     1      12.373  15.756 165.358  1.00  0.00    -0.550 OA
ATOM      8  O   UNL     1      10.402  15.376 166.462  1.00  0.00    -0.550 OA
ENDBRANCH   5   6
ENDBRANCH   4   5
ENDBRANCH   3   4
ENDBRANCH   2   3
ENDBRANCH   1   2
BRANCH   1   9
ATOM      9  C   UNL     1      13.038  14.911 160.518  1.00  0.00     0.000 C 
BRANCH   9  10
ATOM     10  C   UNL     1      13.702  15.031 161.901  1.00  0.00    -0.000 C 
BRANCH  10  11
ATOM     11  C   UNL     1      13.573  13.748 162.740  1.00  0.00    -0.000 C 
BRANCH  11  12
ATOM     12  C   UNL     1      12.576  12.739 162.142  1.00  0.00    -0.000 C 
BRANCH  12  13
ATOM     13  C   UNL     1      11.175  12.751 162.780  1.00  0.00    -0.003 C 
ATOM     14  C   UNL     1      10.050  12.607 161.756  1.00  0.00     0.004 C 
ENDBRANCH  12  13
ENDBRANCH  11  12
ENDBRANCH  10  11
ENDBRANCH   9  10
ENDBRANCH   1   9
TORSDOF 10
ENDMDL
MODEL 5
REMARK VINA RESULT:    -4.684      2.053      4.498
REMARK INTER + INTRA:          -8.785
REMARK INTER:                  -7.269
REMARK INTRA:                  -1.516
REMARK UNBOUND:                -1.364
REMARK SMILES CCCCCCCCCCCC(=O)[O-]
REMARK SMILES IDX 7 1 8 2 9 3 10 4 11 5 12 6 13 7 14 8 6 9 5 10 4 11 3 12 2 13
REMARK SMILES IDX 1 14
REMARK H PARENT
REMARK Flexibility Score: inf
ROOT
ATOM      1  C   UNL     1      12.939  14.868 160.614  1.00  0.00     0.000 C 
ENDROOT
BRANCH   1   2
ATOM      2  C   UNL     1      13.691  15.112 161.939  1.00  0.00     0.000 C 
BRANCH   2   3
ATOM      3  C   UNL     1      13.476  14.032 163.015  1.00  0.00     0.000 C 
BRANCH   3   4
ATOM      4  C   UNL     1      12.665  12.833 162.503  1.00  0.00     0.006 C 
BRANCH   4   5
ATOM      5  C   UNL     1      11.261  12.821 163.114  1.00  0.00     0.053 C 
BRANCH   5   6
ATOM      6  C   UNL     1      10.220  12.814 162.039  1.00  0.00     0.041 C 
ATOM      7  O   UNL     1       9.274  13.644 162.069  1.00  0.00    -0.550 OA
ATOM      8  O   UNL     1      10.324  11.924 160.978  1.00  0.00    -0.550 OA
ENDBRANCH   5   6
ENDBRANCH   4   5
ENDBRANCH   3   4
ENDBRANCH   2   3
ENDBRANCH   1   2
BRANCH   1   9
ATOM      9  C   UNL     1      12.037  16.028 160.148  1.00  0.00     0.000 C 
BRANCH   9  10
ATOM     10  C   UNL     1      10.930  16.435 161.137  1.00  0.00    -0.000 C 
BRANCH  10  11
ATOM     11  C   UNL     1      11.203  17.788 161.817  1.00  0.00    -0.000 C 
BRANCH  11  12
ATOM     12  C   UNL     1      11.170  17.704 163.353  1.00  0.00    -0.000 C 
BRANCH  12  13
ATOM     13  C   UNL     1      10.433  16.478 163.923  1.00  0.00    -0.003 C 
ATOM     14  C   UNL     1      11.116  15.888 165.156  1.00  0.00     0.004 C 
ENDBRANCH  12  13
ENDBRANCH  11  12
ENDBRANCH  10  11
ENDBRANCH   9  10
ENDBRANCH   1   9
TORSDOF 10
ENDMDL
MODEL 6
REMARK VINA RESULT:    -4.674      1.702      4.587
REMARK INTER + INTRA:          -8.771
REMARK INTER:                  -7.301
REMARK INTRA:                  -1.469
REMARK UNBOUND:                -1.364
REMARK SMILES CCCCCCCCCCCC(=O)[O-]
REMARK SMILES IDX 7 1 8 2 9 3 10 4 11 5 12 6 13 7 14 8 6 9 5 10 4 11 3 12 2 13
REMARK SMILES IDX 1 14
REMARK H PARENT
REMARK Flexibility Score: inf
ROOT
ATOM      1  C   UNL     1       9.713  14.657 161.766  1.00  0.00     0.000 C 
ENDROOT
BRANCH   1   2
ATOM      2  C   UNL     1      10.193  13.206 161.977  1.00  0.00     0.000 C 
BRANCH   2   3
ATOM      3  C   UNL     1      11.163  13.009 163.155  1.00  0.00     0.000 C 
BRANCH   3   4
ATOM      4  C   UNL     1      12.625  12.870 162.706  1.00  0.00     0.006 C 
BRANCH   4   5
ATOM      5  C   UNL     1      13.518  13.883 163.429  1.00  0.00     0.053 C 
BRANCH   5   6
ATOM      6  C   UNL     1      14.478  14.514 162.471  1.00  0.00     0.041 C 
ATOM      7  O   UNL     1      15.695  14.624 162.774  1.00  0.00    -0.550 OA
ATOM      8  O   UNL     1      14.039  14.933 161.222  1.00  0.00    -0.550 OA
ENDBRANCH   5   6
ENDBRANCH   4   5
ENDBRANCH   3   4
ENDBRANCH   2   3
ENDBRANCH   1   2
BRANCH   1   9
ATOM      9  C   UNL     1      10.567  15.496 160.793  1.00  0.00     0.000 C 
BRANCH   9  10
ATOM     10  C   UNL     1      10.949  16.898 161.299  1.00  0.00    -0.000 C 
BRANCH  10  11
ATOM     11  C   UNL     1      11.553  16.879 162.714  1.00  0.00    -0.000 C 
BRANCH  11  12
ATOM     12  C   UNL     1      10.703  17.650 163.739  1.00  0.00    -0.000 C 
BRANCH  12  13
ATOM     13  C   UNL     1       9.987  16.773 164.783  1.00  0.00    -0.003 C 
ATOM     14  C   UNL     1      10.918  15.774 165.466  1.00  0.00     0.004 C 
ENDBRANCH  12  13
ENDBRANCH  11  12
ENDBRANCH  10  11
ENDBRANCH   9  10
ENDBRANCH   1   9
TORSDOF 10
ENDMDL
MODEL 7
REMARK VINA RESULT:    -4.631      2.784      3.835
REMARK INTER + INTRA:          -8.702
REMARK INTER:                  -7.137
REMARK INTRA:                  -1.566
REMARK UNBOUND:                -1.364
REMARK SMILES CCCCCCCCCCCC(=O)[O-]
REMARK SMILES IDX 7 1 8 2 9 3 10 4 11 5 12 6 13 7 14 8 6 9 5 10 4 11 3 12 2 13
REMARK SMILES IDX 1 14
REMARK H PARENT
REMARK Flexibility Score: inf
ROOT
ATOM      1  C   UNL     1      14.234  14.969 162.238  1.00  0.00     0.000 C 
ENDROOT
BRANCH   1   2
ATOM      2  C   UNL     1      14.060  16.129 163.238  1.00  0.00     0.000 C 
BRANCH   2   3
ATOM      3  C   UNL     1      12.778  16.961 163.051  1.00  0.00     0.000 C 
BRANCH   3   4
ATOM      4  C   UNL     1      11.714  16.665 164.118  1.00  0.00     0.006 C 
BRANCH   4   5
ATOM      5  C   UNL     1      12.291  15.797 165.240  1.00  0.00     0.053 C 
BRANCH   5   6
ATOM      6  C   UNL     1      11.226  14.929 165.832  1.00  0.00     0.041 C 
ATOM      7  O   UNL     1      10.313  15.437 166.535  1.00  0.00    -0.550 OA
ATOM      8  O   UNL     1      11.212  13.566 165.565  1.00  0.00    -0.550 OA
ENDBRANCH   5   6
ENDBRANCH   4   5
ENDBRANCH   3   4
ENDBRANCH   2   3
ENDBRANCH   1   2
BRANCH   1   9
ATOM      9  C   UNL     1      14.190  13.556 162.856  1.00  0.00     0.000 C 
BRANCH   9  10
ATOM     10  C   UNL     1      12.893  12.768 162.597  1.00  0.00    -0.000 C 
BRANCH  10  11
ATOM     11  C   UNL     1      11.973  13.451 161.571  1.00  0.00    -0.000 C 
BRANCH  11  12
ATOM     12  C   UNL     1      10.488  13.397 161.969  1.00  0.00    -0.000 C 
BRANCH  12  13
ATOM     13  C   UNL     1       9.716  14.718 161.789  1.00  0.00    -0.003 C 
ATOM     14  C   UNL     1      10.348  15.644 160.751  1.00  0.00     0.004 C 
ENDBRANCH  12  13
ENDBRANCH  11  12
ENDBRANCH  10  11
ENDBRANCH   9  10
ENDBRANCH   1   9
TORSDOF 10
ENDMDL
MODEL 8
REMARK VINA RESULT:    -4.590      2.228      3.966
REMARK INTER + INTRA:          -8.637
REMARK INTER:                  -7.067
REMARK INTRA:                  -1.570
REMARK UNBOUND:                -1.364
REMARK SMILES CCCCCCCCCCCC(=O)[O-]
REMARK SMILES IDX 7 1 8 2 9 3 10 4 11 5 12 6 13 7 14 8 6 9 5 10 4 11 3 12 2 13
REMARK SMILES IDX 1 14
REMARK H PARENT
REMARK Flexibility Score: inf
ROOT
ATOM      1  C   UNL     1      13.418  13.254 162.697  1.00  0.00     0.000 C 
ENDROOT
BRANCH   1   2
ATOM      2  C   UNL     1      14.449  14.297 163.173  1.00  0.00     0.000 C 
BRANCH   2   3
ATOM      3  C   UNL     1      14.104  15.756 162.825  1.00  0.00     0.000 C 
BRANCH   3   4
ATOM      4  C   UNL     1      13.489  16.521 164.006  1.00  0.00     0.006 C 
BRANCH   4   5
ATOM      5  C   UNL     1      12.094  17.045 163.652  1.00  0.00     0.053 C 
BRANCH   5   6
ATOM      6  C   UNL     1      11.067  16.462 164.571  1.00  0.00     0.041 C 
ATOM      7  O   UNL     1       9.842  16.561 164.296  1.00  0.00    -0.550 OA
ATOM      8  O   UNL     1      11.464  15.766 165.705  1.00  0.00    -0.550 OA
ENDBRANCH   5   6
ENDBRANCH   4   5
ENDBRANCH   3   4
ENDBRANCH   2   3
ENDBRANCH   1   2
BRANCH   1   9
ATOM      9  C   UNL     1      12.184  13.086 163.609  1.00  0.00     0.000 C 
BRANCH   9  10
ATOM     10  C   UNL     1      10.829  13.066 162.879  1.00  0.00    -0.000 C 
BRANCH  10  11
ATOM     11  C   UNL     1      10.942  13.458 161.396  1.00  0.00    -0.000 C 
BRANCH  11  12
ATOM     12  C   UNL     1      10.552  14.923 161.133  1.00  0.00    -0.000 C 
BRANCH  12  13
ATOM     13  C   UNL     1      11.539  15.712 160.253  1.00  0.00    -0.003 C 
ATOM     14  C   UNL     1      11.136  17.173 160.061  1.00  0.00     0.004 C 
ENDBRANCH  12  13
ENDBRANCH  11  12
ENDBRANCH  10  11
ENDBRANCH   9  10
ENDBRANCH   1   9
TORSDOF 10
ENDMDL
MODEL 9
REMARK VINA RESULT:    -4.574      2.576      4.255
REMARK INTER + INTRA:          -8.612
REMARK INTER:                  -7.290
REMARK INTRA:                  -1.322
REMARK UNBOUND:                -1.364
REMARK SMILES CCCCCCCCCCCC(=O)[O-]
REMARK SMILES IDX 7 1 8 2 9 3 10 4 11 5 12 6 13 7 14 8 6 9 5 10 4 11 3 12 2 13
REMARK SMILES IDX 1 14
REMARK H PARENT
REMARK Flexibility Score: inf
ROOT
ATOM      1  C   UNL     1      10.392  15.407 160.644  1.00  0.00     0.000 C 
ENDROOT
BRANCH   1   2
ATOM      2  C   UNL     1      11.588  16.281 161.073  1.00  0.00     0.000 C 
BRANCH   2   3
ATOM      3  C   UNL     1      11.257  17.367 162.113  1.00  0.00     0.000 C 
BRANCH   3   4
ATOM      4  C   UNL     1      11.768  17.021 163.519  1.00  0.00     0.006 C 
BRANCH   4   5
ATOM      5  C   UNL     1      10.604  16.708 164.463  1.00  0.00     0.053 C 
BRANCH   5   6
ATOM      6  C   UNL     1      11.035  15.751 165.529  1.00  0.00     0.041 C 
ATOM      7  O   UNL     1      12.138  15.152 165.435  1.00  0.00    -0.550 OA
ATOM      8  O   UNL     1      10.241  15.559 166.653  1.00  0.00    -0.550 OA
ENDBRANCH   5   6
ENDBRANCH   4   5
ENDBRANCH   3   4
ENDBRANCH   2   3
ENDBRANCH   1   2
BRANCH   1   9
ATOM      9  C   UNL     1       9.758  14.563 161.770  1.00  0.00     0.000 C 
BRANCH   9  10
ATOM     10  C   UNL     1      10.189  13.086 161.803  1.00  0.00    -0.000 C 
BRANCH  10  11
ATOM     11  C   UNL     1      11.335  12.820 162.794  1.00  0.00    -0.000 C 
BRANCH  11  12
ATOM     12  C   UNL     1      12.725  12.908 162.140  1.00  0.00    -0.000 C 
BRANCH  12  13
ATOM     13  C   UNL     1      13.840  13.455 163.051  1.00  0.00    -0.003 C 
ATOM     14  C   UNL     1      14.537  14.684 162.472  1.00  0.00     0.004 C 
ENDBRANCH  12  13
ENDBRANCH  11  12
ENDBRANCH  10  11
ENDBRANCH   9  10
ENDBRANCH   1   9
TORSDOF 10
ENDMDL
