MODEL 1
REMARK VINA RESULT:    -7.539      0.000      0.000
REMARK INTER + INTRA:          -8.112
REMARK INTER:                  -8.200
REMARK INTRA:                   0.089
REMARK UNBOUND:                 0.089
REMARK SMILES CC1(C)CC[C@@]2(C(=O)[O-])CC[C@]3(C)C(=CC[C@@H]4[C@]5(C)CC[C@@H](O)C(C)(C)[C@H]5CC[C@@]43C)[C@@H]2C1
REMARK SMILES IDX 6 1 5 2 10 3 32 4 4 5 11 6 14 7 33 8 2 9 12 10 15 11 1 12
REMARK SMILES IDX 3 13 13 14 30 15 16 16 17 17 29 18 31 19 18 20 28 21 27 22
REMARK SMILES IDX 20 23 19 24 24 25 21 26 22 27 25 28 26 29 7 30 8 31 9 32
REMARK SMILES IDX 23 33
REMARK H PARENT 23 34
REMARK Flexibility Score: inf
ROOT
ATOM      1  C   UNL     1     -13.356  18.707 -26.689  1.00  0.00     0.017 C 
ATOM      2  C   UNL     1     -13.276  19.781 -27.801  1.00  0.00     0.014 C 
ATOM      3  C   UNL     1     -14.626  17.867 -26.889  1.00  0.00     0.014 C 
ATOM      4  C   UNL     1     -12.161  17.726 -26.863  1.00  0.00     0.028 C 
ATOM      5  C   UNL     1     -11.961  20.575 -27.728  1.00  0.00     0.007 C 
ATOM      6  C   UNL     1     -14.833  16.873 -25.742  1.00  0.00     0.013 C 
ATOM      7  C   UNL     1     -12.272  16.447 -26.003  1.00  0.00    -0.064 C 
ATOM      8  C   UNL     1     -10.788  18.473 -26.815  1.00  0.00     0.015 C 
ATOM      9  C   UNL     1     -10.699  19.673 -27.809  1.00  0.00    -0.035 C 
ATOM     10  C   UNL     1     -13.573  16.016 -25.282  1.00  0.00    -0.006 C 
ATOM     11  C   UNL     1     -11.251  15.573 -26.058  1.00  0.00    -0.027 C 
ATOM     12  C   UNL     1      -9.466  20.526 -27.440  1.00  0.00     0.011 C 
ATOM     13  C   UNL     1     -10.501  19.164 -29.258  1.00  0.00     0.011 C 
ATOM     14  C   UNL     1     -13.331  16.304 -23.770  1.00  0.00     0.017 C 
ATOM     15  C   UNL     1     -13.846  14.439 -25.495  1.00  0.00    -0.020 C 
ATOM     16  C   UNL     1     -11.232  14.213 -25.435  1.00  0.00     0.032 C 
ATOM     17  C   UNL     1     -12.597  13.571 -25.012  1.00  0.00     0.006 C 
ATOM     18  C   UNL     1     -14.093  14.141 -27.012  1.00  0.00     0.008 C 
ATOM     19  C   UNL     1     -15.125  14.042 -24.666  1.00  0.00     0.012 C 
ATOM     20  C   UNL     1     -12.669  12.006 -25.370  1.00  0.00    -0.025 C 
ATOM     21  C   UNL     1     -14.155  12.648 -27.385  1.00  0.00     0.005 C 
ATOM     22  C   UNL     1     -12.893  11.871 -26.925  1.00  0.00     0.003 C 
ATOM     23  C   UNL     1     -11.341  11.268 -24.953  1.00  0.00     0.010 C 
ATOM     24  C   UNL     1     -13.799  11.322 -24.528  1.00  0.00     0.012 C 
ATOM     25  C   UNL     1     -12.747  10.414 -27.528  1.00  0.00    -0.006 C 
ATOM     26  C   UNL     1     -11.223   9.837 -25.503  1.00  0.00     0.033 C 
ATOM     27  C   UNL     1     -11.395   9.799 -27.031  1.00  0.00     0.120 C 
ATOM     28  C   UNL     1     -13.948   9.489 -27.195  1.00  0.00     0.014 C 
ATOM     29  C   UNL     1     -12.665  10.500 -29.079  1.00  0.00     0.014 C 
ENDROOT
BRANCH   1  30
ATOM     30  C   UNL     1     -13.433  19.433 -25.342  1.00  0.00     0.048 C 
ATOM     31  O   UNL     1     -14.417  20.180 -25.093  1.00  0.00    -0.550 OA
ATOM     32  O   UNL     1     -12.411  19.361 -24.405  1.00  0.00    -0.550 OA
ENDBRANCH   1  30
BRANCH  27  33
ATOM     33  O   UNL     1     -11.199   8.492 -27.520  1.00  0.00    -0.393 OA
ATOM     34  H   UNL     1     -11.620   8.429 -28.416  1.00  0.00     0.210 HD
ENDBRANCH  27  33
TORSDOF 2
ENDMDL
MODEL 2
REMARK VINA RESULT:    -7.515     12.116     16.366
REMARK INTER + INTRA:          -8.085
REMARK INTER:                  -8.174
REMARK INTRA:                   0.088
REMARK UNBOUND:                 0.089
REMARK SMILES CC1(C)CC[C@@]2(C(=O)[O-])CC[C@]3(C)C(=CC[C@@H]4[C@]5(C)CC[C@@H](O)C(C)(C)[C@H]5CC[C@@]43C)[C@@H]2C1
REMARK SMILES IDX 6 1 5 2 10 3 32 4 4 5 11 6 14 7 33 8 2 9 12 10 15 11 1 12
REMARK SMILES IDX 3 13 13 14 30 15 16 16 17 17 29 18 31 19 18 20 28 21 27 22
REMARK SMILES IDX 20 23 19 24 24 25 21 26 22 27 25 28 26 29 7 30 8 31 9 32
REMARK SMILES IDX 23 33
REMARK H PARENT 23 34
REMARK Flexibility Score: inf
ROOT
ATOM      1  C   UNL     1      -9.914   6.989 -35.524  1.00  0.00     0.017 C 
ATOM      2  C   UNL     1     -10.503   7.369 -34.143  1.00  0.00     0.014 C 
ATOM      3  C   UNL     1      -9.139   8.189 -36.089  1.00  0.00     0.014 C 
ATOM      4  C   UNL     1      -8.865   5.858 -35.318  1.00  0.00     0.028 C 
ATOM      5  C   UNL     1     -11.185   6.168 -33.468  1.00  0.00     0.007 C 
ATOM      6  C   UNL     1      -8.644   7.922 -37.514  1.00  0.00     0.013 C 
ATOM      7  C   UNL     1      -7.996   5.579 -36.565  1.00  0.00    -0.064 C 
ATOM      8  C   UNL     1      -9.492   4.608 -34.620  1.00  0.00     0.015 C 
ATOM      9  C   UNL     1     -10.240   4.949 -33.293  1.00  0.00    -0.035 C 
ATOM     10  C   UNL     1      -7.937   6.522 -37.792  1.00  0.00    -0.006 C 
ATOM     11  C   UNL     1      -7.100   4.579 -36.485  1.00  0.00    -0.027 C 
ATOM     12  C   UNL     1     -11.091   3.727 -32.882  1.00  0.00     0.011 C 
ATOM     13  C   UNL     1      -9.227   5.220 -32.153  1.00  0.00     0.011 C 
ATOM     14  C   UNL     1      -8.741   5.801 -38.916  1.00  0.00     0.017 C 
ATOM     15  C   UNL     1      -6.411   6.739 -38.272  1.00  0.00    -0.020 C 
ATOM     16  C   UNL     1      -6.061   4.252 -37.511  1.00  0.00     0.032 C 
ATOM     17  C   UNL     1      -5.703   5.342 -38.577  1.00  0.00     0.006 C 
ATOM     18  C   UNL     1      -5.598   7.466 -37.149  1.00  0.00     0.008 C 
ATOM     19  C   UNL     1      -6.423   7.627 -39.572  1.00  0.00     0.012 C 
ATOM     20  C   UNL     1      -4.123   5.421 -38.858  1.00  0.00    -0.025 C 
ATOM     21  C   UNL     1      -4.078   7.545 -37.387  1.00  0.00     0.005 C 
ATOM     22  C   UNL     1      -3.446   6.150 -37.635  1.00  0.00     0.003 C 
ATOM     23  C   UNL     1      -3.506   3.981 -39.032  1.00  0.00     0.010 C 
ATOM     24  C   UNL     1      -3.863   6.144 -40.223  1.00  0.00     0.012 C 
ATOM     25  C   UNL     1      -1.863   6.116 -37.590  1.00  0.00    -0.006 C 
ATOM     26  C   UNL     1      -1.969   3.957 -39.033  1.00  0.00     0.033 C 
ATOM     27  C   UNL     1      -1.388   4.635 -37.780  1.00  0.00     0.120 C 
ATOM     28  C   UNL     1      -1.198   7.063 -38.625  1.00  0.00     0.014 C 
ATOM     29  C   UNL     1      -1.373   6.573 -36.187  1.00  0.00     0.014 C 
ENDROOT
BRANCH   1  30
ATOM     30  C   UNL     1     -11.083   6.654 -36.455  1.00  0.00     0.048 C 
ATOM     31  O   UNL     1     -11.853   7.573 -36.843  1.00  0.00    -0.550 OA
ATOM     32  O   UNL     1     -11.378   5.350 -36.830  1.00  0.00    -0.550 OA
ENDBRANCH   1  30
BRANCH  27  33
ATOM     33  O   UNL     1       0.016   4.526 -37.763  1.00  0.00    -0.393 OA
ATOM     34  H   UNL     1       0.394   5.414 -37.533  1.00  0.00     0.210 HD
ENDBRANCH  27  33
TORSDOF 2
ENDMDL
MODEL 3
REMARK VINA RESULT:    -7.183     14.593     16.877
REMARK INTER + INTRA:          -7.724
REMARK INTER:                  -7.804
REMARK INTRA:                   0.079
REMARK UNBOUND:                 0.089
REMARK SMILES CC1(C)CC[C@@]2(C(=O)[O-])CC[C@]3(C)C(=CC[C@@H]4[C@]5(C)CC[C@@H](O)C(C)(C)[C@H]5CC[C@@]43C)[C@@H]2C1
REMARK SMILES IDX 6 1 5 2 10 3 32 4 4 5 11 6 14 7 33 8 2 9 12 10 15 11 1 12
REMARK SMILES IDX 3 13 13 14 30 15 16 16 17 17 29 18 31 19 18 20 28 21 27 22
REMARK SMILES IDX 20 23 19 24 24 25 21 26 22 27 25 28 26 29 7 30 8 31 9 32
REMARK SMILES IDX 23 33
REMARK H PARENT 23 34
REMARK Flexibility Score: inf
ROOT
ATOM      1  C   UNL     1      -1.213  13.570 -38.303  1.00  0.00     0.017 C 
ATOM      2  C   UNL     1      -0.963  14.594 -39.437  1.00  0.00     0.014 C 
ATOM      3  C   UNL     1      -2.706  13.211 -38.268  1.00  0.00     0.014 C 
ATOM      4  C   UNL     1      -0.463  12.253 -38.653  1.00  0.00     0.028 C 
ATOM      5  C   UNL     1       0.534  14.899 -39.605  1.00  0.00     0.007 C 
ATOM      6  C   UNL     1      -3.042  12.304 -37.080  1.00  0.00     0.013 C 
ATOM      7  C   UNL     1      -0.852  11.055 -37.757  1.00  0.00    -0.064 C 
ATOM      8  C   UNL     1       1.068  12.496 -38.853  1.00  0.00     0.015 C 
ATOM      9  C   UNL     1       1.389  13.631 -39.876  1.00  0.00    -0.035 C 
ATOM     10  C   UNL     1      -2.084  11.059 -36.819  1.00  0.00    -0.006 C 
ATOM     11  C   UNL     1      -0.209   9.892 -37.963  1.00  0.00    -0.027 C 
ATOM     12  C   UNL     1       2.880  14.009 -39.739  1.00  0.00     0.011 C 
ATOM     13  C   UNL     1       1.161  13.136 -41.325  1.00  0.00     0.011 C 
ATOM     14  C   UNL     1      -1.512  11.197 -35.375  1.00  0.00     0.017 C 
ATOM     15  C   UNL     1      -2.902   9.673 -36.946  1.00  0.00    -0.020 C 
ATOM     16  C   UNL     1      -0.544   8.583 -37.321  1.00  0.00     0.032 C 
ATOM     17  C   UNL     1      -1.955   8.421 -36.660  1.00  0.00     0.006 C 
ATOM     18  C   UNL     1      -3.482   9.528 -38.394  1.00  0.00     0.008 C 
ATOM     19  C   UNL     1      -4.083   9.698 -35.905  1.00  0.00     0.012 C 
ATOM     20  C   UNL     1      -2.606   6.984 -36.965  1.00  0.00    -0.025 C 
ATOM     21  C   UNL     1      -4.103   8.155 -38.717  1.00  0.00     0.005 C 
ATOM     22  C   UNL     1      -3.117   6.986 -38.457  1.00  0.00     0.003 C 
ATOM     23  C   UNL     1      -1.553   5.830 -36.761  1.00  0.00     0.010 C 
ATOM     24  C   UNL     1      -3.744   6.687 -35.929  1.00  0.00     0.012 C 
ATOM     25  C   UNL     1      -3.571   5.586 -39.043  1.00  0.00    -0.006 C 
ATOM     26  C   UNL     1      -2.015   4.462 -37.289  1.00  0.00     0.033 C 
ATOM     27  C   UNL     1      -2.440   4.537 -38.766  1.00  0.00     0.120 C 
ATOM     28  C   UNL     1      -4.939   5.105 -38.491  1.00  0.00     0.014 C 
ATOM     29  C   UNL     1      -3.723   5.694 -40.586  1.00  0.00     0.014 C 
ENDROOT
BRANCH   1  30
ATOM     30  C   UNL     1      -0.818  14.232 -36.979  1.00  0.00     0.048 C 
ATOM     31  O   UNL     1      -1.475  15.221 -36.557  1.00  0.00    -0.550 OA
ATOM     32  O   UNL     1       0.298  13.829 -36.257  1.00  0.00    -0.550 OA
ENDBRANCH   1  30
BRANCH  27  33
ATOM     33  O   UNL     1      -2.779   3.258 -39.251  1.00  0.00    -0.393 OA
ATOM     34  H   UNL     1      -3.473   3.365 -39.951  1.00  0.00     0.210 HD
ENDBRANCH  27  33
TORSDOF 2
ENDMDL
MODEL 4
REMARK VINA RESULT:    -7.182     13.537     17.030
REMARK INTER + INTRA:          -7.723
REMARK INTER:                  -7.843
REMARK INTRA:                   0.121
REMARK UNBOUND:                 0.089
REMARK SMILES CC1(C)CC[C@@]2(C(=O)[O-])CC[C@]3(C)C(=CC[C@@H]4[C@]5(C)CC[C@@H](O)C(C)(C)[C@H]5CC[C@@]43C)[C@@H]2C1
REMARK SMILES IDX 6 1 5 2 10 3 32 4 4 5 11 6 14 7 33 8 2 9 12 10 15 11 1 12
REMARK SMILES IDX 3 13 13 14 30 15 16 16 17 17 29 18 31 19 18 20 28 21 27 22
REMARK SMILES IDX 20 23 19 24 24 25 21 26 22 27 25 28 26 29 7 30 8 31 9 32
REMARK SMILES IDX 23 33
REMARK H PARENT 23 34
REMARK Flexibility Score: inf
ROOT
ATOM      1  C   UNL     1      -8.266   7.516 -38.115  1.00  0.00     0.017 C 
ATOM      2  C   UNL     1      -9.458   8.249 -37.455  1.00  0.00     0.014 C 
ATOM      3  C   UNL     1      -7.060   8.466 -38.175  1.00  0.00     0.014 C 
ATOM      4  C   UNL     1      -7.839   6.338 -37.193  1.00  0.00     0.028 C 
ATOM      5  C   UNL     1     -10.659   7.310 -37.253  1.00  0.00     0.007 C 
ATOM      6  C   UNL     1      -5.887   7.844 -38.939  1.00  0.00     0.013 C 
ATOM      7  C   UNL     1      -6.488   5.697 -37.583  1.00  0.00    -0.064 C 
ATOM      8  C   UNL     1      -9.022   5.350 -36.933  1.00  0.00     0.015 C 
ATOM      9  C   UNL     1     -10.315   6.052 -36.411  1.00  0.00    -0.035 C 
ATOM     10  C   UNL     1      -5.495   6.343 -38.580  1.00  0.00    -0.006 C 
ATOM     11  C   UNL     1      -6.075   4.637 -36.866  1.00  0.00    -0.027 C 
ATOM     12  C   UNL     1     -11.491   5.057 -36.516  1.00  0.00     0.011 C 
ATOM     13  C   UNL     1     -10.158   6.437 -34.918  1.00  0.00     0.011 C 
ATOM     14  C   UNL     1      -5.602   5.500 -39.887  1.00  0.00     0.017 C 
ATOM     15  C   UNL     1      -3.986   6.268 -38.011  1.00  0.00    -0.020 C 
ATOM     16  C   UNL     1      -4.737   3.977 -36.974  1.00  0.00     0.032 C 
ATOM     17  C   UNL     1      -3.576   4.763 -37.673  1.00  0.00     0.006 C 
ATOM     18  C   UNL     1      -3.869   7.115 -36.699  1.00  0.00     0.008 C 
ATOM     19  C   UNL     1      -3.015   6.853 -39.104  1.00  0.00     0.012 C 
ATOM     20  C   UNL     1      -2.176   4.591 -36.903  1.00  0.00    -0.025 C 
ATOM     21  C   UNL     1      -2.541   6.959 -35.935  1.00  0.00     0.005 C 
ATOM     22  C   UNL     1      -2.223   5.478 -35.600  1.00  0.00     0.003 C 
ATOM     23  C   UNL     1      -1.925   3.084 -36.517  1.00  0.00     0.010 C 
ATOM     24  C   UNL     1      -0.995   4.970 -37.860  1.00  0.00     0.012 C 
ATOM     25  C   UNL     1      -1.042   5.264 -34.566  1.00  0.00    -0.006 C 
ATOM     26  C   UNL     1      -0.748   2.875 -35.548  1.00  0.00     0.033 C 
ATOM     27  C   UNL     1      -0.899   3.731 -34.279  1.00  0.00     0.120 C 
ATOM     28  C   UNL     1       0.303   5.882 -35.035  1.00  0.00     0.014 C 
ATOM     29  C   UNL     1      -1.403   5.948 -33.217  1.00  0.00     0.014 C 
ENDROOT
BRANCH   1  30
ATOM     30  C   UNL     1      -8.682   7.133 -39.539  1.00  0.00     0.048 C 
ATOM     31  O   UNL     1      -8.744   8.022 -40.430  1.00  0.00    -0.550 OA
ATOM     32  O   UNL     1      -9.074   5.842 -39.871  1.00  0.00    -0.550 OA
ENDBRANCH   1  30
BRANCH  27  33
ATOM     33  O   UNL     1       0.145   3.460 -33.372  1.00  0.00    -0.393 OA
ATOM     34  H   UNL     1       0.266   4.255 -32.791  1.00  0.00     0.210 HD
ENDBRANCH  27  33
TORSDOF 2
ENDMDL
MODEL 5
REMARK VINA RESULT:    -7.114     12.511     17.262
REMARK INTER + INTRA:          -7.649
REMARK INTER:                  -7.728
REMARK INTRA:                   0.079
REMARK UNBOUND:                 0.089
REMARK SMILES CC1(C)CC[C@@]2(C(=O)[O-])CC[C@]3(C)C(=CC[C@@H]4[C@]5(C)CC[C@@H](O)C(C)(C)[C@H]5CC[C@@]43C)[C@@H]2C1
REMARK SMILES IDX 6 1 5 2 10 3 32 4 4 5 11 6 14 7 33 8 2 9 12 10 15 11 1 12
REMARK SMILES IDX 3 13 13 14 30 15 16 16 17 17 29 18 31 19 18 20 28 21 27 22
REMARK SMILES IDX 20 23 19 24 24 25 21 26 22 27 25 28 26 29 7 30 8 31 9 32
REMARK SMILES IDX 23 33
REMARK H PARENT 23 34
REMARK Flexibility Score: inf
ROOT
ATOM      1  C   UNL     1      -1.866   4.530 -37.894  1.00  0.00     0.017 C 
ATOM      2  C   UNL     1      -0.882   3.445 -37.394  1.00  0.00     0.014 C 
ATOM      3  C   UNL     1      -2.990   3.859 -38.698  1.00  0.00     0.014 C 
ATOM      4  C   UNL     1      -2.552   5.181 -36.658  1.00  0.00     0.028 C 
ATOM      5  C   UNL     1       0.199   4.040 -36.475  1.00  0.00     0.007 C 
ATOM      6  C   UNL     1      -3.924   4.893 -39.335  1.00  0.00     0.013 C 
ATOM      7  C   UNL     1      -3.759   6.077 -37.015  1.00  0.00    -0.064 C 
ATOM      8  C   UNL     1      -1.505   5.794 -35.672  1.00  0.00     0.015 C 
ATOM      9  C   UNL     1      -0.388   4.789 -35.249  1.00  0.00    -0.035 C 
ATOM     10  C   UNL     1      -4.431   6.087 -38.410  1.00  0.00    -0.006 C 
ATOM     11  C   UNL     1      -4.375   6.719 -36.005  1.00  0.00    -0.027 C 
ATOM     12  C   UNL     1       0.751   5.579 -34.569  1.00  0.00     0.011 C 
ATOM     13  C   UNL     1      -0.936   3.773 -34.216  1.00  0.00     0.011 C 
ATOM     14  C   UNL     1      -3.991   7.424 -39.080  1.00  0.00     0.017 C 
ATOM     15  C   UNL     1      -6.039   6.056 -38.270  1.00  0.00    -0.020 C 
ATOM     16  C   UNL     1      -5.647   7.498 -36.113  1.00  0.00     0.032 C 
ATOM     17  C   UNL     1      -6.558   7.265 -37.366  1.00  0.00     0.006 C 
ATOM     18  C   UNL     1      -6.489   4.714 -37.600  1.00  0.00     0.008 C 
ATOM     19  C   UNL     1      -6.664   6.161 -39.711  1.00  0.00     0.012 C 
ATOM     20  C   UNL     1      -8.117   7.214 -36.982  1.00  0.00    -0.025 C 
ATOM     21  C   UNL     1      -7.978   4.643 -37.211  1.00  0.00     0.005 C 
ATOM     22  C   UNL     1      -8.407   5.823 -36.299  1.00  0.00     0.003 C 
ATOM     23  C   UNL     1      -8.496   8.384 -35.997  1.00  0.00     0.010 C 
ATOM     24  C   UNL     1      -8.986   7.460 -38.262  1.00  0.00     0.012 C 
ATOM     25  C   UNL     1      -9.828   5.660 -35.619  1.00  0.00    -0.006 C 
ATOM     26  C   UNL     1      -9.895   8.247 -35.374  1.00  0.00     0.033 C 
ATOM     27  C   UNL     1     -10.076   6.887 -34.678  1.00  0.00     0.120 C 
ATOM     28  C   UNL     1     -10.982   5.487 -36.643  1.00  0.00     0.014 C 
ATOM     29  C   UNL     1      -9.832   4.391 -34.722  1.00  0.00     0.014 C 
ENDROOT
BRANCH   1  30
ATOM     30  C   UNL     1      -1.087   5.483 -38.805  1.00  0.00     0.048 C 
ATOM     31  O   UNL     1      -0.636   5.064 -39.905  1.00  0.00    -0.550 OA
ATOM     32  O   UNL     1      -0.788   6.786 -38.428  1.00  0.00    -0.550 OA
ENDBRANCH   1  30
BRANCH  27  33
ATOM     33  O   UNL     1     -11.333   6.819 -34.043  1.00  0.00    -0.393 OA
ATOM     34  H   UNL     1     -11.837   7.645 -34.262  1.00  0.00     0.210 HD
ENDBRANCH  27  33
TORSDOF 2
ENDMDL
MODEL 6
REMARK VINA RESULT:    -7.090      1.485      2.290
REMARK INTER + INTRA:          -7.623
REMARK INTER:                  -7.717
REMARK INTRA:                   0.095
REMARK UNBOUND:                 0.089
REMARK SMILES CC1(C)CC[C@@]2(C(=O)[O-])CC[C@]3(C)C(=CC[C@@H]4[C@]5(C)CC[C@@H](O)C(C)(C)[C@H]5CC[C@@]43C)[C@@H]2C1
REMARK SMILES IDX 6 1 5 2 10 3 32 4 4 5 11 6 14 7 33 8 2 9 12 10 15 11 1 12
REMARK SMILES IDX 3 13 13 14 30 15 16 16 17 17 29 18 31 19 18 20 28 21 27 22
REMARK SMILES IDX 20 23 19 24 24 25 21 26 22 27 25 28 26 29 7 30 8 31 9 32
REMARK SMILES IDX 23 33
REMARK H PARENT 23 34
REMARK Flexibility Score: inf
ROOT
ATOM      1  C   UNL     1     -12.468  17.929 -24.953  1.00  0.00     0.017 C 
ATOM      2  C   UNL     1     -13.336  19.159 -25.314  1.00  0.00     0.014 C 
ATOM      3  C   UNL     1     -13.308  16.944 -24.126  1.00  0.00     0.014 C 
ATOM      4  C   UNL     1     -12.100  17.182 -26.267  1.00  0.00     0.028 C 
ATOM      5  C   UNL     1     -12.589  20.125 -26.249  1.00  0.00     0.007 C 
ATOM      6  C   UNL     1     -12.467  15.768 -23.622  1.00  0.00     0.013 C 
ATOM      7  C   UNL     1     -11.479  15.785 -26.038  1.00  0.00    -0.064 C 
ATOM      8  C   UNL     1     -11.350  18.114 -27.272  1.00  0.00     0.015 C 
ATOM      9  C   UNL     1     -12.103  19.451 -27.560  1.00  0.00    -0.035 C 
ATOM     10  C   UNL     1     -11.506  15.054 -24.673  1.00  0.00    -0.006 C 
ATOM     11  C   UNL     1     -11.085  15.096 -27.124  1.00  0.00    -0.027 C 
ATOM     12  C   UNL     1     -11.133  20.417 -28.274  1.00  0.00     0.011 C 
ATOM     13  C   UNL     1     -13.302  19.204 -28.508  1.00  0.00     0.011 C 
ATOM     14  C   UNL     1     -10.051  15.144 -24.120  1.00  0.00     0.017 C 
ATOM     15  C   UNL     1     -11.918  13.505 -24.863  1.00  0.00    -0.020 C 
ATOM     16  C   UNL     1     -10.614  13.677 -27.134  1.00  0.00     0.032 C 
ATOM     17  C   UNL     1     -10.943  12.776 -25.895  1.00  0.00     0.006 C 
ATOM     18  C   UNL     1     -13.380  13.407 -25.415  1.00  0.00     0.008 C 
ATOM     19  C   UNL     1     -11.836  12.796 -23.459  1.00  0.00     0.012 C 
ATOM     20  C   UNL     1     -11.384  11.291 -26.324  1.00  0.00    -0.025 C 
ATOM     21  C   UNL     1     -13.824  11.996 -25.845  1.00  0.00     0.005 C 
ATOM     22  C   UNL     1     -12.858  11.362 -26.880  1.00  0.00     0.003 C 
ATOM     23  C   UNL     1     -10.422  10.712 -27.428  1.00  0.00     0.010 C 
ATOM     24  C   UNL     1     -11.236  10.322 -25.102  1.00  0.00     0.012 C 
ATOM     25  C   UNL     1     -13.401  10.053 -27.587  1.00  0.00    -0.006 C 
ATOM     26  C   UNL     1     -10.930   9.415 -28.081  1.00  0.00     0.033 C 
ATOM     27  C   UNL     1     -12.349   9.585 -28.650  1.00  0.00     0.120 C 
ATOM     28  C   UNL     1     -13.746   8.914 -26.590  1.00  0.00     0.014 C 
ATOM     29  C   UNL     1     -14.709  10.384 -28.359  1.00  0.00     0.014 C 
ENDROOT
BRANCH   1  30
ATOM     30  C   UNL     1     -11.287  18.421 -24.111  1.00  0.00     0.048 C 
ATOM     31  O   UNL     1     -11.502  18.977 -23.001  1.00  0.00    -0.550 OA
ATOM     32  O   UNL     1      -9.976  18.349 -24.565  1.00  0.00    -0.550 OA
ENDBRANCH   1  30
BRANCH  27  33
ATOM     33  O   UNL     1     -12.759   8.413 -29.316  1.00  0.00    -0.393 OA
ATOM     34  H   UNL     1     -12.331   8.398 -30.211  1.00  0.00     0.210 HD
ENDBRANCH  27  33
TORSDOF 2
ENDMDL
MODEL 7
REMARK VINA RESULT:    -6.961     14.648     18.468
REMARK INTER + INTRA:          -7.483
REMARK INTER:                  -7.559
REMARK INTRA:                   0.076
REMARK UNBOUND:                 0.089
REMARK SMILES CC1(C)CC[C@@]2(C(=O)[O-])CC[C@]3(C)C(=CC[C@@H]4[C@]5(C)CC[C@@H](O)C(C)(C)[C@H]5CC[C@@]43C)[C@@H]2C1
REMARK SMILES IDX 6 1 5 2 10 3 32 4 4 5 11 6 14 7 33 8 2 9 12 10 15 11 1 12
REMARK SMILES IDX 3 13 13 14 30 15 16 16 17 17 29 18 31 19 18 20 28 21 27 22
REMARK SMILES IDX 20 23 19 24 24 25 21 26 22 27 25 28 26 29 7 30 8 31 9 32
REMARK SMILES IDX 23 33
REMARK H PARENT 23 34
REMARK Flexibility Score: inf
ROOT
ATOM      1  C   UNL     1      -2.721   7.246 -36.290  1.00  0.00     0.017 C 
ATOM      2  C   UNL     1      -2.350   5.802 -35.870  1.00  0.00     0.014 C 
ATOM      3  C   UNL     1      -2.440   8.199 -35.119  1.00  0.00     0.014 C 
ATOM      4  C   UNL     1      -1.770   7.685 -37.440  1.00  0.00     0.028 C 
ATOM      5  C   UNL     1      -2.491   4.818 -37.043  1.00  0.00     0.007 C 
ATOM      6  C   UNL     1      -2.912   9.624 -35.424  1.00  0.00     0.013 C 
ATOM      7  C   UNL     1      -1.836   9.195 -37.762  1.00  0.00    -0.064 C 
ATOM      8  C   UNL     1      -1.853   6.714 -38.662  1.00  0.00     0.015 C 
ATOM      9  C   UNL     1      -1.641   5.215 -38.279  1.00  0.00    -0.035 C 
ATOM     10  C   UNL     1      -2.527  10.233 -36.844  1.00  0.00    -0.006 C 
ATOM     11  C   UNL     1      -1.081   9.645 -38.781  1.00  0.00    -0.027 C 
ATOM     12  C   UNL     1      -2.076   4.338 -39.473  1.00  0.00     0.011 C 
ATOM     13  C   UNL     1      -0.143   4.930 -38.009  1.00  0.00     0.011 C 
ATOM     14  C   UNL     1      -3.852  10.619 -37.568  1.00  0.00     0.017 C 
ATOM     15  C   UNL     1      -1.603  11.546 -36.670  1.00  0.00    -0.020 C 
ATOM     16  C   UNL     1      -0.879  11.081 -39.150  1.00  0.00     0.032 C 
ATOM     17  C   UNL     1      -1.234  12.177 -38.089  1.00  0.00     0.006 C 
ATOM     18  C   UNL     1      -0.270  11.166 -35.940  1.00  0.00     0.008 C 
ATOM     19  C   UNL     1      -2.395  12.598 -35.807  1.00  0.00     0.012 C 
ATOM     20  C   UNL     1      -0.146  13.360 -38.051  1.00  0.00    -0.025 C 
ATOM     21  C   UNL     1       0.794  12.279 -35.900  1.00  0.00     0.005 C 
ATOM     22  C   UNL     1       1.138  12.819 -37.314  1.00  0.00     0.003 C 
ATOM     23  C   UNL     1       0.229  13.830 -39.507  1.00  0.00     0.010 C 
ATOM     24  C   UNL     1      -0.763  14.623 -37.359  1.00  0.00     0.012 C 
ATOM     25  C   UNL     1       2.424  13.740 -37.383  1.00  0.00    -0.006 C 
ATOM     26  C   UNL     1       1.451  14.762 -39.566  1.00  0.00     0.033 C 
ATOM     27  C   UNL     1       2.676  14.137 -38.877  1.00  0.00     0.120 C 
ATOM     28  C   UNL     1       2.331  14.993 -36.471  1.00  0.00     0.014 C 
ATOM     29  C   UNL     1       3.667  12.934 -36.910  1.00  0.00     0.014 C 
ENDROOT
BRANCH   1  30
ATOM     30  C   UNL     1      -4.217   7.268 -36.616  1.00  0.00     0.048 C 
ATOM     31  O   UNL     1      -5.058   7.078 -35.696  1.00  0.00    -0.550 OA
ATOM     32  O   UNL     1      -4.688   7.414 -37.914  1.00  0.00    -0.550 OA
ENDBRANCH   1  30
BRANCH  27  33
ATOM     33  O   UNL     1       3.804  14.970 -39.018  1.00  0.00    -0.393 OA
ATOM     34  H   UNL     1       4.547  14.580 -38.489  1.00  0.00     0.210 HD
ENDBRANCH  27  33
TORSDOF 2
ENDMDL
MODEL 8
REMARK VINA RESULT:    -6.840     12.253     16.975
REMARK INTER + INTRA:          -7.352
REMARK INTER:                  -7.431
REMARK INTRA:                   0.079
REMARK UNBOUND:                 0.089
REMARK SMILES CC1(C)CC[C@@]2(C(=O)[O-])CC[C@]3(C)C(=CC[C@@H]4[C@]5(C)CC[C@@H](O)C(C)(C)[C@H]5CC[C@@]43C)[C@@H]2C1
REMARK SMILES IDX 6 1 5 2 10 3 32 4 4 5 11 6 14 7 33 8 2 9 12 10 15 11 1 12
REMARK SMILES IDX 3 13 13 14 30 15 16 16 17 17 29 18 31 19 18 20 28 21 27 22
REMARK SMILES IDX 20 23 19 24 24 25 21 26 22 27 25 28 26 29 7 30 8 31 9 32
REMARK SMILES IDX 23 33
REMARK H PARENT 23 34
REMARK Flexibility Score: inf
ROOT
ATOM      1  C   UNL     1      -3.503   5.144 -37.156  1.00  0.00     0.017 C 
ATOM      2  C   UNL     1      -1.991   4.866 -36.968  1.00  0.00     0.014 C 
ATOM      3  C   UNL     1      -4.076   5.720 -35.853  1.00  0.00     0.014 C 
ATOM      4  C   UNL     1      -3.670   6.258 -38.229  1.00  0.00     0.028 C 
ATOM      5  C   UNL     1      -1.333   4.405 -38.279  1.00  0.00     0.007 C 
ATOM      6  C   UNL     1      -5.596   5.891 -35.930  1.00  0.00     0.013 C 
ATOM      7  C   UNL     1      -5.102   6.834 -38.313  1.00  0.00    -0.064 C 
ATOM      8  C   UNL     1      -3.007   5.858 -39.587  1.00  0.00     0.015 C 
ATOM      9  C   UNL     1      -1.517   5.415 -39.443  1.00  0.00    -0.035 C 
ATOM     10  C   UNL     1      -6.188   6.575 -37.241  1.00  0.00    -0.006 C 
ATOM     11  C   UNL     1      -5.341   7.766 -39.253  1.00  0.00    -0.027 C 
ATOM     12  C   UNL     1      -1.079   4.731 -40.756  1.00  0.00     0.011 C 
ATOM     13  C   UNL     1      -0.603   6.647 -39.228  1.00  0.00     0.011 C 
ATOM     14  C   UNL     1      -7.188   5.569 -37.889  1.00  0.00     0.017 C 
ATOM     15  C   UNL     1      -6.962   7.943 -36.870  1.00  0.00    -0.020 C 
ATOM     16  C   UNL     1      -6.601   8.559 -39.395  1.00  0.00     0.032 C 
ATOM     17  C   UNL     1      -7.581   8.622 -38.175  1.00  0.00     0.006 C 
ATOM     18  C   UNL     1      -5.965   8.957 -36.215  1.00  0.00     0.008 C 
ATOM     19  C   UNL     1      -8.112   7.600 -35.850  1.00  0.00     0.012 C 
ATOM     20  C   UNL     1      -8.190  10.093 -37.960  1.00  0.00    -0.025 C 
ATOM     21  C   UNL     1      -6.520  10.380 -36.008  1.00  0.00     0.005 C 
ATOM     22  C   UNL     1      -7.067  10.998 -37.322  1.00  0.00     0.003 C 
ATOM     23  C   UNL     1      -8.667  10.714 -39.327  1.00  0.00     0.010 C 
ATOM     24  C   UNL     1      -9.482  10.007 -37.077  1.00  0.00     0.012 C 
ATOM     25  C   UNL     1      -7.374  12.550 -37.254  1.00  0.00    -0.006 C 
ATOM     26  C   UNL     1      -9.009  12.211 -39.247  1.00  0.00     0.033 C 
ATOM     27  C   UNL     1      -7.841  13.030 -38.670  1.00  0.00     0.120 C 
ATOM     28  C   UNL     1      -8.409  12.923 -36.158  1.00  0.00     0.014 C 
ATOM     29  C   UNL     1      -6.068  13.324 -36.919  1.00  0.00     0.014 C 
ENDROOT
BRANCH   1  30
ATOM     30  C   UNL     1      -4.188   3.810 -37.467  1.00  0.00     0.048 C 
ATOM     31  O   UNL     1      -4.231   2.911 -36.584  1.00  0.00    -0.550 OA
ATOM     32  O   UNL     1      -4.702   3.519 -38.724  1.00  0.00    -0.550 OA
ENDBRANCH   1  30
BRANCH  27  33
ATOM     33  O   UNL     1      -8.145  14.406 -38.685  1.00  0.00    -0.393 OA
ATOM     34  H   UNL     1      -9.066  14.525 -38.334  1.00  0.00     0.210 HD
ENDBRANCH  27  33
TORSDOF 2
ENDMDL
