MODEL 1
REMARK VINA RESULT:    26.202      0.000      0.000
REMARK INTER + INTRA:          31.210
REMARK INTER:                  31.563
REMARK INTRA:                  -0.353
REMARK UNBOUND:                -0.353
REMARK SMILES Oc1cc(O)c2cc(O)c(-c3ccc(O)c(O)c3)[o+]c2c1.[Cl-]
REMARK SMILES IDX 10 1 19 2 20 3 21 4 2 5 3 6 4 7 6 8 7 9 8 10 11 11 12 12
REMARK SMILES IDX 13 13 14 14 18 15 16 16 15 17 17 19 9 21 1 23 5 25
REMARK H PARENT 15 18 17 20 9 22 1 24 5 26
REMARK Flexibility Score: inf
ROOT
ATOM      1  C   UNL     1      17.716  95.631   8.651  1.00  0.00     0.402 A 
ATOM      2  O   UNL     1      18.380  96.784   8.580  1.00  0.00    -0.202 OA
ATOM      3  C   UNL     1      17.817  97.963   8.825  1.00  0.00     0.368 A 
ATOM      4  C   UNL     1      18.585  99.128   8.733  1.00  0.00     0.162 A 
ATOM      5  C   UNL     1      18.004 100.377   8.992  1.00  0.00     0.128 A 
ATOM      6  C   UNL     1      16.653 100.459   9.343  1.00  0.00     0.093 A 
ATOM      7  C   UNL     1      15.870  99.298   9.437  1.00  0.00     0.136 A 
ATOM      8  C   UNL     1      16.453  98.043   9.177  1.00  0.00     0.125 A 
ATOM      9  C   UNL     1      15.719  96.855   9.248  1.00  0.00     0.078 A 
ATOM     10  C   UNL     1      16.344  95.634   8.974  1.00  0.00     0.223 A 
ENDROOT
BRANCH   1  11
ATOM     11  C   UNL     1      18.454  94.380   8.364  1.00  0.00     0.087 A 
ATOM     12  C   UNL     1      18.543  93.917   7.042  1.00  0.00     0.022 A 
ATOM     13  C   UNL     1      19.252  92.751   6.747  1.00  0.00     0.051 A 
ATOM     14  C   UNL     1      19.895  92.037   7.765  1.00  0.00     0.157 A 
ATOM     15  C   UNL     1      19.120  93.672   9.382  1.00  0.00     0.068 A 
ATOM     16  C   UNL     1      19.832  92.504   9.089  1.00  0.00     0.158 A 
BRANCH  14  17
ATOM     17  O   UNL     1      20.600  90.872   7.468  1.00  0.00    -0.504 OA
ATOM     18  H   UNL     1      20.555  90.056   8.067  1.00  0.00     0.293 HD
ENDBRANCH  14  17
BRANCH  16  19
ATOM     19  O   UNL     1      20.475  91.825  10.124  1.00  0.00    -0.504 OA
ATOM     20  H   UNL     1      20.401  92.121  11.090  1.00  0.00     0.293 HD
ENDBRANCH  16  19
ENDBRANCH   1  11
BRANCH  10  21
ATOM     21  O   UNL     1      15.607  94.451   8.993  1.00  0.00    -0.500 OA
ATOM     22  H   UNL     1      16.004  93.572   8.683  1.00  0.00     0.294 HD
ENDBRANCH  10  21
BRANCH   5  23
ATOM     23  O   UNL     1      18.762 101.543   8.905  1.00  0.00    -0.507 OA
ATOM     24  H   UNL     1      19.775 101.516   8.879  1.00  0.00     0.293 HD
ENDBRANCH   5  23
BRANCH   7  25
ATOM     25  O   UNL     1      14.523  99.394   9.786  1.00  0.00    -0.507 OA
ATOM     26  H   UNL     1      14.142  98.890  10.579  1.00  0.00     0.293 HD
ENDBRANCH   7  25
TORSDOF 6
ENDMDL
