MODEL 1
REMARK VINA RESULT:    -4.296      0.000      0.000
REMARK INTER + INTRA:          -9.507
REMARK INTER:                  -7.811
REMARK INTRA:                  -1.695
REMARK UNBOUND:                -1.695
REMARK SMILES CCCCCCCCCCCCCCCC(=O)[O-]
REMARK SMILES IDX 9 1 10 2 11 3 12 4 13 5 14 6 15 7 16 8 17 9 18 10 8 11 7 12
REMARK SMILES IDX 6 13 5 14 4 15 3 16 2 17 1 18
REMARK H PARENT
REMARK Flexibility Score: inf
ROOT
ATOM      1  C   UNL     1      -5.979  13.832  -2.150  1.00  0.00     0.000 C 
ENDROOT
BRANCH   1   2
ATOM      2  C   UNL     1      -5.299  13.692  -3.517  1.00  0.00     0.000 C 
BRANCH   2   3
ATOM      3  C   UNL     1      -4.488  12.392  -3.598  1.00  0.00     0.000 C 
BRANCH   3   4
ATOM      4  C   UNL     1      -3.814  12.250  -4.971  1.00  0.00     0.000 C 
BRANCH   4   5
ATOM      5  C   UNL     1      -4.825  12.006  -6.103  1.00  0.00     0.000 C 
BRANCH   5   6
ATOM      6  C   UNL     1      -4.222  12.249  -7.498  1.00  0.00     0.006 C 
BRANCH   6   7
ATOM      7  C   UNL     1      -2.688  12.237  -7.476  1.00  0.00     0.053 C 
BRANCH   7   8
ATOM      8  C   UNL     1      -2.118  11.714  -8.759  1.00  0.00     0.041 C 
ATOM      9  O   UNL     1      -2.871  11.499  -9.744  1.00  0.00    -0.550 OA
ATOM     10  O   UNL     1      -0.750  11.499  -8.876  1.00  0.00    -0.550 OA
ENDBRANCH   7   8
ENDBRANCH   6   7
ENDBRANCH   5   6
ENDBRANCH   4   5
ENDBRANCH   3   4
ENDBRANCH   2   3
ENDBRANCH   1   2
BRANCH   1  11
ATOM     11  C   UNL     1      -7.498  13.994  -2.307  1.00  0.00     0.000 C 
BRANCH  11  12
ATOM     12  C   UNL     1      -7.954  13.966  -3.777  1.00  0.00    -0.000 C 
BRANCH  12  13
ATOM     13  C   UNL     1      -9.103  12.984  -4.088  1.00  0.00    -0.000 C 
BRANCH  13  14
ATOM     14  C   UNL     1      -9.281  11.842  -3.069  1.00  0.00    -0.000 C 
BRANCH  14  15
ATOM     15  C   UNL     1      -9.009  10.432  -3.624  1.00  0.00    -0.000 C 
BRANCH  15  16
ATOM     16  C   UNL     1      -7.839  10.375  -4.631  1.00  0.00    -0.000 C 
BRANCH  16  17
ATOM     17  C   UNL     1      -8.249   9.751  -5.973  1.00  0.00    -0.003 C 
ATOM     18  C   UNL     1      -8.457  10.825  -7.037  1.00  0.00     0.004 C 
ENDBRANCH  16  17
ENDBRANCH  15  16
ENDBRANCH  14  15
ENDBRANCH  13  14
ENDBRANCH  12  13
ENDBRANCH  11  12
ENDBRANCH   1  11
TORSDOF 14
ENDMDL
MODEL 2
REMARK VINA RESULT:    -4.272     15.263     17.600
REMARK INTER + INTRA:          -9.464
REMARK INTER:                  -6.960
REMARK INTRA:                  -2.504
REMARK UNBOUND:                -1.695
REMARK SMILES CCCCCCCCCCCCCCCC(=O)[O-]
REMARK SMILES IDX 9 1 10 2 11 3 12 4 13 5 14 6 15 7 16 8 17 9 18 10 8 11 7 12
REMARK SMILES IDX 6 13 5 14 4 15 3 16 2 17 1 18
REMARK H PARENT
REMARK Flexibility Score: inf
ROOT
ATOM      1  C   UNL     1       6.114   1.399  -9.499  1.00  0.00     0.000 C 
ENDROOT
BRANCH   1   2
ATOM      2  C   UNL     1       6.943   1.370 -10.789  1.00  0.00     0.000 C 
BRANCH   2   3
ATOM      3  C   UNL     1       8.444   1.302 -10.478  1.00  0.00     0.000 C 
BRANCH   3   4
ATOM      4  C   UNL     1       8.683   1.037  -8.984  1.00  0.00     0.000 C 
BRANCH   4   5
ATOM      5  C   UNL     1       9.616   2.077  -8.342  1.00  0.00     0.000 C 
BRANCH   5   6
ATOM      6  C   UNL     1       9.697   1.936  -6.812  1.00  0.00     0.006 C 
BRANCH   6   7
ATOM      7  C   UNL     1       9.994   0.495  -6.379  1.00  0.00     0.053 C 
BRANCH   7   8
ATOM      8  C   UNL     1       9.374   0.174  -5.053  1.00  0.00     0.041 C 
ATOM      9  O   UNL     1       9.307  -1.020  -4.659  1.00  0.00    -0.550 OA
ATOM     10  O   UNL     1       8.905   1.196  -4.238  1.00  0.00    -0.550 OA
ENDBRANCH   7   8
ENDBRANCH   6   7
ENDBRANCH   5   6
ENDBRANCH   4   5
ENDBRANCH   3   4
ENDBRANCH   2   3
ENDBRANCH   1   2
BRANCH   1  11
ATOM     11  C   UNL     1       5.118   2.567  -9.514  1.00  0.00     0.000 C 
BRANCH  11  12
ATOM     12  C   UNL     1       5.510   3.677 -10.505  1.00  0.00    -0.000 C 
BRANCH  12  13
ATOM     13  C   UNL     1       6.030   4.979  -9.860  1.00  0.00    -0.000 C 
BRANCH  13  14
ATOM     14  C   UNL     1       7.538   4.995  -9.545  1.00  0.00    -0.000 C 
BRANCH  14  15
ATOM     15  C   UNL     1       7.886   5.153  -8.053  1.00  0.00    -0.000 C 
BRANCH  15  16
ATOM     16  C   UNL     1       6.655   5.129  -7.122  1.00  0.00    -0.000 C 
BRANCH  16  17
ATOM     17  C   UNL     1       6.889   4.287  -5.859  1.00  0.00    -0.003 C 
ATOM     18  C   UNL     1       6.237   2.913  -5.985  1.00  0.00     0.004 C 
ENDBRANCH  16  17
ENDBRANCH  15  16
ENDBRANCH  14  15
ENDBRANCH  13  14
ENDBRANCH  12  13
ENDBRANCH  11  12
ENDBRANCH   1  11
TORSDOF 14
ENDMDL
MODEL 3
REMARK VINA RESULT:    -4.241      1.285      2.002
REMARK INTER + INTRA:          -9.407
REMARK INTER:                  -7.703
REMARK INTRA:                  -1.704
REMARK UNBOUND:                -1.695
REMARK SMILES CCCCCCCCCCCCCCCC(=O)[O-]
REMARK SMILES IDX 9 1 10 2 11 3 12 4 13 5 14 6 15 7 16 8 17 9 18 10 8 11 7 12
REMARK SMILES IDX 6 13 5 14 4 15 3 16 2 17 1 18
REMARK H PARENT
REMARK Flexibility Score: inf
ROOT
ATOM      1  C   UNL     1      -5.316  13.727  -2.520  1.00  0.00     0.000 C 
ENDROOT
BRANCH   1   2
ATOM      2  C   UNL     1      -4.451  12.951  -3.520  1.00  0.00     0.000 C 
BRANCH   2   3
ATOM      3  C   UNL     1      -3.270  13.802  -4.003  1.00  0.00     0.000 C 
BRANCH   3   4
ATOM      4  C   UNL     1      -3.032  13.607  -5.508  1.00  0.00     0.000 C 
BRANCH   4   5
ATOM      5  C   UNL     1      -3.911  12.497  -6.106  1.00  0.00     0.000 C 
BRANCH   5   6
ATOM      6  C   UNL     1      -3.087  11.396  -6.796  1.00  0.00     0.006 C 
BRANCH   6   7
ATOM      7  C   UNL     1      -2.561  11.840  -8.167  1.00  0.00     0.053 C 
BRANCH   7   8
ATOM      8  C   UNL     1      -1.808  10.743  -8.856  1.00  0.00     0.041 C 
ATOM      9  O   UNL     1      -1.561  10.822 -10.087  1.00  0.00    -0.550 OA
ATOM     10  O   UNL     1      -1.349   9.652  -8.129  1.00  0.00    -0.550 OA
ENDBRANCH   7   8
ENDBRANCH   6   7
ENDBRANCH   5   6
ENDBRANCH   4   5
ENDBRANCH   3   4
ENDBRANCH   2   3
ENDBRANCH   1   2
BRANCH   1  11
ATOM     11  C   UNL     1      -6.771  13.810  -3.002  1.00  0.00     0.000 C 
BRANCH  11  12
ATOM     12  C   UNL     1      -6.887  14.038  -4.520  1.00  0.00    -0.000 C 
BRANCH  12  13
ATOM     13  C   UNL     1      -7.925  13.151  -5.239  1.00  0.00    -0.000 C 
BRANCH  13  14
ATOM     14  C   UNL     1      -7.361  11.861  -5.864  1.00  0.00    -0.000 C 
BRANCH  14  15
ATOM     15  C   UNL     1      -7.322  10.646  -4.920  1.00  0.00    -0.000 C 
BRANCH  15  16
ATOM     16  C   UNL     1      -8.710  10.022  -4.653  1.00  0.00    -0.000 C 
BRANCH  16  17
ATOM     17  C   UNL     1      -9.025   9.909  -3.154  1.00  0.00    -0.003 C 
ATOM     18  C   UNL     1      -9.759  11.149  -2.652  1.00  0.00     0.004 C 
ENDBRANCH  16  17
ENDBRANCH  15  16
ENDBRANCH  14  15
ENDBRANCH  13  14
ENDBRANCH  12  13
ENDBRANCH  11  12
ENDBRANCH   1  11
TORSDOF 14
ENDMDL
MODEL 4
REMARK VINA RESULT:    -4.125     15.253     17.718
REMARK INTER + INTRA:          -9.197
REMARK INTER:                  -7.180
REMARK INTRA:                  -2.017
REMARK UNBOUND:                -1.695
REMARK SMILES CCCCCCCCCCCCCCCC(=O)[O-]
REMARK SMILES IDX 9 1 10 2 11 3 12 4 13 5 14 6 15 7 16 8 17 9 18 10 8 11 7 12
REMARK SMILES IDX 6 13 5 14 4 15 3 16 2 17 1 18
REMARK H PARENT
REMARK Flexibility Score: inf
ROOT
ATOM      1  C   UNL     1       5.572   3.617  -8.356  1.00  0.00     0.000 C 
ENDROOT
BRANCH   1   2
ATOM      2  C   UNL     1       6.333   2.902  -7.234  1.00  0.00     0.000 C 
BRANCH   2   3
ATOM      3  C   UNL     1       5.873   3.394  -5.855  1.00  0.00     0.000 C 
BRANCH   3   4
ATOM      4  C   UNL     1       6.971   4.225  -5.174  1.00  0.00     0.000 C 
BRANCH   4   5
ATOM      5  C   UNL     1       7.980   3.354  -4.408  1.00  0.00     0.000 C 
BRANCH   5   6
ATOM      6  C   UNL     1       9.037   2.721  -5.330  1.00  0.00     0.006 C 
BRANCH   6   7
ATOM      7  C   UNL     1       9.693   1.487  -4.696  1.00  0.00     0.053 C 
BRANCH   7   8
ATOM      8  C   UNL     1       8.934   0.233  -5.007  1.00  0.00     0.041 C 
ATOM      9  O   UNL     1       9.432  -0.891  -4.734  1.00  0.00    -0.550 OA
ATOM     10  O   UNL     1       7.664   0.307  -5.563  1.00  0.00    -0.550 OA
ENDBRANCH   7   8
ENDBRANCH   6   7
ENDBRANCH   5   6
ENDBRANCH   4   5
ENDBRANCH   3   4
ENDBRANCH   2   3
ENDBRANCH   1   2
BRANCH   1  11
ATOM     11  C   UNL     1       6.544   4.234  -9.371  1.00  0.00     0.000 C 
BRANCH  11  12
ATOM     12  C   UNL     1       7.756   4.910  -8.706  1.00  0.00    -0.000 C 
BRANCH  12  13
ATOM     13  C   UNL     1       9.046   4.925  -9.553  1.00  0.00    -0.000 C 
BRANCH  13  14
ATOM     14  C   UNL     1       9.561   3.539  -9.984  1.00  0.00    -0.000 C 
BRANCH  14  15
ATOM     15  C   UNL     1       9.759   2.535  -8.833  1.00  0.00    -0.000 C 
BRANCH  15  16
ATOM     16  C   UNL     1       9.023   1.194  -9.045  1.00  0.00    -0.000 C 
BRANCH  16  17
ATOM     17  C   UNL     1       8.321   1.118 -10.409  1.00  0.00    -0.003 C 
ATOM     18  C   UNL     1       6.885   0.625 -10.261  1.00  0.00     0.004 C 
ENDBRANCH  16  17
ENDBRANCH  15  16
ENDBRANCH  14  15
ENDBRANCH  13  14
ENDBRANCH  12  13
ENDBRANCH  11  12
ENDBRANCH   1  11
TORSDOF 14
ENDMDL
MODEL 5
REMARK VINA RESULT:    -4.114     14.665     16.738
REMARK INTER + INTRA:          -9.177
REMARK INTER:                  -7.444
REMARK INTRA:                  -1.733
REMARK UNBOUND:                -1.695
REMARK SMILES CCCCCCCCCCCCCCCC(=O)[O-]
REMARK SMILES IDX 9 1 10 2 11 3 12 4 13 5 14 6 15 7 16 8 17 9 18 10 8 11 7 12
REMARK SMILES IDX 6 13 5 14 4 15 3 16 2 17 1 18
REMARK H PARENT
REMARK Flexibility Score: inf
ROOT
ATOM      1  C   UNL     1       4.624   3.220  -9.502  1.00  0.00     0.000 C 
ENDROOT
BRANCH   1   2
ATOM      2  C   UNL     1       4.821   1.881 -10.224  1.00  0.00     0.000 C 
BRANCH   2   3
ATOM      3  C   UNL     1       5.919   1.048  -9.550  1.00  0.00     0.000 C 
BRANCH   3   4
ATOM      4  C   UNL     1       6.756   1.913  -8.595  1.00  0.00     0.000 C 
BRANCH   4   5
ATOM      5  C   UNL     1       8.194   1.394  -8.437  1.00  0.00     0.000 C 
BRANCH   5   6
ATOM      6  C   UNL     1       8.881   1.931  -7.168  1.00  0.00     0.006 C 
BRANCH   6   7
ATOM      7  C   UNL     1       9.768   0.873  -6.499  1.00  0.00     0.053 C 
BRANCH   7   8
ATOM      8  C   UNL     1       9.241   0.475  -5.154  1.00  0.00     0.041 C 
ATOM      9  O   UNL     1       8.682   1.328  -4.416  1.00  0.00    -0.550 OA
ATOM     10  O   UNL     1       9.334  -0.846  -4.733  1.00  0.00    -0.550 OA
ENDBRANCH   7   8
ENDBRANCH   6   7
ENDBRANCH   5   6
ENDBRANCH   4   5
ENDBRANCH   3   4
ENDBRANCH   2   3
ENDBRANCH   1   2
BRANCH   1  11
ATOM     11  C   UNL     1       4.587   4.382 -10.504  1.00  0.00     0.000 C 
BRANCH  11  12
ATOM     12  C   UNL     1       5.985   4.791 -11.000  1.00  0.00    -0.000 C 
BRANCH  12  13
ATOM     13  C   UNL     1       6.537   6.100 -10.398  1.00  0.00    -0.000 C 
BRANCH  13  14
ATOM     14  C   UNL     1       6.176   6.343  -8.920  1.00  0.00    -0.000 C 
BRANCH  14  15
ATOM     15  C   UNL     1       6.958   5.481  -7.912  1.00  0.00    -0.000 C 
BRANCH  15  16
ATOM     16  C   UNL     1       6.484   5.651  -6.451  1.00  0.00    -0.000 C 
BRANCH  16  17
ATOM     17  C   UNL     1       6.885   4.466  -5.561  1.00  0.00    -0.003 C 
ATOM     18  C   UNL     1       5.767   3.431  -5.488  1.00  0.00     0.004 C 
ENDBRANCH  16  17
ENDBRANCH  15  16
ENDBRANCH  14  15
ENDBRANCH  13  14
ENDBRANCH  12  13
ENDBRANCH  11  12
ENDBRANCH   1  11
TORSDOF 14
ENDMDL
MODEL 6
REMARK VINA RESULT:    -4.056      3.285      6.150
REMARK INTER + INTRA:          -9.071
REMARK INTER:                  -7.934
REMARK INTRA:                  -1.137
REMARK UNBOUND:                -1.695
REMARK SMILES CCCCCCCCCCCCCCCC(=O)[O-]
REMARK SMILES IDX 9 1 10 2 11 3 12 4 13 5 14 6 15 7 16 8 17 9 18 10 8 11 7 12
REMARK SMILES IDX 6 13 5 14 4 15 3 16 2 17 1 18
REMARK H PARENT
REMARK Flexibility Score: inf
ROOT
ATOM      1  C   UNL     1      -4.872  12.762  -3.352  1.00  0.00     0.000 C 
ENDROOT
BRANCH   1   2
ATOM      2  C   UNL     1      -6.148  12.558  -4.177  1.00  0.00     0.000 C 
BRANCH   2   3
ATOM      3  C   UNL     1      -5.866  11.713  -5.427  1.00  0.00     0.000 C 
BRANCH   3   4
ATOM      4  C   UNL     1      -6.087  12.535  -6.706  1.00  0.00     0.000 C 
BRANCH   4   5
ATOM      5  C   UNL     1      -7.214  11.968  -7.584  1.00  0.00     0.000 C 
BRANCH   5   6
ATOM      6  C   UNL     1      -8.403  11.448  -6.759  1.00  0.00     0.006 C 
BRANCH   6   7
ATOM      7  C   UNL     1      -8.854  10.052  -7.209  1.00  0.00     0.053 C 
BRANCH   7   8
ATOM      8  C   UNL     1      -8.575   9.014  -6.165  1.00  0.00     0.041 C 
ATOM      9  O   UNL     1      -8.469   7.803  -6.490  1.00  0.00    -0.550 OA
ATOM     10  O   UNL     1      -8.397   9.391  -4.840  1.00  0.00    -0.550 OA
ENDBRANCH   7   8
ENDBRANCH   6   7
ENDBRANCH   5   6
ENDBRANCH   4   5
ENDBRANCH   3   4
ENDBRANCH   2   3
ENDBRANCH   1   2
BRANCH   1  11
ATOM     11  C   UNL     1      -3.622  12.635  -4.234  1.00  0.00     0.000 C 
BRANCH  11  12
ATOM     12  C   UNL     1      -3.055  13.998  -4.670  1.00  0.00    -0.000 C 
BRANCH  12  13
ATOM     13  C   UNL     1      -2.268  13.987  -5.997  1.00  0.00    -0.000 C 
BRANCH  13  14
ATOM     14  C   UNL     1      -2.547  12.780  -6.912  1.00  0.00    -0.000 C 
BRANCH  14  15
ATOM     15  C   UNL     1      -1.496  12.543  -8.011  1.00  0.00    -0.000 C 
BRANCH  15  16
ATOM     16  C   UNL     1      -2.034  11.754  -9.226  1.00  0.00    -0.000 C 
BRANCH  16  17
ATOM     17  C   UNL     1      -1.777  10.245  -9.107  1.00  0.00    -0.003 C 
ATOM     18  C   UNL     1      -2.058   9.534 -10.428  1.00  0.00     0.004 C 
ENDBRANCH  16  17
ENDBRANCH  15  16
ENDBRANCH  14  15
ENDBRANCH  13  14
ENDBRANCH  12  13
ENDBRANCH  11  12
ENDBRANCH   1  11
TORSDOF 14
ENDMDL
MODEL 7
REMARK VINA RESULT:    -3.985      0.842      1.569
REMARK INTER + INTRA:          -8.942
REMARK INTER:                  -7.070
REMARK INTRA:                  -1.872
REMARK UNBOUND:                -1.695
REMARK SMILES CCCCCCCCCCCCCCCC(=O)[O-]
REMARK SMILES IDX 9 1 10 2 11 3 12 4 13 5 14 6 15 7 16 8 17 9 18 10 8 11 7 12
REMARK SMILES IDX 6 13 5 14 4 15 3 16 2 17 1 18
REMARK H PARENT
REMARK Flexibility Score: inf
ROOT
ATOM      1  C   UNL     1      -6.603  13.786  -2.842  1.00  0.00     0.000 C 
ENDROOT
BRANCH   1   2
ATOM      2  C   UNL     1      -6.239  13.642  -4.325  1.00  0.00     0.000 C 
BRANCH   2   3
ATOM      3  C   UNL     1      -4.761  13.977  -4.565  1.00  0.00     0.000 C 
BRANCH   3   4
ATOM      4  C   UNL     1      -3.930  12.697  -4.743  1.00  0.00     0.000 C 
BRANCH   4   5
ATOM      5  C   UNL     1      -4.493  11.776  -5.838  1.00  0.00     0.000 C 
BRANCH   5   6
ATOM      6  C   UNL     1      -4.044  12.192  -7.250  1.00  0.00     0.006 C 
BRANCH   6   7
ATOM      7  C   UNL     1      -2.519  12.142  -7.411  1.00  0.00     0.053 C 
BRANCH   7   8
ATOM      8  C   UNL     1      -2.119  11.707  -8.788  1.00  0.00     0.041 C 
ATOM      9  O   UNL     1      -0.921  11.406  -9.033  1.00  0.00    -0.550 OA
ATOM     10  O   UNL     1      -3.076  11.598  -9.789  1.00  0.00    -0.550 OA
ENDBRANCH   7   8
ENDBRANCH   6   7
ENDBRANCH   5   6
ENDBRANCH   4   5
ENDBRANCH   3   4
ENDBRANCH   2   3
ENDBRANCH   1   2
BRANCH   1  11
ATOM     11  C   UNL     1      -8.072  13.415  -2.600  1.00  0.00     0.000 C 
BRANCH  11  12
ATOM     12  C   UNL     1      -8.776  12.896  -3.866  1.00  0.00    -0.000 C 
BRANCH  12  13
ATOM     13  C   UNL     1      -9.492  11.538  -3.708  1.00  0.00    -0.000 C 
BRANCH  13  14
ATOM     14  C   UNL     1      -8.618  10.301  -3.987  1.00  0.00    -0.000 C 
BRANCH  14  15
ATOM     15  C   UNL     1      -7.719  10.411  -5.232  1.00  0.00    -0.000 C 
BRANCH  15  16
ATOM     16  C   UNL     1      -8.505  10.546  -6.555  1.00  0.00    -0.000 C 
BRANCH  16  17
ATOM     17  C   UNL     1      -7.753  11.379  -7.603  1.00  0.00    -0.003 C 
ATOM     18  C   UNL     1      -7.966  12.872  -7.374  1.00  0.00     0.004 C 
ENDBRANCH  16  17
ENDBRANCH  15  16
ENDBRANCH  14  15
ENDBRANCH  13  14
ENDBRANCH  12  13
ENDBRANCH  11  12
ENDBRANCH   1  11
TORSDOF 14
ENDMDL
MODEL 8
REMARK VINA RESULT:    -3.984      2.353      4.721
REMARK INTER + INTRA:          -8.940
REMARK INTER:                  -6.587
REMARK INTRA:                  -2.353
REMARK UNBOUND:                -1.695
REMARK SMILES CCCCCCCCCCCCCCCC(=O)[O-]
REMARK SMILES IDX 9 1 10 2 11 3 12 4 13 5 14 6 15 7 16 8 17 9 18 10 8 11 7 12
REMARK SMILES IDX 6 13 5 14 4 15 3 16 2 17 1 18
REMARK H PARENT
REMARK Flexibility Score: inf
ROOT
ATOM      1  C   UNL     1      -8.878  12.250  -3.252  1.00  0.00     0.000 C 
ENDROOT
BRANCH   1   2
ATOM      2  C   UNL     1      -8.884  10.809  -3.777  1.00  0.00     0.000 C 
BRANCH   2   3
ATOM      3  C   UNL     1      -7.574  10.482  -4.506  1.00  0.00     0.000 C 
BRANCH   3   4
ATOM      4  C   UNL     1      -7.835  10.155  -5.984  1.00  0.00     0.000 C 
BRANCH   4   5
ATOM      5  C   UNL     1      -9.334  10.111  -6.323  1.00  0.00     0.000 C 
BRANCH   5   6
ATOM      6  C   UNL     1      -9.722  11.114  -7.424  1.00  0.00     0.006 C 
BRANCH   6   7
ATOM      7  C   UNL     1      -8.531  11.973  -7.869  1.00  0.00     0.053 C 
BRANCH   7   8
ATOM      8  C   UNL     1      -8.207  11.765  -9.318  1.00  0.00     0.041 C 
ATOM      9  O   UNL     1      -7.551  12.633  -9.949  1.00  0.00    -0.550 OA
ATOM     10  O   UNL     1      -8.599  10.596  -9.958  1.00  0.00    -0.550 OA
ENDBRANCH   7   8
ENDBRANCH   6   7
ENDBRANCH   5   6
ENDBRANCH   4   5
ENDBRANCH   3   4
ENDBRANCH   2   3
ENDBRANCH   1   2
BRANCH   1  11
ATOM     11  C   UNL     1      -8.514  13.238  -4.369  1.00  0.00     0.000 C 
BRANCH  11  12
ATOM     12  C   UNL     1      -7.307  14.125  -4.016  1.00  0.00    -0.000 C 
BRANCH  12  13
ATOM     13  C   UNL     1      -6.696  13.874  -2.621  1.00  0.00    -0.000 C 
BRANCH  13  14
ATOM     14  C   UNL     1      -5.162  13.739  -2.594  1.00  0.00    -0.000 C 
BRANCH  14  15
ATOM     15  C   UNL     1      -4.612  12.461  -3.254  1.00  0.00    -0.000 C 
BRANCH  15  16
ATOM     16  C   UNL     1      -3.728  12.732  -4.491  1.00  0.00    -0.000 C 
BRANCH  16  17
ATOM     17  C   UNL     1      -4.111  11.855  -5.692  1.00  0.00    -0.003 C 
ATOM     18  C   UNL     1      -5.081  12.583  -6.617  1.00  0.00     0.004 C 
ENDBRANCH  16  17
ENDBRANCH  15  16
ENDBRANCH  14  15
ENDBRANCH  13  14
ENDBRANCH  12  13
ENDBRANCH  11  12
ENDBRANCH   1  11
TORSDOF 14
ENDMDL
MODEL 9
REMARK VINA RESULT:    -3.948      2.148      4.654
REMARK INTER + INTRA:          -8.875
REMARK INTER:                  -6.593
REMARK INTRA:                  -2.282
REMARK UNBOUND:                -1.695
REMARK SMILES CCCCCCCCCCCCCCCC(=O)[O-]
REMARK SMILES IDX 9 1 10 2 11 3 12 4 13 5 14 6 15 7 16 8 17 9 18 10 8 11 7 12
REMARK SMILES IDX 6 13 5 14 4 15 3 16 2 17 1 18
REMARK H PARENT
REMARK Flexibility Score: inf
ROOT
ATOM      1  C   UNL     1      -7.601  10.829  -4.596  1.00  0.00     0.000 C 
ENDROOT
BRANCH   1   2
ATOM      2  C   UNL     1      -8.649  11.939  -4.455  1.00  0.00     0.000 C 
BRANCH   2   3
ATOM      3  C   UNL     1      -8.567  12.602  -3.074  1.00  0.00     0.000 C 
BRANCH   3   4
ATOM      4  C   UNL     1      -7.681  13.856  -3.118  1.00  0.00     0.000 C 
BRANCH   4   5
ATOM      5  C   UNL     1      -6.508  13.785  -2.127  1.00  0.00     0.000 C 
BRANCH   5   6
ATOM      6  C   UNL     1      -5.140  13.923  -2.817  1.00  0.00     0.006 C 
BRANCH   6   7
ATOM      7  C   UNL     1      -4.617  12.579  -3.338  1.00  0.00     0.053 C 
BRANCH   7   8
ATOM      8  C   UNL     1      -3.592  12.761  -4.416  1.00  0.00     0.041 C 
ATOM      9  O   UNL     1      -2.814  13.751  -4.387  1.00  0.00    -0.550 OA
ATOM     10  O   UNL     1      -3.472  11.819  -5.430  1.00  0.00    -0.550 OA
ENDBRANCH   7   8
ENDBRANCH   6   7
ENDBRANCH   5   6
ENDBRANCH   4   5
ENDBRANCH   3   4
ENDBRANCH   2   3
ENDBRANCH   1   2
BRANCH   1  11
ATOM     11  C   UNL     1      -7.870   9.976  -5.844  1.00  0.00     0.000 C 
BRANCH  11  12
ATOM     12  C   UNL     1      -9.258  10.233  -6.458  1.00  0.00    -0.000 C 
BRANCH  12  13
ATOM     13  C   UNL     1      -9.246  10.789  -7.897  1.00  0.00    -0.000 C 
BRANCH  13  14
ATOM     14  C   UNL     1      -9.566  12.291  -8.019  1.00  0.00    -0.000 C 
BRANCH  14  15
ATOM     15  C   UNL     1      -8.347  13.194  -8.279  1.00  0.00    -0.000 C 
BRANCH  15  16
ATOM     16  C   UNL     1      -7.079  12.420  -8.704  1.00  0.00    -0.000 C 
BRANCH  16  17
ATOM     17  C   UNL     1      -5.940  12.552  -7.682  1.00  0.00    -0.003 C 
ATOM     18  C   UNL     1      -6.272  13.597  -6.621  1.00  0.00     0.004 C 
ENDBRANCH  16  17
ENDBRANCH  15  16
ENDBRANCH  14  15
ENDBRANCH  13  14
ENDBRANCH  12  13
ENDBRANCH  11  12
ENDBRANCH   1  11
TORSDOF 14
ENDMDL
