MODEL 1
REMARK VINA RESULT:    -3.967      0.000      0.000
REMARK INTER + INTRA:          -8.561
REMARK INTER:                  -6.749
REMARK INTRA:                  -1.811
REMARK UNBOUND:                -1.811
REMARK SMILES CCCCCCCCCCCCCC(=O)[O-]
REMARK SMILES IDX 8 1 9 2 10 3 11 4 12 5 13 6 14 7 15 8 16 9 7 10 6 11 5 12
REMARK SMILES IDX 4 13 3 14 2 15 1 16
REMARK H PARENT
REMARK Flexibility Score: inf
ROOT
ATOM      1  C   UNL     1      97.591   3.313  26.526  1.00  0.00     0.000 C 
ENDROOT
BRANCH   1   2
ATOM      2  C   UNL     1      97.050   2.604  25.278  1.00  0.00     0.000 C 
BRANCH   2   3
ATOM      3  C   UNL     1      96.092   3.515  24.500  1.00  0.00     0.000 C 
BRANCH   3   4
ATOM      4  C   UNL     1      95.716   4.752  25.329  1.00  0.00     0.000 C 
BRANCH   4   5
ATOM      5  C   UNL     1      95.571   6.023  24.471  1.00  0.00     0.006 C 
BRANCH   5   6
ATOM      6  C   UNL     1      96.905   6.629  24.008  1.00  0.00     0.053 C 
BRANCH   6   7
ATOM      7  C   UNL     1      97.115   6.466  22.534  1.00  0.00     0.041 C 
ATOM      8  O   UNL     1      96.175   6.057  21.802  1.00  0.00    -0.550 OA
ATOM      9  O   UNL     1      98.358   6.734  21.974  1.00  0.00    -0.550 OA
ENDBRANCH   6   7
ENDBRANCH   5   6
ENDBRANCH   4   5
ENDBRANCH   3   4
ENDBRANCH   2   3
ENDBRANCH   1   2
BRANCH   1  10
ATOM     10  C   UNL     1      99.121   3.405  26.487  1.00  0.00     0.000 C 
BRANCH  10  11
ATOM     11  C   UNL     1      99.582   4.489  25.501  1.00  0.00    -0.000 C 
BRANCH  11  12
ATOM     12  C   UNL     1     100.677   3.989  24.546  1.00  0.00    -0.000 C 
BRANCH  12  13
ATOM     13  C   UNL     1     100.118   3.108  23.414  1.00  0.00    -0.000 C 
BRANCH  13  14
ATOM     14  C   UNL     1     100.752   1.701  23.406  1.00  0.00    -0.000 C 
BRANCH  14  15
ATOM     15  C   UNL     1      99.740   0.569  23.654  1.00  0.00    -0.003 C 
ATOM     16  C   UNL     1      99.774   0.036  25.083  1.00  0.00     0.004 C 
ENDBRANCH  14  15
ENDBRANCH  13  14
ENDBRANCH  12  13
ENDBRANCH  11  12
ENDBRANCH  10  11
ENDBRANCH   1  10
TORSDOF 12
ENDMDL
MODEL 2
REMARK VINA RESULT:    -3.967      3.067      5.641
REMARK INTER + INTRA:          -8.561
REMARK INTER:                  -6.513
REMARK INTRA:                  -2.048
REMARK UNBOUND:                -1.811
REMARK SMILES CCCCCCCCCCCCCC(=O)[O-]
REMARK SMILES IDX 8 1 9 2 10 3 11 4 12 5 13 6 14 7 15 8 16 9 7 10 6 11 5 12
REMARK SMILES IDX 4 13 3 14 2 15 1 16
REMARK H PARENT
REMARK Flexibility Score: inf
ROOT
ATOM      1  C   UNL     1      98.416   5.578  23.382  1.00  0.00     0.000 C 
ENDROOT
BRANCH   1   2
ATOM      2  C   UNL     1      99.448   4.707  22.654  1.00  0.00     0.000 C 
BRANCH   2   3
ATOM      3  C   UNL     1      99.656   3.374  23.383  1.00  0.00     0.000 C 
BRANCH   3   4
ATOM      4  C   UNL     1     100.974   3.379  24.171  1.00  0.00     0.000 C 
BRANCH   4   5
ATOM      5  C   UNL     1     101.147   2.129  25.054  1.00  0.00     0.006 C 
BRANCH   5   6
ATOM      6  C   UNL     1      99.887   1.257  25.169  1.00  0.00     0.053 C 
BRANCH   6   7
ATOM      7  C   UNL     1     100.083  -0.097  24.559  1.00  0.00     0.041 C 
ATOM      8  O   UNL     1     100.024  -1.130  25.278  1.00  0.00    -0.550 OA
ATOM      9  O   UNL     1     100.364  -0.216  23.204  1.00  0.00    -0.550 OA
ENDBRANCH   6   7
ENDBRANCH   5   6
ENDBRANCH   4   5
ENDBRANCH   3   4
ENDBRANCH   2   3
ENDBRANCH   1   2
BRANCH   1  10
ATOM     10  C   UNL     1      96.997   5.289  22.877  1.00  0.00     0.000 C 
BRANCH  10  11
ATOM     11  C   UNL     1      96.096   4.799  24.019  1.00  0.00    -0.000 C 
BRANCH  11  12
ATOM     12  C   UNL     1      96.191   3.280  24.235  1.00  0.00    -0.000 C 
BRANCH  12  13
ATOM     13  C   UNL     1      96.730   2.914  25.629  1.00  0.00    -0.000 C 
BRANCH  13  14
ATOM     14  C   UNL     1      97.142   4.162  26.439  1.00  0.00    -0.000 C 
BRANCH  14  15
ATOM     15  C   UNL     1      98.532   4.043  27.088  1.00  0.00    -0.003 C 
ATOM     16  C   UNL     1      99.386   5.295  26.910  1.00  0.00     0.004 C 
ENDBRANCH  14  15
ENDBRANCH  13  14
ENDBRANCH  12  13
ENDBRANCH  11  12
ENDBRANCH  10  11
ENDBRANCH   1  10
TORSDOF 12
ENDMDL
MODEL 3
REMARK VINA RESULT:    -3.951      1.577      3.170
REMARK INTER + INTRA:          -8.534
REMARK INTER:                  -6.956
REMARK INTRA:                  -1.578
REMARK UNBOUND:                -1.811
REMARK SMILES CCCCCCCCCCCCCC(=O)[O-]
REMARK SMILES IDX 8 1 9 2 10 3 11 4 12 5 13 6 14 7 15 8 16 9 7 10 6 11 5 12
REMARK SMILES IDX 4 13 3 14 2 15 1 16
REMARK H PARENT
REMARK Flexibility Score: inf
ROOT
ATOM      1  C   UNL     1      96.053   4.015  23.874  1.00  0.00     0.000 C 
ENDROOT
BRANCH   1   2
ATOM      2  C   UNL     1      95.831   4.815  25.164  1.00  0.00     0.000 C 
BRANCH   2   3
ATOM      3  C   UNL     1      95.619   6.303  24.860  1.00  0.00     0.000 C 
BRANCH   3   4
ATOM      4  C   UNL     1      94.919   6.493  23.506  1.00  0.00     0.000 C 
BRANCH   4   5
ATOM      5  C   UNL     1      95.730   7.367  22.532  1.00  0.00     0.006 C 
BRANCH   5   6
ATOM      6  C   UNL     1      95.847   6.791  21.112  1.00  0.00     0.053 C 
BRANCH   6   7
ATOM      7  C   UNL     1      97.072   7.283  20.405  1.00  0.00     0.041 C 
ATOM      8  O   UNL     1      97.815   8.142  20.949  1.00  0.00    -0.550 OA
ATOM      9  O   UNL     1      97.376   6.816  19.132  1.00  0.00    -0.550 OA
ENDBRANCH   6   7
ENDBRANCH   5   6
ENDBRANCH   4   5
ENDBRANCH   3   4
ENDBRANCH   2   3
ENDBRANCH   1   2
BRANCH   1  10
ATOM     10  C   UNL     1      96.240   2.524  24.176  1.00  0.00     0.000 C 
BRANCH  10  11
ATOM     11  C   UNL     1      97.205   2.318  25.353  1.00  0.00    -0.000 C 
BRANCH  11  12
ATOM     12  C   UNL     1      98.627   1.957  24.894  1.00  0.00    -0.000 C 
BRANCH  12  13
ATOM     13  C   UNL     1      99.700   2.850  25.541  1.00  0.00    -0.000 C 
BRANCH  13  14
ATOM     14  C   UNL     1      99.915   4.162  24.757  1.00  0.00    -0.000 C 
BRANCH  14  15
ATOM     15  C   UNL     1      99.762   4.000  23.235  1.00  0.00    -0.003 C 
ATOM     16  C   UNL     1      99.151   5.226  22.560  1.00  0.00     0.004 C 
ENDBRANCH  14  15
ENDBRANCH  13  14
ENDBRANCH  12  13
ENDBRANCH  11  12
ENDBRANCH  10  11
ENDBRANCH   1  10
TORSDOF 12
ENDMDL
MODEL 4
REMARK VINA RESULT:    -3.944      1.804      2.928
REMARK INTER + INTRA:          -8.522
REMARK INTER:                  -6.679
REMARK INTRA:                  -1.843
REMARK UNBOUND:                -1.811
REMARK SMILES CCCCCCCCCCCCCC(=O)[O-]
REMARK SMILES IDX 8 1 9 2 10 3 11 4 12 5 13 6 14 7 15 8 16 9 7 10 6 11 5 12
REMARK SMILES IDX 4 13 3 14 2 15 1 16
REMARK H PARENT
REMARK Flexibility Score: inf
ROOT
ATOM      1  C   UNL     1      99.893   4.795  26.390  1.00  0.00     0.000 C 
ENDROOT
BRANCH   1   2
ATOM      2  C   UNL     1      99.211   3.483  26.797  1.00  0.00     0.000 C 
BRANCH   2   3
ATOM      3  C   UNL     1      97.691   3.569  26.603  1.00  0.00     0.000 C 
BRANCH   3   4
ATOM      4  C   UNL     1      97.228   2.630  25.479  1.00  0.00     0.000 C 
BRANCH   4   5
ATOM      5  C   UNL     1      96.506   3.373  24.340  1.00  0.00     0.006 C 
BRANCH   5   6
ATOM      6  C   UNL     1      96.742   4.892  24.326  1.00  0.00     0.053 C 
BRANCH   6   7
ATOM      7  C   UNL     1      95.490   5.658  24.624  1.00  0.00     0.041 C 
ATOM      8  O   UNL     1      95.025   5.680  25.794  1.00  0.00    -0.550 OA
ATOM      9  O   UNL     1      94.819   6.320  23.603  1.00  0.00    -0.550 OA
ENDBRANCH   6   7
ENDBRANCH   5   6
ENDBRANCH   4   5
ENDBRANCH   3   4
ENDBRANCH   2   3
ENDBRANCH   1   2
BRANCH   1  10
ATOM     10  C   UNL     1     101.417   4.687  26.523  1.00  0.00     0.000 C 
BRANCH  10  11
ATOM     11  C   UNL     1     101.848   3.230  26.742  1.00  0.00    -0.000 C 
BRANCH  11  12
ATOM     12  C   UNL     1     102.862   2.751  25.692  1.00  0.00    -0.000 C 
BRANCH  12  13
ATOM     13  C   UNL     1     102.306   1.622  24.806  1.00  0.00    -0.000 C 
BRANCH  13  14
ATOM     14  C   UNL     1     101.803   2.147  23.444  1.00  0.00    -0.000 C 
BRANCH  14  15
ATOM     15  C   UNL     1     100.301   2.481  23.431  1.00  0.00    -0.003 C 
ATOM     16  C   UNL     1     100.005   3.886  22.914  1.00  0.00     0.004 C 
ENDBRANCH  14  15
ENDBRANCH  13  14
ENDBRANCH  12  13
ENDBRANCH  11  12
ENDBRANCH  10  11
ENDBRANCH   1  10
TORSDOF 12
ENDMDL
MODEL 5
REMARK VINA RESULT:    -3.939      2.534      3.859
REMARK INTER + INTRA:          -8.514
REMARK INTER:                  -6.732
REMARK INTRA:                  -1.782
REMARK UNBOUND:                -1.811
REMARK SMILES CCCCCCCCCCCCCC(=O)[O-]
REMARK SMILES IDX 8 1 9 2 10 3 11 4 12 5 13 6 14 7 15 8 16 9 7 10 6 11 5 12
REMARK SMILES IDX 4 13 3 14 2 15 1 16
REMARK H PARENT
REMARK Flexibility Score: inf
ROOT
ATOM      1  C   UNL     1     101.922   3.043  26.413  1.00  0.00     0.000 C 
ENDROOT
BRANCH   1   2
ATOM      2  C   UNL     1     100.511   3.207  25.834  1.00  0.00     0.000 C 
BRANCH   2   3
ATOM      3  C   UNL     1     100.549   3.962  24.499  1.00  0.00     0.000 C 
BRANCH   3   4
ATOM      4  C   UNL     1      99.580   3.335  23.486  1.00  0.00     0.000 C 
BRANCH   4   5
ATOM      5  C   UNL     1      98.298   2.791  24.145  1.00  0.00     0.006 C 
BRANCH   5   6
ATOM      6  C   UNL     1      97.077   3.713  24.011  1.00  0.00     0.053 C 
BRANCH   6   7
ATOM      7  C   UNL     1      96.526   4.115  25.345  1.00  0.00     0.041 C 
ATOM      8  O   UNL     1      95.431   4.733  25.418  1.00  0.00    -0.550 OA
ATOM      9  O   UNL     1      97.239   3.836  26.504  1.00  0.00    -0.550 OA
ENDBRANCH   6   7
ENDBRANCH   5   6
ENDBRANCH   4   5
ENDBRANCH   3   4
ENDBRANCH   2   3
ENDBRANCH   1   2
BRANCH   1  10
ATOM     10  C   UNL     1     102.985   3.159  25.315  1.00  0.00     0.000 C 
BRANCH  10  11
ATOM     11  C   UNL     1     104.015   2.024  25.425  1.00  0.00    -0.000 C 
BRANCH  11  12
ATOM     12  C   UNL     1     104.058   1.143  24.167  1.00  0.00    -0.000 C 
BRANCH  12  13
ATOM     13  C   UNL     1     102.695   1.063  23.455  1.00  0.00    -0.000 C 
BRANCH  13  14
ATOM     14  C   UNL     1     102.102  -0.362  23.495  1.00  0.00    -0.000 C 
BRANCH  14  15
ATOM     15  C   UNL     1     100.564  -0.386  23.551  1.00  0.00    -0.003 C 
ATOM     16  C   UNL     1     100.016  -0.403  24.975  1.00  0.00     0.004 C 
ENDBRANCH  14  15
ENDBRANCH  13  14
ENDBRANCH  12  13
ENDBRANCH  11  12
ENDBRANCH  10  11
ENDBRANCH   1  10
TORSDOF 12
ENDMDL
MODEL 6
REMARK VINA RESULT:    -3.888      2.189      3.898
REMARK INTER + INTRA:          -8.426
REMARK INTER:                  -6.580
REMARK INTRA:                  -1.847
REMARK UNBOUND:                -1.811
REMARK SMILES CCCCCCCCCCCCCC(=O)[O-]
REMARK SMILES IDX 8 1 9 2 10 3 11 4 12 5 13 6 14 7 15 8 16 9 7 10 6 11 5 12
REMARK SMILES IDX 4 13 3 14 2 15 1 16
REMARK H PARENT
REMARK Flexibility Score: inf
ROOT
ATOM      1  C   UNL     1     102.411   2.629  25.786  1.00  0.00     0.000 C 
ENDROOT
BRANCH   1   2
ATOM      2  C   UNL     1     101.676   3.404  24.685  1.00  0.00     0.000 C 
BRANCH   2   3
ATOM      3  C   UNL     1     100.190   3.569  25.026  1.00  0.00     0.000 C 
BRANCH   3   4
ATOM      4  C   UNL     1      99.329   3.544  23.754  1.00  0.00     0.000 C 
BRANCH   4   5
ATOM      5  C   UNL     1      97.883   3.087  24.021  1.00  0.00     0.006 C 
BRANCH   5   6
ATOM      6  C   UNL     1      97.233   3.730  25.257  1.00  0.00     0.053 C 
BRANCH   6   7
ATOM      7  C   UNL     1      96.129   4.672  24.885  1.00  0.00     0.041 C 
ATOM      8  O   UNL     1      95.996   5.052  23.692  1.00  0.00    -0.550 OA
ATOM      9  O   UNL     1      95.268   5.155  25.863  1.00  0.00    -0.550 OA
ENDBRANCH   6   7
ENDBRANCH   5   6
ENDBRANCH   4   5
ENDBRANCH   3   4
ENDBRANCH   2   3
ENDBRANCH   1   2
BRANCH   1  10
ATOM     10  C   UNL     1     103.644   1.911  25.224  1.00  0.00     0.000 C 
BRANCH  10  11
ATOM     11  C   UNL     1     103.498   1.666  23.715  1.00  0.00    -0.000 C 
BRANCH  11  12
ATOM     12  C   UNL     1     103.610   0.179  23.345  1.00  0.00    -0.000 C 
BRANCH  12  13
ATOM     13  C   UNL     1     102.281  -0.576  23.524  1.00  0.00    -0.000 C 
BRANCH  13  14
ATOM     14  C   UNL     1     101.092   0.186  22.900  1.00  0.00    -0.000 C 
BRANCH  14  15
ATOM     15  C   UNL     1      99.750  -0.091  23.600  1.00  0.00    -0.003 C 
ATOM     16  C   UNL     1      99.864  -0.130  25.122  1.00  0.00     0.004 C 
ENDBRANCH  14  15
ENDBRANCH  13  14
ENDBRANCH  12  13
ENDBRANCH  11  12
ENDBRANCH  10  11
ENDBRANCH   1  10
TORSDOF 12
ENDMDL
MODEL 7
REMARK VINA RESULT:    -3.886      1.427      2.065
REMARK INTER + INTRA:          -8.424
REMARK INTER:                  -6.346
REMARK INTRA:                  -2.077
REMARK UNBOUND:                -1.811
REMARK SMILES CCCCCCCCCCCCCC(=O)[O-]
REMARK SMILES IDX 8 1 9 2 10 3 11 4 12 5 13 6 14 7 15 8 16 9 7 10 6 11 5 12
REMARK SMILES IDX 4 13 3 14 2 15 1 16
REMARK H PARENT
REMARK Flexibility Score: inf
ROOT
ATOM      1  C   UNL     1      97.552   4.491  27.405  1.00  0.00     0.000 C 
ENDROOT
BRANCH   1   2
ATOM      2  C   UNL     1      97.110   5.652  26.506  1.00  0.00     0.000 C 
BRANCH   2   3
ATOM      3  C   UNL     1      95.637   5.506  26.102  1.00  0.00     0.000 C 
BRANCH   3   4
ATOM      4  C   UNL     1      95.418   5.960  24.651  1.00  0.00     0.000 C 
BRANCH   4   5
ATOM      5  C   UNL     1      96.737   6.262  23.916  1.00  0.00     0.006 C 
BRANCH   5   6
ATOM      6  C   UNL     1      96.725   5.902  22.422  1.00  0.00     0.053 C 
BRANCH   6   7
ATOM      7  C   UNL     1      97.286   7.002  21.574  1.00  0.00     0.041 C 
ATOM      8  O   UNL     1      97.182   8.201  21.943  1.00  0.00    -0.550 OA
ATOM      9  O   UNL     1      97.893   6.705  20.360  1.00  0.00    -0.550 OA
ENDBRANCH   6   7
ENDBRANCH   5   6
ENDBRANCH   4   5
ENDBRANCH   3   4
ENDBRANCH   2   3
ENDBRANCH   1   2
BRANCH   1  10
ATOM     10  C   UNL     1      99.061   4.246  27.286  1.00  0.00     0.000 C 
BRANCH  10  11
ATOM     11  C   UNL     1      99.652   5.022  26.100  1.00  0.00    -0.000 C 
BRANCH  11  12
ATOM     12  C   UNL     1     100.336   4.103  25.076  1.00  0.00    -0.000 C 
BRANCH  12  13
ATOM     13  C   UNL     1      99.423   3.765  23.884  1.00  0.00    -0.000 C 
BRANCH  13  14
ATOM     14  C   UNL     1      99.021   2.275  23.864  1.00  0.00    -0.000 C 
BRANCH  14  15
ATOM     15  C   UNL     1      97.755   1.968  24.683  1.00  0.00    -0.003 C 
ATOM     16  C   UNL     1      96.480   2.500  24.036  1.00  0.00     0.004 C 
ENDBRANCH  14  15
ENDBRANCH  13  14
ENDBRANCH  12  13
ENDBRANCH  11  12
ENDBRANCH  10  11
ENDBRANCH   1  10
TORSDOF 12
ENDMDL
MODEL 8
REMARK VINA RESULT:    -3.874      2.882      5.833
REMARK INTER + INTRA:          -8.403
REMARK INTER:                  -6.394
REMARK INTRA:                  -2.009
REMARK UNBOUND:                -1.811
REMARK SMILES CCCCCCCCCCCCCC(=O)[O-]
REMARK SMILES IDX 8 1 9 2 10 3 11 4 12 5 13 6 14 7 15 8 16 9 7 10 6 11 5 12
REMARK SMILES IDX 4 13 3 14 2 15 1 16
REMARK H PARENT
REMARK Flexibility Score: inf
ROOT
ATOM      1  C   UNL     1      98.929   3.370  23.714  1.00  0.00     0.000 C 
ENDROOT
BRANCH   1   2
ATOM      2  C   UNL     1      99.888   4.439  24.252  1.00  0.00     0.000 C 
BRANCH   2   3
ATOM      3  C   UNL     1     100.229   4.182  25.726  1.00  0.00     0.000 C 
BRANCH   3   4
ATOM      4  C   UNL     1     101.743   4.272  25.962  1.00  0.00     0.000 C 
BRANCH   4   5
ATOM      5  C   UNL     1     102.379   2.907  26.285  1.00  0.00     0.006 C 
BRANCH   5   6
ATOM      6  C   UNL     1     103.158   2.280  25.119  1.00  0.00     0.053 C 
BRANCH   6   7
ATOM      7  C   UNL     1     102.257   1.562  24.162  1.00  0.00     0.041 C 
ATOM      8  O   UNL     1     102.173   1.942  22.965  1.00  0.00    -0.550 OA
ATOM      9  O   UNL     1     101.485   0.494  24.602  1.00  0.00    -0.550 OA
ENDBRANCH   6   7
ENDBRANCH   5   6
ENDBRANCH   4   5
ENDBRANCH   3   4
ENDBRANCH   2   3
ENDBRANCH   1   2
BRANCH   1  10
ATOM     10  C   UNL     1      98.470   2.429  24.833  1.00  0.00     0.000 C 
BRANCH  10  11
ATOM     11  C   UNL     1      96.947   2.236  24.799  1.00  0.00    -0.000 C 
BRANCH  11  12
ATOM     12  C   UNL     1      96.218   3.413  24.133  1.00  0.00    -0.000 C 
BRANCH  12  13
ATOM     13  C   UNL     1      95.756   4.473  25.149  1.00  0.00    -0.000 C 
BRANCH  13  14
ATOM     14  C   UNL     1      96.431   5.841  24.910  1.00  0.00    -0.000 C 
BRANCH  14  15
ATOM     15  C   UNL     1      97.240   6.346  26.118  1.00  0.00    -0.003 C 
ATOM     16  C   UNL     1      97.220   5.380  27.299  1.00  0.00     0.004 C 
ENDBRANCH  14  15
ENDBRANCH  13  14
ENDBRANCH  12  13
ENDBRANCH  11  12
ENDBRANCH  10  11
ENDBRANCH   1  10
TORSDOF 12
ENDMDL
MODEL 9
REMARK VINA RESULT:    -3.799      2.256      3.825
REMARK INTER + INTRA:          -8.275
REMARK INTER:                  -6.331
REMARK INTRA:                  -1.944
REMARK UNBOUND:                -1.811
REMARK SMILES CCCCCCCCCCCCCC(=O)[O-]
REMARK SMILES IDX 8 1 9 2 10 3 11 4 12 5 13 6 14 7 15 8 16 9 7 10 6 11 5 12
REMARK SMILES IDX 4 13 3 14 2 15 1 16
REMARK H PARENT
REMARK Flexibility Score: inf
ROOT
ATOM      1  C   UNL     1     101.848   3.439  27.015  1.00  0.00     0.000 C 
ENDROOT
BRANCH   1   2
ATOM      2  C   UNL     1     101.524   4.825  26.444  1.00  0.00     0.000 C 
BRANCH   2   3
ATOM      3  C   UNL     1     100.049   5.182  26.668  1.00  0.00     0.000 C 
BRANCH   3   4
ATOM      4  C   UNL     1      99.335   4.084  27.470  1.00  0.00     0.000 C 
BRANCH   4   5
ATOM      5  C   UNL     1      97.863   3.903  27.053  1.00  0.00     0.006 C 
BRANCH   5   6
ATOM      6  C   UNL     1      97.297   5.057  26.211  1.00  0.00     0.053 C 
BRANCH   6   7
ATOM      7  C   UNL     1      96.080   4.646  25.440  1.00  0.00     0.041 C 
ATOM      8  O   UNL     1      96.065   3.552  24.816  1.00  0.00    -0.550 OA
ATOM      9  O   UNL     1      94.975   5.486  25.385  1.00  0.00    -0.550 OA
ENDBRANCH   6   7
ENDBRANCH   5   6
ENDBRANCH   4   5
ENDBRANCH   3   4
ENDBRANCH   2   3
ENDBRANCH   1   2
BRANCH   1  10
ATOM     10  C   UNL     1     103.243   2.976  26.578  1.00  0.00     0.000 C 
BRANCH  10  11
ATOM     11  C   UNL     1     103.400   3.067  25.053  1.00  0.00    -0.000 C 
BRANCH  11  12
ATOM     12  C   UNL     1     103.022   1.757  24.343  1.00  0.00    -0.000 C 
BRANCH  12  13
ATOM     13  C   UNL     1     101.857   1.936  23.353  1.00  0.00    -0.000 C 
BRANCH  13  14
ATOM     14  C   UNL     1     100.511   1.476  23.952  1.00  0.00    -0.000 C 
BRANCH  14  15
ATOM     15  C   UNL     1      99.427   2.568  23.939  1.00  0.00    -0.003 C 
ATOM     16  C   UNL     1      99.842   3.815  23.163  1.00  0.00     0.004 C 
ENDBRANCH  14  15
ENDBRANCH  13  14
ENDBRANCH  12  13
ENDBRANCH  11  12
ENDBRANCH  10  11
ENDBRANCH   1  10
TORSDOF 12
ENDMDL
