MODEL 1
REMARK VINA RESULT:    19.454      0.000      0.000
REMARK INTER + INTRA:          23.985
REMARK INTER:                  23.434
REMARK INTRA:                   0.551
REMARK UNBOUND:                 0.551
REMARK SMILES O=c1c(O)c(-c2ccc(O)c(O)c2)oc2cc(O)cc(O)c12
REMARK SMILES IDX 5 1 3 2 2 3 1 4 22 5 20 6 19 7 17 8 16 9 15 10 14 11 6 12
REMARK SMILES IDX 7 13 8 14 9 15 13 16 11 17 10 18 12 20 4 22 21 24 18 26
REMARK H PARENT 10 19 12 21 4 23 21 25 18 27
REMARK Flexibility Score: inf
ROOT
ATOM      1  C   UNL     1       1.400  13.285 -27.005  1.00  0.00     0.180 A 
ATOM      2  C   UNL     1      -0.001  13.204 -26.926  1.00  0.00     0.208 A 
ATOM      3  C   UNL     1      -0.752  14.391 -26.907  1.00  0.00     0.238 A 
ATOM      4  O   UNL     1      -2.001  14.313 -26.781  1.00  0.00    -0.285 OA
ATOM      5  C   UNL     1      -0.094  15.642 -26.983  1.00  0.00     0.111 A 
ATOM      6  C   UNL     1      -0.756  16.906 -27.011  1.00  0.00     0.134 A 
ATOM      7  C   UNL     1      -0.001  18.083 -26.955  1.00  0.00     0.093 A 
ATOM      8  C   UNL     1       1.392  18.045 -26.938  1.00  0.00     0.123 A 
ATOM      9  C   UNL     1       2.053  16.815 -26.970  1.00  0.00     0.094 A 
ATOM     10  C   UNL     1       1.326  15.623 -26.990  1.00  0.00     0.146 A 
ATOM     11  O   UNL     1       1.991  14.475 -27.009  1.00  0.00    -0.452 OA
ENDROOT
BRANCH   1  12
ATOM     12  C   UNL     1       2.257  12.079 -27.056  1.00  0.00     0.025 A 
ATOM     13  C   UNL     1       1.663  10.807 -27.030  1.00  0.00     0.016 A 
ATOM     14  C   UNL     1       2.455   9.655 -27.057  1.00  0.00     0.051 A 
ATOM     15  C   UNL     1       3.851   9.759 -27.095  1.00  0.00     0.157 A 
ATOM     16  C   UNL     1       3.661  12.178 -27.073  1.00  0.00     0.062 A 
ATOM     17  C   UNL     1       4.455  11.023 -27.098  1.00  0.00     0.158 A 
BRANCH  15  18
ATOM     18  O   UNL     1       4.643   8.613 -27.123  1.00  0.00    -0.504 OA
ATOM     19  H   UNL     1       5.584   8.609 -26.748  1.00  0.00     0.293 HD
ENDBRANCH  15  18
BRANCH  17  20
ATOM     20  O   UNL     1       5.845  11.122 -27.121  1.00  0.00    -0.504 OA
ATOM     21  H   UNL     1       6.421  10.654 -26.432  1.00  0.00     0.293 HD
ENDBRANCH  17  20
ENDBRANCH   1  12
BRANCH   2  22
ATOM     22  O   UNL     1      -0.629  11.960 -26.830  1.00  0.00    -0.502 OA
ATOM     23  H   UNL     1      -0.157  11.137 -26.475  1.00  0.00     0.293 HD
ENDBRANCH   2  22
BRANCH   6  24
ATOM     24  O   UNL     1      -2.142  17.058 -27.121  1.00  0.00    -0.507 OA
ATOM     25  H   UNL     1      -2.660  17.001 -27.985  1.00  0.00     0.293 HD
ENDBRANCH   6  24
BRANCH   8  26
ATOM     26  O   UNL     1       2.113  19.237 -26.898  1.00  0.00    -0.508 OA
ATOM     27  H   UNL     1       1.962  19.970 -27.581  1.00  0.00     0.293 HD
ENDBRANCH   8  26
TORSDOF 6
ENDMDL
MODEL 2
REMARK VINA RESULT:    20.488      1.268      2.899
REMARK INTER + INTRA:          25.231
REMARK INTER:                  24.756
REMARK INTRA:                   0.475
REMARK UNBOUND:                 0.551
REMARK SMILES O=c1c(O)c(-c2ccc(O)c(O)c2)oc2cc(O)cc(O)c12
REMARK SMILES IDX 5 1 3 2 2 3 1 4 22 5 20 6 19 7 17 8 16 9 15 10 14 11 6 12
REMARK SMILES IDX 7 13 8 14 9 15 13 16 11 17 10 18 12 20 4 22 21 24 18 26
REMARK H PARENT 10 19 12 21 4 23 21 25 18 27
REMARK Flexibility Score: inf
ROOT
ATOM      1  C   UNL     1       1.976  13.157 -26.996  1.00  0.00     0.180 A 
ATOM      2  C   UNL     1       2.668  14.379 -26.954  1.00  0.00     0.208 A 
ATOM      3  C   UNL     1       1.935  15.575 -26.881  1.00  0.00     0.238 A 
ATOM      4  O   UNL     1       2.559  16.668 -26.900  1.00  0.00    -0.285 OA
ATOM      5  C   UNL     1       0.521  15.533 -26.836  1.00  0.00     0.111 A 
ATOM      6  C   UNL     1      -0.321  16.680 -26.722  1.00  0.00     0.134 A 
ATOM      7  C   UNL     1      -1.710  16.529 -26.817  1.00  0.00     0.093 A 
ATOM      8  C   UNL     1      -2.290  15.270 -26.956  1.00  0.00     0.123 A 
ATOM      9  C   UNL     1      -1.479  14.135 -27.010  1.00  0.00     0.094 A 
ATOM     10  C   UNL     1      -0.089  14.256 -26.953  1.00  0.00     0.146 A 
ATOM     11  O   UNL     1       0.648  13.154 -27.017  1.00  0.00    -0.452 OA
ENDROOT
BRANCH   1  12
ATOM     12  C   UNL     1       2.678  11.855 -27.047  1.00  0.00     0.025 A 
ATOM     13  C   UNL     1       1.932  10.665 -27.027  1.00  0.00     0.016 A 
ATOM     14  C   UNL     1       2.575   9.425 -27.053  1.00  0.00     0.051 A 
ATOM     15  C   UNL     1       3.974   9.356 -27.085  1.00  0.00     0.157 A 
ATOM     16  C   UNL     1       4.083  11.780 -27.057  1.00  0.00     0.062 A 
ATOM     17  C   UNL     1       4.729  10.536 -27.082  1.00  0.00     0.158 A 
BRANCH  15  18
ATOM     18  O   UNL     1       4.619   8.121 -27.113  1.00  0.00    -0.504 OA
ATOM     19  H   UNL     1       4.166   7.295 -27.485  1.00  0.00     0.293 HD
ENDBRANCH  15  18
BRANCH  17  20
ATOM     20  O   UNL     1       6.121  10.463 -27.099  1.00  0.00    -0.504 OA
ATOM     21  H   UNL     1       6.686  11.222 -27.461  1.00  0.00     0.293 HD
ENDBRANCH  17  20
ENDBRANCH   1  12
BRANCH   2  22
ATOM     22  O   UNL     1       4.063  14.400 -27.022  1.00  0.00    -0.502 OA
ATOM     23  H   UNL     1       4.635  14.897 -26.349  1.00  0.00     0.293 HD
ENDBRANCH   2  22
BRANCH   6  24
ATOM     24  O   UNL     1       0.152  17.975 -26.488  1.00  0.00    -0.507 OA
ATOM     25  H   UNL     1      -0.408  18.736 -26.134  1.00  0.00     0.293 HD
ENDBRANCH   6  24
BRANCH   8  26
ATOM     26  O   UNL     1      -3.676  15.156 -27.033  1.00  0.00    -0.508 OA
ATOM     27  H   UNL     1      -4.132  14.252 -27.080  1.00  0.00     0.293 HD
ENDBRANCH   8  26
TORSDOF 6
ENDMDL
