MODEL 1
REMARK VINA RESULT:    -7.167      0.000      0.000
REMARK INTER + INTRA:          -8.830
REMARK INTER:                  -8.634
REMARK INTRA:                  -0.197
REMARK UNBOUND:                -0.197
REMARK SMILES O=c1c(O)c(-c2ccc(O)c(O)c2)oc2cc(O)cc(O)c12
REMARK SMILES IDX 5 1 3 2 2 3 1 4 22 5 20 6 19 7 17 8 16 9 15 10 14 11 6 12
REMARK SMILES IDX 7 13 8 14 9 15 13 16 11 17 10 18 12 20 4 22 21 24 18 26
REMARK H PARENT 10 19 12 21 4 23 21 25 18 27
REMARK Flexibility Score: inf
ROOT
ATOM      1  C   UNL     1      15.460  21.169 -12.522  1.00  0.00     0.180 A 
ATOM      2  C   UNL     1      16.630  21.253 -11.746  1.00  0.00     0.208 A 
ATOM      3  C   UNL     1      17.800  21.763 -12.331  1.00  0.00     0.238 A 
ATOM      4  O   UNL     1      18.857  21.786 -11.648  1.00  0.00    -0.285 OA
ATOM      5  C   UNL     1      17.782  22.197 -13.679  1.00  0.00     0.111 A 
ATOM      6  C   UNL     1      18.899  22.768 -14.360  1.00  0.00     0.134 A 
ATOM      7  C   UNL     1      18.805  23.041 -15.730  1.00  0.00     0.093 A 
ATOM      8  C   UNL     1      17.617  22.826 -16.428  1.00  0.00     0.123 A 
ATOM      9  C   UNL     1      16.500  22.325 -15.758  1.00  0.00     0.094 A 
ATOM     10  C   UNL     1      16.574  22.008 -14.399  1.00  0.00     0.146 A 
ATOM     11  O   UNL     1      15.493  21.524 -13.801  1.00  0.00    -0.452 OA
ENDROOT
BRANCH   1  12
ATOM     12  C   UNL     1      14.182  20.667 -11.968  1.00  0.00     0.025 A 
ATOM     13  C   UNL     1      13.504  21.357 -10.948  1.00  0.00     0.016 A 
ATOM     14  C   UNL     1      12.287  20.876 -10.457  1.00  0.00     0.051 A 
ATOM     15  C   UNL     1      11.723  19.708 -10.988  1.00  0.00     0.157 A 
ATOM     16  C   UNL     1      13.602  19.508 -12.510  1.00  0.00     0.062 A 
ATOM     17  C   UNL     1      12.381  19.025 -12.019  1.00  0.00     0.158 A 
BRANCH  15  18
ATOM     18  O   UNL     1      10.510  19.225 -10.501  1.00  0.00    -0.504 OA
ATOM     19  H   UNL     1      10.215  19.399  -9.547  1.00  0.00     0.293 HD
ENDBRANCH  15  18
BRANCH  17  20
ATOM     20  O   UNL     1      11.814  17.867 -12.550  1.00  0.00    -0.504 OA
ATOM     21  H   UNL     1      11.863  16.981 -12.061  1.00  0.00     0.293 HD
ENDBRANCH  17  20
ENDBRANCH   1  12
BRANCH   2  22
ATOM     22  O   UNL     1      16.630  20.799 -10.424  1.00  0.00    -0.502 OA
ATOM     23  H   UNL     1      17.161  19.989 -10.128  1.00  0.00     0.293 HD
ENDBRANCH   2  22
BRANCH   6  24
ATOM     24  O   UNL     1      20.104  23.108 -13.737  1.00  0.00    -0.507 OA
ATOM     25  H   UNL     1      20.946  23.373 -14.223  1.00  0.00     0.293 HD
ENDBRANCH   6  24
BRANCH   8  26
ATOM     26  O   UNL     1      17.555  23.125 -17.787  1.00  0.00    -0.508 OA
ATOM     27  H   UNL     1      18.276  23.673 -18.242  1.00  0.00     0.293 HD
ENDBRANCH   8  26
TORSDOF 6
ENDMDL
MODEL 2
REMARK VINA RESULT:    -6.648      1.387      6.676
REMARK INTER + INTRA:          -8.205
REMARK INTER:                  -8.188
REMARK INTRA:                  -0.016
REMARK UNBOUND:                -0.197
REMARK SMILES O=c1c(O)c(-c2ccc(O)c(O)c2)oc2cc(O)cc(O)c12
REMARK SMILES IDX 5 1 3 2 2 3 1 4 22 5 20 6 19 7 17 8 16 9 15 10 14 11 6 12
REMARK SMILES IDX 7 13 8 14 9 15 13 16 11 17 10 18 12 20 4 22 21 24 18 26
REMARK H PARENT 10 19 12 21 4 23 21 25 18 27
REMARK Flexibility Score: inf
ROOT
ATOM      1  C   UNL     1      15.999  21.473 -12.911  1.00  0.00     0.180 A 
ATOM      2  C   UNL     1      15.992  22.065 -11.635  1.00  0.00     0.208 A 
ATOM      3  C   UNL     1      15.080  21.599 -10.674  1.00  0.00     0.238 A 
ATOM      4  O   UNL     1      15.042  22.169  -9.552  1.00  0.00    -0.285 OA
ATOM      5  C   UNL     1      14.199  20.538 -10.994  1.00  0.00     0.111 A 
ATOM      6  C   UNL     1      13.263  19.961 -10.083  1.00  0.00     0.134 A 
ATOM      7  C   UNL     1      12.351  19.004 -10.546  1.00  0.00     0.093 A 
ATOM      8  C   UNL     1      12.384  18.557 -11.867  1.00  0.00     0.123 A 
ATOM      9  C   UNL     1      13.335  19.072 -12.750  1.00  0.00     0.094 A 
ATOM     10  C   UNL     1      14.234  20.053 -12.327  1.00  0.00     0.146 A 
ATOM     11  O   UNL     1      15.115  20.524 -13.201  1.00  0.00    -0.452 OA
ENDROOT
BRANCH   1  12
ATOM     12  C   UNL     1      16.947  21.892 -13.968  1.00  0.00     0.025 A 
ATOM     13  C   UNL     1      18.325  22.003 -13.714  1.00  0.00     0.016 A 
ATOM     14  C   UNL     1      19.204  22.378 -14.734  1.00  0.00     0.051 A 
ATOM     15  C   UNL     1      18.721  22.632 -16.025  1.00  0.00     0.157 A 
ATOM     16  C   UNL     1      16.471  22.128 -15.269  1.00  0.00     0.062 A 
ATOM     17  C   UNL     1      17.352  22.503 -16.293  1.00  0.00     0.158 A 
BRANCH  15  18
ATOM     18  O   UNL     1      19.594  23.006 -17.044  1.00  0.00    -0.504 OA
ATOM     19  H   UNL     1      19.411  23.811 -17.631  1.00  0.00     0.293 HD
ENDBRANCH  15  18
BRANCH  17  20
ATOM     20  O   UNL     1      16.876  22.750 -17.580  1.00  0.00    -0.504 OA
ATOM     21  H   UNL     1      16.310  22.070 -18.074  1.00  0.00     0.293 HD
ENDBRANCH  17  20
ENDBRANCH   1  12
BRANCH   2  22
ATOM     22  O   UNL     1      16.855  23.125 -11.348  1.00  0.00    -0.502 OA
ATOM     23  H   UNL     1      16.590  24.093 -11.478  1.00  0.00     0.293 HD
ENDBRANCH   2  22
BRANCH   6  24
ATOM     24  O   UNL     1      13.206  20.270  -8.721  1.00  0.00    -0.507 OA
ATOM     25  H   UNL     1      12.442  20.028  -8.110  1.00  0.00     0.293 HD
ENDBRANCH   6  24
BRANCH   8  26
ATOM     26  O   UNL     1      11.472  17.593 -12.288  1.00  0.00    -0.508 OA
ATOM     27  H   UNL     1      10.982  17.002 -11.626  1.00  0.00     0.293 HD
ENDBRANCH   8  26
TORSDOF 6
ENDMDL
MODEL 3
REMARK VINA RESULT:    -6.350      1.787      7.572
REMARK INTER + INTRA:          -7.846
REMARK INTER:                  -7.526
REMARK INTRA:                  -0.321
REMARK UNBOUND:                -0.197
REMARK SMILES O=c1c(O)c(-c2ccc(O)c(O)c2)oc2cc(O)cc(O)c12
REMARK SMILES IDX 5 1 3 2 2 3 1 4 22 5 20 6 19 7 17 8 16 9 15 10 14 11 6 12
REMARK SMILES IDX 7 13 8 14 9 15 13 16 11 17 10 18 12 20 4 22 21 24 18 26
REMARK H PARENT 10 19 12 21 4 23 21 25 18 27
REMARK Flexibility Score: inf
ROOT
ATOM      1  C   UNL     1      14.048  20.363 -11.717  1.00  0.00     0.180 A 
ATOM      2  C   UNL     1      13.575  19.094 -12.097  1.00  0.00     0.208 A 
ATOM      3  C   UNL     1      12.349  18.644 -11.580  1.00  0.00     0.238 A 
ATOM      4  O   UNL     1      11.956  17.486 -11.881  1.00  0.00    -0.285 OA
ATOM      5  C   UNL     1      11.606  19.471 -10.705  1.00  0.00     0.111 A 
ATOM      6  C   UNL     1      10.333  19.131 -10.154  1.00  0.00     0.134 A 
ATOM      7  C   UNL     1       9.749  19.970  -9.197  1.00  0.00     0.093 A 
ATOM      8  C   UNL     1      10.359  21.166  -8.819  1.00  0.00     0.123 A 
ATOM      9  C   UNL     1      11.575  21.537  -9.396  1.00  0.00     0.094 A 
ATOM     10  C   UNL     1      12.200  20.704 -10.327  1.00  0.00     0.146 A 
ATOM     11  O   UNL     1      13.360  21.088 -10.843  1.00  0.00    -0.452 OA
ENDROOT
BRANCH   1  12
ATOM     12  C   UNL     1      15.319  20.917 -12.239  1.00  0.00     0.025 A 
ATOM     13  C   UNL     1      15.381  21.548 -13.494  1.00  0.00     0.016 A 
ATOM     14  C   UNL     1      16.586  22.085 -13.956  1.00  0.00     0.051 A 
ATOM     15  C   UNL     1      17.741  22.013 -13.165  1.00  0.00     0.157 A 
ATOM     16  C   UNL     1      16.474  20.866 -11.442  1.00  0.00     0.062 A 
ATOM     17  C   UNL     1      17.684  21.405 -11.904  1.00  0.00     0.158 A 
BRANCH  15  18
ATOM     18  O   UNL     1      18.944  22.546 -13.623  1.00  0.00    -0.504 OA
ATOM     19  H   UNL     1      19.115  23.544 -13.626  1.00  0.00     0.293 HD
ENDBRANCH  15  18
BRANCH  17  20
ATOM     20  O   UNL     1      18.832  21.341 -11.117  1.00  0.00    -0.504 OA
ATOM     21  H   UNL     1      19.125  20.476 -10.678  1.00  0.00     0.293 HD
ENDBRANCH  17  20
ENDBRANCH   1  12
BRANCH   2  22
ATOM     22  O   UNL     1      14.335  18.285 -12.945  1.00  0.00    -0.502 OA
ATOM     23  H   UNL     1      15.152  18.628 -13.435  1.00  0.00     0.293 HD
ENDBRANCH   2  22
BRANCH   6  24
ATOM     24  O   UNL     1       9.595  18.006 -10.532  1.00  0.00    -0.507 OA
ATOM     25  H   UNL     1       8.589  17.973 -10.590  1.00  0.00     0.293 HD
ENDBRANCH   6  24
BRANCH   8  26
ATOM     26  O   UNL     1       9.742  21.983  -7.875  1.00  0.00    -0.508 OA
ATOM     27  H   UNL     1      10.044  22.939  -7.724  1.00  0.00     0.293 HD
ENDBRANCH   8  26
TORSDOF 6
ENDMDL
MODEL 4
REMARK VINA RESULT:    -6.244      1.953      7.499
REMARK INTER + INTRA:          -7.718
REMARK INTER:                  -7.401
REMARK INTRA:                  -0.317
REMARK UNBOUND:                -0.197
REMARK SMILES O=c1c(O)c(-c2ccc(O)c(O)c2)oc2cc(O)cc(O)c12
REMARK SMILES IDX 5 1 3 2 2 3 1 4 22 5 20 6 19 7 17 8 16 9 15 10 14 11 6 12
REMARK SMILES IDX 7 13 8 14 9 15 13 16 11 17 10 18 12 20 4 22 21 24 18 26
REMARK H PARENT 10 19 12 21 4 23 21 25 18 27
REMARK Flexibility Score: inf
ROOT
ATOM      1  C   UNL     1      13.662  20.498 -11.291  1.00  0.00     0.180 A 
ATOM      2  C   UNL     1      12.814  21.282 -10.488  1.00  0.00     0.208 A 
ATOM      3  C   UNL     1      11.616  20.722 -10.014  1.00  0.00     0.238 A 
ATOM      4  O   UNL     1      10.836  21.445  -9.342  1.00  0.00    -0.285 OA
ATOM      5  C   UNL     1      11.289  19.382 -10.335  1.00  0.00     0.111 A 
ATOM      6  C   UNL     1      10.122  18.701  -9.875  1.00  0.00     0.134 A 
ATOM      7  C   UNL     1       9.834  17.420 -10.360  1.00  0.00     0.093 A 
ATOM      8  C   UNL     1      10.703  16.769 -11.236  1.00  0.00     0.123 A 
ATOM      9  C   UNL     1      11.878  17.402 -11.645  1.00  0.00     0.094 A 
ATOM     10  C   UNL     1      12.174  18.695 -11.207  1.00  0.00     0.146 A 
ATOM     11  O   UNL     1      13.296  19.266 -11.628  1.00  0.00    -0.452 OA
ENDROOT
BRANCH   1  12
ATOM     12  C   UNL     1      14.952  21.009 -11.807  1.00  0.00     0.025 A 
ATOM     13  C   UNL     1      16.108  21.017 -11.007  1.00  0.00     0.016 A 
ATOM     14  C   UNL     1      17.321  21.482 -11.524  1.00  0.00     0.051 A 
ATOM     15  C   UNL     1      17.399  21.932 -12.849  1.00  0.00     0.157 A 
ATOM     16  C   UNL     1      15.040  21.442 -13.140  1.00  0.00     0.062 A 
ATOM     17  C   UNL     1      16.257  21.909 -13.659  1.00  0.00     0.158 A 
BRANCH  15  18
ATOM     18  O   UNL     1      18.606  22.398 -13.366  1.00  0.00    -0.504 OA
ATOM     19  H   UNL     1      18.896  22.183 -14.312  1.00  0.00     0.293 HD
ENDBRANCH  15  18
BRANCH  17  20
ATOM     20  O   UNL     1      16.338  22.351 -14.979  1.00  0.00    -0.504 OA
ATOM     21  H   UNL     1      16.122  21.738 -15.756  1.00  0.00     0.293 HD
ENDBRANCH  17  20
ENDBRANCH   1  12
BRANCH   2  22
ATOM     22  O   UNL     1      13.146  22.608 -10.202  1.00  0.00    -0.502 OA
ATOM     23  H   UNL     1      13.549  22.889  -9.317  1.00  0.00     0.293 HD
ENDBRANCH   2  22
BRANCH   6  24
ATOM     24  O   UNL     1       9.235  19.224  -8.929  1.00  0.00    -0.507 OA
ATOM     25  H   UNL     1       9.472  19.424  -7.970  1.00  0.00     0.293 HD
ENDBRANCH   6  24
BRANCH   8  26
ATOM     26  O   UNL     1      10.393  15.488 -11.686  1.00  0.00    -0.508 OA
ATOM     27  H   UNL     1      11.110  14.784 -11.816  1.00  0.00     0.293 HD
ENDBRANCH   8  26
TORSDOF 6
ENDMDL
MODEL 5
REMARK VINA RESULT:    -6.024      1.523      6.617
REMARK INTER + INTRA:          -7.453
REMARK INTER:                  -7.303
REMARK INTRA:                  -0.150
REMARK UNBOUND:                -0.197
REMARK SMILES O=c1c(O)c(-c2ccc(O)c(O)c2)oc2cc(O)cc(O)c12
REMARK SMILES IDX 5 1 3 2 2 3 1 4 22 5 20 6 19 7 17 8 16 9 15 10 14 11 6 12
REMARK SMILES IDX 7 13 8 14 9 15 13 16 11 17 10 18 12 20 4 22 21 24 18 26
REMARK H PARENT 10 19 12 21 4 23 21 25 18 27
REMARK Flexibility Score: inf
ROOT
ATOM      1  C   UNL     1      17.196  21.919 -13.817  1.00  0.00     0.180 A 
ATOM      2  C   UNL     1      17.994  22.389 -12.759  1.00  0.00     0.208 A 
ATOM      3  C   UNL     1      17.587  22.140 -11.438  1.00  0.00     0.238 A 
ATOM      4  O   UNL     1      18.277  22.609 -10.495  1.00  0.00    -0.285 OA
ATOM      5  C   UNL     1      16.398  21.412 -11.192  1.00  0.00     0.111 A 
ATOM      6  C   UNL     1      15.913  21.069  -9.893  1.00  0.00     0.134 A 
ATOM      7  C   UNL     1      14.658  20.460  -9.765  1.00  0.00     0.093 A 
ATOM      8  C   UNL     1      13.902  20.124 -10.888  1.00  0.00     0.123 A 
ATOM      9  C   UNL     1      14.394  20.401 -12.164  1.00  0.00     0.094 A 
ATOM     10  C   UNL     1      15.626  21.041 -12.323  1.00  0.00     0.146 A 
ATOM     11  O   UNL     1      16.053  21.296 -13.553  1.00  0.00    -0.452 OA
ENDROOT
BRANCH   1  12
ATOM     12  C   UNL     1      17.572  22.120 -15.235  1.00  0.00     0.025 A 
ATOM     13  C   UNL     1      16.804  22.931 -16.088  1.00  0.00     0.016 A 
ATOM     14  C   UNL     1      17.191  23.125 -17.417  1.00  0.00     0.051 A 
ATOM     15  C   UNL     1      18.358  22.523 -17.908  1.00  0.00     0.157 A 
ATOM     16  C   UNL     1      18.752  21.536 -15.727  1.00  0.00     0.062 A 
ATOM     17  C   UNL     1      19.141  21.730 -17.060  1.00  0.00     0.158 A 
BRANCH  15  18
ATOM     18  O   UNL     1      18.747  22.714 -19.233  1.00  0.00    -0.504 OA
ATOM     19  H   UNL     1      19.618  22.340 -19.589  1.00  0.00     0.293 HD
ENDBRANCH  15  18
BRANCH  17  20
ATOM     20  O   UNL     1      20.305  21.139 -17.548  1.00  0.00    -0.504 OA
ATOM     21  H   UNL     1      20.727  20.341 -17.089  1.00  0.00     0.293 HD
ENDBRANCH  17  20
ENDBRANCH   1  12
BRANCH   2  22
ATOM     22  O   UNL     1      19.152  23.123 -13.024  1.00  0.00    -0.502 OA
ATOM     23  H   UNL     1      19.477  23.865 -12.416  1.00  0.00     0.293 HD
ENDBRANCH   2  22
BRANCH   6  24
ATOM     24  O   UNL     1      16.630  21.276  -8.712  1.00  0.00    -0.507 OA
ATOM     25  H   UNL     1      16.341  21.889  -7.965  1.00  0.00     0.293 HD
ENDBRANCH   6  24
BRANCH   8  26
ATOM     26  O   UNL     1      12.665  19.505 -10.723  1.00  0.00    -0.508 OA
ATOM     27  H   UNL     1      12.413  18.676 -11.249  1.00  0.00     0.293 HD
ENDBRANCH   8  26
TORSDOF 6
ENDMDL
MODEL 6
REMARK VINA RESULT:    -6.000      1.760      3.604
REMARK INTER + INTRA:          -7.424
REMARK INTER:                  -7.104
REMARK INTRA:                  -0.320
REMARK UNBOUND:                -0.197
REMARK SMILES O=c1c(O)c(-c2ccc(O)c(O)c2)oc2cc(O)cc(O)c12
REMARK SMILES IDX 5 1 3 2 2 3 1 4 22 5 20 6 19 7 17 8 16 9 15 10 14 11 6 12
REMARK SMILES IDX 7 13 8 14 9 15 13 16 11 17 10 18 12 20 4 22 21 24 18 26
REMARK H PARENT 10 19 12 21 4 23 21 25 18 27
REMARK Flexibility Score: inf
ROOT
ATOM      1  C   UNL     1      15.936  21.083 -11.687  1.00  0.00     0.180 A 
ATOM      2  C   UNL     1      16.313  21.967 -12.714  1.00  0.00     0.208 A 
ATOM      3  C   UNL     1      17.673  22.275 -12.880  1.00  0.00     0.238 A 
ATOM      4  O   UNL     1      18.000  23.109 -13.766  1.00  0.00    -0.285 OA
ATOM      5  C   UNL     1      18.639  21.684 -12.030  1.00  0.00     0.111 A 
ATOM      6  C   UNL     1      20.048  21.895 -12.136  1.00  0.00     0.134 A 
ATOM      7  C   UNL     1      20.899  21.362 -11.160  1.00  0.00     0.093 A 
ATOM      8  C   UNL     1      20.402  20.574 -10.122  1.00  0.00     0.123 A 
ATOM      9  C   UNL     1      19.033  20.313 -10.044  1.00  0.00     0.094 A 
ATOM     10  C   UNL     1      18.154  20.860 -10.981  1.00  0.00     0.146 A 
ATOM     11  O   UNL     1      16.859  20.597 -10.865  1.00  0.00    -0.452 OA
ENDROOT
BRANCH   1  12
ATOM     12  C   UNL     1      14.525  20.691 -11.465  1.00  0.00     0.025 A 
ATOM     13  C   UNL     1      13.699  21.401 -10.577  1.00  0.00     0.016 A 
ATOM     14  C   UNL     1      12.364  21.026 -10.402  1.00  0.00     0.051 A 
ATOM     15  C   UNL     1      11.832  19.947 -11.122  1.00  0.00     0.157 A 
ATOM     16  C   UNL     1      13.982  19.623 -12.199  1.00  0.00     0.062 A 
ATOM     17  C   UNL     1      12.642  19.246 -12.024  1.00  0.00     0.158 A 
BRANCH  15  18
ATOM     18  O   UNL     1      10.502  19.570 -10.948  1.00  0.00    -0.504 OA
ATOM     19  H   UNL     1      10.220  18.950 -10.199  1.00  0.00     0.293 HD
ENDBRANCH  15  18
BRANCH  17  20
ATOM     20  O   UNL     1      12.109  18.178 -12.743  1.00  0.00    -0.504 OA
ATOM     21  H   UNL     1      11.204  18.242 -13.193  1.00  0.00     0.293 HD
ENDBRANCH  17  20
ENDBRANCH   1  12
BRANCH   2  22
ATOM     22  O   UNL     1      15.342  22.556 -13.527  1.00  0.00    -0.502 OA
ATOM     23  H   UNL     1      14.437  22.130 -13.688  1.00  0.00     0.293 HD
ENDBRANCH   2  22
BRANCH   6  24
ATOM     24  O   UNL     1      20.657  22.589 -13.185  1.00  0.00    -0.507 OA
ATOM     25  H   UNL     1      20.417  23.525 -13.470  1.00  0.00     0.293 HD
ENDBRANCH   6  24
BRANCH   8  26
ATOM     26  O   UNL     1      21.281  20.048  -9.178  1.00  0.00    -0.508 OA
ATOM     27  H   UNL     1      21.740  20.639  -8.494  1.00  0.00     0.293 HD
ENDBRANCH   8  26
TORSDOF 6
ENDMDL
MODEL 7
REMARK VINA RESULT:    -5.922      3.132      5.872
REMARK INTER + INTRA:          -7.330
REMARK INTER:                  -7.147
REMARK INTRA:                  -0.183
REMARK UNBOUND:                -0.197
REMARK SMILES O=c1c(O)c(-c2ccc(O)c(O)c2)oc2cc(O)cc(O)c12
REMARK SMILES IDX 5 1 3 2 2 3 1 4 22 5 20 6 19 7 17 8 16 9 15 10 14 11 6 12
REMARK SMILES IDX 7 13 8 14 9 15 13 16 11 17 10 18 12 20 4 22 21 24 18 26
REMARK H PARENT 10 19 12 21 4 23 21 25 18 27
REMARK Flexibility Score: inf
ROOT
ATOM      1  C   UNL     1      11.825  18.088 -10.512  1.00  0.00     0.180 A 
ATOM      2  C   UNL     1      11.285  19.106  -9.706  1.00  0.00     0.208 A 
ATOM      3  C   UNL     1      11.830  20.398  -9.787  1.00  0.00     0.238 A 
ATOM      4  O   UNL     1      11.378  21.293  -9.024  1.00  0.00    -0.285 OA
ATOM      5  C   UNL     1      12.894  20.660 -10.682  1.00  0.00     0.111 A 
ATOM      6  C   UNL     1      13.494  21.941 -10.874  1.00  0.00     0.134 A 
ATOM      7  C   UNL     1      14.626  22.057 -11.690  1.00  0.00     0.093 A 
ATOM      8  C   UNL     1      15.140  20.954 -12.371  1.00  0.00     0.123 A 
ATOM      9  C   UNL     1      14.525  19.708 -12.237  1.00  0.00     0.094 A 
ATOM     10  C   UNL     1      13.415  19.554 -11.402  1.00  0.00     0.146 A 
ATOM     11  O   UNL     1      12.866  18.350 -11.294  1.00  0.00    -0.452 OA
ENDROOT
BRANCH   1  12
ATOM     12  C   UNL     1      11.288  16.708 -10.502  1.00  0.00     0.025 A 
ATOM     13  C   UNL     1      11.410  15.884  -9.369  1.00  0.00     0.016 A 
ATOM     14  C   UNL     1      10.874  14.593  -9.374  1.00  0.00     0.051 A 
ATOM     15  C   UNL     1      10.198  14.113 -10.504  1.00  0.00     0.157 A 
ATOM     16  C   UNL     1      10.592  16.229 -11.624  1.00  0.00     0.062 A 
ATOM     17  C   UNL     1      10.055  14.934 -11.630  1.00  0.00     0.158 A 
BRANCH  15  18
ATOM     18  O   UNL     1       9.665  12.825 -10.513  1.00  0.00    -0.504 OA
ATOM     19  H   UNL     1       9.922  12.149 -11.222  1.00  0.00     0.293 HD
ENDBRANCH  15  18
BRANCH  17  20
ATOM     20  O   UNL     1       9.376  14.456 -12.750  1.00  0.00    -0.504 OA
ATOM     21  H   UNL     1       9.873  14.079 -13.549  1.00  0.00     0.293 HD
ENDBRANCH  17  20
ENDBRANCH   1  12
BRANCH   2  22
ATOM     22  O   UNL     1      10.249  18.821  -8.813  1.00  0.00    -0.502 OA
ATOM     23  H   UNL     1      10.317  19.015  -7.822  1.00  0.00     0.293 HD
ENDBRANCH   2  22
BRANCH   6  24
ATOM     24  O   UNL     1      13.005  23.125 -10.314  1.00  0.00    -0.507 OA
ATOM     25  H   UNL     1      13.110  24.040 -10.724  1.00  0.00     0.293 HD
ENDBRANCH   6  24
BRANCH   8  26
ATOM     26  O   UNL     1      16.259  21.109 -13.187  1.00  0.00    -0.508 OA
ATOM     27  H   UNL     1      16.186  21.073 -14.197  1.00  0.00     0.293 HD
ENDBRANCH   8  26
TORSDOF 6
ENDMDL
MODEL 8
REMARK VINA RESULT:    -5.773      1.973      2.866
REMARK INTER + INTRA:          -7.151
REMARK INTER:                  -6.822
REMARK INTRA:                  -0.329
REMARK UNBOUND:                -0.197
REMARK SMILES O=c1c(O)c(-c2ccc(O)c(O)c2)oc2cc(O)cc(O)c12
REMARK SMILES IDX 5 1 3 2 2 3 1 4 22 5 20 6 19 7 17 8 16 9 15 10 14 11 6 12
REMARK SMILES IDX 7 13 8 14 9 15 13 16 11 17 10 18 12 20 4 22 21 24 18 26
REMARK H PARENT 10 19 12 21 4 23 21 25 18 27
REMARK Flexibility Score: inf
ROOT
ATOM      1  C   UNL     1      13.791  20.111 -10.762  1.00  0.00     0.180 A 
ATOM      2  C   UNL     1      14.693  20.271  -9.694  1.00  0.00     0.208 A 
ATOM      3  C   UNL     1      15.861  21.023  -9.897  1.00  0.00     0.238 A 
ATOM      4  O   UNL     1      16.690  21.118  -8.954  1.00  0.00    -0.285 OA
ATOM      5  C   UNL     1      16.106  21.618 -11.159  1.00  0.00     0.111 A 
ATOM      6  C   UNL     1      17.238  22.434 -11.463  1.00  0.00     0.134 A 
ATOM      7  C   UNL     1      17.445  22.862 -12.780  1.00  0.00     0.093 A 
ATOM      8  C   UNL     1      16.530  22.561 -13.788  1.00  0.00     0.123 A 
ATOM      9  C   UNL     1      15.389  21.814 -13.489  1.00  0.00     0.094 A 
ATOM     10  C   UNL     1      15.173  21.342 -12.192  1.00  0.00     0.146 A 
ATOM     11  O   UNL     1      14.081  20.627 -11.951  1.00  0.00    -0.452 OA
ENDROOT
BRANCH   1  12
ATOM     12  C   UNL     1      12.527  19.355 -10.617  1.00  0.00     0.025 A 
ATOM     13  C   UNL     1      11.362  19.964 -10.119  1.00  0.00     0.016 A 
ATOM     14  C   UNL     1      10.173  19.236 -10.014  1.00  0.00     0.051 A 
ATOM     15  C   UNL     1      10.128  17.894 -10.419  1.00  0.00     0.157 A 
ATOM     16  C   UNL     1      12.470  18.016 -11.041  1.00  0.00     0.062 A 
ATOM     17  C   UNL     1      11.278  17.285 -10.936  1.00  0.00     0.158 A 
BRANCH  15  18
ATOM     18  O   UNL     1       8.945  17.166 -10.315  1.00  0.00    -0.504 OA
ATOM     19  H   UNL     1       8.901  16.187 -10.571  1.00  0.00     0.293 HD
ENDBRANCH  15  18
BRANCH  17  20
ATOM     20  O   UNL     1      11.228  15.953 -11.344  1.00  0.00    -0.504 OA
ATOM     21  H   UNL     1      12.064  15.381 -11.388  1.00  0.00     0.293 HD
ENDBRANCH  17  20
ENDBRANCH   1  12
BRANCH   2  22
ATOM     22  O   UNL     1      14.442  19.658  -8.464  1.00  0.00    -0.502 OA
ATOM     23  H   UNL     1      14.587  20.131  -7.581  1.00  0.00     0.293 HD
ENDBRANCH   2  22
BRANCH   6  24
ATOM     24  O   UNL     1      18.165  22.870 -10.512  1.00  0.00    -0.507 OA
ATOM     25  H   UNL     1      19.102  22.511 -10.417  1.00  0.00     0.293 HD
ENDBRANCH   6  24
BRANCH   8  26
ATOM     26  O   UNL     1      16.760  23.017 -15.084  1.00  0.00    -0.508 OA
ATOM     27  H   UNL     1      16.761  22.385 -15.876  1.00  0.00     0.293 HD
ENDBRANCH   8  26
TORSDOF 6
ENDMDL
