MODEL 1
REMARK VINA RESULT:    -6.115      0.000      0.000
REMARK INTER + INTRA:         -19.502
REMARK INTER:                 -15.410
REMARK INTRA:                  -4.092
REMARK UNBOUND:                -4.092
REMARK SMILES CCCCCCCCCCCCCCCCCCCCCCCCCCCC(=O)[O-]
REMARK SMILES IDX 15 1 16 2 17 3 18 4 19 5 20 6 21 7 22 8 23 9 24 10 25 11
REMARK SMILES IDX 26 12 27 13 28 14 29 15 30 16 14 17 13 18 12 19 11 20 10 21
REMARK SMILES IDX 9 22 8 23 7 24 6 25 5 26 4 27 3 28 2 29 1 30
REMARK H PARENT
REMARK Flexibility Score: inf
ROOT
ATOM      1  C   UNL     1      61.647   4.370  21.739  1.00  0.00     0.000 C 
ENDROOT
BRANCH   1   2
ATOM      2  C   UNL     1      61.011   3.017  21.375  1.00  0.00     0.000 C 
BRANCH   2   3
ATOM      3  C   UNL     1      61.243   2.626  19.907  1.00  0.00     0.000 C 
BRANCH   3   4
ATOM      4  C   UNL     1      62.126   1.373  19.758  1.00  0.00     0.000 C 
BRANCH   4   5
ATOM      5  C   UNL     1      63.557   1.704  19.283  1.00  0.00     0.000 C 
BRANCH   5   6
ATOM      6  C   UNL     1      63.814   3.207  19.070  1.00  0.00     0.000 C 
BRANCH   6   7
ATOM      7  C   UNL     1      65.295   3.611  18.953  1.00  0.00     0.000 C 
BRANCH   7   8
ATOM      8  C   UNL     1      65.914   4.195  20.237  1.00  0.00     0.000 C 
BRANCH   8   9
ATOM      9  C   UNL     1      65.417   5.619  20.542  1.00  0.00     0.000 C 
BRANCH   9  10
ATOM     10  C   UNL     1      66.498   6.493  21.198  1.00  0.00     0.000 C 
BRANCH  10  11
ATOM     11  C   UNL     1      66.738   7.802  20.425  1.00  0.00     0.000 C 
BRANCH  11  12
ATOM     12  C   UNL     1      65.473   8.325  19.719  1.00  0.00     0.006 C 
BRANCH  12  13
ATOM     13  C   UNL     1      65.657   9.694  19.039  1.00  0.00     0.053 C 
BRANCH  13  14
ATOM     14  C   UNL     1      65.358  10.841  19.954  1.00  0.00     0.041 C 
ATOM     15  O   UNL     1      64.576  10.689  20.930  1.00  0.00    -0.550 OA
ATOM     16  O   UNL     1      65.941  12.080  19.729  1.00  0.00    -0.550 OA
ENDBRANCH  13  14
ENDBRANCH  12  13
ENDBRANCH  11  12
ENDBRANCH  10  11
ENDBRANCH   9  10
ENDBRANCH   8   9
ENDBRANCH   7   8
ENDBRANCH   6   7
ENDBRANCH   5   6
ENDBRANCH   4   5
ENDBRANCH   3   4
ENDBRANCH   2   3
ENDBRANCH   1   2
BRANCH   1  17
ATOM     17  C   UNL     1      62.747   4.225  22.805  1.00  0.00     0.000 C 
BRANCH  17  18
ATOM     18  C   UNL     1      62.941   2.764  23.246  1.00  0.00     0.000 C 
BRANCH  18  19
ATOM     19  C   UNL     1      64.305   2.192  22.830  1.00  0.00     0.000 C 
BRANCH  19  20
ATOM     20  C   UNL     1      65.318   2.164  23.984  1.00  0.00     0.000 C 
BRANCH  20  21
ATOM     21  C   UNL     1      66.456   3.169  23.745  1.00  0.00     0.000 C 
BRANCH  21  22
ATOM     22  C   UNL     1      66.140   4.556  24.331  1.00  0.00    -0.000 C 
BRANCH  22  23
ATOM     23  C   UNL     1      67.308   5.113  25.165  1.00  0.00    -0.000 C 
BRANCH  23  24
ATOM     24  C   UNL     1      68.684   4.773  24.555  1.00  0.00    -0.000 C 
BRANCH  24  25
ATOM     25  C   UNL     1      69.100   5.703  23.402  1.00  0.00    -0.000 C 
BRANCH  25  26
ATOM     26  C   UNL     1      70.570   5.534  22.996  1.00  0.00    -0.000 C 
BRANCH  26  27
ATOM     27  C   UNL     1      71.232   6.895  22.732  1.00  0.00    -0.000 C 
BRANCH  27  28
ATOM     28  C   UNL     1      70.296   7.876  22.008  1.00  0.00    -0.000 C 
BRANCH  28  29
ATOM     29  C   UNL     1      70.377   7.745  20.479  1.00  0.00    -0.003 C 
ATOM     30  C   UNL     1      71.826   7.612  20.015  1.00  0.00     0.004 C 
ENDBRANCH  28  29
ENDBRANCH  27  28
ENDBRANCH  26  27
ENDBRANCH  25  26
ENDBRANCH  24  25
ENDBRANCH  23  24
ENDBRANCH  22  23
ENDBRANCH  21  22
ENDBRANCH  20  21
ENDBRANCH  19  20
ENDBRANCH  18  19
ENDBRANCH  17  18
ENDBRANCH   1  17
TORSDOF 26
ENDMDL
MODEL 2
REMARK VINA RESULT:    -6.069      7.091     11.683
REMARK INTER + INTRA:         -19.385
REMARK INTER:                 -14.953
REMARK INTRA:                  -4.432
REMARK UNBOUND:                -4.092
REMARK SMILES CCCCCCCCCCCCCCCCCCCCCCCCCCCC(=O)[O-]
REMARK SMILES IDX 15 1 16 2 17 3 18 4 19 5 20 6 21 7 22 8 23 9 24 10 25 11
REMARK SMILES IDX 26 12 27 13 28 14 29 15 30 16 14 17 13 18 12 19 11 20 10 21
REMARK SMILES IDX 9 22 8 23 7 24 6 25 5 26 4 27 3 28 2 29 1 30
REMARK H PARENT
REMARK Flexibility Score: inf
ROOT
ATOM      1  C   UNL     1      77.597   5.945  20.979  1.00  0.00     0.000 C 
ENDROOT
BRANCH   1   2
ATOM      2  C   UNL     1      78.695   4.892  21.212  1.00  0.00     0.000 C 
BRANCH   2   3
ATOM      3  C   UNL     1      78.127   3.493  21.499  1.00  0.00     0.000 C 
BRANCH   3   4
ATOM      4  C   UNL     1      77.354   3.428  22.830  1.00  0.00     0.000 C 
BRANCH   4   5
ATOM      5  C   UNL     1      75.832   3.271  22.630  1.00  0.00     0.000 C 
BRANCH   5   6
ATOM      6  C   UNL     1      75.445   2.482  21.366  1.00  0.00     0.000 C 
BRANCH   6   7
ATOM      7  C   UNL     1      73.971   2.603  20.940  1.00  0.00     0.000 C 
BRANCH   7   8
ATOM      8  C   UNL     1      72.963   2.687  22.102  1.00  0.00     0.000 C 
BRANCH   8   9
ATOM      9  C   UNL     1      71.850   3.721  21.850  1.00  0.00     0.000 C 
BRANCH   9  10
ATOM     10  C   UNL     1      71.940   4.353  20.451  1.00  0.00     0.000 C 
BRANCH  10  11
ATOM     11  C   UNL     1      71.380   5.786  20.423  1.00  0.00     0.000 C 
BRANCH  11  12
ATOM     12  C   UNL     1      72.379   6.811  19.853  1.00  0.00     0.006 C 
BRANCH  12  13
ATOM     13  C   UNL     1      73.771   6.760  20.511  1.00  0.00     0.053 C 
BRANCH  13  14
ATOM     14  C   UNL     1      73.858   7.595  21.750  1.00  0.00     0.041 C 
ATOM     15  O   UNL     1      74.550   8.648  21.761  1.00  0.00    -0.550 OA
ATOM     16  O   UNL     1      73.177   7.211  22.896  1.00  0.00    -0.550 OA
ENDBRANCH  13  14
ENDBRANCH  12  13
ENDBRANCH  11  12
ENDBRANCH  10  11
ENDBRANCH   9  10
ENDBRANCH   8   9
ENDBRANCH   7   8
ENDBRANCH   6   7
ENDBRANCH   5   6
ENDBRANCH   4   5
ENDBRANCH   3   4
ENDBRANCH   2   3
ENDBRANCH   1   2
BRANCH   1  17
ATOM     17  C   UNL     1      77.633   7.064  22.034  1.00  0.00     0.000 C 
BRANCH  17  18
ATOM     18  C   UNL     1      78.876   6.973  22.936  1.00  0.00     0.000 C 
BRANCH  18  19
ATOM     19  C   UNL     1      78.531   6.637  24.395  1.00  0.00     0.000 C 
BRANCH  19  20
ATOM     20  C   UNL     1      77.071   6.956  24.752  1.00  0.00     0.000 C 
BRANCH  20  21
ATOM     21  C   UNL     1      76.950   7.436  26.207  1.00  0.00     0.000 C 
BRANCH  21  22
ATOM     22  C   UNL     1      76.394   8.867  26.303  1.00  0.00    -0.000 C 
BRANCH  22  23
ATOM     23  C   UNL     1      75.790   9.345  24.970  1.00  0.00    -0.000 C 
BRANCH  23  24
ATOM     24  C   UNL     1      76.172  10.803  24.638  1.00  0.00    -0.000 C 
BRANCH  24  25
ATOM     25  C   UNL     1      77.628  11.160  24.984  1.00  0.00    -0.000 C 
BRANCH  25  26
ATOM     26  C   UNL     1      78.650  10.409  24.122  1.00  0.00    -0.000 C 
BRANCH  26  27
ATOM     27  C   UNL     1      80.048  10.451  24.758  1.00  0.00    -0.000 C 
BRANCH  27  28
ATOM     28  C   UNL     1      80.208   9.436  25.900  1.00  0.00    -0.000 C 
BRANCH  28  29
ATOM     29  C   UNL     1      80.857  10.053  27.149  1.00  0.00    -0.003 C 
ATOM     30  C   UNL     1      79.842  10.864  27.952  1.00  0.00     0.004 C 
ENDBRANCH  28  29
ENDBRANCH  27  28
ENDBRANCH  26  27
ENDBRANCH  25  26
ENDBRANCH  24  25
ENDBRANCH  23  24
ENDBRANCH  22  23
ENDBRANCH  21  22
ENDBRANCH  20  21
ENDBRANCH  19  20
ENDBRANCH  18  19
ENDBRANCH  17  18
ENDBRANCH   1  17
TORSDOF 26
ENDMDL
MODEL 3
REMARK VINA RESULT:    -6.029      1.768      5.141
REMARK INTER + INTRA:         -19.286
REMARK INTER:                 -15.020
REMARK INTRA:                  -4.266
REMARK UNBOUND:                -4.092
REMARK SMILES CCCCCCCCCCCCCCCCCCCCCCCCCCCC(=O)[O-]
REMARK SMILES IDX 15 1 16 2 17 3 18 4 19 5 20 6 21 7 22 8 23 9 24 10 25 11
REMARK SMILES IDX 26 12 27 13 28 14 29 15 30 16 14 17 13 18 12 19 11 20 10 21
REMARK SMILES IDX 9 22 8 23 7 24 6 25 5 26 4 27 3 28 2 29 1 30
REMARK H PARENT
REMARK Flexibility Score: inf
ROOT
ATOM      1  C   UNL     1      61.251   4.190  21.710  1.00  0.00     0.000 C 
ENDROOT
BRANCH   1   2
ATOM      2  C   UNL     1      62.563   4.145  22.513  1.00  0.00     0.000 C 
BRANCH   2   3
ATOM      3  C   UNL     1      62.804   2.784  23.185  1.00  0.00     0.000 C 
BRANCH   3   4
ATOM      4  C   UNL     1      64.139   2.141  22.765  1.00  0.00     0.000 C 
BRANCH   4   5
ATOM      5  C   UNL     1      65.075   1.871  23.962  1.00  0.00     0.000 C 
BRANCH   5   6
ATOM      6  C   UNL     1      66.411   2.634  23.895  1.00  0.00     0.000 C 
BRANCH   6   7
ATOM      7  C   UNL     1      66.649   3.645  25.032  1.00  0.00     0.000 C 
BRANCH   7   8
ATOM      8  C   UNL     1      66.522   5.125  24.623  1.00  0.00     0.000 C 
BRANCH   8   9
ATOM      9  C   UNL     1      67.666   5.587  23.702  1.00  0.00     0.000 C 
BRANCH   9  10
ATOM     10  C   UNL     1      69.047   5.138  24.208  1.00  0.00     0.000 C 
BRANCH  10  11
ATOM     11  C   UNL     1      69.834   4.359  23.139  1.00  0.00     0.000 C 
BRANCH  11  12
ATOM     12  C   UNL     1      70.432   5.268  22.050  1.00  0.00     0.006 C 
BRANCH  12  13
ATOM     13  C   UNL     1      70.892   6.644  22.566  1.00  0.00     0.053 C 
BRANCH  13  14
ATOM     14  C   UNL     1      70.559   7.758  21.624  1.00  0.00     0.041 C 
ATOM     15  O   UNL     1      70.323   8.916  22.065  1.00  0.00    -0.550 OA
ATOM     16  O   UNL     1      70.504   7.521  20.258  1.00  0.00    -0.550 OA
ENDBRANCH  13  14
ENDBRANCH  12  13
ENDBRANCH  11  12
ENDBRANCH  10  11
ENDBRANCH   9  10
ENDBRANCH   8   9
ENDBRANCH   7   8
ENDBRANCH   6   7
ENDBRANCH   5   6
ENDBRANCH   4   5
ENDBRANCH   3   4
ENDBRANCH   2   3
ENDBRANCH   1   2
BRANCH   1  17
ATOM     17  C   UNL     1      60.875   2.813  21.135  1.00  0.00     0.000 C 
BRANCH  17  18
ATOM     18  C   UNL     1      61.430   2.604  19.716  1.00  0.00     0.000 C 
BRANCH  18  19
ATOM     19  C   UNL     1      62.338   1.369  19.606  1.00  0.00     0.000 C 
BRANCH  19  20
ATOM     20  C   UNL     1      63.789   1.725  19.247  1.00  0.00     0.000 C 
BRANCH  20  21
ATOM     21  C   UNL     1      63.973   3.246  19.133  1.00  0.00     0.000 C 
BRANCH  21  22
ATOM     22  C   UNL     1      65.453   3.644  18.993  1.00  0.00    -0.000 C 
BRANCH  22  23
ATOM     23  C   UNL     1      66.058   4.102  20.333  1.00  0.00    -0.000 C 
BRANCH  23  24
ATOM     24  C   UNL     1      65.401   5.393  20.866  1.00  0.00    -0.000 C 
BRANCH  24  25
ATOM     25  C   UNL     1      65.760   6.654  20.061  1.00  0.00    -0.000 C 
BRANCH  25  26
ATOM     26  C   UNL     1      66.980   7.397  20.623  1.00  0.00    -0.000 C 
BRANCH  26  27
ATOM     27  C   UNL     1      66.730   8.911  20.673  1.00  0.00    -0.000 C 
BRANCH  27  28
ATOM     28  C   UNL     1      66.111   9.451  19.374  1.00  0.00    -0.000 C 
BRANCH  28  29
ATOM     29  C   UNL     1      64.955  10.429  19.635  1.00  0.00    -0.003 C 
ATOM     30  C   UNL     1      63.754   9.710  20.245  1.00  0.00     0.004 C 
ENDBRANCH  28  29
ENDBRANCH  27  28
ENDBRANCH  26  27
ENDBRANCH  25  26
ENDBRANCH  24  25
ENDBRANCH  23  24
ENDBRANCH  22  23
ENDBRANCH  21  22
ENDBRANCH  20  21
ENDBRANCH  19  20
ENDBRANCH  18  19
ENDBRANCH  17  18
ENDBRANCH   1  17
TORSDOF 26
ENDMDL
MODEL 4
REMARK VINA RESULT:    -6.024      1.636      6.235
REMARK INTER + INTRA:         -19.272
REMARK INTER:                 -15.731
REMARK INTRA:                  -3.541
REMARK UNBOUND:                -4.092
REMARK SMILES CCCCCCCCCCCCCCCCCCCCCCCCCCCC(=O)[O-]
REMARK SMILES IDX 15 1 16 2 17 3 18 4 19 5 20 6 21 7 22 8 23 9 24 10 25 11
REMARK SMILES IDX 26 12 27 13 28 14 29 15 30 16 14 17 13 18 12 19 11 20 10 21
REMARK SMILES IDX 9 22 8 23 7 24 6 25 5 26 4 27 3 28 2 29 1 30
REMARK H PARENT
REMARK Flexibility Score: inf
ROOT
ATOM      1  C   UNL     1      67.940   4.787  24.927  1.00  0.00     0.000 C 
ENDROOT
BRANCH   1   2
ATOM      2  C   UNL     1      68.639   4.112  23.734  1.00  0.00     0.000 C 
BRANCH   2   3
ATOM      3  C   UNL     1      69.453   5.101  22.884  1.00  0.00     0.000 C 
BRANCH   3   4
ATOM      4  C   UNL     1      69.008   5.125  21.410  1.00  0.00     0.000 C 
BRANCH   4   5
ATOM      5  C   UNL     1      67.492   5.366  21.247  1.00  0.00     0.000 C 
BRANCH   5   6
ATOM      6  C   UNL     1      67.082   6.848  21.329  1.00  0.00     0.000 C 
BRANCH   6   7
ATOM      7  C   UNL     1      66.112   7.324  20.232  1.00  0.00     0.000 C 
BRANCH   7   8
ATOM      8  C   UNL     1      66.032   8.852  20.052  1.00  0.00     0.000 C 
BRANCH   8   9
ATOM      9  C   UNL     1      64.693   9.308  19.444  1.00  0.00     0.000 C 
BRANCH   9  10
ATOM     10  C   UNL     1      63.621   9.575  20.512  1.00  0.00     0.000 C 
BRANCH  10  11
ATOM     11  C   UNL     1      63.239  11.064  20.595  1.00  0.00     0.000 C 
BRANCH  11  12
ATOM     12  C   UNL     1      64.393  11.954  21.094  1.00  0.00     0.006 C 
BRANCH  12  13
ATOM     13  C   UNL     1      64.321  13.409  20.594  1.00  0.00     0.053 C 
BRANCH  13  14
ATOM     14  C   UNL     1      65.485  13.784  19.731  1.00  0.00     0.041 C 
ATOM     15  O   UNL     1      66.580  13.169  19.838  1.00  0.00    -0.550 OA
ATOM     16  O   UNL     1      65.365  14.815  18.810  1.00  0.00    -0.550 OA
ENDBRANCH  13  14
ENDBRANCH  12  13
ENDBRANCH  11  12
ENDBRANCH  10  11
ENDBRANCH   9  10
ENDBRANCH   8   9
ENDBRANCH   7   8
ENDBRANCH   6   7
ENDBRANCH   5   6
ENDBRANCH   4   5
ENDBRANCH   3   4
ENDBRANCH   2   3
ENDBRANCH   1   2
BRANCH   1  17
ATOM     17  C   UNL     1      66.438   4.456  24.983  1.00  0.00     0.000 C 
BRANCH  17  18
ATOM     18  C   UNL     1      66.128   3.062  24.410  1.00  0.00     0.000 C 
BRANCH  18  19
ATOM     19  C   UNL     1      65.302   3.119  23.115  1.00  0.00     0.000 C 
BRANCH  19  20
ATOM     20  C   UNL     1      64.335   4.312  23.077  1.00  0.00     0.000 C 
BRANCH  20  21
ATOM     21  C   UNL     1      62.876   3.838  22.986  1.00  0.00     0.000 C 
BRANCH  21  22
ATOM     22  C   UNL     1      62.035   4.720  22.047  1.00  0.00    -0.000 C 
BRANCH  22  23
ATOM     23  C   UNL     1      61.025   3.896  21.228  1.00  0.00    -0.000 C 
BRANCH  23  24
ATOM     24  C   UNL     1      60.915   2.437  21.721  1.00  0.00    -0.000 C 
BRANCH  24  25
ATOM     25  C   UNL     1      61.226   1.389  20.639  1.00  0.00    -0.000 C 
BRANCH  25  26
ATOM     26  C   UNL     1      61.870   1.994  19.385  1.00  0.00    -0.000 C 
BRANCH  26  27
ATOM     27  C   UNL     1      63.259   1.389  19.129  1.00  0.00    -0.000 C 
BRANCH  27  28
ATOM     28  C   UNL     1      64.358   2.059  19.967  1.00  0.00    -0.000 C 
BRANCH  28  29
ATOM     29  C   UNL     1      64.663   3.491  19.502  1.00  0.00    -0.003 C 
ATOM     30  C   UNL     1      65.517   3.488  18.236  1.00  0.00     0.004 C 
ENDBRANCH  28  29
ENDBRANCH  27  28
ENDBRANCH  26  27
ENDBRANCH  25  26
ENDBRANCH  24  25
ENDBRANCH  23  24
ENDBRANCH  22  23
ENDBRANCH  21  22
ENDBRANCH  20  21
ENDBRANCH  19  20
ENDBRANCH  18  19
ENDBRANCH  17  18
ENDBRANCH   1  17
TORSDOF 26
ENDMDL
MODEL 5
REMARK VINA RESULT:    -6.012      2.892      6.682
REMARK INTER + INTRA:         -19.242
REMARK INTER:                 -15.313
REMARK INTRA:                  -3.928
REMARK UNBOUND:                -4.092
REMARK SMILES CCCCCCCCCCCCCCCCCCCCCCCCCCCC(=O)[O-]
REMARK SMILES IDX 15 1 16 2 17 3 18 4 19 5 20 6 21 7 22 8 23 9 24 10 25 11
REMARK SMILES IDX 26 12 27 13 28 14 29 15 30 16 14 17 13 18 12 19 11 20 10 21
REMARK SMILES IDX 9 22 8 23 7 24 6 25 5 26 4 27 3 28 2 29 1 30
REMARK H PARENT
REMARK Flexibility Score: inf
ROOT
ATOM      1  C   UNL     1      64.376   3.161  18.738  1.00  0.00     0.000 C 
ENDROOT
BRANCH   1   2
ATOM      2  C   UNL     1      64.673   2.100  19.814  1.00  0.00     0.000 C 
BRANCH   2   3
ATOM      3  C   UNL     1      63.546   1.065  19.955  1.00  0.00     0.000 C 
BRANCH   3   4
ATOM      4  C   UNL     1      62.178   1.611  19.506  1.00  0.00     0.000 C 
BRANCH   4   5
ATOM      5  C   UNL     1      61.312   2.099  20.686  1.00  0.00     0.000 C 
BRANCH   5   6
ATOM      6  C   UNL     1      61.102   3.624  20.717  1.00  0.00     0.000 C 
BRANCH   6   7
ATOM      7  C   UNL     1      61.937   4.382  21.766  1.00  0.00     0.000 C 
BRANCH   7   8
ATOM      8  C   UNL     1      62.386   3.538  22.974  1.00  0.00     0.000 C 
BRANCH   8   9
ATOM      9  C   UNL     1      63.917   3.490  23.127  1.00  0.00     0.000 C 
BRANCH   9  10
ATOM     10  C   UNL     1      64.423   2.103  23.556  1.00  0.00     0.000 C 
BRANCH  10  11
ATOM     11  C   UNL     1      65.958   2.000  23.505  1.00  0.00     0.000 C 
BRANCH  11  12
ATOM     12  C   UNL     1      66.662   3.309  23.910  1.00  0.00     0.006 C 
BRANCH  12  13
ATOM     13  C   UNL     1      68.047   3.499  23.264  1.00  0.00     0.053 C 
BRANCH  13  14
ATOM     14  C   UNL     1      68.740   4.740  23.734  1.00  0.00     0.041 C 
ATOM     15  O   UNL     1      68.994   4.902  24.958  1.00  0.00    -0.550 OA
ATOM     16  O   UNL     1      69.105   5.721  22.823  1.00  0.00    -0.550 OA
ENDBRANCH  13  14
ENDBRANCH  12  13
ENDBRANCH  11  12
ENDBRANCH  10  11
ENDBRANCH   9  10
ENDBRANCH   8   9
ENDBRANCH   7   8
ENDBRANCH   6   7
ENDBRANCH   5   6
ENDBRANCH   4   5
ENDBRANCH   3   4
ENDBRANCH   2   3
ENDBRANCH   1   2
BRANCH   1  17
ATOM     17  C   UNL     1      65.039   4.512  19.058  1.00  0.00     0.000 C 
BRANCH  17  18
ATOM     18  C   UNL     1      65.961   4.432  20.287  1.00  0.00     0.000 C 
BRANCH  18  19
ATOM     19  C   UNL     1      65.960   5.723  21.120  1.00  0.00     0.000 C 
BRANCH  19  20
ATOM     20  C   UNL     1      65.583   6.964  20.296  1.00  0.00     0.000 C 
BRANCH  20  21
ATOM     21  C   UNL     1      66.476   8.161  20.661  1.00  0.00     0.000 C 
BRANCH  21  22
ATOM     22  C   UNL     1      65.901   9.492  20.146  1.00  0.00    -0.000 C 
BRANCH  22  23
ATOM     23  C   UNL     1      64.511   9.316  19.510  1.00  0.00    -0.000 C 
BRANCH  23  24
ATOM     24  C   UNL     1      63.388   9.945  20.361  1.00  0.00    -0.000 C 
BRANCH  24  25
ATOM     25  C   UNL     1      63.857  11.112  21.247  1.00  0.00    -0.000 C 
BRANCH  25  26
ATOM     26  C   UNL     1      62.935  11.363  22.447  1.00  0.00    -0.000 C 
BRANCH  26  27
ATOM     27  C   UNL     1      63.157  12.766  23.031  1.00  0.00    -0.000 C 
BRANCH  27  28
ATOM     28  C   UNL     1      63.464  13.814  21.951  1.00  0.00    -0.000 C 
BRANCH  28  29
ATOM     29  C   UNL     1      64.431  14.901  22.444  1.00  0.00    -0.003 C 
ATOM     30  C   UNL     1      64.320  15.091  23.956  1.00  0.00     0.004 C 
ENDBRANCH  28  29
ENDBRANCH  27  28
ENDBRANCH  26  27
ENDBRANCH  25  26
ENDBRANCH  24  25
ENDBRANCH  23  24
ENDBRANCH  22  23
ENDBRANCH  21  22
ENDBRANCH  20  21
ENDBRANCH  19  20
ENDBRANCH  18  19
ENDBRANCH  17  18
ENDBRANCH   1  17
TORSDOF 26
ENDMDL
MODEL 6
REMARK VINA RESULT:    -6.009      6.620     10.855
REMARK INTER + INTRA:         -19.235
REMARK INTER:                 -14.131
REMARK INTRA:                  -5.104
REMARK UNBOUND:                -4.092
REMARK SMILES CCCCCCCCCCCCCCCCCCCCCCCCCCCC(=O)[O-]
REMARK SMILES IDX 15 1 16 2 17 3 18 4 19 5 20 6 21 7 22 8 23 9 24 10 25 11
REMARK SMILES IDX 26 12 27 13 28 14 29 15 30 16 14 17 13 18 12 19 11 20 10 21
REMARK SMILES IDX 9 22 8 23 7 24 6 25 5 26 4 27 3 28 2 29 1 30
REMARK H PARENT
REMARK Flexibility Score: inf
ROOT
ATOM      1  C   UNL     1      74.123   3.273  20.968  1.00  0.00     0.000 C 
ENDROOT
BRANCH   1   2
ATOM      2  C   UNL     1      74.777   3.976  22.171  1.00  0.00     0.000 C 
BRANCH   2   3
ATOM      3  C   UNL     1      76.166   3.411  22.507  1.00  0.00     0.000 C 
BRANCH   3   4
ATOM      4  C   UNL     1      77.298   4.123  21.744  1.00  0.00     0.000 C 
BRANCH   4   5
ATOM      5  C   UNL     1      76.910   5.547  21.291  1.00  0.00     0.000 C 
BRANCH   5   6
ATOM      6  C   UNL     1      78.038   6.583  21.453  1.00  0.00     0.000 C 
BRANCH   6   7
ATOM      7  C   UNL     1      77.958   7.447  22.725  1.00  0.00     0.000 C 
BRANCH   7   8
ATOM      8  C   UNL     1      78.556   6.802  23.989  1.00  0.00     0.000 C 
BRANCH   8   9
ATOM      9  C   UNL     1      77.515   6.610  25.107  1.00  0.00     0.000 C 
BRANCH   9  10
ATOM     10  C   UNL     1      76.203   7.360  24.825  1.00  0.00     0.000 C 
BRANCH  10  11
ATOM     11  C   UNL     1      75.845   8.350  25.948  1.00  0.00     0.000 C 
BRANCH  11  12
ATOM     12  C   UNL     1      77.084   8.921  26.664  1.00  0.00     0.006 C 
BRANCH  12  13
ATOM     13  C   UNL     1      77.631  10.214  26.031  1.00  0.00     0.053 C 
BRANCH  13  14
ATOM     14  C   UNL     1      79.048  10.078  25.569  1.00  0.00     0.041 C 
ATOM     15  O   UNL     1      79.414  10.593  24.478  1.00  0.00    -0.550 OA
ATOM     16  O   UNL     1      79.967   9.380  26.339  1.00  0.00    -0.550 OA
ENDBRANCH  13  14
ENDBRANCH  12  13
ENDBRANCH  11  12
ENDBRANCH  10  11
ENDBRANCH   9  10
ENDBRANCH   8   9
ENDBRANCH   7   8
ENDBRANCH   6   7
ENDBRANCH   5   6
ENDBRANCH   4   5
ENDBRANCH   3   4
ENDBRANCH   2   3
ENDBRANCH   1   2
BRANCH   1  17
ATOM     17  C   UNL     1      72.590   3.227  21.086  1.00  0.00     0.000 C 
BRANCH  17  18
ATOM     18  C   UNL     1      72.064   4.146  22.202  1.00  0.00     0.000 C 
BRANCH  18  19
ATOM     19  C   UNL     1      70.769   3.625  22.843  1.00  0.00     0.000 C 
BRANCH  19  20
ATOM     20  C   UNL     1      69.855   4.754  23.345  1.00  0.00     0.000 C 
BRANCH  20  21
ATOM     21  C   UNL     1      70.548   6.121  23.222  1.00  0.00     0.000 C 
BRANCH  21  22
ATOM     22  C   UNL     1      69.621   7.189  22.615  1.00  0.00    -0.000 C 
BRANCH  22  23
ATOM     23  C   UNL     1      70.288   7.938  21.447  1.00  0.00    -0.000 C 
BRANCH  23  24
ATOM     24  C   UNL     1      70.603   7.010  20.254  1.00  0.00    -0.000 C 
BRANCH  24  25
ATOM     25  C   UNL     1      71.866   7.409  19.471  1.00  0.00    -0.000 C 
BRANCH  25  26
ATOM     26  C   UNL     1      73.129   6.693  19.964  1.00  0.00    -0.000 C 
BRANCH  26  27
ATOM     27  C   UNL     1      74.036   7.650  20.752  1.00  0.00    -0.000 C 
BRANCH  27  28
ATOM     28  C   UNL     1      73.783   7.592  22.266  1.00  0.00    -0.000 C 
BRANCH  28  29
ATOM     29  C   UNL     1      73.732   8.987  22.908  1.00  0.00    -0.003 C 
ATOM     30  C   UNL     1      73.240  10.034  21.910  1.00  0.00     0.004 C 
ENDBRANCH  28  29
ENDBRANCH  27  28
ENDBRANCH  26  27
ENDBRANCH  25  26
ENDBRANCH  24  25
ENDBRANCH  23  24
ENDBRANCH  22  23
ENDBRANCH  21  22
ENDBRANCH  20  21
ENDBRANCH  19  20
ENDBRANCH  18  19
ENDBRANCH  17  18
ENDBRANCH   1  17
TORSDOF 26
ENDMDL
MODEL 7
REMARK VINA RESULT:    -5.988      5.767     10.783
REMARK INTER + INTRA:         -19.183
REMARK INTER:                 -14.557
REMARK INTRA:                  -4.626
REMARK UNBOUND:                -4.092
REMARK SMILES CCCCCCCCCCCCCCCCCCCCCCCCCCCC(=O)[O-]
REMARK SMILES IDX 15 1 16 2 17 3 18 4 19 5 20 6 21 7 22 8 23 9 24 10 25 11
REMARK SMILES IDX 26 12 27 13 28 14 29 15 30 16 14 17 13 18 12 19 11 20 10 21
REMARK SMILES IDX 9 22 8 23 7 24 6 25 5 26 4 27 3 28 2 29 1 30
REMARK H PARENT
REMARK Flexibility Score: inf
ROOT
ATOM      1  C   UNL     1      75.279   5.223  21.039  1.00  0.00     0.000 C 
ENDROOT
BRANCH   1   2
ATOM      2  C   UNL     1      75.459   6.751  21.077  1.00  0.00     0.000 C 
BRANCH   2   3
ATOM      3  C   UNL     1      75.115   7.357  22.447  1.00  0.00     0.000 C 
BRANCH   3   4
ATOM      4  C   UNL     1      75.373   8.874  22.507  1.00  0.00     0.000 C 
BRANCH   4   5
ATOM      5  C   UNL     1      74.271   9.638  23.271  1.00  0.00     0.000 C 
BRANCH   5   6
ATOM      6  C   UNL     1      73.683  10.830  22.494  1.00  0.00     0.000 C 
BRANCH   6   7
ATOM      7  C   UNL     1      72.663  10.464  21.400  1.00  0.00     0.000 C 
BRANCH   7   8
ATOM      8  C   UNL     1      71.735   9.283  21.745  1.00  0.00     0.000 C 
BRANCH   8   9
ATOM      9  C   UNL     1      71.785   8.161  20.692  1.00  0.00     0.000 C 
BRANCH   9  10
ATOM     10  C   UNL     1      71.745   6.760  21.322  1.00  0.00     0.000 C 
BRANCH  10  11
ATOM     11  C   UNL     1      71.403   6.804  22.821  1.00  0.00     0.000 C 
BRANCH  11  12
ATOM     12  C   UNL     1      69.985   6.287  23.131  1.00  0.00     0.006 C 
BRANCH  12  13
ATOM     13  C   UNL     1      69.955   4.884  23.765  1.00  0.00     0.053 C 
BRANCH  13  14
ATOM     14  C   UNL     1      68.566   4.414  24.068  1.00  0.00     0.041 C 
ATOM     15  O   UNL     1      67.944   3.695  23.242  1.00  0.00    -0.550 OA
ATOM     16  O   UNL     1      67.956   4.772  25.262  1.00  0.00    -0.550 OA
ENDBRANCH  13  14
ENDBRANCH  12  13
ENDBRANCH  11  12
ENDBRANCH  10  11
ENDBRANCH   9  10
ENDBRANCH   8   9
ENDBRANCH   7   8
ENDBRANCH   6   7
ENDBRANCH   5   6
ENDBRANCH   4   5
ENDBRANCH   3   4
ENDBRANCH   2   3
ENDBRANCH   1   2
BRANCH   1  17
ATOM     17  C   UNL     1      75.452   4.583  22.428  1.00  0.00     0.000 C 
BRANCH  17  18
ATOM     18  C   UNL     1      75.897   3.113  22.341  1.00  0.00     0.000 C 
BRANCH  18  19
ATOM     19  C   UNL     1      77.047   2.896  21.345  1.00  0.00     0.000 C 
BRANCH  19  20
ATOM     20  C   UNL     1      78.413   3.311  21.912  1.00  0.00     0.000 C 
BRANCH  20  21
ATOM     21  C   UNL     1      78.892   4.631  21.287  1.00  0.00     0.000 C 
BRANCH  21  22
ATOM     22  C   UNL     1      79.650   5.511  22.297  1.00  0.00    -0.000 C 
BRANCH  22  23
ATOM     23  C   UNL     1      78.813   6.719  22.755  1.00  0.00    -0.000 C 
BRANCH  23  24
ATOM     24  C   UNL     1      78.731   6.831  24.292  1.00  0.00    -0.000 C 
BRANCH  24  25
ATOM     25  C   UNL     1      77.316   6.619  24.857  1.00  0.00    -0.000 C 
BRANCH  25  26
ATOM     26  C   UNL     1      76.950   7.628  25.953  1.00  0.00    -0.000 C 
BRANCH  26  27
ATOM     27  C   UNL     1      77.758   8.926  25.803  1.00  0.00    -0.000 C 
BRANCH  27  28
ATOM     28  C   UNL     1      76.872  10.181  25.841  1.00  0.00    -0.000 C 
BRANCH  28  29
ATOM     29  C   UNL     1      77.281  11.222  24.788  1.00  0.00    -0.003 C 
ATOM     30  C   UNL     1      76.536  12.539  24.998  1.00  0.00     0.004 C 
ENDBRANCH  28  29
ENDBRANCH  27  28
ENDBRANCH  26  27
ENDBRANCH  25  26
ENDBRANCH  24  25
ENDBRANCH  23  24
ENDBRANCH  22  23
ENDBRANCH  21  22
ENDBRANCH  20  21
ENDBRANCH  19  20
ENDBRANCH  18  19
ENDBRANCH  17  18
ENDBRANCH   1  17
TORSDOF 26
ENDMDL
MODEL 8
REMARK VINA RESULT:    -5.973      1.581      2.736
REMARK INTER + INTRA:         -19.144
REMARK INTER:                 -14.475
REMARK INTRA:                  -4.670
REMARK UNBOUND:                -4.092
REMARK SMILES CCCCCCCCCCCCCCCCCCCCCCCCCCCC(=O)[O-]
REMARK SMILES IDX 15 1 16 2 17 3 18 4 19 5 20 6 21 7 22 8 23 9 24 10 25 11
REMARK SMILES IDX 26 12 27 13 28 14 29 15 30 16 14 17 13 18 12 19 11 20 10 21
REMARK SMILES IDX 9 22 8 23 7 24 6 25 5 26 4 27 3 28 2 29 1 30
REMARK H PARENT
REMARK Flexibility Score: inf
ROOT
ATOM      1  C   UNL     1      63.363   3.901  22.958  1.00  0.00     0.000 C 
ENDROOT
BRANCH   1   2
ATOM      2  C   UNL     1      61.852   3.743  22.709  1.00  0.00     0.000 C 
BRANCH   2   3
ATOM      3  C   UNL     1      61.488   3.776  21.217  1.00  0.00     0.000 C 
BRANCH   3   4
ATOM      4  C   UNL     1      61.100   2.390  20.669  1.00  0.00     0.000 C 
BRANCH   4   5
ATOM      5  C   UNL     1      61.984   1.946  19.484  1.00  0.00     0.000 C 
BRANCH   5   6
ATOM      6  C   UNL     1      63.320   1.307  19.906  1.00  0.00     0.000 C 
BRANCH   6   7
ATOM      7  C   UNL     1      64.582   2.077  19.477  1.00  0.00     0.000 C 
BRANCH   7   8
ATOM      8  C   UNL     1      64.317   3.438  18.805  1.00  0.00     0.000 C 
BRANCH   8   9
ATOM      9  C   UNL     1      64.822   4.623  19.647  1.00  0.00     0.000 C 
BRANCH   9  10
ATOM     10  C   UNL     1      66.120   4.298  20.405  1.00  0.00     0.000 C 
BRANCH  10  11
ATOM     11  C   UNL     1      66.940   5.560  20.725  1.00  0.00     0.000 C 
BRANCH  11  12
ATOM     12  C   UNL     1      66.095   6.847  20.710  1.00  0.00     0.006 C 
BRANCH  12  13
ATOM     13  C   UNL     1      66.889   8.112  20.335  1.00  0.00     0.053 C 
BRANCH  13  14
ATOM     14  C   UNL     1      67.180   8.985  21.516  1.00  0.00     0.041 C 
ATOM     15  O   UNL     1      66.483  10.011  21.736  1.00  0.00    -0.550 OA
ATOM     16  O   UNL     1      68.223   8.669  22.375  1.00  0.00    -0.550 OA
ENDBRANCH  13  14
ENDBRANCH  12  13
ENDBRANCH  11  12
ENDBRANCH  10  11
ENDBRANCH   9  10
ENDBRANCH   8   9
ENDBRANCH   7   8
ENDBRANCH   6   7
ENDBRANCH   5   6
ENDBRANCH   4   5
ENDBRANCH   3   4
ENDBRANCH   2   3
ENDBRANCH   1   2
BRANCH   1  17
ATOM     17  C   UNL     1      64.065   2.545  23.145  1.00  0.00     0.000 C 
BRANCH  17  18
ATOM     18  C   UNL     1      65.465   2.695  23.764  1.00  0.00     0.000 C 
BRANCH  18  19
ATOM     19  C   UNL     1      65.839   4.158  24.046  1.00  0.00     0.000 C 
BRANCH  19  20
ATOM     20  C   UNL     1      67.351   4.363  24.227  1.00  0.00     0.000 C 
BRANCH  20  21
ATOM     21  C   UNL     1      68.150   3.357  23.384  1.00  0.00     0.000 C 
BRANCH  21  22
ATOM     22  C   UNL     1      69.483   3.944  22.887  1.00  0.00    -0.000 C 
BRANCH  22  23
ATOM     23  C   UNL     1      69.647   5.423  23.282  1.00  0.00    -0.000 C 
BRANCH  23  24
ATOM     24  C   UNL     1      70.756   6.130  22.475  1.00  0.00    -0.000 C 
BRANCH  24  25
ATOM     25  C   UNL     1      70.644   5.928  20.954  1.00  0.00    -0.000 C 
BRANCH  25  26
ATOM     26  C   UNL     1      70.639   7.249  20.172  1.00  0.00    -0.000 C 
BRANCH  26  27
ATOM     27  C   UNL     1      71.965   8.003  20.350  1.00  0.00    -0.000 C 
BRANCH  27  28
ATOM     28  C   UNL     1      73.181   7.166  19.926  1.00  0.00    -0.000 C 
BRANCH  28  29
ATOM     29  C   UNL     1      74.332   7.244  20.941  1.00  0.00    -0.003 C 
ATOM     30  C   UNL     1      75.356   6.137  20.699  1.00  0.00     0.004 C 
ENDBRANCH  28  29
ENDBRANCH  27  28
ENDBRANCH  26  27
ENDBRANCH  25  26
ENDBRANCH  24  25
ENDBRANCH  23  24
ENDBRANCH  22  23
ENDBRANCH  21  22
ENDBRANCH  20  21
ENDBRANCH  19  20
ENDBRANCH  18  19
ENDBRANCH  17  18
ENDBRANCH   1  17
TORSDOF 26
ENDMDL
MODEL 9
REMARK VINA RESULT:    -5.923      6.337     10.940
REMARK INTER + INTRA:         -19.019
REMARK INTER:                 -14.240
REMARK INTRA:                  -4.779
REMARK UNBOUND:                -4.092
REMARK SMILES CCCCCCCCCCCCCCCCCCCCCCCCCCCC(=O)[O-]
REMARK SMILES IDX 15 1 16 2 17 3 18 4 19 5 20 6 21 7 22 8 23 9 24 10 25 11
REMARK SMILES IDX 26 12 27 13 28 14 29 15 30 16 14 17 13 18 12 19 11 20 10 21
REMARK SMILES IDX 9 22 8 23 7 24 6 25 5 26 4 27 3 28 2 29 1 30
REMARK H PARENT
REMARK Flexibility Score: inf
ROOT
ATOM      1  C   UNL     1      78.025   6.193  21.146  1.00  0.00     0.000 C 
ENDROOT
BRANCH   1   2
ATOM      2  C   UNL     1      79.123   5.128  21.317  1.00  0.00     0.000 C 
BRANCH   2   3
ATOM      3  C   UNL     1      78.562   3.698  21.369  1.00  0.00     0.000 C 
BRANCH   3   4
ATOM      4  C   UNL     1      77.619   3.474  22.567  1.00  0.00     0.000 C 
BRANCH   4   5
ATOM      5  C   UNL     1      76.174   3.146  22.137  1.00  0.00     0.000 C 
BRANCH   5   6
ATOM      6  C   UNL     1      75.140   4.205  22.563  1.00  0.00     0.000 C 
BRANCH   6   7
ATOM      7  C   UNL     1      73.802   4.162  21.802  1.00  0.00     0.000 C 
BRANCH   7   8
ATOM      8  C   UNL     1      73.824   4.821  20.410  1.00  0.00     0.000 C 
BRANCH   8   9
ATOM      9  C   UNL     1      74.537   6.185  20.410  1.00  0.00     0.000 C 
BRANCH   9  10
ATOM     10  C   UNL     1      73.572   7.355  20.661  1.00  0.00     0.000 C 
BRANCH  10  11
ATOM     11  C   UNL     1      72.384   7.351  19.683  1.00  0.00     0.000 C 
BRANCH  11  12
ATOM     12  C   UNL     1      71.119   8.004  20.270  1.00  0.00     0.006 C 
BRANCH  12  13
ATOM     13  C   UNL     1      71.027   7.922  21.805  1.00  0.00     0.053 C 
BRANCH  13  14
ATOM     14  C   UNL     1      70.297   6.703  22.277  1.00  0.00     0.041 C 
ATOM     15  O   UNL     1      69.449   6.141  21.533  1.00  0.00    -0.550 OA
ATOM     16  O   UNL     1      70.550   6.186  23.540  1.00  0.00    -0.550 OA
ENDBRANCH  13  14
ENDBRANCH  12  13
ENDBRANCH  11  12
ENDBRANCH  10  11
ENDBRANCH   9  10
ENDBRANCH   8   9
ENDBRANCH   7   8
ENDBRANCH   6   7
ENDBRANCH   5   6
ENDBRANCH   4   5
ENDBRANCH   3   4
ENDBRANCH   2   3
ENDBRANCH   1   2
BRANCH   1  17
ATOM     17  C   UNL     1      78.129   7.307  22.202  1.00  0.00     0.000 C 
BRANCH  17  18
ATOM     18  C   UNL     1      76.750   7.849  22.614  1.00  0.00     0.000 C 
BRANCH  18  19
ATOM     19  C   UNL     1      76.218   7.207  23.905  1.00  0.00     0.000 C 
BRANCH  19  20
ATOM     20  C   UNL     1      75.003   7.947  24.484  1.00  0.00     0.000 C 
BRANCH  20  21
ATOM     21  C   UNL     1      75.291   8.456  25.905  1.00  0.00     0.000 C 
BRANCH  21  22
ATOM     22  C   UNL     1      76.734   8.158  26.348  1.00  0.00    -0.000 C 
BRANCH  22  23
ATOM     23  C   UNL     1      77.543   9.445  26.593  1.00  0.00    -0.000 C 
BRANCH  23  24
ATOM     24  C   UNL     1      78.344   9.884  25.349  1.00  0.00    -0.000 C 
BRANCH  24  25
ATOM     25  C   UNL     1      77.700  11.045  24.571  1.00  0.00    -0.000 C 
BRANCH  25  26
ATOM     26  C   UNL     1      76.877  11.981  25.464  1.00  0.00    -0.000 C 
BRANCH  26  27
ATOM     27  C   UNL     1      75.515  12.297  24.828  1.00  0.00    -0.000 C 
BRANCH  27  28
ATOM     28  C   UNL     1      75.124  11.286  23.739  1.00  0.00    -0.000 C 
BRANCH  28  29
ATOM     29  C   UNL     1      73.616  11.296  23.442  1.00  0.00    -0.003 C 
ATOM     30  C   UNL     1      73.337  10.878  22.000  1.00  0.00     0.004 C 
ENDBRANCH  28  29
ENDBRANCH  27  28
ENDBRANCH  26  27
ENDBRANCH  25  26
ENDBRANCH  24  25
ENDBRANCH  23  24
ENDBRANCH  22  23
ENDBRANCH  21  22
ENDBRANCH  20  21
ENDBRANCH  19  20
ENDBRANCH  18  19
ENDBRANCH  17  18
ENDBRANCH   1  17
TORSDOF 26
ENDMDL
