MODEL 1
REMARK VINA RESULT:    23.680      0.000      0.000
REMARK INTER + INTRA:          31.454
REMARK INTER:                  32.679
REMARK INTRA:                  -1.225
REMARK UNBOUND:                -1.225
REMARK SMILES CC[C@H](CC[C@@H](C)[C@@H]1CC[C@@H]2[C@@H]3CC=C4C[C@@H](O)CC[C@]4(C)[C@H]3CC[C@@]21C)C(C)C
REMARK SMILES IDX 5 1 4 2 3 3 2 4 1 5 28 6 29 7 30 8 6 9 7 10 8 11 9 12 26 13
REMARK SMILES IDX 10 14 11 15 25 16 27 17 12 18 24 19 23 20 13 21 21 22 14 23
REMARK SMILES IDX 15 24 20 25 22 26 16 27 19 28 17 29 18 30
REMARK H PARENT 18 31
REMARK Flexibility Score: inf
ROOT
ATOM      1  C   UNL     1       7.089  15.121  20.704  1.00  0.00     0.004 C 
ENDROOT
BRANCH   1   2
ATOM      2  C   UNL     1       6.115  15.529  21.832  1.00  0.00     0.004 C 
BRANCH   2   3
ATOM      3  C   UNL     1       6.113  17.055  22.146  1.00  0.00    -0.009 C 
BRANCH   3   4
ATOM      4  C   UNL     1       6.670  17.931  20.986  1.00  0.00     0.000 C 
ATOM      5  C   UNL     1       5.637  18.450  19.986  1.00  0.00     0.004 C 
ENDBRANCH   3   4
BRANCH   3   6
ATOM      6  C   UNL     1       4.737  17.576  22.689  1.00  0.00    -0.014 C 
ATOM      7  C   UNL     1       4.702  17.538  24.226  1.00  0.00     0.007 C 
ATOM      8  C   UNL     1       3.506  16.831  22.133  1.00  0.00     0.007 C 
ENDBRANCH   3   6
ENDBRANCH   2   3
ENDBRANCH   1   2
BRANCH   1   9
ATOM      9  C   UNL     1       6.669  13.803  19.985  1.00  0.00    -0.011 C 
ATOM     10  C   UNL     1       6.998  12.579  20.854  1.00  0.00     0.008 C 
BRANCH   9  11
ATOM     11  C   UNL     1       5.205  13.749  19.415  1.00  0.00    -0.002 C 
ATOM     12  C   UNL     1       4.571  12.346  19.483  1.00  0.00     0.005 C 
ATOM     13  C   UNL     1       4.853  14.329  18.002  1.00  0.00    -0.026 C 
ATOM     14  C   UNL     1       3.658  12.217  18.268  1.00  0.00     0.005 C 
ATOM     15  C   UNL     1       3.504  13.632  17.701  1.00  0.00    -0.001 C 
ATOM     16  C   UNL     1       5.901  13.949  16.921  1.00  0.00     0.007 C 
ATOM     17  C   UNL     1       4.652  15.868  18.055  1.00  0.00     0.012 C 
ATOM     18  C   UNL     1       3.026  13.719  16.214  1.00  0.00     0.000 C 
ATOM     19  C   UNL     1       5.410  14.197  15.495  1.00  0.00     0.005 C 
ATOM     20  C   UNL     1       4.131  13.380  15.185  1.00  0.00     0.003 C 
ATOM     21  C   UNL     1       1.791  12.833  15.977  1.00  0.00     0.031 C 
ATOM     22  C   UNL     1       3.627  13.554  13.694  1.00  0.00    -0.008 C 
ATOM     23  C   UNL     1       1.364  12.800  14.542  1.00  0.00    -0.027 C 
ATOM     24  C   UNL     1       2.217  12.968  13.509  1.00  0.00    -0.065 C 
ATOM     25  C   UNL     1       4.604  12.793  12.743  1.00  0.00     0.014 C 
ATOM     26  C   UNL     1       3.576  15.053  13.285  1.00  0.00     0.016 C 
ATOM     27  C   UNL     1       1.699  12.737  12.102  1.00  0.00     0.063 C 
ATOM     28  C   UNL     1       4.089  12.663  11.301  1.00  0.00     0.033 C 
ATOM     29  C   UNL     1       2.727  11.966  11.263  1.00  0.00     0.118 C 
BRANCH  29  30
ATOM     30  O   UNL     1       2.291  11.883   9.931  1.00  0.00    -0.393 OA
ATOM     31  H   UNL     1       2.713  11.073   9.541  1.00  0.00     0.210 HD
ENDBRANCH  29  30
ENDBRANCH   9  11
ENDBRANCH   1   9
TORSDOF 7
ENDMDL
