MODEL 1
REMARK VINA RESULT:    -5.550      0.000      0.000
REMARK INTER + INTRA:          -6.810
REMARK INTER:                  -6.524
REMARK INTRA:                  -0.287
REMARK UNBOUND:                -0.287
REMARK SMILES O=c1c(O)c(-c2ccc(O)cc2)oc2cc(O)cc(O)c12
REMARK SMILES IDX 5 1 3 2 2 3 1 4 21 5 19 6 18 7 16 8 15 9 14 10 13 11 6 12
REMARK SMILES IDX 7 13 8 14 9 15 12 16 11 17 10 18 4 20 20 22 17 24
REMARK H PARENT 10 19 4 21 20 23 17 25
REMARK Flexibility Score: inf
ROOT
ATOM      1  C   UNL     1      -0.825  -5.348  -2.776  1.00  0.00     0.180 A 
ATOM      2  C   UNL     1       0.480  -4.863  -2.580  1.00  0.00     0.208 A 
ATOM      3  C   UNL     1       0.942  -4.662  -1.270  1.00  0.00     0.238 A 
ATOM      4  O   UNL     1       2.136  -4.300  -1.100  1.00  0.00    -0.285 OA
ATOM      5  C   UNL     1       0.077  -4.894  -0.173  1.00  0.00     0.111 A 
ATOM      6  C   UNL     1       0.423  -4.681   1.196  1.00  0.00     0.134 A 
ATOM      7  C   UNL     1      -0.479  -5.046   2.202  1.00  0.00     0.093 A 
ATOM      8  C   UNL     1      -1.738  -5.556   1.891  1.00  0.00     0.123 A 
ATOM      9  C   UNL     1      -2.109  -5.717   0.555  1.00  0.00     0.094 A 
ATOM     10  C   UNL     1      -1.217  -5.398  -0.471  1.00  0.00     0.146 A 
ATOM     11  O   UNL     1      -1.602  -5.587  -1.727  1.00  0.00    -0.452 OA
ENDROOT
BRANCH   1  12
ATOM     12  C   UNL     1      -1.378  -5.599  -4.126  1.00  0.00     0.021 A 
ATOM     13  C   UNL     1      -1.231  -6.870  -4.707  1.00  0.00     0.016 A 
ATOM     14  C   UNL     1      -1.727  -7.123  -5.990  1.00  0.00     0.047 A 
ATOM     15  C   UNL     1      -2.359  -6.104  -6.715  1.00  0.00     0.115 A 
ATOM     16  C   UNL     1      -1.996  -4.576  -4.868  1.00  0.00     0.016 A 
ATOM     17  C   UNL     1      -2.489  -4.831  -6.150  1.00  0.00     0.047 A 
BRANCH  15  18
ATOM     18  O   UNL     1      -2.856  -6.344  -7.994  1.00  0.00    -0.508 OA
ATOM     19  H   UNL     1      -3.821  -6.144  -8.233  1.00  0.00     0.293 HD
ENDBRANCH  15  18
ENDBRANCH   1  12
BRANCH   2  20
ATOM     20  O   UNL     1       1.293  -4.567  -3.678  1.00  0.00    -0.502 OA
ATOM     21  H   UNL     1       2.170  -4.068  -3.586  1.00  0.00     0.293 HD
ENDBRANCH   2  20
BRANCH   6  22
ATOM     22  O   UNL     1       1.621  -4.095   1.618  1.00  0.00    -0.507 OA
ATOM     23  H   UNL     1       2.157  -4.387   2.421  1.00  0.00     0.293 HD
ENDBRANCH   6  22
BRANCH   8  24
ATOM     24  O   UNL     1      -2.617  -5.892   2.918  1.00  0.00    -0.508 OA
ATOM     25  H   UNL     1      -2.420  -6.655   3.556  1.00  0.00     0.293 HD
ENDBRANCH   8  24
TORSDOF 5
ENDMDL
MODEL 2
REMARK VINA RESULT:    -5.402     14.087     15.896
REMARK INTER + INTRA:          -6.637
REMARK INTER:                  -6.350
REMARK INTRA:                  -0.287
REMARK UNBOUND:                -0.287
REMARK SMILES O=c1c(O)c(-c2ccc(O)cc2)oc2cc(O)cc(O)c12
REMARK SMILES IDX 5 1 3 2 2 3 1 4 21 5 19 6 18 7 16 8 15 9 14 10 13 11 6 12
REMARK SMILES IDX 7 13 8 14 9 15 12 16 11 17 10 18 4 20 20 22 17 24
REMARK H PARENT 10 19 4 21 20 23 17 25
REMARK Flexibility Score: inf
ROOT
ATOM      1  C   UNL     1       0.879   8.917  -1.855  1.00  0.00     0.180 A 
ATOM      2  C   UNL     1       1.304   7.613  -2.162  1.00  0.00     0.208 A 
ATOM      3  C   UNL     1       2.237   7.426  -3.195  1.00  0.00     0.238 A 
ATOM      4  O   UNL     1       2.669   6.264  -3.414  1.00  0.00    -0.285 OA
ATOM      5  C   UNL     1       2.691   8.538  -3.943  1.00  0.00     0.111 A 
ATOM      6  C   UNL     1       3.603   8.462  -5.041  1.00  0.00     0.134 A 
ATOM      7  C   UNL     1       4.063   9.641  -5.640  1.00  0.00     0.093 A 
ATOM      8  C   UNL     1       3.600  10.888  -5.225  1.00  0.00     0.123 A 
ATOM      9  C   UNL     1       2.668  10.972  -4.191  1.00  0.00     0.094 A 
ATOM     10  C   UNL     1       2.218   9.817  -3.548  1.00  0.00     0.146 A 
ATOM     11  O   UNL     1       1.348   9.943  -2.554  1.00  0.00    -0.452 OA
ENDROOT
BRANCH   1  12
ATOM     12  C   UNL     1      -0.091   9.195  -0.772  1.00  0.00     0.021 A 
ATOM     13  C   UNL     1      -1.440   9.421  -1.094  1.00  0.00     0.016 A 
ATOM     14  C   UNL     1      -2.370   9.707  -0.089  1.00  0.00     0.047 A 
ATOM     15  C   UNL     1      -1.959   9.788   1.248  1.00  0.00     0.115 A 
ATOM     16  C   UNL     1       0.317   9.297   0.571  1.00  0.00     0.016 A 
ATOM     17  C   UNL     1      -0.614   9.586   1.573  1.00  0.00     0.047 A 
BRANCH  15  18
ATOM     18  O   UNL     1      -2.876  10.073   2.258  1.00  0.00    -0.508 OA
ATOM     19  H   UNL     1      -3.857  10.228   2.054  1.00  0.00     0.293 HD
ENDBRANCH  15  18
ENDBRANCH   1  12
BRANCH   2  20
ATOM     20  O   UNL     1       0.785   6.520  -1.462  1.00  0.00    -0.502 OA
ATOM     21  H   UNL     1       1.031   6.324  -0.499  1.00  0.00     0.293 HD
ENDBRANCH   2  20
BRANCH   6  22
ATOM     22  O   UNL     1       4.062   7.263  -5.594  1.00  0.00    -0.507 OA
ATOM     23  H   UNL     1       3.608   6.368  -5.496  1.00  0.00     0.293 HD
ENDBRANCH   6  22
BRANCH   8  24
ATOM     24  O   UNL     1       4.068  12.039  -5.856  1.00  0.00    -0.508 OA
ATOM     25  H   UNL     1       3.810  12.263  -6.810  1.00  0.00     0.293 HD
ENDBRANCH   8  24
TORSDOF 5
ENDMDL
MODEL 3
REMARK VINA RESULT:    -5.341     13.626     14.580
REMARK INTER + INTRA:          -6.564
REMARK INTER:                  -6.377
REMARK INTRA:                  -0.187
REMARK UNBOUND:                -0.287
REMARK SMILES O=c1c(O)c(-c2ccc(O)cc2)oc2cc(O)cc(O)c12
REMARK SMILES IDX 5 1 3 2 2 3 1 4 21 5 19 6 18 7 16 8 15 9 14 10 13 11 6 12
REMARK SMILES IDX 7 13 8 14 9 15 12 16 11 17 10 18 4 20 20 22 17 24
REMARK H PARENT 10 19 4 21 20 23 17 25
REMARK Flexibility Score: inf
ROOT
ATOM      1  C   UNL     1       1.379   8.777  -2.398  1.00  0.00     0.180 A 
ATOM      2  C   UNL     1       1.794   7.479  -2.055  1.00  0.00     0.208 A 
ATOM      3  C   UNL     1       1.031   6.739  -1.137  1.00  0.00     0.238 A 
ATOM      4  O   UNL     1       1.367   5.551  -0.893  1.00  0.00    -0.285 OA
ATOM      5  C   UNL     1      -0.105   7.326  -0.530  1.00  0.00     0.111 A 
ATOM      6  C   UNL     1      -0.927   6.686   0.447  1.00  0.00     0.134 A 
ATOM      7  C   UNL     1      -2.087   7.326   0.900  1.00  0.00     0.093 A 
ATOM      8  C   UNL     1      -2.423   8.605   0.460  1.00  0.00     0.123 A 
ATOM      9  C   UNL     1      -1.598   9.263  -0.453  1.00  0.00     0.094 A 
ATOM     10  C   UNL     1      -0.454   8.637  -0.952  1.00  0.00     0.146 A 
ATOM     11  O   UNL     1       0.290   9.289  -1.836  1.00  0.00    -0.452 OA
ENDROOT
BRANCH   1  12
ATOM     12  C   UNL     1       2.122   9.612  -3.368  1.00  0.00     0.021 A 
ATOM     13  C   UNL     1       2.109   9.266  -4.730  1.00  0.00     0.016 A 
ATOM     14  C   UNL     1       2.822  10.028  -5.660  1.00  0.00     0.047 A 
ATOM     15  C   UNL     1       3.571  11.135  -5.239  1.00  0.00     0.115 A 
ATOM     16  C   UNL     1       2.892  10.713  -2.950  1.00  0.00     0.016 A 
ATOM     17  C   UNL     1       3.605  11.472  -3.883  1.00  0.00     0.047 A 
BRANCH  15  18
ATOM     18  O   UNL     1       4.285  11.901  -6.157  1.00  0.00    -0.508 OA
ATOM     19  H   UNL     1       5.288  12.027  -6.075  1.00  0.00     0.293 HD
ENDBRANCH  15  18
ENDBRANCH   1  12
BRANCH   2  20
ATOM     20  O   UNL     1       2.962   6.945  -2.607  1.00  0.00    -0.502 OA
ATOM     21  H   UNL     1       3.618   6.395  -2.065  1.00  0.00     0.293 HD
ENDBRANCH   2  20
BRANCH   6  22
ATOM     22  O   UNL     1      -0.637   5.445   1.021  1.00  0.00    -0.507 OA
ATOM     23  H   UNL     1      -0.979   5.126   1.915  1.00  0.00     0.293 HD
ENDBRANCH   6  22
BRANCH   8  24
ATOM     24  O   UNL     1      -3.577   9.218   0.946  1.00  0.00    -0.508 OA
ATOM     25  H   UNL     1      -4.269   9.616   0.321  1.00  0.00     0.293 HD
ENDBRANCH   8  24
TORSDOF 5
ENDMDL
MODEL 4
REMARK VINA RESULT:    -5.158      2.480      3.829
REMARK INTER + INTRA:          -6.349
REMARK INTER:                  -6.066
REMARK INTRA:                  -0.283
REMARK UNBOUND:                -0.287
REMARK SMILES O=c1c(O)c(-c2ccc(O)cc2)oc2cc(O)cc(O)c12
REMARK SMILES IDX 5 1 3 2 2 3 1 4 21 5 19 6 18 7 16 8 15 9 14 10 13 11 6 12
REMARK SMILES IDX 7 13 8 14 9 15 12 16 11 17 10 18 4 20 20 22 17 24
REMARK H PARENT 10 19 4 21 20 23 17 25
REMARK Flexibility Score: inf
ROOT
ATOM      1  C   UNL     1      -0.746  -4.997  -4.811  1.00  0.00     0.180 A 
ATOM      2  C   UNL     1      -1.481  -4.229  -3.892  1.00  0.00     0.208 A 
ATOM      3  C   UNL     1      -0.863  -3.819  -2.700  1.00  0.00     0.238 A 
ATOM      4  O   UNL     1      -1.503  -3.068  -1.917  1.00  0.00    -0.285 OA
ATOM      5  C   UNL     1       0.462  -4.227  -2.415  1.00  0.00     0.111 A 
ATOM      6  C   UNL     1       1.172  -3.908  -1.218  1.00  0.00     0.134 A 
ATOM      7  C   UNL     1       2.516  -4.279  -1.092  1.00  0.00     0.093 A 
ATOM      8  C   UNL     1       3.158  -5.011  -2.089  1.00  0.00     0.123 A 
ATOM      9  C   UNL     1       2.458  -5.376  -3.240  1.00  0.00     0.094 A 
ATOM     10  C   UNL     1       1.128  -4.989  -3.412  1.00  0.00     0.146 A 
ATOM     11  O   UNL     1       0.506  -5.338  -4.530  1.00  0.00    -0.452 OA
ENDROOT
BRANCH   1  12
ATOM     12  C   UNL     1      -1.324  -5.456  -6.095  1.00  0.00     0.021 A 
ATOM     13  C   UNL     1      -1.156  -4.669  -7.247  1.00  0.00     0.016 A 
ATOM     14  C   UNL     1      -1.711  -5.072  -8.466  1.00  0.00     0.047 A 
ATOM     15  C   UNL     1      -2.456  -6.256  -8.543  1.00  0.00     0.115 A 
ATOM     16  C   UNL     1      -2.089  -6.633  -6.177  1.00  0.00     0.016 A 
ATOM     17  C   UNL     1      -2.645  -7.032  -7.396  1.00  0.00     0.047 A 
BRANCH  15  18
ATOM     18  O   UNL     1      -3.014  -6.667  -9.752  1.00  0.00    -0.508 OA
ATOM     19  H   UNL     1      -4.006  -6.858  -9.839  1.00  0.00     0.293 HD
ENDBRANCH  15  18
ENDBRANCH   1  12
BRANCH   2  20
ATOM     20  O   UNL     1      -2.814  -3.900  -4.156  1.00  0.00    -0.502 OA
ATOM     21  H   UNL     1      -3.189  -2.973  -3.992  1.00  0.00     0.293 HD
ENDBRANCH   2  20
BRANCH   6  22
ATOM     22  O   UNL     1       0.602  -3.256  -0.120  1.00  0.00    -0.507 OA
ATOM     23  H   UNL     1       0.429  -3.680   0.779  1.00  0.00     0.293 HD
ENDBRANCH   6  22
BRANCH   8  24
ATOM     24  O   UNL     1       4.492  -5.377  -1.922  1.00  0.00    -0.508 OA
ATOM     25  H   UNL     1       5.145  -4.787  -1.418  1.00  0.00     0.293 HD
ENDBRANCH   8  24
TORSDOF 5
ENDMDL
MODEL 5
REMARK VINA RESULT:    -5.009     14.693     16.348
REMARK INTER + INTRA:          -6.174
REMARK INTER:                  -5.931
REMARK INTRA:                  -0.243
REMARK UNBOUND:                -0.287
REMARK SMILES O=c1c(O)c(-c2ccc(O)cc2)oc2cc(O)cc(O)c12
REMARK SMILES IDX 5 1 3 2 2 3 1 4 21 5 19 6 18 7 16 8 15 9 14 10 13 11 6 12
REMARK SMILES IDX 7 13 8 14 9 15 12 16 11 17 10 18 4 20 20 22 17 24
REMARK H PARENT 10 19 4 21 20 23 17 25
REMARK Flexibility Score: inf
ROOT
ATOM      1  C   UNL     1      -0.129   9.856  -0.673  1.00  0.00     0.180 A 
ATOM      2  C   UNL     1       0.311  11.188  -0.587  1.00  0.00     0.208 A 
ATOM      3  C   UNL     1       1.175  11.685  -1.574  1.00  0.00     0.238 A 
ATOM      4  O   UNL     1       1.504  12.900  -1.532  1.00  0.00    -0.285 OA
ATOM      5  C   UNL     1       1.636  10.830  -2.604  1.00  0.00     0.111 A 
ATOM      6  C   UNL     1       2.549  11.214  -3.633  1.00  0.00     0.134 A 
ATOM      7  C   UNL     1       2.852  10.312  -4.660  1.00  0.00     0.093 A 
ATOM      8  C   UNL     1       2.325   9.021  -4.665  1.00  0.00     0.123 A 
ATOM      9  C   UNL     1       1.475   8.617  -3.635  1.00  0.00     0.094 A 
ATOM     10  C   UNL     1       1.124   9.505  -2.616  1.00  0.00     0.146 A 
ATOM     11  O   UNL     1       0.295   9.087  -1.669  1.00  0.00    -0.452 OA
ENDROOT
BRANCH   1  12
ATOM     12  C   UNL     1      -1.052   9.264   0.322  1.00  0.00     0.021 A 
ATOM     13  C   UNL     1      -0.563   8.322   1.243  1.00  0.00     0.016 A 
ATOM     14  C   UNL     1      -1.421   7.734   2.177  1.00  0.00     0.047 A 
ATOM     15  C   UNL     1      -2.782   8.067   2.191  1.00  0.00     0.115 A 
ATOM     16  C   UNL     1      -2.423   9.579   0.330  1.00  0.00     0.016 A 
ATOM     17  C   UNL     1      -3.279   8.987   1.263  1.00  0.00     0.047 A 
BRANCH  15  18
ATOM     18  O   UNL     1      -3.647   7.487   3.116  1.00  0.00    -0.508 OA
ATOM     19  H   UNL     1      -3.571   7.686   4.108  1.00  0.00     0.293 HD
ENDBRANCH  15  18
ENDBRANCH   1  12
BRANCH   2  20
ATOM     20  O   UNL     1      -0.094  11.995   0.481  1.00  0.00    -0.502 OA
ATOM     21  H   UNL     1       0.549  12.595   0.984  1.00  0.00     0.293 HD
ENDBRANCH   2  20
BRANCH   6  22
ATOM     22  O   UNL     1       3.203  12.449  -3.678  1.00  0.00    -0.507 OA
ATOM     23  H   UNL     1       4.191  12.587  -3.530  1.00  0.00     0.293 HD
ENDBRANCH   6  22
BRANCH   8  24
ATOM     24  O   UNL     1       2.662   8.145  -5.695  1.00  0.00    -0.508 OA
ATOM     25  H   UNL     1       3.610   7.810  -5.817  1.00  0.00     0.293 HD
ENDBRANCH   8  24
TORSDOF 5
ENDMDL
MODEL 6
REMARK VINA RESULT:    -4.993      1.663      3.335
REMARK INTER + INTRA:          -6.155
REMARK INTER:                  -5.875
REMARK INTRA:                  -0.280
REMARK UNBOUND:                -0.287
REMARK SMILES O=c1c(O)c(-c2ccc(O)cc2)oc2cc(O)cc(O)c12
REMARK SMILES IDX 5 1 3 2 2 3 1 4 21 5 19 6 18 7 16 8 15 9 14 10 13 11 6 12
REMARK SMILES IDX 7 13 8 14 9 15 12 16 11 17 10 18 4 20 20 22 17 24
REMARK H PARENT 10 19 4 21 20 23 17 25
REMARK Flexibility Score: inf
ROOT
ATOM      1  C   UNL     1      -0.478  -4.951  -1.690  1.00  0.00     0.180 A 
ATOM      2  C   UNL     1      -1.146  -5.292  -0.501  1.00  0.00     0.208 A 
ATOM      3  C   UNL     1      -0.553  -4.971   0.730  1.00  0.00     0.238 A 
ATOM      4  O   UNL     1      -1.192  -5.212   1.788  1.00  0.00    -0.285 OA
ATOM      5  C   UNL     1       0.725  -4.362   0.760  1.00  0.00     0.111 A 
ATOM      6  C   UNL     1       1.441  -4.032   1.951  1.00  0.00     0.134 A 
ATOM      7  C   UNL     1       2.653  -3.337   1.858  1.00  0.00     0.093 A 
ATOM      8  C   UNL     1       3.205  -3.014   0.620  1.00  0.00     0.123 A 
ATOM      9  C   UNL     1       2.542  -3.380  -0.552  1.00  0.00     0.094 A 
ATOM     10  C   UNL     1       1.313  -4.041  -0.492  1.00  0.00     0.146 A 
ATOM     11  O   UNL     1       0.705  -4.351  -1.630  1.00  0.00    -0.452 OA
ENDROOT
BRANCH   1  12
ATOM     12  C   UNL     1      -1.045  -5.244  -3.025  1.00  0.00     0.021 A 
ATOM     13  C   UNL     1      -0.846  -6.512  -3.597  1.00  0.00     0.016 A 
ATOM     14  C   UNL     1      -1.354  -6.804  -4.867  1.00  0.00     0.047 A 
ATOM     15  C   UNL     1      -2.052  -5.827  -5.587  1.00  0.00     0.115 A 
ATOM     16  C   UNL     1      -1.731  -4.262  -3.764  1.00  0.00     0.016 A 
ATOM     17  C   UNL     1      -2.235  -4.556  -5.033  1.00  0.00     0.047 A 
BRANCH  15  18
ATOM     18  O   UNL     1      -2.563  -6.106  -6.853  1.00  0.00    -0.508 OA
ATOM     19  H   UNL     1      -2.162  -6.830  -7.438  1.00  0.00     0.293 HD
ENDBRANCH  15  18
ENDBRANCH   1  12
BRANCH   2  20
ATOM     20  O   UNL     1      -2.372  -5.962  -0.551  1.00  0.00    -0.502 OA
ATOM     21  H   UNL     1      -2.508  -6.810  -1.089  1.00  0.00     0.293 HD
ENDBRANCH   2  20
BRANCH   6  22
ATOM     22  O   UNL     1       1.024  -4.384   3.238  1.00  0.00    -0.507 OA
ATOM     23  H   UNL     1       0.065  -4.401   3.551  1.00  0.00     0.293 HD
ENDBRANCH   6  22
BRANCH   8  24
ATOM     24  O   UNL     1       4.421  -2.336   0.566  1.00  0.00    -0.508 OA
ATOM     25  H   UNL     1       5.250  -2.696   1.024  1.00  0.00     0.293 HD
ENDBRANCH   8  24
TORSDOF 5
ENDMDL
MODEL 7
REMARK VINA RESULT:    -4.869     15.490     16.384
REMARK INTER + INTRA:          -6.010
REMARK INTER:                  -5.744
REMARK INTRA:                  -0.266
REMARK UNBOUND:                -0.287
REMARK SMILES O=c1c(O)c(-c2ccc(O)cc2)oc2cc(O)cc(O)c12
REMARK SMILES IDX 5 1 3 2 2 3 1 4 21 5 19 6 18 7 16 8 15 9 14 10 13 11 6 12
REMARK SMILES IDX 7 13 8 14 9 15 12 16 11 17 10 18 4 20 20 22 17 24
REMARK H PARENT 10 19 4 21 20 23 17 25
REMARK Flexibility Score: inf
ROOT
ATOM      1  C   UNL     1       1.696  10.616  -2.137  1.00  0.00     0.180 A 
ATOM      2  C   UNL     1       2.079  11.696  -1.323  1.00  0.00     0.208 A 
ATOM      3  C   UNL     1       1.246  12.077  -0.260  1.00  0.00     0.238 A 
ATOM      4  O   UNL     1       1.632  12.996   0.510  1.00  0.00    -0.285 OA
ATOM      5  C   UNL     1       0.013  11.411  -0.056  1.00  0.00     0.111 A 
ATOM      6  C   UNL     1      -0.932  11.743   0.963  1.00  0.00     0.134 A 
ATOM      7  C   UNL     1      -2.070  10.946   1.135  1.00  0.00     0.093 A 
ATOM      8  C   UNL     1      -2.331   9.870   0.289  1.00  0.00     0.123 A 
ATOM      9  C   UNL     1      -1.443   9.570  -0.745  1.00  0.00     0.094 A 
ATOM     10  C   UNL     1      -0.280  10.323  -0.919  1.00  0.00     0.146 A 
ATOM     11  O   UNL     1       0.549   9.990  -1.901  1.00  0.00    -0.452 OA
ENDROOT
BRANCH   1  12
ATOM     12  C   UNL     1       2.527  10.147  -3.268  1.00  0.00     0.021 A 
ATOM     13  C   UNL     1       3.394   9.057  -3.081  1.00  0.00     0.016 A 
ATOM     14  C   UNL     1       4.205   8.610  -4.129  1.00  0.00     0.047 A 
ATOM     15  C   UNL     1       4.173   9.259  -5.370  1.00  0.00     0.115 A 
ATOM     16  C   UNL     1       2.515  10.805  -4.511  1.00  0.00     0.016 A 
ATOM     17  C   UNL     1       3.328  10.357  -5.556  1.00  0.00     0.047 A 
BRANCH  15  18
ATOM     18  O   UNL     1       4.976   8.823  -6.422  1.00  0.00    -0.508 OA
ATOM     19  H   UNL     1       5.988   8.860  -6.366  1.00  0.00     0.293 HD
ENDBRANCH  15  18
ENDBRANCH   1  12
BRANCH   2  20
ATOM     20  O   UNL     1       3.263  12.390  -1.588  1.00  0.00    -0.502 OA
ATOM     21  H   UNL     1       4.047  11.966  -2.069  1.00  0.00     0.293 HD
ENDBRANCH   2  20
BRANCH   6  22
ATOM     22  O   UNL     1      -0.814  12.850   1.809  1.00  0.00    -0.507 OA
ATOM     23  H   UNL     1      -1.311  12.969   2.678  1.00  0.00     0.293 HD
ENDBRANCH   6  22
BRANCH   8  24
ATOM     24  O   UNL     1      -3.483   9.109   0.480  1.00  0.00    -0.508 OA
ATOM     25  H   UNL     1      -4.082   8.850  -0.296  1.00  0.00     0.293 HD
ENDBRANCH   8  24
TORSDOF 5
ENDMDL
MODEL 8
REMARK VINA RESULT:    -4.839     13.788     14.859
REMARK INTER + INTRA:          -5.974
REMARK INTER:                  -5.766
REMARK INTRA:                  -0.208
REMARK UNBOUND:                -0.287
REMARK SMILES O=c1c(O)c(-c2ccc(O)cc2)oc2cc(O)cc(O)c12
REMARK SMILES IDX 5 1 3 2 2 3 1 4 21 5 19 6 18 7 16 8 15 9 14 10 13 11 6 12
REMARK SMILES IDX 7 13 8 14 9 15 12 16 11 17 10 18 4 20 20 22 17 24
REMARK H PARENT 10 19 4 21 20 23 17 25
REMARK Flexibility Score: inf
ROOT
ATOM      1  C   UNL     1       1.429   9.364  -2.138  1.00  0.00     0.180 A 
ATOM      2  C   UNL     1       0.399  10.032  -1.453  1.00  0.00     0.208 A 
ATOM      3  C   UNL     1      -0.283   9.361  -0.426  1.00  0.00     0.238 A 
ATOM      4  O   UNL     1      -1.152   9.990   0.233  1.00  0.00    -0.285 OA
ATOM      5  C   UNL     1       0.033   8.012  -0.134  1.00  0.00     0.111 A 
ATOM      6  C   UNL     1      -0.624   7.218   0.856  1.00  0.00     0.134 A 
ATOM      7  C   UNL     1      -0.156   5.928   1.130  1.00  0.00     0.093 A 
ATOM      8  C   UNL     1       0.904   5.378   0.410  1.00  0.00     0.123 A 
ATOM      9  C   UNL     1       1.518   6.124  -0.597  1.00  0.00     0.094 A 
ATOM     10  C   UNL     1       1.098   7.427  -0.868  1.00  0.00     0.146 A 
ATOM     11  O   UNL     1       1.724   8.110  -1.819  1.00  0.00    -0.452 OA
ENDROOT
BRANCH   1  12
ATOM     12  C   UNL     1       2.203  10.010  -3.222  1.00  0.00     0.021 A 
ATOM     13  C   UNL     1       2.067   9.543  -4.540  1.00  0.00     0.016 A 
ATOM     14  C   UNL     1       2.805  10.124  -5.576  1.00  0.00     0.047 A 
ATOM     15  C   UNL     1       3.700  11.166  -5.305  1.00  0.00     0.115 A 
ATOM     16  C   UNL     1       3.118  11.044  -2.954  1.00  0.00     0.016 A 
ATOM     17  C   UNL     1       3.856  11.621  -3.992  1.00  0.00     0.047 A 
BRANCH  15  18
ATOM     18  O   UNL     1       4.441  11.752  -6.329  1.00  0.00    -0.508 OA
ATOM     19  H   UNL     1       5.129  12.472  -6.139  1.00  0.00     0.293 HD
ENDBRANCH  15  18
ENDBRANCH   1  12
BRANCH   2  20
ATOM     20  O   UNL     1       0.050  11.338  -1.808  1.00  0.00    -0.502 OA
ATOM     21  H   UNL     1      -0.519  11.930  -1.214  1.00  0.00     0.293 HD
ENDBRANCH   2  20
BRANCH   6  22
ATOM     22  O   UNL     1      -1.749   7.637   1.574  1.00  0.00    -0.507 OA
ATOM     23  H   UNL     1      -2.650   7.185   1.553  1.00  0.00     0.293 HD
ENDBRANCH   6  22
BRANCH   8  24
ATOM     24  O   UNL     1       1.333   4.085   0.699  1.00  0.00    -0.508 OA
ATOM     25  H   UNL     1       2.240   3.907   1.116  1.00  0.00     0.293 HD
ENDBRANCH   8  24
TORSDOF 5
ENDMDL
MODEL 9
REMARK VINA RESULT:    -4.829     11.488     13.320
REMARK INTER + INTRA:          -5.963
REMARK INTER:                  -5.667
REMARK INTRA:                  -0.296
REMARK UNBOUND:                -0.287
REMARK SMILES O=c1c(O)c(-c2ccc(O)cc2)oc2cc(O)cc(O)c12
REMARK SMILES IDX 5 1 3 2 2 3 1 4 21 5 19 6 18 7 16 8 15 9 14 10 13 11 6 12
REMARK SMILES IDX 7 13 8 14 9 15 12 16 11 17 10 18 4 20 20 22 17 24
REMARK H PARENT 10 19 4 21 20 23 17 25
REMARK Flexibility Score: inf
ROOT
ATOM      1  C   UNL     1      -2.526   5.902   1.377  1.00  0.00     0.180 A 
ATOM      2  C   UNL     1      -3.098   7.184   1.313  1.00  0.00     0.208 A 
ATOM      3  C   UNL     1      -2.441   8.188   0.585  1.00  0.00     0.238 A 
ATOM      4  O   UNL     1      -2.997   9.311   0.470  1.00  0.00    -0.285 OA
ATOM      5  C   UNL     1      -1.192   7.914  -0.024  1.00  0.00     0.111 A 
ATOM      6  C   UNL     1      -0.415   8.868  -0.749  1.00  0.00     0.134 A 
ATOM      7  C   UNL     1       0.756   8.456  -1.398  1.00  0.00     0.093 A 
ATOM      8  C   UNL     1       1.211   7.143  -1.297  1.00  0.00     0.123 A 
ATOM      9  C   UNL     1       0.489   6.215  -0.545  1.00  0.00     0.094 A 
ATOM     10  C   UNL     1      -0.702   6.586   0.082  1.00  0.00     0.146 A 
ATOM     11  O   UNL     1      -1.370   5.667   0.768  1.00  0.00    -0.452 OA
ENDROOT
BRANCH   1  12
ATOM     12  C   UNL     1      -3.166   4.788   2.113  1.00  0.00     0.021 A 
ATOM     13  C   UNL     1      -2.836   4.571   3.461  1.00  0.00     0.016 A 
ATOM     14  C   UNL     1      -3.412   3.512   4.170  1.00  0.00     0.047 A 
ATOM     15  C   UNL     1      -4.311   2.646   3.534  1.00  0.00     0.115 A 
ATOM     16  C   UNL     1      -4.056   3.903   1.476  1.00  0.00     0.016 A 
ATOM     17  C   UNL     1      -4.628   2.844   2.187  1.00  0.00     0.047 A 
BRANCH  15  18
ATOM     18  O   UNL     1      -4.891   1.588   4.229  1.00  0.00    -0.508 OA
ATOM     19  H   UNL     1      -4.663   0.624   4.013  1.00  0.00     0.293 HD
ENDBRANCH  15  18
ENDBRANCH   1  12
BRANCH   2  20
ATOM     20  O   UNL     1      -4.293   7.455   1.985  1.00  0.00    -0.502 OA
ATOM     21  H   UNL     1      -4.664   8.393   2.081  1.00  0.00     0.293 HD
ENDBRANCH   2  20
BRANCH   6  22
ATOM     22  O   UNL     1      -0.730  10.227  -0.841  1.00  0.00    -0.507 OA
ATOM     23  H   UNL     1      -1.014  10.809  -0.067  1.00  0.00     0.293 HD
ENDBRANCH   6  22
BRANCH   8  24
ATOM     24  O   UNL     1       2.389   6.772  -1.942  1.00  0.00    -0.508 OA
ATOM     25  H   UNL     1       2.388   6.446  -2.903  1.00  0.00     0.293 HD
ENDBRANCH   8  24
TORSDOF 5
ENDMDL
