MODEL 1
REMARK VINA RESULT:    -1.571      0.000      0.000
REMARK INTER + INTRA:          -6.456
REMARK INTER:                  -4.143
REMARK INTRA:                  -2.312
REMARK UNBOUND:                -2.312
REMARK SMILES CCCCCCCCCCCCCCCCCCCCCCCCCCCCCC(=O)[O-]
REMARK SMILES IDX 16 1 17 2 18 3 19 4 20 5 21 6 22 7 23 8 24 9 25 10 26 11
REMARK SMILES IDX 27 12 28 13 29 14 30 15 31 16 32 17 15 18 14 19 13 20 12 21
REMARK SMILES IDX 11 22 10 23 9 24 8 25 7 26 6 27 5 28 4 29 3 30 2 31 1 32
REMARK H PARENT
REMARK Flexibility Score: inf
ROOT
ATOM      1  C   UNL     1      15.901  -6.664   5.672  1.00  0.00     0.000 C 
ENDROOT
BRANCH   1   2
ATOM      2  C   UNL     1      15.582  -8.152   5.446  1.00  0.00     0.000 C 
BRANCH   2   3
ATOM      3  C   UNL     1      14.198  -8.554   5.976  1.00  0.00     0.000 C 
BRANCH   3   4
ATOM      4  C   UNL     1      13.134  -8.597   4.865  1.00  0.00     0.000 C 
BRANCH   4   5
ATOM      5  C   UNL     1      12.521  -7.216   4.561  1.00  0.00     0.000 C 
BRANCH   5   6
ATOM      6  C   UNL     1      11.145  -6.938   5.213  1.00  0.00     0.000 C 
BRANCH   6   7
ATOM      7  C   UNL     1      10.099  -6.284   4.287  1.00  0.00     0.000 C 
BRANCH   7   8
ATOM      8  C   UNL     1       8.774  -7.072   4.227  1.00  0.00     0.000 C 
BRANCH   8   9
ATOM      9  C   UNL     1       8.433  -7.755   5.566  1.00  0.00     0.000 C 
BRANCH   9  10
ATOM     10  C   UNL     1       7.707  -9.101   5.390  1.00  0.00     0.000 C 
BRANCH  10  11
ATOM     11  C   UNL     1       6.200  -9.004   5.690  1.00  0.00     0.000 C 
BRANCH  11  12
ATOM     12  C   UNL     1       5.351  -8.913   4.410  1.00  0.00     0.000 C 
BRANCH  12  13
ATOM     13  C   UNL     1       4.044  -8.133   4.638  1.00  0.00     0.006 C 
BRANCH  13  14
ATOM     14  C   UNL     1       4.013  -6.799   3.881  1.00  0.00     0.053 C 
BRANCH  14  15
ATOM     15  C   UNL     1       4.432  -5.662   4.759  1.00  0.00     0.041 C 
ATOM     16  O   UNL     1       3.780  -4.586   4.753  1.00  0.00    -0.550 OA
ATOM     17  O   UNL     1       5.557  -5.785   5.566  1.00  0.00    -0.550 OA
ENDBRANCH  14  15
ENDBRANCH  13  14
ENDBRANCH  12  13
ENDBRANCH  11  12
ENDBRANCH  10  11
ENDBRANCH   9  10
ENDBRANCH   8   9
ENDBRANCH   7   8
ENDBRANCH   6   7
ENDBRANCH   5   6
ENDBRANCH   4   5
ENDBRANCH   3   4
ENDBRANCH   2   3
ENDBRANCH   1   2
BRANCH   1  18
ATOM     18  C   UNL     1      16.463  -5.987   4.404  1.00  0.00     0.000 C 
BRANCH  18  19
ATOM     19  C   UNL     1      17.907  -6.409   4.072  1.00  0.00     0.000 C 
BRANCH  19  20
ATOM     20  C   UNL     1      18.107  -7.923   3.875  1.00  0.00     0.000 C 
BRANCH  20  21
ATOM     21  C   UNL     1      19.321  -8.528   4.613  1.00  0.00     0.000 C 
BRANCH  21  22
ATOM     22  C   UNL     1      20.670  -8.375   3.883  1.00  0.00     0.000 C 
BRANCH  22  23
ATOM     23  C   UNL     1      21.637  -7.352   4.511  1.00  0.00     0.000 C 
BRANCH  23  24
ATOM     24  C   UNL     1      21.412  -5.892   4.068  1.00  0.00    -0.000 C 
BRANCH  24  25
ATOM     25  C   UNL     1      20.764  -4.974   5.128  1.00  0.00    -0.000 C 
BRANCH  25  26
ATOM     26  C   UNL     1      21.349  -5.100   6.546  1.00  0.00    -0.000 C 
BRANCH  26  27
ATOM     27  C   UNL     1      20.428  -4.518   7.631  1.00  0.00    -0.000 C 
BRANCH  27  28
ATOM     28  C   UNL     1      19.659  -5.604   8.403  1.00  0.00    -0.000 C 
BRANCH  28  29
ATOM     29  C   UNL     1      18.631  -6.376   7.542  1.00  0.00    -0.000 C 
BRANCH  29  30
ATOM     30  C   UNL     1      18.591  -7.885   7.850  1.00  0.00    -0.000 C 
BRANCH  30  31
ATOM     31  C   UNL     1      19.953  -8.423   8.320  1.00  0.00    -0.003 C 
ATOM     32  C   UNL     1      19.824  -9.839   8.876  1.00  0.00     0.004 C 
ENDBRANCH  30  31
ENDBRANCH  29  30
ENDBRANCH  28  29
ENDBRANCH  27  28
ENDBRANCH  26  27
ENDBRANCH  25  26
ENDBRANCH  24  25
ENDBRANCH  23  24
ENDBRANCH  22  23
ENDBRANCH  21  22
ENDBRANCH  20  21
ENDBRANCH  19  20
ENDBRANCH  18  19
ENDBRANCH   1  18
TORSDOF 28
ENDMDL
MODEL 2
REMARK VINA RESULT:    -1.004      2.387      4.818
REMARK INTER + INTRA:          -4.960
REMARK INTER:                  -4.212
REMARK INTRA:                  -0.748
REMARK UNBOUND:                -2.312
REMARK SMILES CCCCCCCCCCCCCCCCCCCCCCCCCCCCCC(=O)[O-]
REMARK SMILES IDX 16 1 17 2 18 3 19 4 20 5 21 6 22 7 23 8 24 9 25 10 26 11
REMARK SMILES IDX 27 12 28 13 29 14 30 15 31 16 32 17 15 18 14 19 13 20 12 21
REMARK SMILES IDX 11 22 10 23 9 24 8 25 7 26 6 27 5 28 4 29 3 30 2 31 1 32
REMARK H PARENT
REMARK Flexibility Score: inf
ROOT
ATOM      1  C   UNL     1      17.404  -5.978   9.126  1.00  0.00     0.000 C 
ENDROOT
BRANCH   1   2
ATOM      2  C   UNL     1      16.384  -6.043   7.975  1.00  0.00     0.000 C 
BRANCH   2   3
ATOM      3  C   UNL     1      17.024  -6.422   6.631  1.00  0.00     0.000 C 
BRANCH   3   4
ATOM      4  C   UNL     1      15.977  -6.767   5.559  1.00  0.00     0.000 C 
BRANCH   4   5
ATOM      5  C   UNL     1      14.827  -7.641   6.095  1.00  0.00     0.000 C 
BRANCH   5   6
ATOM      6  C   UNL     1      15.192  -9.116   6.393  1.00  0.00     0.000 C 
BRANCH   6   7
ATOM      7  C   UNL     1      14.961 -10.098   5.227  1.00  0.00     0.000 C 
BRANCH   7   8
ATOM      8  C   UNL     1      14.164  -9.472   4.064  1.00  0.00     0.000 C 
BRANCH   8   9
ATOM      9  C   UNL     1      12.694  -9.933   4.041  1.00  0.00     0.000 C 
BRANCH   9  10
ATOM     10  C   UNL     1      11.702  -8.808   4.388  1.00  0.00     0.000 C 
BRANCH  10  11
ATOM     11  C   UNL     1      10.268  -9.327   4.595  1.00  0.00     0.000 C 
BRANCH  11  12
ATOM     12  C   UNL     1       9.281  -8.201   4.950  1.00  0.00     0.000 C 
BRANCH  12  13
ATOM     13  C   UNL     1       7.827  -8.704   5.003  1.00  0.00     0.006 C 
BRANCH  13  14
ATOM     14  C   UNL     1       7.692 -10.045   5.735  1.00  0.00     0.053 C 
BRANCH  14  15
ATOM     15  C   UNL     1       7.332  -9.848   7.175  1.00  0.00     0.041 C 
ATOM     16  O   UNL     1       6.168 -10.110   7.576  1.00  0.00    -0.550 OA
ATOM     17  O   UNL     1       8.276  -9.354   8.066  1.00  0.00    -0.550 OA
ENDBRANCH  14  15
ENDBRANCH  13  14
ENDBRANCH  12  13
ENDBRANCH  11  12
ENDBRANCH  10  11
ENDBRANCH   9  10
ENDBRANCH   8   9
ENDBRANCH   7   8
ENDBRANCH   6   7
ENDBRANCH   5   6
ENDBRANCH   4   5
ENDBRANCH   3   4
ENDBRANCH   2   3
ENDBRANCH   1   2
BRANCH   1  18
ATOM     18  C   UNL     1      18.826  -6.366   8.670  1.00  0.00     0.000 C 
BRANCH  18  19
ATOM     19  C   UNL     1      18.858  -7.591   7.736  1.00  0.00     0.000 C 
BRANCH  19  20
ATOM     20  C   UNL     1      19.795  -8.725   8.194  1.00  0.00     0.000 C 
BRANCH  20  21
ATOM     21  C   UNL     1      19.586 -10.078   7.480  1.00  0.00     0.000 C 
BRANCH  21  22
ATOM     22  C   UNL     1      18.461 -10.092   6.426  1.00  0.00     0.000 C 
BRANCH  22  23
ATOM     23  C   UNL     1      18.778  -9.326   5.127  1.00  0.00     0.000 C 
BRANCH  23  24
ATOM     24  C   UNL     1      19.881  -9.958   4.254  1.00  0.00    -0.000 C 
BRANCH  24  25
ATOM     25  C   UNL     1      21.264  -9.275   4.342  1.00  0.00    -0.000 C 
BRANCH  25  26
ATOM     26  C   UNL     1      21.264  -7.764   4.049  1.00  0.00    -0.000 C 
BRANCH  26  27
ATOM     27  C   UNL     1      19.910  -7.095   4.334  1.00  0.00    -0.000 C 
BRANCH  27  28
ATOM     28  C   UNL     1      20.050  -5.783   5.124  1.00  0.00    -0.000 C 
BRANCH  28  29
ATOM     29  C   UNL     1      21.461  -5.152   5.047  1.00  0.00    -0.000 C 
BRANCH  29  30
ATOM     30  C   UNL     1      21.617  -4.153   3.886  1.00  0.00    -0.000 C 
BRANCH  30  31
ATOM     31  C   UNL     1      20.605  -2.997   3.966  1.00  0.00    -0.003 C 
ATOM     32  C   UNL     1      21.186  -1.805   4.720  1.00  0.00     0.004 C 
ENDBRANCH  30  31
ENDBRANCH  29  30
ENDBRANCH  28  29
ENDBRANCH  27  28
ENDBRANCH  26  27
ENDBRANCH  25  26
ENDBRANCH  24  25
ENDBRANCH  23  24
ENDBRANCH  22  23
ENDBRANCH  21  22
ENDBRANCH  20  21
ENDBRANCH  19  20
ENDBRANCH  18  19
ENDBRANCH   1  18
TORSDOF 28
ENDMDL
MODEL 3
REMARK VINA RESULT:     0.143      1.461      3.737
REMARK INTER + INTRA:          -1.934
REMARK INTER:                  -3.132
REMARK INTRA:                   1.198
REMARK UNBOUND:                -2.312
REMARK SMILES CCCCCCCCCCCCCCCCCCCCCCCCCCCCCC(=O)[O-]
REMARK SMILES IDX 16 1 17 2 18 3 19 4 20 5 21 6 22 7 23 8 24 9 25 10 26 11
REMARK SMILES IDX 27 12 28 13 29 14 30 15 31 16 32 17 15 18 14 19 13 20 12 21
REMARK SMILES IDX 11 22 10 23 9 24 8 25 7 26 6 27 5 28 4 29 3 30 2 31 1 32
REMARK H PARENT
REMARK Flexibility Score: inf
ROOT
ATOM      1  C   UNL     1      18.083  -6.415   8.642  1.00  0.00     0.000 C 
ENDROOT
BRANCH   1   2
ATOM      2  C   UNL     1      17.305  -6.214   7.330  1.00  0.00     0.000 C 
BRANCH   2   3
ATOM      3  C   UNL     1      15.846  -6.686   7.423  1.00  0.00     0.000 C 
BRANCH   3   4
ATOM      4  C   UNL     1      15.598  -7.984   6.636  1.00  0.00     0.000 C 
BRANCH   4   5
ATOM      5  C   UNL     1      14.179  -8.068   6.041  1.00  0.00     0.000 C 
BRANCH   5   6
ATOM      6  C   UNL     1      14.020  -7.498   4.610  1.00  0.00     0.000 C 
BRANCH   6   7
ATOM      7  C   UNL     1      12.654  -7.765   3.944  1.00  0.00     0.000 C 
BRANCH   7   8
ATOM      8  C   UNL     1      11.497  -7.002   4.622  1.00  0.00     0.000 C 
BRANCH   8   9
ATOM      9  C   UNL     1      10.122  -7.376   4.036  1.00  0.00     0.000 C 
BRANCH   9  10
ATOM     10  C   UNL     1       8.945  -6.929   4.923  1.00  0.00     0.000 C 
BRANCH  10  11
ATOM     11  C   UNL     1       8.012  -8.094   5.298  1.00  0.00     0.000 C 
BRANCH  11  12
ATOM     12  C   UNL     1       7.571  -8.911   4.071  1.00  0.00     0.000 C 
BRANCH  12  13
ATOM     13  C   UNL     1       6.039  -8.954   3.926  1.00  0.00     0.006 C 
BRANCH  13  14
ATOM     14  C   UNL     1       5.320  -8.159   5.023  1.00  0.00     0.053 C 
BRANCH  14  15
ATOM     15  C   UNL     1       3.844  -8.102   4.778  1.00  0.00     0.041 C 
ATOM     16  O   UNL     1       3.306  -7.025   4.414  1.00  0.00    -0.550 OA
ATOM     17  O   UNL     1       3.063  -9.234   4.975  1.00  0.00    -0.550 OA
ENDBRANCH  14  15
ENDBRANCH  13  14
ENDBRANCH  12  13
ENDBRANCH  11  12
ENDBRANCH  10  11
ENDBRANCH   9  10
ENDBRANCH   8   9
ENDBRANCH   7   8
ENDBRANCH   6   7
ENDBRANCH   5   6
ENDBRANCH   4   5
ENDBRANCH   3   4
ENDBRANCH   2   3
ENDBRANCH   1   2
BRANCH   1  18
ATOM     18  C   UNL     1      19.344  -7.284   8.446  1.00  0.00     0.000 C 
BRANCH  18  19
ATOM     19  C   UNL     1      19.497  -8.392   9.505  1.00  0.00     0.000 C 
BRANCH  19  20
ATOM     20  C   UNL     1      19.868  -9.776   8.940  1.00  0.00     0.000 C 
BRANCH  20  21
ATOM     21  C   UNL     1      19.656  -9.944   7.421  1.00  0.00     0.000 C 
BRANCH  21  22
ATOM     22  C   UNL     1      19.329  -8.644   6.660  1.00  0.00     0.000 C 
BRANCH  22  23
ATOM     23  C   UNL     1      20.532  -7.975   5.967  1.00  0.00     0.000 C 
BRANCH  23  24
ATOM     24  C   UNL     1      20.647  -8.256   4.455  1.00  0.00    -0.000 C 
BRANCH  24  25
ATOM     25  C   UNL     1      22.077  -8.175   3.876  1.00  0.00    -0.000 C 
BRANCH  25  26
ATOM     26  C   UNL     1      23.125  -7.546   4.811  1.00  0.00    -0.000 C 
BRANCH  26  27
ATOM     27  C   UNL     1      23.047  -6.012   4.858  1.00  0.00    -0.000 C 
BRANCH  27  28
ATOM     28  C   UNL     1      21.981  -5.442   3.907  1.00  0.00    -0.000 C 
BRANCH  28  29
ATOM     29  C   UNL     1      20.920  -4.561   4.608  1.00  0.00    -0.000 C 
BRANCH  29  30
ATOM     30  C   UNL     1      19.565  -4.542   3.877  1.00  0.00    -0.000 C 
BRANCH  30  31
ATOM     31  C   UNL     1      18.870  -5.914   3.896  1.00  0.00    -0.003 C 
ATOM     32  C   UNL     1      17.351  -5.764   3.891  1.00  0.00     0.004 C 
ENDBRANCH  30  31
ENDBRANCH  29  30
ENDBRANCH  28  29
ENDBRANCH  27  28
ENDBRANCH  26  27
ENDBRANCH  25  26
ENDBRANCH  24  25
ENDBRANCH  23  24
ENDBRANCH  22  23
ENDBRANCH  21  22
ENDBRANCH  20  21
ENDBRANCH  19  20
ENDBRANCH  18  19
ENDBRANCH   1  18
TORSDOF 28
ENDMDL
