MODEL 1
REMARK VINA RESULT:    -4.110      0.000      0.000
REMARK INTER + INTRA:          -7.610
REMARK INTER:                  -6.513
REMARK INTRA:                  -1.098
REMARK UNBOUND:                -1.098
REMARK SMILES CCCCCCCCCCCC(=O)[O-]
REMARK SMILES IDX 7 1 8 2 9 3 10 4 11 5 12 6 13 7 14 8 6 9 5 10 4 11 3 12 2 13
REMARK SMILES IDX 1 14
REMARK H PARENT
REMARK Flexibility Score: inf
ROOT
ATOM      1  C   UNL     1       2.224  30.236  17.189  1.00  0.00     0.000 C 
ENDROOT
BRANCH   1   2
ATOM      2  C   UNL     1       1.324  31.483  17.243  1.00  0.00     0.000 C 
BRANCH   2   3
ATOM      3  C   UNL     1       2.123  32.796  17.322  1.00  0.00     0.000 C 
BRANCH   3   4
ATOM      4  C   UNL     1       3.612  32.634  17.679  1.00  0.00     0.006 C 
BRANCH   4   5
ATOM      5  C   UNL     1       3.933  33.071  19.115  1.00  0.00     0.053 C 
BRANCH   5   6
ATOM      6  C   UNL     1       4.109  34.555  19.181  1.00  0.00     0.041 C 
ATOM      7  O   UNL     1       5.264  35.056  19.218  1.00  0.00    -0.550 OA
ATOM      8  O   UNL     1       2.998  35.389  19.154  1.00  0.00    -0.550 OA
ENDBRANCH   5   6
ENDBRANCH   4   5
ENDBRANCH   3   4
ENDBRANCH   2   3
ENDBRANCH   1   2
BRANCH   1   9
ATOM      9  C   UNL     1       1.971  29.274  18.362  1.00  0.00     0.000 C 
BRANCH   9  10
ATOM     10  C   UNL     1       3.197  29.130  19.280  1.00  0.00    -0.000 C 
BRANCH  10  11
ATOM     11  C   UNL     1       4.517  29.062  18.496  1.00  0.00    -0.000 C 
BRANCH  11  12
ATOM     12  C   UNL     1       5.691  29.703  19.252  1.00  0.00    -0.000 C 
BRANCH  12  13
ATOM     13  C   UNL     1       6.659  30.389  18.281  1.00  0.00    -0.003 C 
ATOM     14  C   UNL     1       8.022  29.705  18.283  1.00  0.00     0.004 C 
ENDBRANCH  12  13
ENDBRANCH  11  12
ENDBRANCH  10  11
ENDBRANCH   9  10
ENDBRANCH   1   9
TORSDOF 10
ENDMDL
MODEL 2
REMARK VINA RESULT:    -4.064      3.017      5.035
REMARK INTER + INTRA:          -7.538
REMARK INTER:                  -6.563
REMARK INTRA:                  -0.976
REMARK UNBOUND:                -1.098
REMARK SMILES CCCCCCCCCCCC(=O)[O-]
REMARK SMILES IDX 7 1 8 2 9 3 10 4 11 5 12 6 13 7 14 8 6 9 5 10 4 11 3 12 2 13
REMARK SMILES IDX 1 14
REMARK H PARENT
REMARK Flexibility Score: inf
ROOT
ATOM      1  C   UNL     1       2.875  30.110  17.806  1.00  0.00     0.000 C 
ENDROOT
BRANCH   1   2
ATOM      2  C   UNL     1       4.063  29.546  17.008  1.00  0.00     0.000 C 
BRANCH   2   3
ATOM      3  C   UNL     1       5.280  30.489  16.996  1.00  0.00     0.000 C 
BRANCH   3   4
ATOM      4  C   UNL     1       5.960  30.694  18.362  1.00  0.00     0.006 C 
BRANCH   4   5
ATOM      5  C   UNL     1       6.380  29.375  19.025  1.00  0.00     0.053 C 
BRANCH   5   6
ATOM      6  C   UNL     1       7.496  28.739  18.257  1.00  0.00     0.041 C 
ATOM      7  O   UNL     1       7.374  27.564  17.818  1.00  0.00    -0.550 OA
ATOM      8  O   UNL     1       8.651  29.459  17.984  1.00  0.00    -0.550 OA
ENDBRANCH   5   6
ENDBRANCH   4   5
ENDBRANCH   3   4
ENDBRANCH   2   3
ENDBRANCH   1   2
BRANCH   1   9
ATOM      9  C   UNL     1       1.834  30.798  16.906  1.00  0.00     0.000 C 
BRANCH   9  10
ATOM     10  C   UNL     1       1.588  32.264  17.305  1.00  0.00    -0.000 C 
BRANCH  10  11
ATOM     11  C   UNL     1       2.895  33.039  17.540  1.00  0.00    -0.000 C 
BRANCH  11  12
ATOM     12  C   UNL     1       2.871  33.864  18.835  1.00  0.00    -0.000 C 
BRANCH  12  13
ATOM     13  C   UNL     1       4.105  34.769  18.932  1.00  0.00    -0.003 C 
ATOM     14  C   UNL     1       5.230  34.088  19.704  1.00  0.00     0.004 C 
ENDBRANCH  12  13
ENDBRANCH  11  12
ENDBRANCH  10  11
ENDBRANCH   9  10
ENDBRANCH   1   9
TORSDOF 10
ENDMDL
MODEL 3
REMARK VINA RESULT:    -4.021      8.846     10.597
REMARK INTER + INTRA:          -7.470
REMARK INTER:                  -6.132
REMARK INTRA:                  -1.337
REMARK UNBOUND:                -1.098
REMARK SMILES CCCCCCCCCCCC(=O)[O-]
REMARK SMILES IDX 7 1 8 2 9 3 10 4 11 5 12 6 13 7 14 8 6 9 5 10 4 11 3 12 2 13
REMARK SMILES IDX 1 14
REMARK H PARENT
REMARK Flexibility Score: inf
ROOT
ATOM      1  C   UNL     1       8.480  28.834  26.205  1.00  0.00     0.000 C 
ENDROOT
BRANCH   1   2
ATOM      2  C   UNL     1       8.826  30.093  25.391  1.00  0.00     0.000 C 
BRANCH   2   3
ATOM      3  C   UNL     1       9.995  29.872  24.412  1.00  0.00     0.000 C 
BRANCH   3   4
ATOM      4  C   UNL     1      11.307  30.584  24.791  1.00  0.00     0.006 C 
BRANCH   4   5
ATOM      5  C   UNL     1      11.081  31.996  25.346  1.00  0.00     0.053 C 
BRANCH   5   6
ATOM      6  C   UNL     1      10.649  32.923  24.253  1.00  0.00     0.041 C 
ATOM      7  O   UNL     1      11.376  33.087  23.237  1.00  0.00    -0.550 OA
ATOM      8  O   UNL     1       9.421  33.568  24.333  1.00  0.00    -0.550 OA
ENDBRANCH   5   6
ENDBRANCH   4   5
ENDBRANCH   3   4
ENDBRANCH   2   3
ENDBRANCH   1   2
BRANCH   1   9
ATOM      9  C   UNL     1       9.182  28.805  27.573  1.00  0.00     0.000 C 
BRANCH   9  10
ATOM     10  C   UNL     1       8.972  30.105  28.370  1.00  0.00    -0.000 C 
BRANCH  10  11
ATOM     11  C   UNL     1      10.296  30.755  28.800  1.00  0.00    -0.000 C 
BRANCH  11  12
ATOM     12  C   UNL     1      11.525  29.935  28.379  1.00  0.00    -0.000 C 
BRANCH  12  13
ATOM     13  C   UNL     1      12.789  30.439  29.086  1.00  0.00    -0.003 C 
ATOM     14  C   UNL     1      13.707  31.175  28.116  1.00  0.00     0.004 C 
ENDBRANCH  12  13
ENDBRANCH  11  12
ENDBRANCH  10  11
ENDBRANCH   9  10
ENDBRANCH   1   9
TORSDOF 10
ENDMDL
MODEL 4
REMARK VINA RESULT:    -4.020     10.318     11.984
REMARK INTER + INTRA:          -7.468
REMARK INTER:                  -6.409
REMARK INTRA:                  -1.059
REMARK UNBOUND:                -1.098
REMARK SMILES CCCCCCCCCCCC(=O)[O-]
REMARK SMILES IDX 7 1 8 2 9 3 10 4 11 5 12 6 13 7 14 8 6 9 5 10 4 11 3 12 2 13
REMARK SMILES IDX 1 14
REMARK H PARENT
REMARK Flexibility Score: inf
ROOT
ATOM      1  C   UNL     1       9.704  30.607  29.038  1.00  0.00     0.000 C 
ENDROOT
BRANCH   1   2
ATOM      2  C   UNL     1       9.002  30.766  27.679  1.00  0.00     0.000 C 
BRANCH   2   3
ATOM      3  C   UNL     1       9.754  30.070  26.530  1.00  0.00     0.000 C 
BRANCH   3   4
ATOM      4  C   UNL     1      10.140  30.986  25.354  1.00  0.00     0.006 C 
BRANCH   4   5
ATOM      5  C   UNL     1      10.032  32.478  25.698  1.00  0.00     0.053 C 
BRANCH   5   6
ATOM      6  C   UNL     1      10.769  33.300  24.688  1.00  0.00     0.041 C 
ATOM      7  O   UNL     1      11.107  32.796  23.585  1.00  0.00    -0.550 OA
ATOM      8  O   UNL     1      11.041  34.638  24.946  1.00  0.00    -0.550 OA
ENDBRANCH   5   6
ENDBRANCH   4   5
ENDBRANCH   3   4
ENDBRANCH   2   3
ENDBRANCH   1   2
BRANCH   1   9
ATOM      9  C   UNL     1      10.072  31.959  29.673  1.00  0.00     0.000 C 
BRANCH   9  10
ATOM     10  C   UNL     1      10.609  31.809  31.108  1.00  0.00    -0.000 C 
BRANCH  10  11
ATOM     11  C   UNL     1      12.129  31.583  31.148  1.00  0.00    -0.000 C 
BRANCH  11  12
ATOM     12  C   UNL     1      12.848  32.160  29.920  1.00  0.00    -0.000 C 
BRANCH  12  13
ATOM     13  C   UNL     1      13.445  31.041  29.058  1.00  0.00    -0.003 C 
ATOM     14  C   UNL     1      13.223  31.309  27.573  1.00  0.00     0.004 C 
ENDBRANCH  12  13
ENDBRANCH  11  12
ENDBRANCH  10  11
ENDBRANCH   9  10
ENDBRANCH   1   9
TORSDOF 10
ENDMDL
MODEL 5
REMARK VINA RESULT:    -3.992      3.108      5.232
REMARK INTER + INTRA:          -7.424
REMARK INTER:                  -6.399
REMARK INTRA:                  -1.025
REMARK UNBOUND:                -1.098
REMARK SMILES CCCCCCCCCCCC(=O)[O-]
REMARK SMILES IDX 7 1 8 2 9 3 10 4 11 5 12 6 13 7 14 8 6 9 5 10 4 11 3 12 2 13
REMARK SMILES IDX 1 14
REMARK H PARENT
REMARK Flexibility Score: inf
ROOT
ATOM      1  C   UNL     1       2.876  29.854  18.599  1.00  0.00     0.000 C 
ENDROOT
BRANCH   1   2
ATOM      2  C   UNL     1       4.019  30.337  19.509  1.00  0.00     0.000 C 
BRANCH   2   3
ATOM      3  C   UNL     1       5.383  30.362  18.796  1.00  0.00     0.000 C 
BRANCH   3   4
ATOM      4  C   UNL     1       5.846  29.010  18.223  1.00  0.00     0.006 C 
BRANCH   4   5
ATOM      5  C   UNL     1       6.607  28.156  19.247  1.00  0.00     0.053 C 
BRANCH   5   6
ATOM      6  C   UNL     1       8.050  28.549  19.283  1.00  0.00     0.041 C 
ATOM      7  O   UNL     1       8.740  28.332  20.314  1.00  0.00    -0.550 OA
ATOM      8  O   UNL     1       8.646  29.110  18.162  1.00  0.00    -0.550 OA
ENDBRANCH   5   6
ENDBRANCH   4   5
ENDBRANCH   3   4
ENDBRANCH   2   3
ENDBRANCH   1   2
BRANCH   1   9
ATOM      9  C   UNL     1       2.732  30.710  17.330  1.00  0.00     0.000 C 
BRANCH   9  10
ATOM     10  C   UNL     1       1.609  31.756  17.451  1.00  0.00    -0.000 C 
BRANCH  10  11
ATOM     11  C   UNL     1       2.134  33.198  17.365  1.00  0.00    -0.000 C 
BRANCH  11  12
ATOM     12  C   UNL     1       2.851  33.647  18.648  1.00  0.00    -0.000 C 
BRANCH  12  13
ATOM     13  C   UNL     1       4.334  33.928  18.377  1.00  0.00    -0.003 C 
ATOM     14  C   UNL     1       5.025  34.489  19.616  1.00  0.00     0.004 C 
ENDBRANCH  12  13
ENDBRANCH  11  12
ENDBRANCH  10  11
ENDBRANCH   9  10
ENDBRANCH   1   9
TORSDOF 10
ENDMDL
MODEL 6
REMARK VINA RESULT:    -3.972     10.440     12.328
REMARK INTER + INTRA:          -7.391
REMARK INTER:                  -6.296
REMARK INTRA:                  -1.096
REMARK UNBOUND:                -1.098
REMARK SMILES CCCCCCCCCCCC(=O)[O-]
REMARK SMILES IDX 7 1 8 2 9 3 10 4 11 5 12 6 13 7 14 8 6 9 5 10 4 11 3 12 2 13
REMARK SMILES IDX 1 14
REMARK H PARENT
REMARK Flexibility Score: inf
ROOT
ATOM      1  C   UNL     1      10.096  30.482  27.315  1.00  0.00     0.000 C 
ENDROOT
BRANCH   1   2
ATOM      2  C   UNL     1      11.533  30.325  26.789  1.00  0.00     0.000 C 
BRANCH   2   3
ATOM      3  C   UNL     1      12.448  31.497  27.186  1.00  0.00     0.000 C 
BRANCH   3   4
ATOM      4  C   UNL     1      13.416  31.205  28.348  1.00  0.00     0.006 C 
BRANCH   4   5
ATOM      5  C   UNL     1      12.698  30.726  29.617  1.00  0.00     0.053 C 
BRANCH   5   6
ATOM      6  C   UNL     1      12.463  31.873  30.548  1.00  0.00     0.041 C 
ATOM      7  O   UNL     1      13.308  32.150  31.440  1.00  0.00    -0.550 OA
ATOM      8  O   UNL     1      11.334  32.669  30.400  1.00  0.00    -0.550 OA
ENDBRANCH   5   6
ENDBRANCH   4   5
ENDBRANCH   3   4
ENDBRANCH   2   3
ENDBRANCH   1   2
BRANCH   1   9
ATOM      9  C   UNL     1       9.482  31.845  26.955  1.00  0.00     0.000 C 
BRANCH   9  10
ATOM     10  C   UNL     1       8.916  31.877  25.524  1.00  0.00    -0.000 C 
BRANCH  10  11
ATOM     11  C   UNL     1       9.274  33.172  24.776  1.00  0.00    -0.000 C 
BRANCH  11  12
ATOM     12  C   UNL     1      10.649  33.103  24.094  1.00  0.00    -0.000 C 
BRANCH  12  13
ATOM     13  C   UNL     1      11.443  34.392  24.330  1.00  0.00    -0.003 C 
ATOM     14  C   UNL     1      11.471  34.761  25.810  1.00  0.00     0.004 C 
ENDBRANCH  12  13
ENDBRANCH  11  12
ENDBRANCH  10  11
ENDBRANCH   9  10
ENDBRANCH   1   9
TORSDOF 10
ENDMDL
MODEL 7
REMARK VINA RESULT:    -3.929      9.871     11.647
REMARK INTER + INTRA:          -7.323
REMARK INTER:                  -5.871
REMARK INTRA:                  -1.452
REMARK UNBOUND:                -1.098
REMARK SMILES CCCCCCCCCCCC(=O)[O-]
REMARK SMILES IDX 7 1 8 2 9 3 10 4 11 5 12 6 13 7 14 8 6 9 5 10 4 11 3 12 2 13
REMARK SMILES IDX 1 14
REMARK H PARENT
REMARK Flexibility Score: inf
ROOT
ATOM      1  C   UNL     1       8.598  28.967  28.118  1.00  0.00     0.000 C 
ENDROOT
BRANCH   1   2
ATOM      2  C   UNL     1       8.621  30.380  28.725  1.00  0.00     0.000 C 
BRANCH   2   3
ATOM      3  C   UNL     1      10.034  30.988  28.777  1.00  0.00     0.000 C 
BRANCH   3   4
ATOM      4  C   UNL     1      11.160  30.067  28.272  1.00  0.00     0.006 C 
BRANCH   4   5
ATOM      5  C   UNL     1      12.387  30.061  29.194  1.00  0.00     0.053 C 
BRANCH   5   6
ATOM      6  C   UNL     1      13.230  31.273  28.947  1.00  0.00     0.041 C 
ATOM      7  O   UNL     1      13.411  31.691  27.773  1.00  0.00    -0.550 OA
ATOM      8  O   UNL     1      13.777  31.969  30.017  1.00  0.00    -0.550 OA
ENDBRANCH   5   6
ENDBRANCH   4   5
ENDBRANCH   3   4
ENDBRANCH   2   3
ENDBRANCH   1   2
BRANCH   1   9
ATOM      9  C   UNL     1       7.608  28.843  26.948  1.00  0.00     0.000 C 
BRANCH   9  10
ATOM     10  C   UNL     1       7.840  29.912  25.865  1.00  0.00    -0.000 C 
BRANCH  10  11
ATOM     11  C   UNL     1       8.931  29.509  24.860  1.00  0.00    -0.000 C 
BRANCH  11  12
ATOM     12  C   UNL     1      10.065  30.541  24.768  1.00  0.00    -0.000 C 
BRANCH  12  13
ATOM     13  C   UNL     1       9.588  31.922  25.233  1.00  0.00    -0.003 C 
ATOM     14  C   UNL     1      10.765  32.862  25.470  1.00  0.00     0.004 C 
ENDBRANCH  12  13
ENDBRANCH  11  12
ENDBRANCH  10  11
ENDBRANCH   9  10
ENDBRANCH   1   9
TORSDOF 10
ENDMDL
MODEL 8
REMARK VINA RESULT:    -3.900      9.641     11.347
REMARK INTER + INTRA:          -7.277
REMARK INTER:                  -6.067
REMARK INTRA:                  -1.210
REMARK UNBOUND:                -1.098
REMARK SMILES CCCCCCCCCCCC(=O)[O-]
REMARK SMILES IDX 7 1 8 2 9 3 10 4 11 5 12 6 13 7 14 8 6 9 5 10 4 11 3 12 2 13
REMARK SMILES IDX 1 14
REMARK H PARENT
REMARK Flexibility Score: inf
ROOT
ATOM      1  C   UNL     1       9.697  29.217  27.718  1.00  0.00     0.000 C 
ENDROOT
BRANCH   1   2
ATOM      2  C   UNL     1       8.933  30.529  27.467  1.00  0.00     0.000 C 
BRANCH   2   3
ATOM      3  C   UNL     1       8.462  30.679  26.010  1.00  0.00     0.000 C 
BRANCH   3   4
ATOM      4  C   UNL     1       9.449  31.402  25.075  1.00  0.00     0.006 C 
BRANCH   4   5
ATOM      5  C   UNL     1       9.816  32.808  25.566  1.00  0.00     0.053 C 
BRANCH   5   6
ATOM      6  C   UNL     1      10.752  33.469  24.604  1.00  0.00     0.041 C 
ATOM      7  O   UNL     1      11.131  32.860  23.569  1.00  0.00    -0.550 OA
ATOM      8  O   UNL     1      11.169  34.775  24.826  1.00  0.00    -0.550 OA
ENDBRANCH   5   6
ENDBRANCH   4   5
ENDBRANCH   3   4
ENDBRANCH   2   3
ENDBRANCH   1   2
BRANCH   1   9
ATOM      9  C   UNL     1      11.114  29.456  28.267  1.00  0.00     0.000 C 
BRANCH   9  10
ATOM     10  C   UNL     1      11.917  30.451  27.411  1.00  0.00    -0.000 C 
BRANCH  10  11
ATOM     11  C   UNL     1      12.421  31.656  28.222  1.00  0.00    -0.000 C 
BRANCH  11  12
ATOM     12  C   UNL     1      12.228  31.475  29.736  1.00  0.00    -0.000 C 
BRANCH  12  13
ATOM     13  C   UNL     1      11.249  32.515  30.292  1.00  0.00    -0.003 C 
ATOM     14  C   UNL     1      10.532  33.256  29.167  1.00  0.00     0.004 C 
ENDBRANCH  12  13
ENDBRANCH  11  12
ENDBRANCH  10  11
ENDBRANCH   9  10
ENDBRANCH   1   9
TORSDOF 10
ENDMDL
MODEL 9
REMARK VINA RESULT:    -3.869      1.748      2.803
REMARK INTER + INTRA:          -7.229
REMARK INTER:                  -5.804
REMARK INTRA:                  -1.425
REMARK UNBOUND:                -1.098
REMARK SMILES CCCCCCCCCCCC(=O)[O-]
REMARK SMILES IDX 7 1 8 2 9 3 10 4 11 5 12 6 13 7 14 8 6 9 5 10 4 11 3 12 2 13
REMARK SMILES IDX 1 14
REMARK H PARENT
REMARK Flexibility Score: inf
ROOT
ATOM      1  C   UNL     1       4.202  29.191  21.672  1.00  0.00     0.000 C 
ENDROOT
BRANCH   1   2
ATOM      2  C   UNL     1       3.509  29.594  20.359  1.00  0.00     0.000 C 
BRANCH   2   3
ATOM      3  C   UNL     1       4.002  30.946  19.811  1.00  0.00     0.000 C 
BRANCH   3   4
ATOM      4  C   UNL     1       3.631  31.230  18.344  1.00  0.00     0.006 C 
BRANCH   4   5
ATOM      5  C   UNL     1       4.354  32.457  17.772  1.00  0.00     0.053 C 
BRANCH   5   6
ATOM      6  C   UNL     1       3.901  33.701  18.469  1.00  0.00     0.041 C 
ATOM      7  O   UNL     1       4.746  34.529  18.901  1.00  0.00    -0.550 OA
ATOM      8  O   UNL     1       2.545  33.970  18.600  1.00  0.00    -0.550 OA
ENDBRANCH   5   6
ENDBRANCH   4   5
ENDBRANCH   3   4
ENDBRANCH   2   3
ENDBRANCH   1   2
BRANCH   1   9
ATOM      9  C   UNL     1       5.430  28.295  21.440  1.00  0.00     0.000 C 
BRANCH   9  10
ATOM     10  C   UNL     1       5.320  27.470  20.145  1.00  0.00    -0.000 C 
BRANCH  10  11
ATOM     11  C   UNL     1       6.535  27.655  19.222  1.00  0.00    -0.000 C 
BRANCH  11  12
ATOM     12  C   UNL     1       7.342  28.920  19.549  1.00  0.00    -0.000 C 
BRANCH  12  13
ATOM     13  C   UNL     1       7.298  29.914  18.383  1.00  0.00    -0.003 C 
ATOM     14  C   UNL     1       6.624  29.301  17.159  1.00  0.00     0.004 C 
ENDBRANCH  12  13
ENDBRANCH  11  12
ENDBRANCH  10  11
ENDBRANCH   9  10
ENDBRANCH   1   9
TORSDOF 10
ENDMDL
