MODEL 1
REMARK VINA RESULT:    -6.456      0.000      0.000
REMARK INTER + INTRA:          -6.834
REMARK INTER:                  -6.834
REMARK INTRA:                   0.000
REMARK UNBOUND:                 0.000
REMARK SMILES O=c1ccc2cc(O)c(O)cc2o1
REMARK SMILES IDX 4 1 3 2 2 3 1 4 13 5 12 6 11 7 9 8 7 9 6 10 5 11 8 12 10 14
REMARK H PARENT 8 13 10 15
REMARK Flexibility Score: inf
ROOT
ATOM      1  C   UNL     1      27.263  24.230  46.863  1.00  0.00     0.019 A 
ATOM      2  C   UNL     1      28.272  24.909  46.181  1.00  0.00     0.094 A 
ATOM      3  C   UNL     1      29.584  24.832  46.659  1.00  0.00     0.336 A 
ATOM      4  O   UNL     1      30.508  25.439  46.057  1.00  0.00    -0.246 OA
ATOM      5  O   UNL     1      29.863  24.122  47.749  1.00  0.00    -0.423 OA
ATOM      6  C   UNL     1      28.930  23.459  48.429  1.00  0.00     0.142 A 
ATOM      7  C   UNL     1      29.282  22.729  49.567  1.00  0.00     0.098 A 
ATOM      8  C   UNL     1      28.311  22.026  50.293  1.00  0.00     0.161 A 
ATOM      9  C   UNL     1      26.960  22.057  49.867  1.00  0.00     0.158 A 
ATOM     10  C   UNL     1      26.610  22.790  48.726  1.00  0.00     0.062 A 
ATOM     11  C   UNL     1      27.586  23.490  48.006  1.00  0.00     0.022 A 
ENDROOT
BRANCH   9  12
ATOM     12  O   UNL     1      25.942  21.381  50.543  1.00  0.00    -0.504 OA
ATOM     13  H   UNL     1      26.038  20.996  51.471  1.00  0.00     0.293 HD
ENDBRANCH   9  12
BRANCH   8  14
ATOM     14  O   UNL     1      28.731  21.316  51.420  1.00  0.00    -0.504 OA
ATOM     15  H   UNL     1      28.275  21.365  52.321  1.00  0.00     0.293 HD
ENDBRANCH   8  14
TORSDOF 2
ENDMDL
MODEL 2
REMARK VINA RESULT:    -6.365      2.089      2.778
REMARK INTER + INTRA:          -6.737
REMARK INTER:                  -6.737
REMARK INTRA:                   0.000
REMARK UNBOUND:                 0.000
REMARK SMILES O=c1ccc2cc(O)c(O)cc2o1
REMARK SMILES IDX 4 1 3 2 2 3 1 4 13 5 12 6 11 7 9 8 7 9 6 10 5 11 8 12 10 14
REMARK H PARENT 8 13 10 15
REMARK Flexibility Score: inf
ROOT
ATOM      1  C   UNL     1      28.743  25.096  48.325  1.00  0.00     0.019 A 
ATOM      2  C   UNL     1      28.206  24.879  47.057  1.00  0.00     0.094 A 
ATOM      3  C   UNL     1      27.252  23.869  46.889  1.00  0.00     0.336 A 
ATOM      4  O   UNL     1      26.755  23.658  45.752  1.00  0.00    -0.246 OA
ATOM      5  O   UNL     1      26.866  23.128  47.925  1.00  0.00    -0.423 OA
ATOM      6  C   UNL     1      27.354  23.303  49.151  1.00  0.00     0.142 A 
ATOM      7  C   UNL     1      26.911  22.495  50.201  1.00  0.00     0.098 A 
ATOM      8  C   UNL     1      27.416  22.667  51.497  1.00  0.00     0.161 A 
ATOM      9  C   UNL     1      28.385  23.671  51.743  1.00  0.00     0.158 A 
ATOM     10  C   UNL     1      28.827  24.479  50.688  1.00  0.00     0.062 A 
ATOM     11  C   UNL     1      28.318  24.302  49.396  1.00  0.00     0.022 A 
ENDROOT
BRANCH   9  12
ATOM     12  O   UNL     1      28.930  23.897  53.008  1.00  0.00    -0.504 OA
ATOM     13  H   UNL     1      28.386  23.955  53.857  1.00  0.00     0.293 HD
ENDBRANCH   9  12
BRANCH   8  14
ATOM     14  O   UNL     1      26.930  21.826  52.500  1.00  0.00    -0.504 OA
ATOM     15  H   UNL     1      25.954  21.591  52.616  1.00  0.00     0.293 HD
ENDBRANCH   8  14
TORSDOF 2
ENDMDL
MODEL 3
REMARK VINA RESULT:    -6.059      1.300      5.053
REMARK INTER + INTRA:          -6.414
REMARK INTER:                  -6.414
REMARK INTRA:                   0.000
REMARK UNBOUND:                 0.000
REMARK SMILES O=c1ccc2cc(O)c(O)cc2o1
REMARK SMILES IDX 4 1 3 2 2 3 1 4 13 5 12 6 11 7 9 8 7 9 6 10 5 11 8 12 10 14
REMARK H PARENT 8 13 10 15
REMARK Flexibility Score: inf
ROOT
ATOM      1  C   UNL     1      28.595  23.304  49.958  1.00  0.00     0.019 A 
ATOM      2  C   UNL     1      27.562  22.561  50.530  1.00  0.00     0.094 A 
ATOM      3  C   UNL     1      26.442  22.249  49.754  1.00  0.00     0.336 A 
ATOM      4  O   UNL     1      25.499  21.579  50.252  1.00  0.00    -0.246 OA
ATOM      5  O   UNL     1      26.363  22.655  48.489  1.00  0.00    -0.423 OA
ATOM      6  C   UNL     1      27.326  23.364  47.905  1.00  0.00     0.142 A 
ATOM      7  C   UNL     1      27.190  23.764  46.573  1.00  0.00     0.098 A 
ATOM      8  C   UNL     1      28.194  24.512  45.945  1.00  0.00     0.161 A 
ATOM      9  C   UNL     1      29.360  24.866  46.669  1.00  0.00     0.158 A 
ATOM     10  C   UNL     1      29.494  24.464  48.004  1.00  0.00     0.062 A 
ATOM     11  C   UNL     1      28.486  23.717  48.626  1.00  0.00     0.022 A 
ENDROOT
BRANCH   9  12
ATOM     12  O   UNL     1      30.399  25.609  46.107  1.00  0.00    -0.504 OA
ATOM     13  H   UNL     1      31.028  25.257  45.399  1.00  0.00     0.293 HD
ENDBRANCH   9  12
BRANCH   8  14
ATOM     14  O   UNL     1      27.994  24.878  44.612  1.00  0.00    -0.504 OA
ATOM     15  H   UNL     1      28.663  24.709  43.873  1.00  0.00     0.293 HD
ENDBRANCH   8  14
TORSDOF 2
ENDMDL
MODEL 4
REMARK VINA RESULT:    -6.020      1.314      4.523
REMARK INTER + INTRA:          -6.372
REMARK INTER:                  -6.372
REMARK INTRA:                   0.000
REMARK UNBOUND:                 0.000
REMARK SMILES O=c1ccc2cc(O)c(O)cc2o1
REMARK SMILES IDX 4 1 3 2 2 3 1 4 13 5 12 6 11 7 9 8 7 9 6 10 5 11 8 12 10 14
REMARK H PARENT 8 13 10 15
REMARK Flexibility Score: inf
ROOT
ATOM      1  C   UNL     1      26.262  22.659  48.753  1.00  0.00     0.019 A 
ATOM      2  C   UNL     1      26.453  22.346  50.099  1.00  0.00     0.094 A 
ATOM      3  C   UNL     1      27.630  22.761  50.730  1.00  0.00     0.336 A 
ATOM      4  O   UNL     1      27.821  22.488  51.944  1.00  0.00    -0.246 OA
ATOM      5  O   UNL     1      28.551  23.445  50.056  1.00  0.00    -0.423 OA
ATOM      6  C   UNL     1      28.408  23.765  48.773  1.00  0.00     0.142 A 
ATOM      7  C   UNL     1      29.409  24.484  48.116  1.00  0.00     0.098 A 
ATOM      8  C   UNL     1      29.272  24.828  46.764  1.00  0.00     0.161 A 
ATOM      9  C   UNL     1      28.106  24.441  46.058  1.00  0.00     0.158 A 
ATOM     10  C   UNL     1      27.104  23.719  46.719  1.00  0.00     0.062 A 
ATOM     11  C   UNL     1      27.247  23.379  48.070  1.00  0.00     0.022 A 
ENDROOT
BRANCH   9  12
ATOM     12  O   UNL     1      27.904  24.749  44.711  1.00  0.00    -0.504 OA
ATOM     13  H   UNL     1      28.394  24.303  43.949  1.00  0.00     0.293 HD
ENDBRANCH   9  12
BRANCH   8  14
ATOM     14  O   UNL     1      30.310  25.548  46.168  1.00  0.00    -0.504 OA
ATOM     15  H   UNL     1      30.242  25.994  45.264  1.00  0.00     0.293 HD
ENDBRANCH   8  14
TORSDOF 2
ENDMDL
MODEL 5
REMARK VINA RESULT:    -5.870      1.753      2.038
REMARK INTER + INTRA:          -6.213
REMARK INTER:                  -6.213
REMARK INTRA:                   0.000
REMARK UNBOUND:                 0.000
REMARK SMILES O=c1ccc2cc(O)c(O)cc2o1
REMARK SMILES IDX 4 1 3 2 2 3 1 4 13 5 12 6 11 7 9 8 7 9 6 10 5 11 8 12 10 14
REMARK H PARENT 8 13 10 15
REMARK Flexibility Score: inf
ROOT
ATOM      1  C   UNL     1      26.848  22.734  48.079  1.00  0.00     0.019 A 
ATOM      2  C   UNL     1      27.288  23.456  46.970  1.00  0.00     0.094 A 
ATOM      3  C   UNL     1      28.231  24.472  47.154  1.00  0.00     0.336 A 
ATOM      4  O   UNL     1      28.640  25.136  46.165  1.00  0.00    -0.246 OA
ATOM      5  O   UNL     1      28.700  24.745  48.369  1.00  0.00    -0.423 OA
ATOM      6  C   UNL     1      28.307  24.080  49.453  1.00  0.00     0.142 A 
ATOM      7  C   UNL     1      28.833  24.410  50.704  1.00  0.00     0.098 A 
ATOM      8  C   UNL     1      28.429  23.719  51.854  1.00  0.00     0.161 A 
ATOM      9  C   UNL     1      27.476  22.675  51.745  1.00  0.00     0.158 A 
ATOM     10  C   UNL     1      26.949  22.348  50.489  1.00  0.00     0.062 A 
ATOM     11  C   UNL     1      27.358  23.042  49.344  1.00  0.00     0.022 A 
ENDROOT
BRANCH   9  12
ATOM     12  O   UNL     1      27.028  21.947  52.849  1.00  0.00    -0.504 OA
ATOM     13  H   UNL     1      27.567  21.808  53.691  1.00  0.00     0.293 HD
ENDBRANCH   9  12
BRANCH   8  14
ATOM     14  O   UNL     1      28.995  24.099  53.073  1.00  0.00    -0.504 OA
ATOM     15  H   UNL     1      29.242  25.050  53.309  1.00  0.00     0.293 HD
ENDBRANCH   8  14
TORSDOF 2
ENDMDL
MODEL 6
REMARK VINA RESULT:    -5.780      2.571      4.367
REMARK INTER + INTRA:          -6.118
REMARK INTER:                  -6.118
REMARK INTRA:                   0.000
REMARK UNBOUND:                 0.000
REMARK SMILES O=c1ccc2cc(O)c(O)cc2o1
REMARK SMILES IDX 4 1 3 2 2 3 1 4 13 5 12 6 11 7 9 8 7 9 6 10 5 11 8 12 10 14
REMARK H PARENT 8 13 10 15
REMARK Flexibility Score: inf
ROOT
ATOM      1  C   UNL     1      28.983  21.760  52.219  1.00  0.00     0.019 A 
ATOM      2  C   UNL     1      30.193  22.248  52.711  1.00  0.00     0.094 A 
ATOM      3  C   UNL     1      30.703  23.442  52.191  1.00  0.00     0.336 A 
ATOM      4  O   UNL     1      31.794  23.899  52.622  1.00  0.00    -0.246 OA
ATOM      5  O   UNL     1      30.043  24.101  51.242  1.00  0.00    -0.423 OA
ATOM      6  C   UNL     1      28.885  23.670  50.746  1.00  0.00     0.142 A 
ATOM      7  C   UNL     1      28.236  24.403  49.750  1.00  0.00     0.098 A 
ATOM      8  C   UNL     1      27.017  23.962  49.217  1.00  0.00     0.161 A 
ATOM      9  C   UNL     1      26.438  22.760  49.695  1.00  0.00     0.158 A 
ATOM     10  C   UNL     1      27.092  22.027  50.693  1.00  0.00     0.062 A 
ATOM     11  C   UNL     1      28.310  22.474  51.221  1.00  0.00     0.022 A 
ENDROOT
BRANCH   9  12
ATOM     12  O   UNL     1      25.228  22.262  49.209  1.00  0.00    -0.504 OA
ATOM     13  H   UNL     1      25.147  21.661  48.402  1.00  0.00     0.293 HD
ENDBRANCH   9  12
BRANCH   8  14
ATOM     14  O   UNL     1      26.422  24.743  48.224  1.00  0.00    -0.504 OA
ATOM     15  H   UNL     1      25.617  24.455  47.686  1.00  0.00     0.293 HD
ENDBRANCH   8  14
TORSDOF 2
ENDMDL
MODEL 7
REMARK VINA RESULT:    -5.652      1.846      4.857
REMARK INTER + INTRA:          -5.983
REMARK INTER:                  -5.983
REMARK INTRA:                   0.000
REMARK UNBOUND:                 0.000
REMARK SMILES O=c1ccc2cc(O)c(O)cc2o1
REMARK SMILES IDX 4 1 3 2 2 3 1 4 13 5 12 6 11 7 9 8 7 9 6 10 5 11 8 12 10 14
REMARK H PARENT 8 13 10 15
REMARK Flexibility Score: inf
ROOT
ATOM      1  C   UNL     1      29.369  24.421  50.075  1.00  0.00     0.019 A 
ATOM      2  C   UNL     1      28.855  23.861  51.244  1.00  0.00     0.094 A 
ATOM      3  C   UNL     1      27.637  23.176  51.189  1.00  0.00     0.336 A 
ATOM      4  O   UNL     1      27.156  22.664  52.234  1.00  0.00    -0.246 OA
ATOM      5  O   UNL     1      26.979  23.063  50.037  1.00  0.00    -0.423 OA
ATOM      6  C   UNL     1      27.434  23.581  48.900  1.00  0.00     0.142 A 
ATOM      7  C   UNL     1      26.701  23.430  47.720  1.00  0.00     0.098 A 
ATOM      8  C   UNL     1      27.168  23.972  46.515  1.00  0.00     0.161 A 
ATOM      9  C   UNL     1      28.396  24.679  46.493  1.00  0.00     0.158 A 
ATOM     10  C   UNL     1      29.128  24.829  47.678  1.00  0.00     0.062 A 
ATOM     11  C   UNL     1      28.656  24.285  48.879  1.00  0.00     0.022 A 
ENDROOT
BRANCH   9  12
ATOM     12  O   UNL     1      28.919  25.244  45.329  1.00  0.00    -0.504 OA
ATOM     13  H   UNL     1      29.830  25.675  45.270  1.00  0.00     0.293 HD
ENDBRANCH   9  12
BRANCH   8  14
ATOM     14  O   UNL     1      26.386  23.784  45.373  1.00  0.00    -0.504 OA
ATOM     15  H   UNL     1      25.434  24.112  45.280  1.00  0.00     0.293 HD
ENDBRANCH   8  14
TORSDOF 2
ENDMDL
MODEL 8
REMARK VINA RESULT:    -5.556      2.069      4.329
REMARK INTER + INTRA:          -5.881
REMARK INTER:                  -5.881
REMARK INTRA:                   0.000
REMARK UNBOUND:                 0.000
REMARK SMILES O=c1ccc2cc(O)c(O)cc2o1
REMARK SMILES IDX 4 1 3 2 2 3 1 4 13 5 12 6 11 7 9 8 7 9 6 10 5 11 8 12 10 14
REMARK H PARENT 8 13 10 15
REMARK Flexibility Score: inf
ROOT
ATOM      1  C   UNL     1      30.690  22.772  49.590  1.00  0.00     0.019 A 
ATOM      2  C   UNL     1      31.327  22.330  50.749  1.00  0.00     0.094 A 
ATOM      3  C   UNL     1      30.552  21.818  51.794  1.00  0.00     0.336 A 
ATOM      4  O   UNL     1      31.108  21.415  52.849  1.00  0.00    -0.246 OA
ATOM      5  O   UNL     1      29.227  21.754  51.683  1.00  0.00    -0.423 OA
ATOM      6  C   UNL     1      28.581  22.164  50.594  1.00  0.00     0.142 A 
ATOM      7  C   UNL     1      27.188  22.073  50.533  1.00  0.00     0.098 A 
ATOM      8  C   UNL     1      26.493  22.501  49.394  1.00  0.00     0.161 A 
ATOM      9  C   UNL     1      27.212  23.032  48.293  1.00  0.00     0.158 A 
ATOM     10  C   UNL     1      28.608  23.122  48.358  1.00  0.00     0.062 A 
ATOM     11  C   UNL     1      29.296  22.692  49.500  1.00  0.00     0.022 A 
ENDROOT
BRANCH   9  12
ATOM     12  O   UNL     1      26.585  23.477  47.129  1.00  0.00    -0.504 OA
ATOM     13  H   UNL     1      27.041  24.029  46.416  1.00  0.00     0.293 HD
ENDBRANCH   9  12
BRANCH   8  14
ATOM     14  O   UNL     1      25.102  22.382  49.398  1.00  0.00    -0.504 OA
ATOM     15  H   UNL     1      24.483  22.962  48.849  1.00  0.00     0.293 HD
ENDBRANCH   8  14
TORSDOF 2
ENDMDL
MODEL 9
REMARK VINA RESULT:    -5.470      1.829      5.171
REMARK INTER + INTRA:          -5.790
REMARK INTER:                  -5.790
REMARK INTRA:                   0.000
REMARK UNBOUND:                 0.000
REMARK SMILES O=c1ccc2cc(O)c(O)cc2o1
REMARK SMILES IDX 4 1 3 2 2 3 1 4 13 5 12 6 11 7 9 8 7 9 6 10 5 11 8 12 10 14
REMARK H PARENT 8 13 10 15
REMARK Flexibility Score: inf
ROOT
ATOM      1  C   UNL     1      30.000  22.375  51.209  1.00  0.00     0.019 A 
ATOM      2  C   UNL     1      29.431  21.902  52.390  1.00  0.00     0.094 A 
ATOM      3  C   UNL     1      28.058  22.073  52.596  1.00  0.00     0.336 A 
ATOM      4  O   UNL     1      27.525  21.653  53.657  1.00  0.00    -0.246 OA
ATOM      5  O   UNL     1      27.309  22.678  51.678  1.00  0.00    -0.423 OA
ATOM      6  C   UNL     1      27.812  23.143  50.538  1.00  0.00     0.142 A 
ATOM      7  C   UNL     1      26.977  23.771  49.610  1.00  0.00     0.098 A 
ATOM      8  C   UNL     1      27.493  24.266  48.405  1.00  0.00     0.161 A 
ATOM      9  C   UNL     1      28.876  24.129  48.126  1.00  0.00     0.158 A 
ATOM     10  C   UNL     1      29.711  23.500  49.059  1.00  0.00     0.062 A 
ATOM     11  C   UNL     1      29.188  23.007  50.261  1.00  0.00     0.022 A 
ENDROOT
BRANCH   9  12
ATOM     12  O   UNL     1      29.457  24.600  46.947  1.00  0.00    -0.504 OA
ATOM     13  H   UNL     1      29.302  24.189  46.037  1.00  0.00     0.293 HD
ENDBRANCH   9  12
BRANCH   8  14
ATOM     14  O   UNL     1      26.603  24.882  47.522  1.00  0.00    -0.504 OA
ATOM     15  H   UNL     1      26.368  25.864  47.550  1.00  0.00     0.293 HD
ENDBRANCH   8  14
TORSDOF 2
ENDMDL
