MODEL 1
REMARK VINA RESULT:    -2.495      0.000      0.000
REMARK INTER + INTRA:          -2.707
REMARK INTER:                  -3.006
REMARK INTRA:                   0.299
REMARK UNBOUND:                 0.299
REMARK SMILES O=c1c(O)c(-c2ccc(O)c(O)c2)oc2cc(O)cc(O)c12
REMARK SMILES IDX 5 1 3 2 2 3 1 4 22 5 20 6 19 7 17 8 16 9 15 10 14 11 6 12
REMARK SMILES IDX 7 13 8 14 9 15 13 16 11 17 10 18 12 20 4 22 21 24 18 26
REMARK H PARENT 10 19 12 21 4 23 21 25 18 27
REMARK Flexibility Score: inf
ROOT
ATOM      1  C   UNL     1     -12.101  -5.695  -6.541  1.00  0.00     0.180 A 
ATOM      2  C   UNL     1     -12.778  -6.922  -6.435  1.00  0.00     0.208 A 
ATOM      3  C   UNL     1     -14.149  -6.918  -6.131  1.00  0.00     0.238 A 
ATOM      4  O   UNL     1     -14.765  -8.016  -6.111  1.00  0.00    -0.285 OA
ATOM      5  C   UNL     1     -14.813  -5.693  -5.880  1.00  0.00     0.111 A 
ATOM      6  C   UNL     1     -16.190  -5.574  -5.519  1.00  0.00     0.134 A 
ATOM      7  C   UNL     1     -16.765  -4.302  -5.400  1.00  0.00     0.093 A 
ATOM      8  C   UNL     1     -15.999  -3.146  -5.566  1.00  0.00     0.123 A 
ATOM      9  C   UNL     1     -14.643  -3.252  -5.864  1.00  0.00     0.094 A 
ATOM     10  C   UNL     1     -14.048  -4.506  -6.028  1.00  0.00     0.146 A 
ATOM     11  O   UNL     1     -12.757  -4.559  -6.333  1.00  0.00    -0.452 OA
ENDROOT
BRANCH   1  12
ATOM     12  C   UNL     1     -10.660  -5.616  -6.873  1.00  0.00     0.025 A 
ATOM     13  C   UNL     1     -10.020  -6.632  -7.603  1.00  0.00     0.016 A 
ATOM     14  C   UNL     1      -8.664  -6.524  -7.925  1.00  0.00     0.051 A 
ATOM     15  C   UNL     1      -7.934  -5.393  -7.537  1.00  0.00     0.157 A 
ATOM     16  C   UNL     1      -9.928  -4.474  -6.504  1.00  0.00     0.062 A 
ATOM     17  C   UNL     1      -8.567  -4.366  -6.827  1.00  0.00     0.158 A 
BRANCH  15  18
ATOM     18  O   UNL     1      -6.582  -5.283  -7.854  1.00  0.00    -0.504 OA
ATOM     19  H   UNL     1      -6.272  -5.114  -8.804  1.00  0.00     0.293 HD
ENDBRANCH  15  18
BRANCH  17  20
ATOM     20  O   UNL     1      -7.841  -3.239  -6.448  1.00  0.00    -0.504 OA
ATOM     21  H   UNL     1      -8.299  -2.363  -6.225  1.00  0.00     0.293 HD
ENDBRANCH  17  20
ENDBRANCH   1  12
BRANCH   2  22
ATOM     22  O   UNL     1     -12.087  -8.123  -6.611  1.00  0.00    -0.502 OA
ATOM     23  H   UNL     1     -11.078  -8.184  -6.549  1.00  0.00     0.293 HD
ENDBRANCH   2  22
BRANCH   6  24
ATOM     24  O   UNL     1     -17.023  -6.661  -5.243  1.00  0.00    -0.507 OA
ATOM     25  H   UNL     1     -16.714  -7.551  -4.881  1.00  0.00     0.293 HD
ENDBRANCH   6  24
BRANCH   8  26
ATOM     26  O   UNL     1     -16.576  -1.886  -5.429  1.00  0.00    -0.508 OA
ATOM     27  H   UNL     1     -17.461  -1.757  -4.951  1.00  0.00     0.293 HD
ENDBRANCH   8  26
TORSDOF 6
ENDMDL
MODEL 2
REMARK VINA RESULT:    -2.273      1.364      2.921
REMARK INTER + INTRA:          -2.440
REMARK INTER:                  -2.974
REMARK INTRA:                   0.534
REMARK UNBOUND:                 0.299
REMARK SMILES O=c1c(O)c(-c2ccc(O)c(O)c2)oc2cc(O)cc(O)c12
REMARK SMILES IDX 5 1 3 2 2 3 1 4 22 5 20 6 19 7 17 8 16 9 15 10 14 11 6 12
REMARK SMILES IDX 7 13 8 14 9 15 13 16 11 17 10 18 12 20 4 22 21 24 18 26
REMARK H PARENT 10 19 12 21 4 23 21 25 18 27
REMARK Flexibility Score: inf
ROOT
ATOM      1  C   UNL     1     -12.569  -5.423  -6.328  1.00  0.00     0.180 A 
ATOM      2  C   UNL     1     -13.175  -4.296  -5.746  1.00  0.00     0.208 A 
ATOM      3  C   UNL     1     -14.545  -4.340  -5.441  1.00  0.00     0.238 A 
ATOM      4  O   UNL     1     -15.063  -3.356  -4.852  1.00  0.00    -0.285 OA
ATOM      5  C   UNL     1     -15.305  -5.488  -5.773  1.00  0.00     0.111 A 
ATOM      6  C   UNL     1     -16.709  -5.624  -5.552  1.00  0.00     0.134 A 
ATOM      7  C   UNL     1     -17.335  -6.848  -5.824  1.00  0.00     0.093 A 
ATOM      8  C   UNL     1     -16.621  -7.918  -6.369  1.00  0.00     0.123 A 
ATOM      9  C   UNL     1     -15.263  -7.776  -6.640  1.00  0.00     0.094 A 
ATOM     10  C   UNL     1     -14.601  -6.581  -6.344  1.00  0.00     0.146 A 
ATOM     11  O   UNL     1     -13.301  -6.498  -6.599  1.00  0.00    -0.452 OA
ENDROOT
BRANCH   1  12
ATOM     12  C   UNL     1     -11.128  -5.458  -6.664  1.00  0.00     0.025 A 
ATOM     13  C   UNL     1     -10.515  -6.631  -7.140  1.00  0.00     0.016 A 
ATOM     14  C   UNL     1      -9.158  -6.632  -7.473  1.00  0.00     0.051 A 
ATOM     15  C   UNL     1      -8.398  -5.462  -7.351  1.00  0.00     0.157 A 
ATOM     16  C   UNL     1     -10.366  -4.282  -6.563  1.00  0.00     0.062 A 
ATOM     17  C   UNL     1      -9.004  -4.284  -6.897  1.00  0.00     0.158 A 
BRANCH  15  18
ATOM     18  O   UNL     1      -7.045  -5.461  -7.680  1.00  0.00    -0.504 OA
ATOM     19  H   UNL     1      -6.643  -4.742  -8.271  1.00  0.00     0.293 HD
ENDBRANCH  15  18
BRANCH  17  20
ATOM     20  O   UNL     1      -8.249  -3.119  -6.783  1.00  0.00    -0.504 OA
ATOM     21  H   UNL     1      -7.484  -2.918  -7.417  1.00  0.00     0.293 HD
ENDBRANCH  17  20
ENDBRANCH   1  12
BRANCH   2  22
ATOM     22  O   UNL     1     -12.423  -3.145  -5.496  1.00  0.00    -0.502 OA
ATOM     23  H   UNL     1     -12.656  -2.245  -5.900  1.00  0.00     0.293 HD
ENDBRANCH   2  22
BRANCH   6  24
ATOM     24  O   UNL     1     -17.533  -4.593  -5.095  1.00  0.00    -0.507 OA
ATOM     25  H   UNL     1     -18.448  -4.378  -5.461  1.00  0.00     0.293 HD
ENDBRANCH   6  24
BRANCH   8  26
ATOM     26  O   UNL     1     -17.256  -9.125  -6.652  1.00  0.00    -0.508 OA
ATOM     27  H   UNL     1     -16.765 -10.010  -6.591  1.00  0.00     0.293 HD
ENDBRANCH   8  26
TORSDOF 6
ENDMDL
MODEL 3
REMARK VINA RESULT:    -1.109      1.638      3.272
REMARK INTER + INTRA:          -1.037
REMARK INTER:                  -0.859
REMARK INTRA:                  -0.178
REMARK UNBOUND:                 0.299
REMARK SMILES O=c1c(O)c(-c2ccc(O)c(O)c2)oc2cc(O)cc(O)c12
REMARK SMILES IDX 5 1 3 2 2 3 1 4 22 5 20 6 19 7 17 8 16 9 15 10 14 11 6 12
REMARK SMILES IDX 7 13 8 14 9 15 13 16 11 17 10 18 12 20 4 22 21 24 18 26
REMARK H PARENT 10 19 12 21 4 23 21 25 18 27
REMARK Flexibility Score: inf
ROOT
ATOM      1  C   UNL     1     -10.752  -5.843  -6.996  1.00  0.00     0.180 A 
ATOM      2  C   UNL     1     -10.971  -4.657  -6.274  1.00  0.00     0.208 A 
ATOM      3  C   UNL     1     -12.263  -4.379  -5.797  1.00  0.00     0.238 A 
ATOM      4  O   UNL     1     -12.436  -3.353  -5.089  1.00  0.00    -0.285 OA
ATOM      5  C   UNL     1     -13.330  -5.261  -6.096  1.00  0.00     0.111 A 
ATOM      6  C   UNL     1     -14.688  -5.055  -5.704  1.00  0.00     0.134 A 
ATOM      7  C   UNL     1     -15.640  -6.049  -5.964  1.00  0.00     0.093 A 
ATOM      8  C   UNL     1     -15.298  -7.211  -6.660  1.00  0.00     0.123 A 
ATOM      9  C   UNL     1     -13.988  -7.395  -7.096  1.00  0.00     0.094 A 
ATOM     10  C   UNL     1     -13.006  -6.440  -6.817  1.00  0.00     0.146 A 
ATOM     11  O   UNL     1     -11.766  -6.667  -7.233  1.00  0.00    -0.452 OA
ENDROOT
BRANCH   1  12
ATOM     12  C   UNL     1      -9.417  -6.213  -7.517  1.00  0.00     0.025 A 
ATOM     13  C   UNL     1      -9.146  -6.221  -8.896  1.00  0.00     0.016 A 
ATOM     14  C   UNL     1      -7.870  -6.551  -9.363  1.00  0.00     0.051 A 
ATOM     15  C   UNL     1      -6.845  -6.862  -8.460  1.00  0.00     0.157 A 
ATOM     16  C   UNL     1      -8.380  -6.506  -6.615  1.00  0.00     0.062 A 
ATOM     17  C   UNL     1      -7.101  -6.837  -7.084  1.00  0.00     0.158 A 
BRANCH  15  18
ATOM     18  O   UNL     1      -5.573  -7.193  -8.922  1.00  0.00    -0.504 OA
ATOM     19  H   UNL     1      -5.377  -8.098  -9.331  1.00  0.00     0.293 HD
ENDBRANCH  15  18
BRANCH  17  20
ATOM     20  O   UNL     1      -6.078  -7.140  -6.186  1.00  0.00    -0.504 OA
ATOM     21  H   UNL     1      -6.269  -7.328  -5.209  1.00  0.00     0.293 HD
ENDBRANCH  17  20
ENDBRANCH   1  12
BRANCH   2  22
ATOM     22  O   UNL     1      -9.921  -3.763  -6.055  1.00  0.00    -0.502 OA
ATOM     23  H   UNL     1      -9.555  -3.569  -5.130  1.00  0.00     0.293 HD
ENDBRANCH   2  22
BRANCH   6  24
ATOM     24  O   UNL     1     -15.156  -3.894  -5.083  1.00  0.00    -0.507 OA
ATOM     25  H   UNL     1     -15.571  -3.109  -5.561  1.00  0.00     0.293 HD
ENDBRANCH   6  24
BRANCH   8  26
ATOM     26  O   UNL     1     -16.255  -8.186  -6.930  1.00  0.00    -0.508 OA
ATOM     27  H   UNL     1     -17.246  -7.996  -6.836  1.00  0.00     0.293 HD
ENDBRANCH   8  26
TORSDOF 6
ENDMDL
MODEL 4
REMARK VINA RESULT:    -1.077      2.139      7.470
REMARK INTER + INTRA:          -0.999
REMARK INTER:                  -1.072
REMARK INTRA:                   0.073
REMARK UNBOUND:                 0.299
REMARK SMILES O=c1c(O)c(-c2ccc(O)c(O)c2)oc2cc(O)cc(O)c12
REMARK SMILES IDX 5 1 3 2 2 3 1 4 22 5 20 6 19 7 17 8 16 9 15 10 14 11 6 12
REMARK SMILES IDX 7 13 8 14 9 15 13 16 11 17 10 18 12 20 4 22 21 24 18 26
REMARK H PARENT 10 19 12 21 4 23 21 25 18 27
REMARK Flexibility Score: inf
ROOT
ATOM      1  C   UNL     1     -10.744  -6.246  -6.768  1.00  0.00     0.180 A 
ATOM      2  C   UNL     1     -10.483  -4.943  -6.311  1.00  0.00     0.208 A 
ATOM      3  C   UNL     1      -9.249  -4.347  -6.620  1.00  0.00     0.238 A 
ATOM      4  O   UNL     1      -9.052  -3.154  -6.271  1.00  0.00    -0.285 OA
ATOM      5  C   UNL     1      -8.270  -5.082  -7.332  1.00  0.00     0.111 A 
ATOM      6  C   UNL     1      -6.968  -4.594  -7.660  1.00  0.00     0.134 A 
ATOM      7  C   UNL     1      -6.122  -5.371  -8.462  1.00  0.00     0.093 A 
ATOM      8  C   UNL     1      -6.504  -6.644  -8.892  1.00  0.00     0.123 A 
ATOM      9  C   UNL     1      -7.750  -7.151  -8.531  1.00  0.00     0.094 A 
ATOM     10  C   UNL     1      -8.633  -6.384  -7.765  1.00  0.00     0.146 A 
ATOM     11  O   UNL     1      -9.818  -6.899  -7.462  1.00  0.00    -0.452 OA
ENDROOT
BRANCH   1  12
ATOM     12  C   UNL     1     -12.026  -6.935  -6.496  1.00  0.00     0.025 A 
ATOM     13  C   UNL     1     -12.060  -8.241  -5.977  1.00  0.00     0.016 A 
ATOM     14  C   UNL     1     -13.283  -8.861  -5.706  1.00  0.00     0.051 A 
ATOM     15  C   UNL     1     -14.486  -8.181  -5.934  1.00  0.00     0.157 A 
ATOM     16  C   UNL     1     -13.235  -6.250  -6.704  1.00  0.00     0.062 A 
ATOM     17  C   UNL     1     -14.462  -6.874  -6.432  1.00  0.00     0.158 A 
BRANCH  15  18
ATOM     18  O   UNL     1     -15.707  -8.798  -5.667  1.00  0.00    -0.504 OA
ATOM     19  H   UNL     1     -16.094  -9.499  -6.288  1.00  0.00     0.293 HD
ENDBRANCH  15  18
BRANCH  17  20
ATOM     20  O   UNL     1     -15.660  -6.196  -6.653  1.00  0.00    -0.504 OA
ATOM     21  H   UNL     1     -15.995  -6.003  -7.590  1.00  0.00     0.293 HD
ENDBRANCH  17  20
ENDBRANCH   1  12
BRANCH   2  22
ATOM     22  O   UNL     1     -11.433  -4.264  -5.544  1.00  0.00    -0.502 OA
ATOM     23  H   UNL     1     -12.231  -3.795  -5.956  1.00  0.00     0.293 HD
ENDBRANCH   2  22
BRANCH   6  24
ATOM     24  O   UNL     1      -6.452  -3.377  -7.210  1.00  0.00    -0.507 OA
ATOM     25  H   UNL     1      -6.206  -3.170  -6.253  1.00  0.00     0.293 HD
ENDBRANCH   6  24
BRANCH   8  26
ATOM     26  O   UNL     1      -5.649  -7.416  -9.675  1.00  0.00    -0.508 OA
ATOM     27  H   UNL     1      -5.199  -7.038 -10.500  1.00  0.00     0.293 HD
ENDBRANCH   8  26
TORSDOF 6
ENDMDL
MODEL 5
REMARK VINA RESULT:    -0.860      1.583      7.381
REMARK INTER + INTRA:          -0.737
REMARK INTER:                  -0.905
REMARK INTRA:                   0.168
REMARK UNBOUND:                 0.299
REMARK SMILES O=c1c(O)c(-c2ccc(O)c(O)c2)oc2cc(O)cc(O)c12
REMARK SMILES IDX 5 1 3 2 2 3 1 4 22 5 20 6 19 7 17 8 16 9 15 10 14 11 6 12
REMARK SMILES IDX 7 13 8 14 9 15 13 16 11 17 10 18 12 20 4 22 21 24 18 26
REMARK H PARENT 10 19 12 21 4 23 21 25 18 27
REMARK Flexibility Score: inf
ROOT
ATOM      1  C   UNL     1     -11.018  -5.622  -7.031  1.00  0.00     0.180 A 
ATOM      2  C   UNL     1     -10.276  -4.680  -6.298  1.00  0.00     0.208 A 
ATOM      3  C   UNL     1      -8.940  -4.436  -6.658  1.00  0.00     0.238 A 
ATOM      4  O   UNL     1      -8.305  -3.539  -6.045  1.00  0.00    -0.285 OA
ATOM      5  C   UNL     1      -8.346  -5.177  -7.708  1.00  0.00     0.111 A 
ATOM      6  C   UNL     1      -6.988  -5.046  -8.127  1.00  0.00     0.134 A 
ATOM      7  C   UNL     1      -6.539  -5.755  -9.249  1.00  0.00     0.093 A 
ATOM      8  C   UNL     1      -7.382  -6.640  -9.927  1.00  0.00     0.123 A 
ATOM      9  C   UNL     1      -8.693  -6.817  -9.492  1.00  0.00     0.094 A 
ATOM     10  C   UNL     1      -9.181  -6.094  -8.400  1.00  0.00     0.146 A 
ATOM     11  O   UNL     1     -10.444  -6.278  -8.033  1.00  0.00    -0.452 OA
ENDROOT
BRANCH   1  12
ATOM     12  C   UNL     1     -12.435  -5.923  -6.722  1.00  0.00     0.025 A 
ATOM     13  C   UNL     1     -12.917  -7.243  -6.707  1.00  0.00     0.016 A 
ATOM     14  C   UNL     1     -14.253  -7.503  -6.389  1.00  0.00     0.051 A 
ATOM     15  C   UNL     1     -15.121  -6.451  -6.067  1.00  0.00     0.157 A 
ATOM     16  C   UNL     1     -13.304  -4.873  -6.379  1.00  0.00     0.062 A 
ATOM     17  C   UNL     1     -14.644  -5.135  -6.061  1.00  0.00     0.158 A 
BRANCH  15  18
ATOM     18  O   UNL     1     -16.453  -6.706  -5.752  1.00  0.00    -0.504 OA
ATOM     19  H   UNL     1     -17.200  -6.101  -6.072  1.00  0.00     0.293 HD
ENDBRANCH  15  18
BRANCH  17  20
ATOM     20  O   UNL     1     -15.508  -4.090  -5.734  1.00  0.00    -0.504 OA
ATOM     21  H   UNL     1     -16.513  -4.189  -5.812  1.00  0.00     0.293 HD
ENDBRANCH  17  20
ENDBRANCH   1  12
BRANCH   2  22
ATOM     22  O   UNL     1     -10.858  -4.015  -5.216  1.00  0.00    -0.502 OA
ATOM     23  H   UNL     1     -11.839  -4.110  -4.983  1.00  0.00     0.293 HD
ENDBRANCH   2  22
BRANCH   6  24
ATOM     24  O   UNL     1      -6.038  -4.259  -7.471  1.00  0.00    -0.507 OA
ATOM     25  H   UNL     1      -5.073  -4.164  -7.748  1.00  0.00     0.293 HD
ENDBRANCH   6  24
BRANCH   8  26
ATOM     26  O   UNL     1      -6.922  -7.354 -11.031  1.00  0.00    -0.508 OA
ATOM     27  H   UNL     1      -7.558  -7.701 -11.741  1.00  0.00     0.293 HD
ENDBRANCH   8  26
TORSDOF 6
ENDMDL
MODEL 6
REMARK VINA RESULT:    -0.829      1.700      7.472
REMARK INTER + INTRA:          -0.700
REMARK INTER:                  -0.739
REMARK INTRA:                   0.038
REMARK UNBOUND:                 0.299
REMARK SMILES O=c1c(O)c(-c2ccc(O)c(O)c2)oc2cc(O)cc(O)c12
REMARK SMILES IDX 5 1 3 2 2 3 1 4 22 5 20 6 19 7 17 8 16 9 15 10 14 11 6 12
REMARK SMILES IDX 7 13 8 14 9 15 13 16 11 17 10 18 12 20 4 22 21 24 18 26
REMARK H PARENT 10 19 12 21 4 23 21 25 18 27
REMARK Flexibility Score: inf
ROOT
ATOM      1  C   UNL     1     -11.103  -5.641  -6.923  1.00  0.00     0.180 A 
ATOM      2  C   UNL     1     -10.366  -4.673  -6.220  1.00  0.00     0.208 A 
ATOM      3  C   UNL     1      -9.035  -4.426  -6.594  1.00  0.00     0.238 A 
ATOM      4  O   UNL     1      -8.406  -3.506  -6.009  1.00  0.00    -0.285 OA
ATOM      5  C   UNL     1      -8.440  -5.188  -7.628  1.00  0.00     0.111 A 
ATOM      6  C   UNL     1      -7.086  -5.054  -8.060  1.00  0.00     0.134 A 
ATOM      7  C   UNL     1      -6.637  -5.789  -9.165  1.00  0.00     0.093 A 
ATOM      8  C   UNL     1      -7.475  -6.699  -9.814  1.00  0.00     0.123 A 
ATOM      9  C   UNL     1      -8.781  -6.877  -9.366  1.00  0.00     0.094 A 
ATOM     10  C   UNL     1      -9.270  -6.131  -8.290  1.00  0.00     0.146 A 
ATOM     11  O   UNL     1     -10.529  -6.318  -7.910  1.00  0.00    -0.452 OA
ENDROOT
BRANCH   1  12
ATOM     12  C   UNL     1     -12.515  -5.948  -6.597  1.00  0.00     0.025 A 
ATOM     13  C   UNL     1     -13.456  -4.925  -6.385  1.00  0.00     0.016 A 
ATOM     14  C   UNL     1     -14.788  -5.239  -6.102  1.00  0.00     0.051 A 
ATOM     15  C   UNL     1     -15.202  -6.577  -6.044  1.00  0.00     0.157 A 
ATOM     16  C   UNL     1     -12.939  -7.287  -6.558  1.00  0.00     0.062 A 
ATOM     17  C   UNL     1     -14.276  -7.601  -6.274  1.00  0.00     0.158 A 
BRANCH  15  18
ATOM     18  O   UNL     1     -16.528  -6.893  -5.760  1.00  0.00    -0.504 OA
ATOM     19  H   UNL     1     -16.965  -6.618  -4.888  1.00  0.00     0.293 HD
ENDBRANCH  15  18
BRANCH  17  20
ATOM     20  O   UNL     1     -14.692  -8.931  -6.222  1.00  0.00    -0.504 OA
ATOM     21  H   UNL     1     -14.929  -9.378  -5.344  1.00  0.00     0.293 HD
ENDBRANCH  17  20
ENDBRANCH   1  12
BRANCH   2  22
ATOM     22  O   UNL     1     -10.948  -3.986  -5.152  1.00  0.00    -0.502 OA
ATOM     23  H   UNL     1     -10.880  -2.980  -5.051  1.00  0.00     0.293 HD
ENDBRANCH   2  22
BRANCH   6  24
ATOM     24  O   UNL     1      -6.140  -4.241  -7.430  1.00  0.00    -0.507 OA
ATOM     25  H   UNL     1      -5.281  -3.920  -7.850  1.00  0.00     0.293 HD
ENDBRANCH   6  24
BRANCH   8  26
ATOM     26  O   UNL     1      -7.015  -7.437 -10.902  1.00  0.00    -0.508 OA
ATOM     27  H   UNL     1      -6.031  -7.467 -11.145  1.00  0.00     0.293 HD
ENDBRANCH   8  26
TORSDOF 6
ENDMDL
