MODEL 1
REMARK VINA RESULT:    -4.424      0.000      0.000
REMARK INTER + INTRA:         -15.236
REMARK INTER:                 -11.148
REMARK INTRA:                  -4.088
REMARK UNBOUND:                -4.088
REMARK SMILES CCCCCCCCCCCCCCCCCCCCCCCCCCCC(=O)[O-]
REMARK SMILES IDX 15 1 16 2 17 3 18 4 19 5 20 6 21 7 22 8 23 9 24 10 25 11
REMARK SMILES IDX 26 12 27 13 28 14 29 15 30 16 14 17 13 18 12 19 11 20 10 21
REMARK SMILES IDX 9 22 8 23 7 24 6 25 5 26 4 27 3 28 2 29 1 30
REMARK H PARENT
REMARK Flexibility Score: inf
ROOT
ATOM      1  C   UNL     1     171.964 176.379 182.241  1.00  0.00     0.000 C 
ENDROOT
BRANCH   1   2
ATOM      2  C   UNL     1     172.928 176.935 181.179  1.00  0.00     0.000 C 
BRANCH   2   3
ATOM      3  C   UNL     1     172.844 178.463 181.049  1.00  0.00     0.000 C 
BRANCH   3   4
ATOM      4  C   UNL     1     172.997 178.944 179.597  1.00  0.00     0.000 C 
BRANCH   4   5
ATOM      5  C   UNL     1     173.697 177.881 178.742  1.00  0.00     0.000 C 
BRANCH   5   6
ATOM      6  C   UNL     1     174.854 178.490 177.937  1.00  0.00     0.000 C 
BRANCH   6   7
ATOM      7  C   UNL     1     175.368 179.810 178.539  1.00  0.00     0.000 C 
BRANCH   7   8
ATOM      8  C   UNL     1     176.897 179.892 178.714  1.00  0.00     0.000 C 
BRANCH   8   9
ATOM      9  C   UNL     1     177.386 180.006 180.172  1.00  0.00     0.000 C 
BRANCH   9  10
ATOM     10  C   UNL     1     176.382 179.462 181.211  1.00  0.00     0.000 C 
BRANCH  10  11
ATOM     11  C   UNL     1     176.821 178.115 181.811  1.00  0.00     0.000 C 
BRANCH  11  12
ATOM     12  C   UNL     1     176.580 176.937 180.852  1.00  0.00     0.006 C 
BRANCH  12  13
ATOM     13  C   UNL     1     177.872 176.407 180.194  1.00  0.00     0.053 C 
BRANCH  13  14
ATOM     14  C   UNL     1     177.805 174.928 179.953  1.00  0.00     0.041 C 
ATOM     15  O   UNL     1     177.415 174.486 178.841  1.00  0.00    -0.550 OA
ATOM     16  O   UNL     1     178.204 174.038 180.941  1.00  0.00    -0.550 OA
ENDBRANCH  13  14
ENDBRANCH  12  13
ENDBRANCH  11  12
ENDBRANCH  10  11
ENDBRANCH   9  10
ENDBRANCH   8   9
ENDBRANCH   7   8
ENDBRANCH   6   7
ENDBRANCH   5   6
ENDBRANCH   4   5
ENDBRANCH   3   4
ENDBRANCH   2   3
ENDBRANCH   1   2
BRANCH   1  17
ATOM     17  C   UNL     1     170.861 175.489 181.645  1.00  0.00     0.000 C 
BRANCH  17  18
ATOM     18  C   UNL     1     169.431 176.017 181.886  1.00  0.00     0.000 C 
BRANCH  18  19
ATOM     19  C   UNL     1     169.267 177.492 181.476  1.00  0.00     0.000 C 
BRANCH  19  20
ATOM     20  C   UNL     1     169.299 177.681 179.947  1.00  0.00     0.000 C 
BRANCH  20  21
ATOM     21  C   UNL     1     168.352 178.789 179.448  1.00  0.00     0.000 C 
BRANCH  21  22
ATOM     22  C   UNL     1     167.136 178.981 180.375  1.00  0.00    -0.000 C 
BRANCH  22  23
ATOM     23  C   UNL     1     165.798 178.746 179.658  1.00  0.00    -0.000 C 
BRANCH  23  24
ATOM     24  C   UNL     1     165.537 177.262 179.355  1.00  0.00    -0.000 C 
BRANCH  24  25
ATOM     25  C   UNL     1     165.470 176.399 180.627  1.00  0.00    -0.000 C 
BRANCH  25  26
ATOM     26  C   UNL     1     164.318 176.781 181.581  1.00  0.00    -0.000 C 
BRANCH  26  27
ATOM     27  C   UNL     1     162.960 176.235 181.104  1.00  0.00    -0.000 C 
BRANCH  27  28
ATOM     28  C   UNL     1     162.024 177.352 180.595  1.00  0.00    -0.000 C 
BRANCH  28  29
ATOM     29  C   UNL     1     162.135 178.663 181.392  1.00  0.00    -0.003 C 
ATOM     30  C   UNL     1     162.352 179.887 180.504  1.00  0.00     0.004 C 
ENDBRANCH  28  29
ENDBRANCH  27  28
ENDBRANCH  26  27
ENDBRANCH  25  26
ENDBRANCH  24  25
ENDBRANCH  23  24
ENDBRANCH  22  23
ENDBRANCH  21  22
ENDBRANCH  20  21
ENDBRANCH  19  20
ENDBRANCH  18  19
ENDBRANCH  17  18
ENDBRANCH   1  17
TORSDOF 26
ENDMDL
MODEL 2
REMARK VINA RESULT:    -4.359      8.397     11.513
REMARK INTER + INTRA:         -15.074
REMARK INTER:                  -9.162
REMARK INTRA:                  -5.911
REMARK UNBOUND:                -4.088
REMARK SMILES CCCCCCCCCCCCCCCCCCCCCCCCCCCC(=O)[O-]
REMARK SMILES IDX 15 1 16 2 17 3 18 4 19 5 20 6 21 7 22 8 23 9 24 10 25 11
REMARK SMILES IDX 26 12 27 13 28 14 29 15 30 16 14 17 13 18 12 19 11 20 10 21
REMARK SMILES IDX 9 22 8 23 7 24 6 25 5 26 4 27 3 28 2 29 1 30
REMARK H PARENT
REMARK Flexibility Score: inf
ROOT
ATOM      1  C   UNL     1     165.159 176.452 179.369  1.00  0.00     0.000 C 
ENDROOT
BRANCH   1   2
ATOM      2  C   UNL     1     165.692 177.875 179.132  1.00  0.00     0.000 C 
BRANCH   2   3
ATOM      3  C   UNL     1     165.683 178.728 180.410  1.00  0.00     0.000 C 
BRANCH   3   4
ATOM      4  C   UNL     1     164.511 179.721 180.452  1.00  0.00     0.000 C 
BRANCH   4   5
ATOM      5  C   UNL     1     163.461 179.281 181.480  1.00  0.00     0.000 C 
BRANCH   5   6
ATOM      6  C   UNL     1     162.041 179.394 180.906  1.00  0.00     0.000 C 
BRANCH   6   7
ATOM      7  C   UNL     1     162.032 179.681 179.393  1.00  0.00     0.000 C 
BRANCH   7   8
ATOM      8  C   UNL     1     161.570 178.505 178.511  1.00  0.00     0.000 C 
BRANCH   8   9
ATOM      9  C   UNL     1     162.468 178.204 177.295  1.00  0.00     0.000 C 
BRANCH   9  10
ATOM     10  C   UNL     1     162.373 176.746 176.794  1.00  0.00     0.000 C 
BRANCH  10  11
ATOM     11  C   UNL     1     161.121 176.020 177.317  1.00  0.00     0.000 C 
BRANCH  11  12
ATOM     12  C   UNL     1     160.581 174.983 176.317  1.00  0.00     0.006 C 
BRANCH  12  13
ATOM     13  C   UNL     1     160.469 175.521 174.875  1.00  0.00     0.053 C 
BRANCH  13  14
ATOM     14  C   UNL     1     160.863 174.484 173.864  1.00  0.00     0.041 C 
ATOM     15  O   UNL     1     161.689 174.767 172.958  1.00  0.00    -0.550 OA
ATOM     16  O   UNL     1     160.345 173.199 173.943  1.00  0.00    -0.550 OA
ENDBRANCH  13  14
ENDBRANCH  12  13
ENDBRANCH  11  12
ENDBRANCH  10  11
ENDBRANCH   9  10
ENDBRANCH   8   9
ENDBRANCH   7   8
ENDBRANCH   6   7
ENDBRANCH   5   6
ENDBRANCH   4   5
ENDBRANCH   3   4
ENDBRANCH   2   3
ENDBRANCH   1   2
BRANCH   1  17
ATOM     17  C   UNL     1     165.240 176.017 180.842  1.00  0.00     0.000 C 
BRANCH  17  18
ATOM     18  C   UNL     1     163.877 175.646 181.462  1.00  0.00     0.000 C 
BRANCH  18  19
ATOM     19  C   UNL     1     162.731 175.673 180.434  1.00  0.00     0.000 C 
BRANCH  19  20
ATOM     20  C   UNL     1     161.346 175.769 181.104  1.00  0.00     0.000 C 
BRANCH  20  21
ATOM     21  C   UNL     1     160.556 174.447 181.065  1.00  0.00     0.000 C 
BRANCH  21  22
ATOM     22  C   UNL     1     161.003 173.467 182.167  1.00  0.00    -0.000 C 
BRANCH  22  23
ATOM     23  C   UNL     1     161.663 172.199 181.604  1.00  0.00    -0.000 C 
BRANCH  23  24
ATOM     24  C   UNL     1     160.684 171.322 180.808  1.00  0.00    -0.000 C 
BRANCH  24  25
ATOM     25  C   UNL     1     161.235 170.918 179.428  1.00  0.00    -0.000 C 
BRANCH  25  26
ATOM     26  C   UNL     1     161.316 172.086 178.423  1.00  0.00    -0.000 C 
BRANCH  26  27
ATOM     27  C   UNL     1     162.684 172.156 177.719  1.00  0.00    -0.000 C 
BRANCH  27  28
ATOM     28  C   UNL     1     163.672 173.093 178.446  1.00  0.00    -0.000 C 
BRANCH  28  29
ATOM     29  C   UNL     1     164.987 172.409 178.855  1.00  0.00    -0.003 C 
ATOM     30  C   UNL     1     165.164 172.305 180.368  1.00  0.00     0.004 C 
ENDBRANCH  28  29
ENDBRANCH  27  28
ENDBRANCH  26  27
ENDBRANCH  25  26
ENDBRANCH  24  25
ENDBRANCH  23  24
ENDBRANCH  22  23
ENDBRANCH  21  22
ENDBRANCH  20  21
ENDBRANCH  19  20
ENDBRANCH  18  19
ENDBRANCH  17  18
ENDBRANCH   1  17
TORSDOF 26
ENDMDL
MODEL 3
REMARK VINA RESULT:    -4.312      4.595     11.118
REMARK INTER + INTRA:         -14.954
REMARK INTER:                 -11.284
REMARK INTRA:                  -3.670
REMARK UNBOUND:                -4.088
REMARK SMILES CCCCCCCCCCCCCCCCCCCCCCCCCCCC(=O)[O-]
REMARK SMILES IDX 15 1 16 2 17 3 18 4 19 5 20 6 21 7 22 8 23 9 24 10 25 11
REMARK SMILES IDX 26 12 27 13 28 14 29 15 30 16 14 17 13 18 12 19 11 20 10 21
REMARK SMILES IDX 9 22 8 23 7 24 6 25 5 26 4 27 3 28 2 29 1 30
REMARK H PARENT
REMARK Flexibility Score: inf
ROOT
ATOM      1  C   UNL     1     170.575 177.496 181.419  1.00  0.00     0.000 C 
ENDROOT
BRANCH   1   2
ATOM      2  C   UNL     1     169.472 178.465 181.877  1.00  0.00     0.000 C 
BRANCH   2   3
ATOM      3  C   UNL     1     168.305 178.544 180.880  1.00  0.00     0.000 C 
BRANCH   3   4
ATOM      4  C   UNL     1     167.593 177.195 180.691  1.00  0.00     0.000 C 
BRANCH   4   5
ATOM      5  C   UNL     1     167.209 176.983 179.222  1.00  0.00     0.000 C 
BRANCH   5   6
ATOM      6  C   UNL     1     166.811 178.308 178.556  1.00  0.00     0.000 C 
BRANCH   6   7
ATOM      7  C   UNL     1     165.383 178.280 177.981  1.00  0.00     0.000 C 
BRANCH   7   8
ATOM      8  C   UNL     1     164.345 179.093 178.779  1.00  0.00     0.000 C 
BRANCH   8   9
ATOM      9  C   UNL     1     164.874 179.739 180.075  1.00  0.00     0.000 C 
BRANCH   9  10
ATOM     10  C   UNL     1     164.066 179.362 181.335  1.00  0.00     0.000 C 
BRANCH  10  11
ATOM     11  C   UNL     1     164.026 177.844 181.582  1.00  0.00     0.000 C 
BRANCH  11  12
ATOM     12  C   UNL     1     162.636 177.240 181.316  1.00  0.00     0.006 C 
BRANCH  12  13
ATOM     13  C   UNL     1     162.662 176.047 180.337  1.00  0.00     0.053 C 
BRANCH  13  14
ATOM     14  C   UNL     1     161.388 175.946 179.551  1.00  0.00     0.041 C 
ATOM     15  O   UNL     1     161.258 176.583 178.474  1.00  0.00    -0.550 OA
ATOM     16  O   UNL     1     160.359 175.124 179.989  1.00  0.00    -0.550 OA
ENDBRANCH  13  14
ENDBRANCH  12  13
ENDBRANCH  11  12
ENDBRANCH  10  11
ENDBRANCH   9  10
ENDBRANCH   8   9
ENDBRANCH   7   8
ENDBRANCH   6   7
ENDBRANCH   5   6
ENDBRANCH   4   5
ENDBRANCH   3   4
ENDBRANCH   2   3
ENDBRANCH   1   2
BRANCH   1  17
ATOM     17  C   UNL     1     171.350 178.004 180.192  1.00  0.00     0.000 C 
BRANCH  17  18
ATOM     18  C   UNL     1     171.739 179.495 180.269  1.00  0.00     0.000 C 
BRANCH  18  19
ATOM     19  C   UNL     1     172.917 179.751 181.227  1.00  0.00     0.000 C 
BRANCH  19  20
ATOM     20  C   UNL     1     174.075 178.757 181.009  1.00  0.00     0.000 C 
BRANCH  20  21
ATOM     21  C   UNL     1     175.391 179.436 180.583  1.00  0.00     0.000 C 
BRANCH  21  22
ATOM     22  C   UNL     1     176.513 179.240 181.621  1.00  0.00    -0.000 C 
BRANCH  22  23
ATOM     23  C   UNL     1     176.859 177.760 181.851  1.00  0.00    -0.000 C 
BRANCH  23  24
ATOM     24  C   UNL     1     177.611 177.133 180.666  1.00  0.00    -0.000 C 
BRANCH  24  25
ATOM     25  C   UNL     1     176.856 175.944 180.046  1.00  0.00    -0.000 C 
BRANCH  25  26
ATOM     26  C   UNL     1     176.299 176.225 178.635  1.00  0.00    -0.000 C 
BRANCH  26  27
ATOM     27  C   UNL     1     177.031 177.388 177.939  1.00  0.00    -0.000 C 
BRANCH  27  28
ATOM     28  C   UNL     1     176.113 178.165 176.972  1.00  0.00    -0.000 C 
BRANCH  28  29
ATOM     29  C   UNL     1     174.633 178.162 177.388  1.00  0.00    -0.003 C 
ATOM     30  C   UNL     1     173.846 179.338 176.812  1.00  0.00     0.004 C 
ENDBRANCH  28  29
ENDBRANCH  27  28
ENDBRANCH  26  27
ENDBRANCH  25  26
ENDBRANCH  24  25
ENDBRANCH  23  24
ENDBRANCH  22  23
ENDBRANCH  21  22
ENDBRANCH  20  21
ENDBRANCH  19  20
ENDBRANCH  18  19
ENDBRANCH  17  18
ENDBRANCH   1  17
TORSDOF 26
ENDMDL
MODEL 4
REMARK VINA RESULT:    -4.309      1.796      4.460
REMARK INTER + INTRA:         -14.946
REMARK INTER:                 -11.763
REMARK INTRA:                  -3.183
REMARK UNBOUND:                -4.088
REMARK SMILES CCCCCCCCCCCCCCCCCCCCCCCCCCCC(=O)[O-]
REMARK SMILES IDX 15 1 16 2 17 3 18 4 19 5 20 6 21 7 22 8 23 9 24 10 25 11
REMARK SMILES IDX 26 12 27 13 28 14 29 15 30 16 14 17 13 18 12 19 11 20 10 21
REMARK SMILES IDX 9 22 8 23 7 24 6 25 5 26 4 27 3 28 2 29 1 30
REMARK H PARENT
REMARK Flexibility Score: inf
ROOT
ATOM      1  C   UNL     1     166.380 177.913 178.944  1.00  0.00     0.000 C 
ENDROOT
BRANCH   1   2
ATOM      2  C   UNL     1     167.904 177.798 178.778  1.00  0.00     0.000 C 
BRANCH   2   3
ATOM      3  C   UNL     1     168.674 178.683 179.771  1.00  0.00     0.000 C 
BRANCH   3   4
ATOM      4  C   UNL     1     168.878 178.004 181.135  1.00  0.00     0.000 C 
BRANCH   4   5
ATOM      5  C   UNL     1     170.130 178.551 181.832  1.00  0.00     0.000 C 
BRANCH   5   6
ATOM      6  C   UNL     1     171.184 178.998 180.809  1.00  0.00     0.000 C 
BRANCH   6   7
ATOM      7  C   UNL     1     172.174 180.028 181.386  1.00  0.00     0.000 C 
BRANCH   7   8
ATOM      8  C   UNL     1     173.660 179.722 181.116  1.00  0.00     0.000 C 
BRANCH   8   9
ATOM      9  C   UNL     1     173.942 178.345 180.482  1.00  0.00     0.000 C 
BRANCH   9  10
ATOM     10  C   UNL     1     174.609 178.423 179.092  1.00  0.00     0.000 C 
BRANCH  10  11
ATOM     11  C   UNL     1     175.603 179.592 178.976  1.00  0.00     0.000 C 
BRANCH  11  12
ATOM     12  C   UNL     1     176.995 179.239 179.528  1.00  0.00     0.006 C 
BRANCH  12  13
ATOM     13  C   UNL     1     177.409 177.776 179.257  1.00  0.00     0.053 C 
BRANCH  13  14
ATOM     14  C   UNL     1     177.762 177.056 180.526  1.00  0.00     0.041 C 
ATOM     15  O   UNL     1     178.617 176.133 180.511  1.00  0.00    -0.550 OA
ATOM     16  O   UNL     1     177.173 177.426 181.727  1.00  0.00    -0.550 OA
ENDBRANCH  13  14
ENDBRANCH  12  13
ENDBRANCH  11  12
ENDBRANCH  10  11
ENDBRANCH   9  10
ENDBRANCH   8   9
ENDBRANCH   7   8
ENDBRANCH   6   7
ENDBRANCH   5   6
ENDBRANCH   4   5
ENDBRANCH   3   4
ENDBRANCH   2   3
ENDBRANCH   1   2
BRANCH   1  17
ATOM     17  C   UNL     1     165.757 176.691 179.641  1.00  0.00     0.000 C 
BRANCH  17  18
ATOM     18  C   UNL     1     164.967 177.035 180.922  1.00  0.00     0.000 C 
BRANCH  18  19
ATOM     19  C   UNL     1     164.730 178.547 181.083  1.00  0.00     0.000 C 
BRANCH  19  20
ATOM     20  C   UNL     1     163.528 178.857 181.997  1.00  0.00     0.000 C 
BRANCH  20  21
ATOM     21  C   UNL     1     162.436 179.697 181.308  1.00  0.00     0.000 C 
BRANCH  21  22
ATOM     22  C   UNL     1     162.693 179.866 179.798  1.00  0.00    -0.000 C 
BRANCH  22  23
ATOM     23  C   UNL     1     161.420 179.693 178.955  1.00  0.00    -0.000 C 
BRANCH  23  24
ATOM     24  C   UNL     1     161.527 178.541 177.945  1.00  0.00    -0.000 C 
BRANCH  24  25
ATOM     25  C   UNL     1     162.375 177.368 178.469  1.00  0.00    -0.000 C 
BRANCH  25  26
ATOM     26  C   UNL     1     161.542 176.172 178.976  1.00  0.00    -0.000 C 
BRANCH  26  27
ATOM     27  C   UNL     1     161.413 176.160 180.510  1.00  0.00    -0.000 C 
BRANCH  27  28
ATOM     28  C   UNL     1     161.029 174.769 181.056  1.00  0.00    -0.000 C 
BRANCH  28  29
ATOM     29  C   UNL     1     162.238 173.892 181.422  1.00  0.00    -0.003 C 
ATOM     30  C   UNL     1     161.925 172.857 182.500  1.00  0.00     0.004 C 
ENDBRANCH  28  29
ENDBRANCH  27  28
ENDBRANCH  26  27
ENDBRANCH  25  26
ENDBRANCH  24  25
ENDBRANCH  23  24
ENDBRANCH  22  23
ENDBRANCH  21  22
ENDBRANCH  20  21
ENDBRANCH  19  20
ENDBRANCH  18  19
ENDBRANCH  17  18
ENDBRANCH   1  17
TORSDOF 26
ENDMDL
MODEL 5
REMARK VINA RESULT:    -4.309      1.995      5.157
REMARK INTER + INTRA:         -14.946
REMARK INTER:                 -11.724
REMARK INTRA:                  -3.222
REMARK UNBOUND:                -4.088
REMARK SMILES CCCCCCCCCCCCCCCCCCCCCCCCCCCC(=O)[O-]
REMARK SMILES IDX 15 1 16 2 17 3 18 4 19 5 20 6 21 7 22 8 23 9 24 10 25 11
REMARK SMILES IDX 26 12 27 13 28 14 29 15 30 16 14 17 13 18 12 19 11 20 10 21
REMARK SMILES IDX 9 22 8 23 7 24 6 25 5 26 4 27 3 28 2 29 1 30
REMARK H PARENT
REMARK Flexibility Score: inf
ROOT
ATOM      1  C   UNL     1     165.120 176.662 180.650  1.00  0.00     0.000 C 
ENDROOT
BRANCH   1   2
ATOM      2  C   UNL     1     165.331 177.471 179.360  1.00  0.00     0.000 C 
BRANCH   2   3
ATOM      3  C   UNL     1     166.761 178.018 179.234  1.00  0.00     0.000 C 
BRANCH   3   4
ATOM      4  C   UNL     1     167.664 177.594 180.403  1.00  0.00     0.000 C 
BRANCH   4   5
ATOM      5  C   UNL     1     168.794 178.608 180.613  1.00  0.00     0.000 C 
BRANCH   5   6
ATOM      6  C   UNL     1     169.615 178.272 181.867  1.00  0.00     0.000 C 
BRANCH   6   7
ATOM      7  C   UNL     1     171.048 177.817 181.536  1.00  0.00     0.000 C 
BRANCH   7   8
ATOM      8  C   UNL     1     172.060 178.960 181.328  1.00  0.00     0.000 C 
BRANCH   8   9
ATOM      9  C   UNL     1     172.904 178.865 180.042  1.00  0.00     0.000 C 
BRANCH   9  10
ATOM     10  C   UNL     1     174.344 178.361 180.275  1.00  0.00     0.000 C 
BRANCH  10  11
ATOM     11  C   UNL     1     175.143 179.270 181.226  1.00  0.00     0.000 C 
BRANCH  11  12
ATOM     12  C   UNL     1     176.427 178.598 181.743  1.00  0.00     0.006 C 
BRANCH  12  13
ATOM     13  C   UNL     1     176.597 177.143 181.255  1.00  0.00     0.053 C 
BRANCH  13  14
ATOM     14  C   UNL     1     177.770 177.001 180.332  1.00  0.00     0.041 C 
ATOM     15  O   UNL     1     177.876 177.750 179.326  1.00  0.00    -0.550 OA
ATOM     16  O   UNL     1     178.763 176.068 180.599  1.00  0.00    -0.550 OA
ENDBRANCH  13  14
ENDBRANCH  12  13
ENDBRANCH  11  12
ENDBRANCH  10  11
ENDBRANCH   9  10
ENDBRANCH   8   9
ENDBRANCH   7   8
ENDBRANCH   6   7
ENDBRANCH   5   6
ENDBRANCH   4   5
ENDBRANCH   3   4
ENDBRANCH   2   3
ENDBRANCH   1   2
BRANCH   1  17
ATOM     17  C   UNL     1     164.002 177.229 181.541  1.00  0.00     0.000 C 
BRANCH  17  18
ATOM     18  C   UNL     1     163.933 178.771 181.555  1.00  0.00     0.000 C 
BRANCH  18  19
ATOM     19  C   UNL     1     162.544 179.298 181.959  1.00  0.00     0.000 C 
BRANCH  19  20
ATOM     20  C   UNL     1     161.770 179.885 180.762  1.00  0.00     0.000 C 
BRANCH  20  21
ATOM     21  C   UNL     1     162.651 180.124 179.521  1.00  0.00     0.000 C 
BRANCH  21  22
ATOM     22  C   UNL     1     161.973 179.649 178.222  1.00  0.00    -0.000 C 
BRANCH  22  23
ATOM     23  C   UNL     1     161.400 178.228 178.335  1.00  0.00    -0.000 C 
BRANCH  23  24
ATOM     24  C   UNL     1     162.216 177.193 177.544  1.00  0.00    -0.000 C 
BRANCH  24  25
ATOM     25  C   UNL     1     161.329 176.166 176.818  1.00  0.00    -0.000 C 
BRANCH  25  26
ATOM     26  C   UNL     1     161.325 174.770 177.476  1.00  0.00    -0.000 C 
BRANCH  26  27
ATOM     27  C   UNL     1     162.295 174.683 178.668  1.00  0.00    -0.000 C 
BRANCH  27  28
ATOM     28  C   UNL     1     161.747 173.800 179.809  1.00  0.00    -0.000 C 
BRANCH  28  29
ATOM     29  C   UNL     1     161.644 174.529 181.160  1.00  0.00    -0.003 C 
ATOM     30  C   UNL     1     160.635 175.675 181.147  1.00  0.00     0.004 C 
ENDBRANCH  28  29
ENDBRANCH  27  28
ENDBRANCH  26  27
ENDBRANCH  25  26
ENDBRANCH  24  25
ENDBRANCH  23  24
ENDBRANCH  22  23
ENDBRANCH  21  22
ENDBRANCH  20  21
ENDBRANCH  19  20
ENDBRANCH  18  19
ENDBRANCH  17  18
ENDBRANCH   1  17
TORSDOF 26
ENDMDL
MODEL 6
REMARK VINA RESULT:    -4.281      4.327     11.196
REMARK INTER + INTRA:         -14.878
REMARK INTER:                 -11.320
REMARK INTRA:                  -3.558
REMARK UNBOUND:                -4.088
REMARK SMILES CCCCCCCCCCCCCCCCCCCCCCCCCCCC(=O)[O-]
REMARK SMILES IDX 15 1 16 2 17 3 18 4 19 5 20 6 21 7 22 8 23 9 24 10 25 11
REMARK SMILES IDX 26 12 27 13 28 14 29 15 30 16 14 17 13 18 12 19 11 20 10 21
REMARK SMILES IDX 9 22 8 23 7 24 6 25 5 26 4 27 3 28 2 29 1 30
REMARK H PARENT
REMARK Flexibility Score: inf
ROOT
ATOM      1  C   UNL     1     171.655 176.405 180.612  1.00  0.00     0.000 C 
ENDROOT
BRANCH   1   2
ATOM      2  C   UNL     1     170.359 176.280 181.431  1.00  0.00     0.000 C 
BRANCH   2   3
ATOM      3  C   UNL     1     170.140 177.474 182.372  1.00  0.00     0.000 C 
BRANCH   3   4
ATOM      4  C   UNL     1     169.246 178.561 181.754  1.00  0.00     0.000 C 
BRANCH   4   5
ATOM      5  C   UNL     1     168.234 177.945 180.780  1.00  0.00     0.000 C 
BRANCH   5   6
ATOM      6  C   UNL     1     167.214 178.990 180.306  1.00  0.00     0.000 C 
BRANCH   6   7
ATOM      7  C   UNL     1     165.759 178.498 180.423  1.00  0.00     0.000 C 
BRANCH   7   8
ATOM      8  C   UNL     1     164.763 179.541 180.966  1.00  0.00     0.000 C 
BRANCH   8   9
ATOM      9  C   UNL     1     163.610 178.969 181.813  1.00  0.00     0.000 C 
BRANCH   9  10
ATOM     10  C   UNL     1     162.224 179.545 181.451  1.00  0.00     0.000 C 
BRANCH  10  11
ATOM     11  C   UNL     1     162.170 180.106 180.019  1.00  0.00     0.000 C 
BRANCH  11  12
ATOM     12  C   UNL     1     161.515 179.128 179.028  1.00  0.00     0.006 C 
BRANCH  12  13
ATOM     13  C   UNL     1     162.495 178.077 178.464  1.00  0.00     0.053 C 
BRANCH  13  14
ATOM     14  C   UNL     1     161.977 176.681 178.649  1.00  0.00     0.041 C 
ATOM     15  O   UNL     1     162.429 175.741 177.945  1.00  0.00    -0.550 OA
ATOM     16  O   UNL     1     161.023 176.412 179.621  1.00  0.00    -0.550 OA
ENDBRANCH  13  14
ENDBRANCH  12  13
ENDBRANCH  11  12
ENDBRANCH  10  11
ENDBRANCH   9  10
ENDBRANCH   8   9
ENDBRANCH   7   8
ENDBRANCH   6   7
ENDBRANCH   5   6
ENDBRANCH   4   5
ENDBRANCH   3   4
ENDBRANCH   2   3
ENDBRANCH   1   2
BRANCH   1  17
ATOM     17  C   UNL     1     172.721 177.273 181.301  1.00  0.00     0.000 C 
BRANCH  17  18
ATOM     18  C   UNL     1     172.883 178.677 180.683  1.00  0.00     0.000 C 
BRANCH  18  19
ATOM     19  C   UNL     1     174.177 179.378 181.136  1.00  0.00     0.000 C 
BRANCH  19  20
ATOM     20  C   UNL     1     175.321 178.379 181.402  1.00  0.00     0.000 C 
BRANCH  20  21
ATOM     21  C   UNL     1     176.711 179.042 181.458  1.00  0.00     0.000 C 
BRANCH  21  22
ATOM     22  C   UNL     1     177.488 178.883 180.137  1.00  0.00    -0.000 C 
BRANCH  22  23
ATOM     23  C   UNL     1     177.117 179.951 179.096  1.00  0.00    -0.000 C 
BRANCH  23  24
ATOM     24  C   UNL     1     176.699 179.347 177.747  1.00  0.00    -0.000 C 
BRANCH  24  25
ATOM     25  C   UNL     1     175.183 179.441 177.498  1.00  0.00    -0.000 C 
BRANCH  25  26
ATOM     26  C   UNL     1     174.451 178.086 177.587  1.00  0.00    -0.000 C 
BRANCH  26  27
ATOM     27  C   UNL     1     175.427 176.895 177.616  1.00  0.00    -0.000 C 
BRANCH  27  28
ATOM     28  C   UNL     1     174.853 175.683 178.380  1.00  0.00    -0.000 C 
BRANCH  28  29
ATOM     29  C   UNL     1     175.649 175.315 179.643  1.00  0.00    -0.003 C 
ATOM     30  C   UNL     1     174.899 174.355 180.565  1.00  0.00     0.004 C 
ENDBRANCH  28  29
ENDBRANCH  27  28
ENDBRANCH  26  27
ENDBRANCH  25  26
ENDBRANCH  24  25
ENDBRANCH  23  24
ENDBRANCH  22  23
ENDBRANCH  21  22
ENDBRANCH  20  21
ENDBRANCH  19  20
ENDBRANCH  18  19
ENDBRANCH  17  18
ENDBRANCH   1  17
TORSDOF 26
ENDMDL
MODEL 7
REMARK VINA RESULT:    -4.247      2.326      4.352
REMARK INTER + INTRA:         -14.791
REMARK INTER:                 -11.601
REMARK INTRA:                  -3.189
REMARK UNBOUND:                -4.088
REMARK SMILES CCCCCCCCCCCCCCCCCCCCCCCCCCCC(=O)[O-]
REMARK SMILES IDX 15 1 16 2 17 3 18 4 19 5 20 6 21 7 22 8 23 9 24 10 25 11
REMARK SMILES IDX 26 12 27 13 28 14 29 15 30 16 14 17 13 18 12 19 11 20 10 21
REMARK SMILES IDX 9 22 8 23 7 24 6 25 5 26 4 27 3 28 2 29 1 30
REMARK H PARENT
REMARK Flexibility Score: inf
ROOT
ATOM      1  C   UNL     1     167.945 177.569 180.726  1.00  0.00     0.000 C 
ENDROOT
BRANCH   1   2
ATOM      2  C   UNL     1     169.475 177.558 180.876  1.00  0.00     0.000 C 
BRANCH   2   3
ATOM      3  C   UNL     1     169.939 178.115 182.230  1.00  0.00     0.000 C 
BRANCH   3   4
ATOM      4  C   UNL     1     170.835 179.355 182.086  1.00  0.00     0.000 C 
BRANCH   4   5
ATOM      5  C   UNL     1     171.480 179.402 180.696  1.00  0.00     0.000 C 
BRANCH   5   6
ATOM      6  C   UNL     1     173.010 179.316 180.791  1.00  0.00     0.000 C 
BRANCH   6   7
ATOM      7  C   UNL     1     173.521 177.865 180.857  1.00  0.00     0.000 C 
BRANCH   7   8
ATOM      8  C   UNL     1     174.947 177.703 181.418  1.00  0.00     0.000 C 
BRANCH   8   9
ATOM      9  C   UNL     1     175.770 179.004 181.505  1.00  0.00     0.000 C 
BRANCH   9  10
ATOM     10  C   UNL     1     177.259 178.827 181.139  1.00  0.00     0.000 C 
BRANCH  10  11
ATOM     11  C   UNL     1     177.472 178.542 179.642  1.00  0.00     0.000 C 
BRANCH  11  12
ATOM     12  C   UNL     1     176.753 179.560 178.741  1.00  0.00     0.006 C 
BRANCH  12  13
ATOM     13  C   UNL     1     176.323 178.977 177.377  1.00  0.00     0.053 C 
BRANCH  13  14
ATOM     14  C   UNL     1     174.861 179.194 177.118  1.00  0.00     0.041 C 
ATOM     15  O   UNL     1     174.245 180.119 177.709  1.00  0.00    -0.550 OA
ATOM     16  O   UNL     1     174.188 178.399 176.201  1.00  0.00    -0.550 OA
ENDBRANCH  13  14
ENDBRANCH  12  13
ENDBRANCH  11  12
ENDBRANCH  10  11
ENDBRANCH   9  10
ENDBRANCH   8   9
ENDBRANCH   7   8
ENDBRANCH   6   7
ENDBRANCH   5   6
ENDBRANCH   4   5
ENDBRANCH   3   4
ENDBRANCH   2   3
ENDBRANCH   1   2
BRANCH   1  17
ATOM     17  C   UNL     1     167.392 178.940 180.299  1.00  0.00     0.000 C 
BRANCH  17  18
ATOM     18  C   UNL     1     165.852 178.998 180.220  1.00  0.00     0.000 C 
BRANCH  18  19
ATOM     19  C   UNL     1     165.187 177.672 180.632  1.00  0.00     0.000 C 
BRANCH  19  20
ATOM     20  C   UNL     1     163.964 177.889 181.544  1.00  0.00     0.000 C 
BRANCH  20  21
ATOM     21  C   UNL     1     163.668 179.375 181.826  1.00  0.00     0.000 C 
BRANCH  21  22
ATOM     22  C   UNL     1     162.210 179.753 181.500  1.00  0.00    -0.000 C 
BRANCH  22  23
ATOM     23  C   UNL     1     161.699 179.096 180.208  1.00  0.00    -0.000 C 
BRANCH  23  24
ATOM     24  C   UNL     1     162.195 179.810 178.942  1.00  0.00    -0.000 C 
BRANCH  24  25
ATOM     25  C   UNL     1     162.262 178.876 177.720  1.00  0.00    -0.000 C 
BRANCH  25  26
ATOM     26  C   UNL     1     162.807 177.468 178.040  1.00  0.00    -0.000 C 
BRANCH  26  27
ATOM     27  C   UNL     1     161.753 176.368 177.816  1.00  0.00    -0.000 C 
BRANCH  27  28
ATOM     28  C   UNL     1     161.993 175.133 178.709  1.00  0.00    -0.000 C 
BRANCH  28  29
ATOM     29  C   UNL     1     160.878 174.889 179.739  1.00  0.00    -0.003 C 
ATOM     30  C   UNL     1     161.115 175.614 181.062  1.00  0.00     0.004 C 
ENDBRANCH  28  29
ENDBRANCH  27  28
ENDBRANCH  26  27
ENDBRANCH  25  26
ENDBRANCH  24  25
ENDBRANCH  23  24
ENDBRANCH  22  23
ENDBRANCH  21  22
ENDBRANCH  20  21
ENDBRANCH  19  20
ENDBRANCH  18  19
ENDBRANCH  17  18
ENDBRANCH   1  17
TORSDOF 26
ENDMDL
MODEL 8
REMARK VINA RESULT:    -4.236      2.550      6.510
REMARK INTER + INTRA:         -14.762
REMARK INTER:                 -10.975
REMARK INTRA:                  -3.787
REMARK UNBOUND:                -4.088
REMARK SMILES CCCCCCCCCCCCCCCCCCCCCCCCCCCC(=O)[O-]
REMARK SMILES IDX 15 1 16 2 17 3 18 4 19 5 20 6 21 7 22 8 23 9 24 10 25 11
REMARK SMILES IDX 26 12 27 13 28 14 29 15 30 16 14 17 13 18 12 19 11 20 10 21
REMARK SMILES IDX 9 22 8 23 7 24 6 25 5 26 4 27 3 28 2 29 1 30
REMARK H PARENT
REMARK Flexibility Score: inf
ROOT
ATOM      1  C   UNL     1     162.614 177.948 181.449  1.00  0.00     0.000 C 
ENDROOT
BRANCH   1   2
ATOM      2  C   UNL     1     163.940 177.220 181.725  1.00  0.00     0.000 C 
BRANCH   2   3
ATOM      3  C   UNL     1     164.554 176.610 180.455  1.00  0.00     0.000 C 
BRANCH   3   4
ATOM      4  C   UNL     1     166.017 177.028 180.244  1.00  0.00     0.000 C 
BRANCH   4   5
ATOM      5  C   UNL     1     166.120 178.534 179.973  1.00  0.00     0.000 C 
BRANCH   5   6
ATOM      6  C   UNL     1     167.582 178.968 179.793  1.00  0.00     0.000 C 
BRANCH   6   7
ATOM      7  C   UNL     1     168.536 178.265 180.776  1.00  0.00     0.000 C 
BRANCH   7   8
ATOM      8  C   UNL     1     170.034 178.427 180.454  1.00  0.00     0.000 C 
BRANCH   8   9
ATOM      9  C   UNL     1     170.902 178.955 181.613  1.00  0.00     0.000 C 
BRANCH   9  10
ATOM     10  C   UNL     1     172.224 179.608 181.157  1.00  0.00     0.000 C 
BRANCH  10  11
ATOM     11  C   UNL     1     173.380 178.597 181.053  1.00  0.00     0.000 C 
BRANCH  11  12
ATOM     12  C   UNL     1     174.739 179.278 180.813  1.00  0.00     0.006 C 
BRANCH  12  13
ATOM     13  C   UNL     1     175.171 179.279 179.331  1.00  0.00     0.053 C 
BRANCH  13  14
ATOM     14  C   UNL     1     176.640 179.546 179.183  1.00  0.00     0.041 C 
ATOM     15  O   UNL     1     177.351 179.748 180.202  1.00  0.00    -0.550 OA
ATOM     16  O   UNL     1     177.230 179.539 177.927  1.00  0.00    -0.550 OA
ENDBRANCH  13  14
ENDBRANCH  12  13
ENDBRANCH  11  12
ENDBRANCH  10  11
ENDBRANCH   9  10
ENDBRANCH   8   9
ENDBRANCH   7   8
ENDBRANCH   6   7
ENDBRANCH   5   6
ENDBRANCH   4   5
ENDBRANCH   3   4
ENDBRANCH   2   3
ENDBRANCH   1   2
BRANCH   1  17
ATOM     17  C   UNL     1     162.764 179.478 181.409  1.00  0.00     0.000 C 
BRANCH  17  18
ATOM     18  C   UNL     1     162.254 180.125 180.105  1.00  0.00     0.000 C 
BRANCH  18  19
ATOM     19  C   UNL     1     161.804 179.083 179.064  1.00  0.00     0.000 C 
BRANCH  19  20
ATOM     20  C   UNL     1     162.779 178.985 177.874  1.00  0.00     0.000 C 
BRANCH  20  21
ATOM     21  C   UNL     1     162.839 177.580 177.247  1.00  0.00     0.000 C 
BRANCH  21  22
ATOM     22  C   UNL     1     161.811 176.616 177.871  1.00  0.00    -0.000 C 
BRANCH  22  23
ATOM     23  C   UNL     1     162.230 175.142 177.754  1.00  0.00    -0.000 C 
BRANCH  23  24
ATOM     24  C   UNL     1     161.906 174.329 179.017  1.00  0.00    -0.000 C 
BRANCH  24  25
ATOM     25  C   UNL     1     160.925 175.054 179.955  1.00  0.00    -0.000 C 
BRANCH  25  26
ATOM     26  C   UNL     1     160.835 174.434 181.365  1.00  0.00    -0.000 C 
BRANCH  26  27
ATOM     27  C   UNL     1     161.342 172.979 181.396  1.00  0.00    -0.000 C 
BRANCH  27  28
ATOM     28  C   UNL     1     162.164 172.670 182.665  1.00  0.00    -0.000 C 
BRANCH  28  29
ATOM     29  C   UNL     1     163.567 173.299 182.661  1.00  0.00    -0.003 C 
ATOM     30  C   UNL     1     164.363 172.981 181.397  1.00  0.00     0.004 C 
ENDBRANCH  28  29
ENDBRANCH  27  28
ENDBRANCH  26  27
ENDBRANCH  25  26
ENDBRANCH  24  25
ENDBRANCH  23  24
ENDBRANCH  22  23
ENDBRANCH  21  22
ENDBRANCH  20  21
ENDBRANCH  19  20
ENDBRANCH  18  19
ENDBRANCH  17  18
ENDBRANCH   1  17
TORSDOF 26
ENDMDL
MODEL 9
REMARK VINA RESULT:    -4.190      7.635     11.214
REMARK INTER + INTRA:         -14.648
REMARK INTER:                  -9.299
REMARK INTRA:                  -5.349
REMARK UNBOUND:                -4.088
REMARK SMILES CCCCCCCCCCCCCCCCCCCCCCCCCCCC(=O)[O-]
REMARK SMILES IDX 15 1 16 2 17 3 18 4 19 5 20 6 21 7 22 8 23 9 24 10 25 11
REMARK SMILES IDX 26 12 27 13 28 14 29 15 30 16 14 17 13 18 12 19 11 20 10 21
REMARK SMILES IDX 9 22 8 23 7 24 6 25 5 26 4 27 3 28 2 29 1 30
REMARK H PARENT
REMARK Flexibility Score: inf
ROOT
ATOM      1  C   UNL     1     162.165 172.638 181.652  1.00  0.00     0.000 C 
ENDROOT
BRANCH   1   2
ATOM      2  C   UNL     1     162.433 174.142 181.483  1.00  0.00     0.000 C 
BRANCH   2   3
ATOM      3  C   UNL     1     161.164 174.930 181.124  1.00  0.00     0.000 C 
BRANCH   3   4
ATOM      4  C   UNL     1     161.437 176.425 180.896  1.00  0.00     0.000 C 
BRANCH   4   5
ATOM      5  C   UNL     1     162.944 176.695 180.805  1.00  0.00     0.000 C 
BRANCH   5   6
ATOM      6  C   UNL     1     163.304 178.050 181.431  1.00  0.00     0.000 C 
BRANCH   6   7
ATOM      7  C   UNL     1     162.116 179.028 181.456  1.00  0.00     0.000 C 
BRANCH   7   8
ATOM      8  C   UNL     1     162.147 180.115 180.363  1.00  0.00     0.000 C 
BRANCH   8   9
ATOM      9  C   UNL     1     161.368 179.776 179.077  1.00  0.00     0.000 C 
BRANCH   9  10
ATOM     10  C   UNL     1     162.257 179.660 177.821  1.00  0.00     0.000 C 
BRANCH  10  11
ATOM     11  C   UNL     1     162.460 178.203 177.370  1.00  0.00     0.000 C 
BRANCH  11  12
ATOM     12  C   UNL     1     163.928 177.755 177.469  1.00  0.00     0.006 C 
BRANCH  12  13
ATOM     13  C   UNL     1     164.855 178.823 178.089  1.00  0.00     0.053 C 
BRANCH  13  14
ATOM     14  C   UNL     1     166.005 178.199 178.823  1.00  0.00     0.041 C 
ATOM     15  O   UNL     1     166.967 178.911 179.213  1.00  0.00    -0.550 OA
ATOM     16  O   UNL     1     165.999 176.841 179.108  1.00  0.00    -0.550 OA
ENDBRANCH  13  14
ENDBRANCH  12  13
ENDBRANCH  11  12
ENDBRANCH  10  11
ENDBRANCH   9  10
ENDBRANCH   8   9
ENDBRANCH   7   8
ENDBRANCH   6   7
ENDBRANCH   5   6
ENDBRANCH   4   5
ENDBRANCH   3   4
ENDBRANCH   2   3
ENDBRANCH   1   2
BRANCH   1  17
ATOM     17  C   UNL     1     160.757 172.222 181.196  1.00  0.00     0.000 C 
BRANCH  17  18
ATOM     18  C   UNL     1     160.646 170.743 180.770  1.00  0.00     0.000 C 
BRANCH  18  19
ATOM     19  C   UNL     1     160.462 170.576 179.251  1.00  0.00     0.000 C 
BRANCH  19  20
ATOM     20  C   UNL     1     161.778 170.786 178.476  1.00  0.00     0.000 C 
BRANCH  20  21
ATOM     21  C   UNL     1     161.716 171.952 177.471  1.00  0.00     0.000 C 
BRANCH  21  22
ATOM     22  C   UNL     1     162.726 173.066 177.805  1.00  0.00    -0.000 C 
BRANCH  22  23
ATOM     23  C   UNL     1     162.148 174.475 177.599  1.00  0.00    -0.000 C 
BRANCH  23  24
ATOM     24  C   UNL     1     160.612 174.487 177.553  1.00  0.00    -0.000 C 
BRANCH  24  25
ATOM     25  C   UNL     1     160.061 175.168 176.288  1.00  0.00    -0.000 C 
BRANCH  25  26
ATOM     26  C   UNL     1     161.125 175.418 175.199  1.00  0.00    -0.000 C 
BRANCH  26  27
ATOM     27  C   UNL     1     160.781 174.714 173.874  1.00  0.00    -0.000 C 
BRANCH  27  28
ATOM     28  C   UNL     1     160.899 173.178 173.977  1.00  0.00    -0.000 C 
BRANCH  28  29
ATOM     29  C   UNL     1     162.349 172.668 173.977  1.00  0.00    -0.003 C 
ATOM     30  C   UNL     1     163.274 173.491 173.083  1.00  0.00     0.004 C 
ENDBRANCH  28  29
ENDBRANCH  27  28
ENDBRANCH  26  27
ENDBRANCH  25  26
ENDBRANCH  24  25
ENDBRANCH  23  24
ENDBRANCH  22  23
ENDBRANCH  21  22
ENDBRANCH  20  21
ENDBRANCH  19  20
ENDBRANCH  18  19
ENDBRANCH  17  18
ENDBRANCH   1  17
TORSDOF 26
ENDMDL
