MODEL 1
REMARK VINA RESULT:    -0.348      0.000      0.000
REMARK INTER + INTRA:          -0.649
REMARK INTER:                  -0.459
REMARK INTRA:                  -0.190
REMARK UNBOUND:                -0.190
REMARK SMILES CC[C@H](C=C[C@@H](C)[C@H]1CC[C@H]2[C@@H]3CC=C4C[C@H](O)CC[C@@]4(C)[C@@H]3CC[C@@]12C)C(C)C
REMARK SMILES IDX 6 1 7 2 5 3 4 4 3 5 2 6 1 7 28 8 29 9 30 10 8 11 9 12 26 13
REMARK SMILES IDX 10 14 11 15 25 16 27 17 12 18 24 19 23 20 13 21 21 22 14 23
REMARK SMILES IDX 15 24 20 25 22 26 16 27 19 28 17 29 18 30
REMARK H PARENT 18 31
REMARK Flexibility Score: inf
ROOT
ATOM      1  C   UNL     1      10.751  -0.872  17.444  1.00  0.00     0.012 C 
ATOM      2  C   UNL     1      10.964   0.144  18.575  1.00  0.00     0.012 C 
ENDROOT
BRANCH   1   3
ATOM      3  C   UNL     1       9.263  -1.139  17.330  1.00  0.00    -0.028 C 
ATOM      4  C   UNL     1       8.761  -2.380  17.448  1.00  0.00    -0.027 C 
BRANCH   4   5
ATOM      5  C   UNL     1       7.281  -2.695  17.331  1.00  0.00     0.014 C 
BRANCH   5   6
ATOM      6  C   UNL     1       6.992  -3.466  16.013  1.00  0.00     0.004 C 
ATOM      7  C   UNL     1       8.122  -3.373  14.988  1.00  0.00     0.004 C 
ENDBRANCH   5   6
BRANCH   5   8
ATOM      8  C   UNL     1       6.745  -3.344  18.656  1.00  0.00    -0.011 C 
ATOM      9  C   UNL     1       7.795  -4.252  19.320  1.00  0.00     0.008 C 
ATOM     10  C   UNL     1       6.179  -2.348  19.682  1.00  0.00     0.008 C 
ENDBRANCH   5   8
ENDBRANCH   4   5
ENDBRANCH   1   3
BRANCH   1  11
ATOM     11  C   UNL     1      11.522  -2.221  17.663  1.00  0.00     0.002 C 
ATOM     12  C   UNL     1      12.094  -2.753  16.336  1.00  0.00     0.005 C 
ATOM     13  C   UNL     1      12.724  -2.247  18.669  1.00  0.00    -0.026 C 
ATOM     14  C   UNL     1      13.388  -3.488  16.653  1.00  0.00     0.005 C 
ATOM     15  C   UNL     1      13.551  -3.467  18.175  1.00  0.00    -0.001 C 
ATOM     16  C   UNL     1      13.570  -0.947  18.584  1.00  0.00     0.007 C 
ATOM     17  C   UNL     1      12.212  -2.488  20.114  1.00  0.00     0.012 C 
ATOM     18  C   UNL     1      15.057  -3.536  18.591  1.00  0.00     0.000 C 
ATOM     19  C   UNL     1      14.951  -1.077  19.236  1.00  0.00     0.005 C 
ATOM     20  C   UNL     1      15.802  -2.176  18.551  1.00  0.00     0.003 C 
ATOM     21  C   UNL     1      15.275  -4.207  19.954  1.00  0.00     0.031 C 
ATOM     22  C   UNL     1      17.328  -2.289  19.052  1.00  0.00    -0.008 C 
ATOM     23  C   UNL     1      16.729  -4.506  20.120  1.00  0.00    -0.027 C 
ATOM     24  C   UNL     1      17.676  -3.664  19.664  1.00  0.00    -0.065 C 
ATOM     25  C   UNL     1      18.245  -2.076  17.805  1.00  0.00     0.014 C 
ATOM     26  C   UNL     1      17.679  -1.216  20.120  1.00  0.00     0.016 C 
ATOM     27  C   UNL     1      19.134  -4.046  19.846  1.00  0.00     0.063 C 
ATOM     28  C   UNL     1      19.733  -2.378  18.050  1.00  0.00     0.033 C 
ATOM     29  C   UNL     1      19.926  -3.811  18.554  1.00  0.00     0.118 C 
BRANCH  29  30
ATOM     30  O   UNL     1      21.293  -4.035  18.784  1.00  0.00    -0.393 OA
ATOM     31  H   UNL     1      21.788  -3.365  18.243  1.00  0.00     0.210 HD
ENDBRANCH  29  30
ENDBRANCH   1  11
TORSDOF 6
ENDMDL
MODEL 2
REMARK VINA RESULT:     2.588      1.427      2.293
REMARK INTER + INTRA:           3.231
REMARK INTER:                   2.783
REMARK INTRA:                   0.448
REMARK UNBOUND:                -0.190
REMARK SMILES CC[C@H](C=C[C@@H](C)[C@H]1CC[C@H]2[C@@H]3CC=C4C[C@H](O)CC[C@@]4(C)[C@@H]3CC[C@@]12C)C(C)C
REMARK SMILES IDX 6 1 7 2 5 3 4 4 3 5 2 6 1 7 28 8 29 9 30 10 8 11 9 12 26 13
REMARK SMILES IDX 10 14 11 15 25 16 27 17 12 18 24 19 23 20 13 21 21 22 14 23
REMARK SMILES IDX 15 24 20 25 22 26 16 27 19 28 17 29 18 30
REMARK H PARENT 18 31
REMARK Flexibility Score: inf
ROOT
ATOM      1  C   UNL     1      10.792  -1.185  17.436  1.00  0.00     0.012 C 
ATOM      2  C   UNL     1       9.946  -0.800  18.658  1.00  0.00     0.012 C 
ENDROOT
BRANCH   1   3
ATOM      3  C   UNL     1       9.853  -1.385  16.262  1.00  0.00    -0.028 C 
ATOM      4  C   UNL     1      10.269  -1.963  15.121  1.00  0.00    -0.027 C 
BRANCH   4   5
ATOM      5  C   UNL     1       9.368  -2.175  13.918  1.00  0.00     0.014 C 
BRANCH   5   6
ATOM      6  C   UNL     1      10.160  -1.944  12.601  1.00  0.00     0.004 C 
ATOM      7  C   UNL     1      10.284  -0.472  12.209  1.00  0.00     0.004 C 
ENDBRANCH   5   6
BRANCH   5   8
ATOM      8  C   UNL     1       8.588  -3.532  14.040  1.00  0.00    -0.011 C 
ATOM      9  C   UNL     1       9.448  -4.733  13.612  1.00  0.00     0.008 C 
ATOM     10  C   UNL     1       7.959  -3.794  15.419  1.00  0.00     0.008 C 
ENDBRANCH   5   8
ENDBRANCH   4   5
ENDBRANCH   1   3
BRANCH   1  11
ATOM     11  C   UNL     1      11.657  -2.476  17.657  1.00  0.00     0.002 C 
ATOM     12  C   UNL     1      12.267  -2.967  16.332  1.00  0.00     0.005 C 
ATOM     13  C   UNL     1      12.855  -2.416  18.665  1.00  0.00    -0.026 C 
ATOM     14  C   UNL     1      13.609  -3.608  16.651  1.00  0.00     0.005 C 
ATOM     15  C   UNL     1      13.767  -3.575  18.173  1.00  0.00    -0.001 C 
ATOM     16  C   UNL     1      13.608  -1.060  18.582  1.00  0.00     0.007 C 
ATOM     17  C   UNL     1      12.359  -2.693  20.109  1.00  0.00     0.012 C 
ATOM     18  C   UNL     1      15.274  -3.537  18.592  1.00  0.00     0.000 C 
ATOM     19  C   UNL     1      14.993  -1.092  19.235  1.00  0.00     0.005 C 
ATOM     20  C   UNL     1      15.921  -2.128  18.553  1.00  0.00     0.003 C 
ATOM     21  C   UNL     1      15.536  -4.191  19.956  1.00  0.00     0.031 C 
ATOM     22  C   UNL     1      17.450  -2.132  19.056  1.00  0.00    -0.008 C 
ATOM     23  C   UNL     1      17.007  -4.386  20.125  1.00  0.00    -0.027 C 
ATOM     24  C   UNL     1      17.894  -3.479  19.670  1.00  0.00    -0.065 C 
ATOM     25  C   UNL     1      18.352  -1.856  17.811  1.00  0.00     0.014 C 
ATOM     26  C   UNL     1      17.722  -1.037  20.125  1.00  0.00     0.016 C 
ATOM     27  C   UNL     1      19.374  -3.757  19.855  1.00  0.00     0.063 C 
ATOM     28  C   UNL     1      19.857  -2.051  18.059  1.00  0.00     0.033 C 
ATOM     29  C   UNL     1      20.150  -3.467  18.564  1.00  0.00     0.118 C 
BRANCH  29  30
ATOM     30  O   UNL     1      21.530  -3.593  18.796  1.00  0.00    -0.393 OA
ATOM     31  H   UNL     1      21.979  -3.489  17.918  1.00  0.00     0.210 HD
ENDBRANCH  29  30
ENDBRANCH   1  11
TORSDOF 6
ENDMDL
