MODEL 1
REMARK VINA RESULT:    -4.859      0.000      0.000
REMARK INTER + INTRA:         -13.473
REMARK INTER:                 -10.541
REMARK INTRA:                  -2.933
REMARK UNBOUND:                -2.933
REMARK SMILES CCCCCCCCCCCCCCCCCCCCCC(=O)[O-]
REMARK SMILES IDX 12 1 11 2 10 3 9 4 8 5 7 6 6 7 5 8 4 9 3 10 2 11 1 12 13 13
REMARK SMILES IDX 14 14 15 15 16 16 17 17 18 18 19 19 20 20 21 21 22 22 23 23
REMARK SMILES IDX 24 24
REMARK H PARENT
REMARK Flexibility Score: inf
ROOT
ATOM      1  C   UNL     1      32.706   6.284  12.944  1.00  0.00     0.000 C 
ENDROOT
BRANCH   1   2
ATOM      2  C   UNL     1      34.213   6.577  12.776  1.00  0.00     0.000 C 
BRANCH   2   3
ATOM      3  C   UNL     1      34.506   7.801  11.892  1.00  0.00     0.000 C 
BRANCH   3   4
ATOM      4  C   UNL     1      33.389   8.088  10.879  1.00  0.00    -0.000 C 
BRANCH   4   5
ATOM      5  C   UNL     1      33.842   7.760   9.452  1.00  0.00    -0.000 C 
BRANCH   5   6
ATOM      6  C   UNL     1      33.833   6.243   9.207  1.00  0.00    -0.000 C 
BRANCH   6   7
ATOM      7  C   UNL     1      35.077   5.757   8.448  1.00  0.00    -0.000 C 
BRANCH   7   8
ATOM      8  C   UNL     1      35.804   4.613   9.171  1.00  0.00    -0.000 C 
BRANCH   8   9
ATOM      9  C   UNL     1      36.559   5.135  10.403  1.00  0.00    -0.000 C 
BRANCH   9  10
ATOM     10  C   UNL     1      37.434   6.359  10.089  1.00  0.00    -0.000 C 
BRANCH  10  11
ATOM     11  C   UNL     1      37.965   7.046  11.356  1.00  0.00    -0.003 C 
ATOM     12  C   UNL     1      39.450   6.756  11.556  1.00  0.00     0.004 C 
ENDBRANCH  10  11
ENDBRANCH   9  10
ENDBRANCH   8   9
ENDBRANCH   7   8
ENDBRANCH   6   7
ENDBRANCH   5   6
ENDBRANCH   4   5
ENDBRANCH   3   4
ENDBRANCH   2   3
ENDBRANCH   1   2
BRANCH   1  13
ATOM     13  C   UNL     1      32.435   4.802  13.258  1.00  0.00     0.000 C 
BRANCH  13  14
ATOM     14  C   UNL     1      33.710   4.043  13.685  1.00  0.00     0.000 C 
BRANCH  14  15
ATOM     15  C   UNL     1      33.539   2.511  13.725  1.00  0.00     0.000 C 
BRANCH  15  16
ATOM     16  C   UNL     1      32.948   1.885  12.448  1.00  0.00     0.000 C 
BRANCH  16  17
ATOM     17  C   UNL     1      33.458   2.491  11.127  1.00  0.00     0.000 C 
BRANCH  17  18
ATOM     18  C   UNL     1      32.622   2.061   9.909  1.00  0.00     0.000 C 
BRANCH  18  19
ATOM     19  C   UNL     1      32.196   3.253   9.036  1.00  0.00     0.000 C 
BRANCH  19  20
ATOM     20  C   UNL     1      32.195   2.915   7.534  1.00  0.00     0.006 C 
BRANCH  20  21
ATOM     21  C   UNL     1      32.175   4.176   6.659  1.00  0.00     0.053 C 
BRANCH  21  22
ATOM     22  C   UNL     1      31.002   4.188   5.728  1.00  0.00     0.041 C 
ATOM     23  O   UNL     1      31.152   3.899   4.512  1.00  0.00    -0.550 OA
ATOM     24  O   UNL     1      29.734   4.492   6.212  1.00  0.00    -0.550 OA
ENDBRANCH  21  22
ENDBRANCH  20  21
ENDBRANCH  19  20
ENDBRANCH  18  19
ENDBRANCH  17  18
ENDBRANCH  16  17
ENDBRANCH  15  16
ENDBRANCH  14  15
ENDBRANCH  13  14
ENDBRANCH   1  13
TORSDOF 20
ENDMDL
MODEL 2
REMARK VINA RESULT:    -4.797      3.038      5.220
REMARK INTER + INTRA:         -13.339
REMARK INTER:                 -10.531
REMARK INTRA:                  -2.808
REMARK UNBOUND:                -2.933
REMARK SMILES CCCCCCCCCCCCCCCCCCCCCC(=O)[O-]
REMARK SMILES IDX 12 1 11 2 10 3 9 4 8 5 7 6 6 7 5 8 4 9 3 10 2 11 1 12 13 13
REMARK SMILES IDX 14 14 15 15 16 16 17 17 18 18 19 19 20 20 21 21 22 22 23 23
REMARK SMILES IDX 24 24
REMARK H PARENT
REMARK Flexibility Score: inf
ROOT
ATOM      1  C   UNL     1      32.540   3.204  10.148  1.00  0.00     0.000 C 
ENDROOT
BRANCH   1   2
ATOM      2  C   UNL     1      32.181   2.087   9.145  1.00  0.00     0.000 C 
BRANCH   2   3
ATOM      3  C   UNL     1      31.926   2.601   7.717  1.00  0.00     0.000 C 
BRANCH   3   4
ATOM      4  C   UNL     1      31.811   4.130   7.645  1.00  0.00    -0.000 C 
BRANCH   4   5
ATOM      5  C   UNL     1      32.979   4.733   6.854  1.00  0.00    -0.000 C 
BRANCH   5   6
ATOM      6  C   UNL     1      33.901   5.549   7.772  1.00  0.00    -0.000 C 
BRANCH   6   7
ATOM      7  C   UNL     1      35.224   4.830   8.076  1.00  0.00    -0.000 C 
BRANCH   7   8
ATOM      8  C   UNL     1      35.782   5.175   9.465  1.00  0.00    -0.000 C 
BRANCH   8   9
ATOM      9  C   UNL     1      35.402   6.608   9.868  1.00  0.00    -0.000 C 
BRANCH   9  10
ATOM     10  C   UNL     1      36.490   7.296  10.708  1.00  0.00    -0.000 C 
BRANCH  10  11
ATOM     11  C   UNL     1      37.904   6.809  10.357  1.00  0.00    -0.003 C 
ATOM     12  C   UNL     1      38.794   6.770  11.596  1.00  0.00     0.004 C 
ENDBRANCH  10  11
ENDBRANCH   9  10
ENDBRANCH   8   9
ENDBRANCH   7   8
ENDBRANCH   6   7
ENDBRANCH   5   6
ENDBRANCH   4   5
ENDBRANCH   3   4
ENDBRANCH   2   3
ENDBRANCH   1   2
BRANCH   1  13
ATOM     13  C   UNL     1      33.626   2.762  11.144  1.00  0.00     0.000 C 
BRANCH  13  14
ATOM     14  C   UNL     1      33.047   2.383  12.525  1.00  0.00     0.000 C 
BRANCH  14  15
ATOM     15  C   UNL     1      32.769   3.593  13.437  1.00  0.00     0.000 C 
BRANCH  15  16
ATOM     16  C   UNL     1      34.023   4.284  14.008  1.00  0.00     0.000 C 
BRANCH  16  17
ATOM     17  C   UNL     1      34.385   5.628  13.350  1.00  0.00     0.000 C 
BRANCH  17  18
ATOM     18  C   UNL     1      33.186   6.300  12.660  1.00  0.00     0.000 C 
BRANCH  18  19
ATOM     19  C   UNL     1      33.249   7.834  12.729  1.00  0.00     0.000 C 
BRANCH  19  20
ATOM     20  C   UNL     1      32.416   8.512  11.626  1.00  0.00     0.006 C 
BRANCH  20  21
ATOM     21  C   UNL     1      31.100   9.086  12.166  1.00  0.00     0.053 C 
BRANCH  21  22
ATOM     22  C   UNL     1      31.109  10.584  12.175  1.00  0.00     0.041 C 
ATOM     23  O   UNL     1      30.027  11.226  12.125  1.00  0.00    -0.550 OA
ATOM     24  O   UNL     1      32.314  11.271  12.268  1.00  0.00    -0.550 OA
ENDBRANCH  21  22
ENDBRANCH  20  21
ENDBRANCH  19  20
ENDBRANCH  18  19
ENDBRANCH  17  18
ENDBRANCH  16  17
ENDBRANCH  15  16
ENDBRANCH  14  15
ENDBRANCH  13  14
ENDBRANCH   1  13
TORSDOF 20
ENDMDL
MODEL 3
REMARK VINA RESULT:    -4.768      1.939      4.728
REMARK INTER + INTRA:         -13.275
REMARK INTER:                 -10.410
REMARK INTRA:                  -2.865
REMARK UNBOUND:                -2.933
REMARK SMILES CCCCCCCCCCCCCCCCCCCCCC(=O)[O-]
REMARK SMILES IDX 12 1 11 2 10 3 9 4 8 5 7 6 6 7 5 8 4 9 3 10 2 11 1 12 13 13
REMARK SMILES IDX 14 14 15 15 16 16 17 17 18 18 19 19 20 20 21 21 22 22 23 23
REMARK SMILES IDX 24 24
REMARK H PARENT
REMARK Flexibility Score: inf
ROOT
ATOM      1  C   UNL     1      33.909   6.556   8.246  1.00  0.00     0.000 C 
ENDROOT
BRANCH   1   2
ATOM      2  C   UNL     1      34.059   7.483   9.472  1.00  0.00     0.000 C 
BRANCH   2   3
ATOM      3  C   UNL     1      35.465   7.452  10.097  1.00  0.00     0.000 C 
BRANCH   3   4
ATOM      4  C   UNL     1      35.441   7.584  11.626  1.00  0.00    -0.000 C 
BRANCH   4   5
ATOM      5  C   UNL     1      35.725   6.236  12.300  1.00  0.00    -0.000 C 
BRANCH   5   6
ATOM      6  C   UNL     1      34.543   5.801  13.179  1.00  0.00    -0.000 C 
BRANCH   6   7
ATOM      7  C   UNL     1      33.444   5.082  12.383  1.00  0.00    -0.000 C 
BRANCH   7   8
ATOM      8  C   UNL     1      32.031   5.539  12.774  1.00  0.00    -0.000 C 
BRANCH   8   9
ATOM      9  C   UNL     1      31.657   6.844  12.055  1.00  0.00    -0.000 C 
BRANCH   9  10
ATOM     10  C   UNL     1      31.979   8.095  12.888  1.00  0.00    -0.000 C 
BRANCH  10  11
ATOM     11  C   UNL     1      32.162   9.351  12.023  1.00  0.00    -0.003 C 
ATOM     12  C   UNL     1      31.018  10.337  12.241  1.00  0.00     0.004 C 
ENDBRANCH  10  11
ENDBRANCH   9  10
ENDBRANCH   8   9
ENDBRANCH   7   8
ENDBRANCH   6   7
ENDBRANCH   5   6
ENDBRANCH   4   5
ENDBRANCH   3   4
ENDBRANCH   2   3
ENDBRANCH   1   2
BRANCH   1  13
ATOM     13  C   UNL     1      34.848   5.339   8.320  1.00  0.00     0.000 C 
BRANCH  13  14
ATOM     14  C   UNL     1      34.194   4.127   9.017  1.00  0.00     0.000 C 
BRANCH  14  15
ATOM     15  C   UNL     1      32.668   4.039   8.815  1.00  0.00     0.000 C 
BRANCH  15  16
ATOM     16  C   UNL     1      32.169   2.741   8.152  1.00  0.00     0.000 C 
BRANCH  16  17
ATOM     17  C   UNL     1      31.683   2.895   6.698  1.00  0.00     0.000 C 
BRANCH  17  18
ATOM     18  C   UNL     1      32.156   4.204   6.044  1.00  0.00     0.000 C 
BRANCH  18  19
ATOM     19  C   UNL     1      31.433   4.496   4.718  1.00  0.00     0.000 C 
BRANCH  19  20
ATOM     20  C   UNL     1      30.452   3.378   4.320  1.00  0.00     0.006 C 
BRANCH  20  21
ATOM     21  C   UNL     1      29.022   3.904   4.135  1.00  0.00     0.053 C 
BRANCH  21  22
ATOM     22  C   UNL     1      28.248   3.871   5.416  1.00  0.00     0.041 C 
ATOM     23  O   UNL     1      28.574   4.620   6.375  1.00  0.00    -0.550 OA
ATOM     24  O   UNL     1      27.146   3.033   5.542  1.00  0.00    -0.550 OA
ENDBRANCH  21  22
ENDBRANCH  20  21
ENDBRANCH  19  20
ENDBRANCH  18  19
ENDBRANCH  17  18
ENDBRANCH  16  17
ENDBRANCH  15  16
ENDBRANCH  14  15
ENDBRANCH  13  14
ENDBRANCH   1  13
TORSDOF 20
ENDMDL
MODEL 4
REMARK VINA RESULT:    -4.723      1.570      3.742
REMARK INTER + INTRA:         -13.178
REMARK INTER:                 -10.251
REMARK INTRA:                  -2.927
REMARK UNBOUND:                -2.933
REMARK SMILES CCCCCCCCCCCCCCCCCCCCCC(=O)[O-]
REMARK SMILES IDX 12 1 11 2 10 3 9 4 8 5 7 6 6 7 5 8 4 9 3 10 2 11 1 12 13 13
REMARK SMILES IDX 14 14 15 15 16 16 17 17 18 18 19 19 20 20 21 21 22 22 23 23
REMARK SMILES IDX 24 24
REMARK H PARENT
REMARK Flexibility Score: inf
ROOT
ATOM      1  C   UNL     1      34.984   7.737  11.011  1.00  0.00     0.000 C 
ENDROOT
BRANCH   1   2
ATOM      2  C   UNL     1      34.283   8.252  12.286  1.00  0.00     0.000 C 
BRANCH   2   3
ATOM      3  C   UNL     1      32.855   8.769  12.037  1.00  0.00     0.000 C 
BRANCH   3   4
ATOM      4  C   UNL     1      31.780   7.894  12.696  1.00  0.00    -0.000 C 
BRANCH   4   5
ATOM      5  C   UNL     1      31.367   6.741  11.773  1.00  0.00    -0.000 C 
BRANCH   5   6
ATOM      6  C   UNL     1      31.670   5.382  12.422  1.00  0.00    -0.000 C 
BRANCH   6   7
ATOM      7  C   UNL     1      32.560   4.489  11.543  1.00  0.00    -0.000 C 
BRANCH   7   8
ATOM      8  C   UNL     1      33.794   3.961  12.289  1.00  0.00    -0.000 C 
BRANCH   8   9
ATOM      9  C   UNL     1      33.680   4.231  13.797  1.00  0.00    -0.000 C 
BRANCH   9  10
ATOM     10  C   UNL     1      34.784   5.167  14.317  1.00  0.00    -0.000 C 
BRANCH  10  11
ATOM     11  C   UNL     1      35.422   4.660  15.619  1.00  0.00    -0.003 C 
ATOM     12  C   UNL     1      36.526   5.603  16.091  1.00  0.00     0.004 C 
ENDBRANCH  10  11
ENDBRANCH   9  10
ENDBRANCH   8   9
ENDBRANCH   7   8
ENDBRANCH   6   7
ENDBRANCH   5   6
ENDBRANCH   4   5
ENDBRANCH   3   4
ENDBRANCH   2   3
ENDBRANCH   1   2
BRANCH   1  13
ATOM     13  C   UNL     1      35.923   6.552  11.304  1.00  0.00     0.000 C 
BRANCH  13  14
ATOM     14  C   UNL     1      36.725   6.109  10.062  1.00  0.00     0.000 C 
BRANCH  14  15
ATOM     15  C   UNL     1      36.488   4.641   9.657  1.00  0.00     0.000 C 
BRANCH  15  16
ATOM     16  C   UNL     1      35.172   4.376   8.902  1.00  0.00     0.000 C 
BRANCH  16  17
ATOM     17  C   UNL     1      34.694   5.527   7.996  1.00  0.00     0.000 C 
BRANCH  17  18
ATOM     18  C   UNL     1      33.234   5.364   7.540  1.00  0.00     0.000 C 
BRANCH  18  19
ATOM     19  C   UNL     1      32.638   4.006   7.945  1.00  0.00     0.000 C 
BRANCH  19  20
ATOM     20  C   UNL     1      31.669   3.446   6.887  1.00  0.00     0.006 C 
BRANCH  20  21
ATOM     21  C   UNL     1      31.965   3.996   5.485  1.00  0.00     0.053 C 
BRANCH  21  22
ATOM     22  C   UNL     1      30.761   4.648   4.878  1.00  0.00     0.041 C 
ATOM     23  O   UNL     1      30.832   5.177   3.737  1.00  0.00    -0.550 OA
ATOM     24  O   UNL     1      29.551   4.645   5.561  1.00  0.00    -0.550 OA
ENDBRANCH  21  22
ENDBRANCH  20  21
ENDBRANCH  19  20
ENDBRANCH  18  19
ENDBRANCH  17  18
ENDBRANCH  16  17
ENDBRANCH  15  16
ENDBRANCH  14  15
ENDBRANCH  13  14
ENDBRANCH   1  13
TORSDOF 20
ENDMDL
MODEL 5
REMARK VINA RESULT:    -4.692      3.122      6.322
REMARK INTER + INTRA:         -13.110
REMARK INTER:                 -10.112
REMARK INTRA:                  -2.998
REMARK UNBOUND:                -2.933
REMARK SMILES CCCCCCCCCCCCCCCCCCCCCC(=O)[O-]
REMARK SMILES IDX 12 1 11 2 10 3 9 4 8 5 7 6 6 7 5 8 4 9 3 10 2 11 1 12 13 13
REMARK SMILES IDX 14 14 15 15 16 16 17 17 18 18 19 19 20 20 21 21 22 22 23 23
REMARK SMILES IDX 24 24
REMARK H PARENT
REMARK Flexibility Score: inf
ROOT
ATOM      1  C   UNL     1      32.220   2.866   9.730  1.00  0.00     0.000 C 
ENDROOT
BRANCH   1   2
ATOM      2  C   UNL     1      33.382   2.551  10.696  1.00  0.00     0.000 C 
BRANCH   2   3
ATOM      3  C   UNL     1      32.930   1.878  12.003  1.00  0.00     0.000 C 
BRANCH   3   4
ATOM      4  C   UNL     1      33.339   2.667  13.254  1.00  0.00    -0.000 C 
BRANCH   4   5
ATOM      5  C   UNL     1      33.581   4.144  12.919  1.00  0.00    -0.000 C 
BRANCH   5   6
ATOM      6  C   UNL     1      32.404   5.014  13.386  1.00  0.00    -0.000 C 
BRANCH   6   7
ATOM      7  C   UNL     1      31.777   5.827  12.243  1.00  0.00    -0.000 C 
BRANCH   7   8
ATOM      8  C   UNL     1      32.810   6.660  11.469  1.00  0.00    -0.000 C 
BRANCH   8   9
ATOM      9  C   UNL     1      33.283   7.860  12.304  1.00  0.00    -0.000 C 
BRANCH   9  10
ATOM     10  C   UNL     1      32.646   9.184  11.854  1.00  0.00    -0.000 C 
BRANCH  10  11
ATOM     11  C   UNL     1      31.249   9.402  12.453  1.00  0.00    -0.003 C 
ATOM     12  C   UNL     1      30.721  10.795  12.121  1.00  0.00     0.004 C 
ENDBRANCH  10  11
ENDBRANCH   9  10
ENDBRANCH   8   9
ENDBRANCH   7   8
ENDBRANCH   6   7
ENDBRANCH   5   6
ENDBRANCH   4   5
ENDBRANCH   3   4
ENDBRANCH   2   3
ENDBRANCH   1   2
BRANCH   1  13
ATOM     13  C   UNL     1      32.389   2.163   8.371  1.00  0.00     0.000 C 
BRANCH  13  14
ATOM     14  C   UNL     1      31.348   2.626   7.329  1.00  0.00     0.000 C 
BRANCH  14  15
ATOM     15  C   UNL     1      31.407   4.134   7.016  1.00  0.00     0.000 C 
BRANCH  15  16
ATOM     16  C   UNL     1      32.729   4.621   6.393  1.00  0.00     0.000 C 
BRANCH  16  17
ATOM     17  C   UNL     1      33.216   5.997   6.886  1.00  0.00     0.000 C 
BRANCH  17  18
ATOM     18  C   UNL     1      33.998   5.916   8.208  1.00  0.00     0.000 C 
BRANCH  18  19
ATOM     19  C   UNL     1      34.978   4.732   8.243  1.00  0.00     0.000 C 
BRANCH  19  20
ATOM     20  C   UNL     1      36.046   4.879   9.342  1.00  0.00     0.006 C 
BRANCH  20  21
ATOM     21  C   UNL     1      36.098   6.304   9.908  1.00  0.00     0.053 C 
BRANCH  21  22
ATOM     22  C   UNL     1      36.950   6.382  11.138  1.00  0.00     0.041 C 
ATOM     23  O   UNL     1      36.422   6.346  12.281  1.00  0.00    -0.550 OA
ATOM     24  O   UNL     1      38.333   6.465  11.021  1.00  0.00    -0.550 OA
ENDBRANCH  21  22
ENDBRANCH  20  21
ENDBRANCH  19  20
ENDBRANCH  18  19
ENDBRANCH  17  18
ENDBRANCH  16  17
ENDBRANCH  15  16
ENDBRANCH  14  15
ENDBRANCH  13  14
ENDBRANCH   1  13
TORSDOF 20
ENDMDL
MODEL 6
REMARK VINA RESULT:    -4.691      2.678      4.973
REMARK INTER + INTRA:         -13.108
REMARK INTER:                  -9.921
REMARK INTRA:                  -3.186
REMARK UNBOUND:                -2.933
REMARK SMILES CCCCCCCCCCCCCCCCCCCCCC(=O)[O-]
REMARK SMILES IDX 12 1 11 2 10 3 9 4 8 5 7 6 6 7 5 8 4 9 3 10 2 11 1 12 13 13
REMARK SMILES IDX 14 14 15 15 16 16 17 17 18 18 19 19 20 20 21 21 22 22 23 23
REMARK SMILES IDX 24 24
REMARK H PARENT
REMARK Flexibility Score: inf
ROOT
ATOM      1  C   UNL     1      32.574   3.866  10.271  1.00  0.00     0.000 C 
ENDROOT
BRANCH   1   2
ATOM      2  C   UNL     1      31.732   3.289   9.112  1.00  0.00     0.000 C 
BRANCH   2   3
ATOM      3  C   UNL     1      32.501   3.190   7.783  1.00  0.00     0.000 C 
BRANCH   3   4
ATOM      4  C   UNL     1      31.785   3.899   6.625  1.00  0.00    -0.000 C 
BRANCH   4   5
ATOM      5  C   UNL     1      32.484   5.217   6.270  1.00  0.00    -0.000 C 
BRANCH   5   6
ATOM      6  C   UNL     1      33.788   5.379   7.065  1.00  0.00    -0.000 C 
BRANCH   6   7
ATOM      7  C   UNL     1      33.770   6.604   7.992  1.00  0.00    -0.000 C 
BRANCH   7   8
ATOM      8  C   UNL     1      35.000   6.673   8.910  1.00  0.00    -0.000 C 
BRANCH   8   9
ATOM      9  C   UNL     1      35.587   5.273   9.146  1.00  0.00    -0.000 C 
BRANCH   9  10
ATOM     10  C   UNL     1      36.865   5.301  10.000  1.00  0.00    -0.000 C 
BRANCH  10  11
ATOM     11  C   UNL     1      37.454   6.714  10.134  1.00  0.00    -0.003 C 
ATOM     12  C   UNL     1      38.558   6.749  11.188  1.00  0.00     0.004 C 
ENDBRANCH  10  11
ENDBRANCH   9  10
ENDBRANCH   8   9
ENDBRANCH   7   8
ENDBRANCH   6   7
ENDBRANCH   5   6
ENDBRANCH   4   5
ENDBRANCH   3   4
ENDBRANCH   2   3
ENDBRANCH   1   2
BRANCH   1  13
ATOM     13  C   UNL     1      33.621   2.860  10.782  1.00  0.00     0.000 C 
BRANCH  13  14
ATOM     14  C   UNL     1      33.256   2.272  12.162  1.00  0.00     0.000 C 
BRANCH  14  15
ATOM     15  C   UNL     1      32.880   3.335  13.212  1.00  0.00     0.000 C 
BRANCH  15  16
ATOM     16  C   UNL     1      33.972   3.639  14.256  1.00  0.00     0.000 C 
BRANCH  16  17
ATOM     17  C   UNL     1      34.623   5.030  14.135  1.00  0.00     0.000 C 
BRANCH  17  18
ATOM     18  C   UNL     1      34.029   5.871  12.993  1.00  0.00     0.000 C 
BRANCH  18  19
ATOM     19  C   UNL     1      35.005   6.944  12.482  1.00  0.00     0.000 C 
BRANCH  19  20
ATOM     20  C   UNL     1      34.293   8.248  12.080  1.00  0.00     0.006 C 
BRANCH  20  21
ATOM     21  C   UNL     1      32.842   8.003  11.642  1.00  0.00     0.053 C 
BRANCH  21  22
ATOM     22  C   UNL     1      31.873   8.795  12.464  1.00  0.00     0.041 C 
ATOM     23  O   UNL     1      31.750   8.567  13.697  1.00  0.00    -0.550 OA
ATOM     24  O   UNL     1      31.125   9.807  11.874  1.00  0.00    -0.550 OA
ENDBRANCH  21  22
ENDBRANCH  20  21
ENDBRANCH  19  20
ENDBRANCH  18  19
ENDBRANCH  17  18
ENDBRANCH  16  17
ENDBRANCH  15  16
ENDBRANCH  14  15
ENDBRANCH  13  14
ENDBRANCH   1  13
TORSDOF 20
ENDMDL
MODEL 7
REMARK VINA RESULT:    -4.664      1.584      4.399
REMARK INTER + INTRA:         -13.049
REMARK INTER:                 -10.162
REMARK INTRA:                  -2.887
REMARK UNBOUND:                -2.933
REMARK SMILES CCCCCCCCCCCCCCCCCCCCCC(=O)[O-]
REMARK SMILES IDX 12 1 11 2 10 3 9 4 8 5 7 6 6 7 5 8 4 9 3 10 2 11 1 12 13 13
REMARK SMILES IDX 14 14 15 15 16 16 17 17 18 18 19 19 20 20 21 21 22 22 23 23
REMARK SMILES IDX 24 24
REMARK H PARENT
REMARK Flexibility Score: inf
ROOT
ATOM      1  C   UNL     1      36.838   5.563   9.965  1.00  0.00     0.000 C 
ENDROOT
BRANCH   1   2
ATOM      2  C   UNL     1      36.564   6.366  11.254  1.00  0.00     0.000 C 
BRANCH   2   3
ATOM      3  C   UNL     1      35.543   7.501  11.067  1.00  0.00     0.000 C 
BRANCH   3   4
ATOM      4  C   UNL     1      34.629   7.690  12.286  1.00  0.00    -0.000 C 
BRANCH   4   5
ATOM      5  C   UNL     1      33.361   8.464  11.908  1.00  0.00    -0.000 C 
BRANCH   5   6
ATOM      6  C   UNL     1      32.162   7.998  12.748  1.00  0.00    -0.000 C 
BRANCH   6   7
ATOM      7  C   UNL     1      31.236   7.041  11.980  1.00  0.00    -0.000 C 
BRANCH   7   8
ATOM      8  C   UNL     1      31.434   5.572  12.382  1.00  0.00    -0.000 C 
BRANCH   8   9
ATOM      9  C   UNL     1      32.379   4.858  11.404  1.00  0.00    -0.000 C 
BRANCH   9  10
ATOM     10  C   UNL     1      33.205   3.750  12.077  1.00  0.00    -0.000 C 
BRANCH  10  11
ATOM     11  C   UNL     1      33.188   3.850  13.610  1.00  0.00    -0.003 C 
ATOM     12  C   UNL     1      34.385   4.647  14.121  1.00  0.00     0.004 C 
ENDBRANCH  10  11
ENDBRANCH   9  10
ENDBRANCH   8   9
ENDBRANCH   7   8
ENDBRANCH   6   7
ENDBRANCH   5   6
ENDBRANCH   4   5
ENDBRANCH   3   4
ENDBRANCH   2   3
ENDBRANCH   1   2
BRANCH   1  13
ATOM     13  C   UNL     1      35.653   4.659   9.582  1.00  0.00     0.000 C 
BRANCH  13  14
ATOM     14  C   UNL     1      35.147   4.918   8.147  1.00  0.00     0.000 C 
BRANCH  14  15
ATOM     15  C   UNL     1      33.797   5.659   8.087  1.00  0.00     0.000 C 
BRANCH  15  16
ATOM     16  C   UNL     1      32.652   4.880   7.412  1.00  0.00     0.000 C 
BRANCH  16  17
ATOM     17  C   UNL     1      32.483   3.425   7.887  1.00  0.00     0.000 C 
BRANCH  17  18
ATOM     18  C   UNL     1      31.570   2.596   6.967  1.00  0.00     0.000 C 
BRANCH  18  19
ATOM     19  C   UNL     1      31.762   2.941   5.481  1.00  0.00     0.000 C 
BRANCH  19  20
ATOM     20  C   UNL     1      30.432   2.987   4.708  1.00  0.00     0.006 C 
BRANCH  20  21
ATOM     21  C   UNL     1      29.223   2.747   5.623  1.00  0.00     0.053 C 
BRANCH  21  22
ATOM     22  C   UNL     1      28.354   3.962   5.727  1.00  0.00     0.041 C 
ATOM     23  O   UNL     1      28.654   4.892   6.521  1.00  0.00    -0.550 OA
ATOM     24  O   UNL     1      27.226   4.081   4.923  1.00  0.00    -0.550 OA
ENDBRANCH  21  22
ENDBRANCH  20  21
ENDBRANCH  19  20
ENDBRANCH  18  19
ENDBRANCH  17  18
ENDBRANCH  16  17
ENDBRANCH  15  16
ENDBRANCH  14  15
ENDBRANCH  13  14
ENDBRANCH   1  13
TORSDOF 20
ENDMDL
MODEL 8
REMARK VINA RESULT:    -4.635      1.359      3.616
REMARK INTER + INTRA:         -12.987
REMARK INTER:                 -10.079
REMARK INTRA:                  -2.907
REMARK UNBOUND:                -2.933
REMARK SMILES CCCCCCCCCCCCCCCCCCCCCC(=O)[O-]
REMARK SMILES IDX 12 1 11 2 10 3 9 4 8 5 7 6 6 7 5 8 4 9 3 10 2 11 1 12 13 13
REMARK SMILES IDX 14 14 15 15 16 16 17 17 18 18 19 19 20 20 21 21 22 22 23 23
REMARK SMILES IDX 24 24
REMARK H PARENT
REMARK Flexibility Score: inf
ROOT
ATOM      1  C   UNL     1      33.662   2.183  11.547  1.00  0.00     0.000 C 
ENDROOT
BRANCH   1   2
ATOM      2  C   UNL     1      33.228   2.550  12.983  1.00  0.00     0.000 C 
BRANCH   2   3
ATOM      3  C   UNL     1      33.425   4.037  13.324  1.00  0.00     0.000 C 
BRANCH   3   4
ATOM      4  C   UNL     1      32.108   4.825  13.340  1.00  0.00    -0.000 C 
BRANCH   4   5
ATOM      5  C   UNL     1      32.099   5.903  12.249  1.00  0.00    -0.000 C 
BRANCH   5   6
ATOM      6  C   UNL     1      33.154   6.982  12.533  1.00  0.00    -0.000 C 
BRANCH   6   7
ATOM      7  C   UNL     1      33.582   7.741  11.267  1.00  0.00    -0.000 C 
BRANCH   7   8
ATOM      8  C   UNL     1      35.102   7.722  11.049  1.00  0.00    -0.000 C 
BRANCH   8   9
ATOM      9  C   UNL     1      35.754   6.572  11.832  1.00  0.00    -0.000 C 
BRANCH   9  10
ATOM     10  C   UNL     1      36.998   6.005  11.127  1.00  0.00    -0.000 C 
BRANCH  10  11
ATOM     11  C   UNL     1      38.054   7.082  10.835  1.00  0.00    -0.003 C 
ATOM     12  C   UNL     1      39.341   6.812  11.610  1.00  0.00     0.004 C 
ENDBRANCH  10  11
ENDBRANCH   9  10
ENDBRANCH   8   9
ENDBRANCH   7   8
ENDBRANCH   6   7
ENDBRANCH   5   6
ENDBRANCH   4   5
ENDBRANCH   3   4
ENDBRANCH   2   3
ENDBRANCH   1   2
BRANCH   1  13
ATOM     13  C   UNL     1      32.511   2.333  10.537  1.00  0.00     0.000 C 
BRANCH  13  14
ATOM     14  C   UNL     1      32.753   3.475   9.526  1.00  0.00     0.000 C 
BRANCH  14  15
ATOM     15  C   UNL     1      34.177   4.061   9.577  1.00  0.00     0.000 C 
BRANCH  15  16
ATOM     16  C   UNL     1      34.481   5.134   8.514  1.00  0.00     0.000 C 
BRANCH  16  17
ATOM     17  C   UNL     1      33.261   5.623   7.711  1.00  0.00     0.000 C 
BRANCH  17  18
ATOM     18  C   UNL     1      33.305   5.194   6.235  1.00  0.00     0.000 C 
BRANCH  18  19
ATOM     19  C   UNL     1      31.903   5.023   5.628  1.00  0.00     0.000 C 
BRANCH  19  20
ATOM     20  C   UNL     1      31.573   3.554   5.304  1.00  0.00     0.006 C 
BRANCH  20  21
ATOM     21  C   UNL     1      30.060   3.310   5.211  1.00  0.00     0.053 C 
BRANCH  21  22
ATOM     22  C   UNL     1      29.611   3.144   3.792  1.00  0.00     0.041 C 
ATOM     23  O   UNL     1      29.067   2.071   3.418  1.00  0.00    -0.550 OA
ATOM     24  O   UNL     1      29.766   4.188   2.887  1.00  0.00    -0.550 OA
ENDBRANCH  21  22
ENDBRANCH  20  21
ENDBRANCH  19  20
ENDBRANCH  18  19
ENDBRANCH  17  18
ENDBRANCH  16  17
ENDBRANCH  15  16
ENDBRANCH  14  15
ENDBRANCH  13  14
ENDBRANCH   1  13
TORSDOF 20
ENDMDL
MODEL 9
REMARK VINA RESULT:    -4.553      1.683      5.038
REMARK INTER + INTRA:         -12.810
REMARK INTER:                  -9.887
REMARK INTRA:                  -2.923
REMARK UNBOUND:                -2.933
REMARK SMILES CCCCCCCCCCCCCCCCCCCCCC(=O)[O-]
REMARK SMILES IDX 12 1 11 2 10 3 9 4 8 5 7 6 6 7 5 8 4 9 3 10 2 11 1 12 13 13
REMARK SMILES IDX 14 14 15 15 16 16 17 17 18 18 19 19 20 20 21 21 22 22 23 23
REMARK SMILES IDX 24 24
REMARK H PARENT
REMARK Flexibility Score: inf
ROOT
ATOM      1  C   UNL     1      34.733   6.003   8.413  1.00  0.00     0.000 C 
ENDROOT
BRANCH   1   2
ATOM      2  C   UNL     1      35.273   5.029   9.481  1.00  0.00     0.000 C 
BRANCH   2   3
ATOM      3  C   UNL     1      36.653   5.425  10.034  1.00  0.00     0.000 C 
BRANCH   3   4
ATOM      4  C   UNL     1      36.605   6.681  10.916  1.00  0.00    -0.000 C 
BRANCH   4   5
ATOM      5  C   UNL     1      35.470   6.589  11.942  1.00  0.00    -0.000 C 
BRANCH   5   6
ATOM      6  C   UNL     1      34.618   7.867  11.936  1.00  0.00    -0.000 C 
BRANCH   6   7
ATOM      7  C   UNL     1      33.263   7.674  11.237  1.00  0.00    -0.000 C 
BRANCH   7   8
ATOM      8  C   UNL     1      32.108   7.464  12.227  1.00  0.00    -0.000 C 
BRANCH   8   9
ATOM      9  C   UNL     1      32.040   5.999  12.688  1.00  0.00    -0.000 C 
BRANCH   9  10
ATOM     10  C   UNL     1      32.166   5.004  11.523  1.00  0.00    -0.000 C 
BRANCH  10  11
ATOM     11  C   UNL     1      33.004   3.769  11.889  1.00  0.00    -0.003 C 
ATOM     12  C   UNL     1      33.421   3.805  13.356  1.00  0.00     0.004 C 
ENDBRANCH  10  11
ENDBRANCH   9  10
ENDBRANCH   8   9
ENDBRANCH   7   8
ENDBRANCH   6   7
ENDBRANCH   5   6
ENDBRANCH   4   5
ENDBRANCH   3   4
ENDBRANCH   2   3
ENDBRANCH   1   2
BRANCH   1  13
ATOM     13  C   UNL     1      33.823   5.297   7.391  1.00  0.00     0.000 C 
BRANCH  13  14
ATOM     14  C   UNL     1      33.020   4.136   8.015  1.00  0.00     0.000 C 
BRANCH  14  15
ATOM     15  C   UNL     1      31.638   3.916   7.370  1.00  0.00     0.000 C 
BRANCH  15  16
ATOM     16  C   UNL     1      31.458   2.564   6.652  1.00  0.00     0.000 C 
BRANCH  16  17
ATOM     17  C   UNL     1      31.451   2.637   5.114  1.00  0.00     0.000 C 
BRANCH  17  18
ATOM     18  C   UNL     1      31.489   4.079   4.582  1.00  0.00     0.000 C 
BRANCH  18  19
ATOM     19  C   UNL     1      30.307   4.397   3.653  1.00  0.00     0.000 C 
BRANCH  19  20
ATOM     20  C   UNL     1      29.197   3.333   3.721  1.00  0.00     0.006 C 
BRANCH  20  21
ATOM     21  C   UNL     1      27.928   3.865   4.402  1.00  0.00     0.053 C 
BRANCH  21  22
ATOM     22  C   UNL     1      28.057   3.866   5.894  1.00  0.00     0.041 C 
ATOM     23  O   UNL     1      28.257   4.944   6.514  1.00  0.00    -0.550 OA
ATOM     24  O   UNL     1      27.925   2.679   6.604  1.00  0.00    -0.550 OA
ENDBRANCH  21  22
ENDBRANCH  20  21
ENDBRANCH  19  20
ENDBRANCH  18  19
ENDBRANCH  17  18
ENDBRANCH  16  17
ENDBRANCH  15  16
ENDBRANCH  14  15
ENDBRANCH  13  14
ENDBRANCH   1  13
TORSDOF 20
ENDMDL
