MODEL 1
REMARK VINA RESULT:    -3.766      0.000      0.000
REMARK INTER + INTRA:          -4.367
REMARK INTER:                  -4.976
REMARK INTRA:                   0.609
REMARK UNBOUND:                 0.609
REMARK SMILES CC[C@@H](C=C[C@@H](C)[C@H]1CC[C@@H]2C3=CC[C@H]4C[C@H](O)CC[C@]4(C)[C@@H]3CC[C@@]21C)C(C)C
REMARK SMILES IDX 6 1 7 2 5 3 4 4 3 5 2 6 1 7 28 8 29 9 30 10 8 11 9 12 26 13
REMARK SMILES IDX 10 14 11 15 25 16 27 17 12 18 24 19 23 20 13 21 21 22 14 23
REMARK SMILES IDX 15 24 20 25 22 26 16 27 19 28 17 29 18 30
REMARK H PARENT 18 31
REMARK Flexibility Score: inf
ROOT
ATOM      1  C   UNL     1     -16.976  -0.513 -26.769  1.00  0.00     0.012 C 
ATOM      2  C   UNL     1     -16.897  -0.558 -25.233  1.00  0.00     0.012 C 
ENDROOT
BRANCH   1   3
ATOM      3  C   UNL     1     -18.418  -0.398 -27.235  1.00  0.00    -0.028 C 
ATOM      4  C   UNL     1     -18.955   0.741 -27.716  1.00  0.00    -0.027 C 
BRANCH   4   5
ATOM      5  C   UNL     1     -20.369   0.846 -28.262  1.00  0.00     0.014 C 
BRANCH   5   6
ATOM      6  C   UNL     1     -20.915  -0.505 -28.797  1.00  0.00     0.004 C 
ATOM      7  C   UNL     1     -20.886  -0.579 -30.324  1.00  0.00     0.004 C 
ENDBRANCH   5   6
BRANCH   5   8
ATOM      8  C   UNL     1     -20.506   2.036 -29.264  1.00  0.00    -0.011 C 
ATOM      9  C   UNL     1     -19.161   2.378 -29.927  1.00  0.00     0.008 C 
ATOM     10  C   UNL     1     -21.125   3.304 -28.655  1.00  0.00     0.008 C 
ENDBRANCH   5   8
ENDBRANCH   4   5
ENDBRANCH   1   3
BRANCH   1  11
ATOM     11  C   UNL     1     -16.146  -1.668 -27.425  1.00  0.00     0.002 C 
ATOM     12  C   UNL     1     -16.149  -3.000 -26.682  1.00  0.00     0.005 C 
ATOM     13  C   UNL     1     -16.430  -2.029 -28.927  1.00  0.00    -0.023 C 
ATOM     14  C   UNL     1     -15.505  -3.951 -27.667  1.00  0.00     0.009 C 
ATOM     15  C   UNL     1     -16.096  -3.560 -29.029  1.00  0.00     0.021 C 
ATOM     16  C   UNL     1     -15.497  -1.186 -29.853  1.00  0.00     0.008 C 
ATOM     17  C   UNL     1     -17.911  -1.789 -29.322  1.00  0.00     0.012 C 
ATOM     18  C   UNL     1     -15.239  -3.886 -30.254  1.00  0.00    -0.067 C 
ATOM     19  C   UNL     1     -15.512  -1.631 -31.332  1.00  0.00     0.009 C 
ATOM     20  C   UNL     1     -15.653  -3.170 -31.537  1.00  0.00     0.021 C 
ATOM     21  C   UNL     1     -14.142  -4.681 -30.190  1.00  0.00    -0.027 C 
ATOM     22  C   UNL     1     -14.956  -3.747 -32.826  1.00  0.00    -0.023 C 
ATOM     23  C   UNL     1     -13.212  -4.920 -31.352  1.00  0.00     0.031 C 
ATOM     24  C   UNL     1     -13.436  -3.922 -32.502  1.00  0.00     0.002 C 
ATOM     25  C   UNL     1     -15.170  -2.824 -34.087  1.00  0.00     0.010 C 
ATOM     26  C   UNL     1     -15.610  -5.124 -33.153  1.00  0.00     0.012 C 
ATOM     27  C   UNL     1     -12.592  -4.298 -33.738  1.00  0.00     0.036 C 
ATOM     28  C   UNL     1     -13.867  -2.279 -34.687  1.00  0.00     0.032 C 
ATOM     29  C   UNL     1     -12.888  -3.423 -34.984  1.00  0.00     0.114 C 
BRANCH  29  30
ATOM     30  O   UNL     1     -11.697  -2.880 -35.491  1.00  0.00    -0.393 OA
ATOM     31  H   UNL     1     -11.945  -2.332 -36.281  1.00  0.00     0.210 HD
ENDBRANCH  29  30
ENDBRANCH   1  11
TORSDOF 6
ENDMDL
MODEL 2
REMARK VINA RESULT:    -2.827      2.923      4.872
REMARK INTER + INTRA:          -3.127
REMARK INTER:                  -3.772
REMARK INTRA:                   0.645
REMARK UNBOUND:                 0.609
REMARK SMILES CC[C@@H](C=C[C@@H](C)[C@H]1CC[C@@H]2C3=CC[C@H]4C[C@H](O)CC[C@]4(C)[C@@H]3CC[C@@]21C)C(C)C
REMARK SMILES IDX 6 1 7 2 5 3 4 4 3 5 2 6 1 7 28 8 29 9 30 10 8 11 9 12 26 13
REMARK SMILES IDX 10 14 11 15 25 16 27 17 12 18 24 19 23 20 13 21 21 22 14 23
REMARK SMILES IDX 15 24 20 25 22 26 16 27 19 28 17 29 18 30
REMARK H PARENT 18 31
REMARK Flexibility Score: inf
ROOT
ATOM      1  C   UNL     1     -21.119   0.309 -29.887  1.00  0.00     0.012 C 
ATOM      2  C   UNL     1     -21.124   0.718 -31.371  1.00  0.00     0.012 C 
ENDROOT
BRANCH   1   3
ATOM      3  C   UNL     1     -20.660   1.461 -29.009  1.00  0.00    -0.028 C 
ATOM      4  C   UNL     1     -20.172   2.619 -29.498  1.00  0.00    -0.027 C 
BRANCH   4   5
ATOM      5  C   UNL     1     -19.789   3.808 -28.632  1.00  0.00     0.014 C 
BRANCH   5   6
ATOM      6  C   UNL     1     -18.589   3.514 -27.692  1.00  0.00     0.004 C 
ATOM      7  C   UNL     1     -18.365   2.015 -27.490  1.00  0.00     0.004 C 
ENDBRANCH   5   6
BRANCH   5   8
ATOM      8  C   UNL     1     -21.036   4.414 -27.913  1.00  0.00    -0.011 C 
ATOM      9  C   UNL     1     -21.123   5.936 -28.112  1.00  0.00     0.008 C 
ATOM     10  C   UNL     1     -21.125   4.077 -26.416  1.00  0.00     0.008 C 
ENDBRANCH   5   8
ENDBRANCH   4   5
ENDBRANCH   1   3
BRANCH   1  11
ATOM     11  C   UNL     1     -20.370  -1.048 -29.665  1.00  0.00     0.002 C 
ATOM     12  C   UNL     1     -20.932  -2.254 -30.410  1.00  0.00     0.005 C 
ATOM     13  C   UNL     1     -18.820  -1.091 -29.913  1.00  0.00    -0.023 C 
ATOM     14  C   UNL     1     -19.873  -3.314 -30.209  1.00  0.00     0.009 C 
ATOM     15  C   UNL     1     -18.539  -2.568 -30.367  1.00  0.00     0.021 C 
ATOM     16  C   UNL     1     -18.068  -0.759 -28.585  1.00  0.00     0.008 C 
ATOM     17  C   UNL     1     -18.371  -0.108 -31.025  1.00  0.00     0.012 C 
ATOM     18  C   UNL     1     -17.336  -3.178 -29.645  1.00  0.00    -0.067 C 
ATOM     19  C   UNL     1     -16.545  -1.012 -28.644  1.00  0.00     0.009 C 
ATOM     20  C   UNL     1     -16.135  -2.248 -29.500  1.00  0.00     0.021 C 
ATOM     21  C   UNL     1     -17.361  -4.420 -29.098  1.00  0.00    -0.027 C 
ATOM     22  C   UNL     1     -14.826  -2.988 -29.033  1.00  0.00    -0.023 C 
ATOM     23  C   UNL     1     -16.235  -4.997 -28.279  1.00  0.00     0.031 C 
ATOM     24  C   UNL     1     -15.214  -3.930 -27.847  1.00  0.00     0.002 C 
ATOM     25  C   UNL     1     -13.684  -1.982 -28.617  1.00  0.00     0.010 C 
ATOM     26  C   UNL     1     -14.284  -3.818 -30.238  1.00  0.00     0.012 C 
ATOM     27  C   UNL     1     -13.991  -4.576 -27.160  1.00  0.00     0.036 C 
ATOM     28  C   UNL     1     -13.239  -2.119 -27.154  1.00  0.00     0.032 C 
ATOM     29  C   UNL     1     -12.855  -3.571 -26.839  1.00  0.00     0.114 C 
BRANCH  29  30
ATOM     30  O   UNL     1     -12.494  -3.661 -25.485  1.00  0.00    -0.393 OA
ATOM     31  H   UNL     1     -12.619  -4.610 -25.218  1.00  0.00     0.210 HD
ENDBRANCH  29  30
ENDBRANCH   1  11
TORSDOF 6
ENDMDL
MODEL 3
REMARK VINA RESULT:    -2.504      2.936      7.647
REMARK INTER + INTRA:          -2.700
REMARK INTER:                  -3.830
REMARK INTRA:                   1.130
REMARK UNBOUND:                 0.609
REMARK SMILES CC[C@@H](C=C[C@@H](C)[C@H]1CC[C@@H]2C3=CC[C@H]4C[C@H](O)CC[C@]4(C)[C@@H]3CC[C@@]21C)C(C)C
REMARK SMILES IDX 6 1 7 2 5 3 4 4 3 5 2 6 1 7 28 8 29 9 30 10 8 11 9 12 26 13
REMARK SMILES IDX 10 14 11 15 25 16 27 17 12 18 24 19 23 20 13 21 21 22 14 23
REMARK SMILES IDX 15 24 20 25 22 26 16 27 19 28 17 29 18 30
REMARK H PARENT 18 31
REMARK Flexibility Score: inf
ROOT
ATOM      1  C   UNL     1     -14.197  -3.729 -31.903  1.00  0.00     0.012 C 
ATOM      2  C   UNL     1     -13.909  -4.903 -32.855  1.00  0.00     0.012 C 
ENDROOT
BRANCH   1   3
ATOM      3  C   UNL     1     -13.775  -4.068 -30.482  1.00  0.00    -0.028 C 
ATOM      4  C   UNL     1     -13.297  -3.156 -29.612  1.00  0.00    -0.027 C 
BRANCH   4   5
ATOM      5  C   UNL     1     -12.951  -3.467 -28.165  1.00  0.00     0.014 C 
BRANCH   5   6
ATOM      6  C   UNL     1     -13.599  -4.781 -27.655  1.00  0.00     0.004 C 
ATOM      7  C   UNL     1     -13.580  -4.883 -26.129  1.00  0.00     0.004 C 
ENDBRANCH   5   6
BRANCH   5   8
ATOM      8  C   UNL     1     -13.196  -2.230 -27.244  1.00  0.00    -0.011 C 
ATOM      9  C   UNL     1     -14.688  -1.867 -27.163  1.00  0.00     0.008 C 
ATOM     10  C   UNL     1     -12.377  -0.986 -27.627  1.00  0.00     0.008 C 
ENDBRANCH   5   8
ENDBRANCH   4   5
ENDBRANCH   1   3
BRANCH   1  11
ATOM     11  C   UNL     1     -15.663  -3.202 -32.063  1.00  0.00     0.002 C 
ATOM     12  C   UNL     1     -16.596  -4.061 -32.908  1.00  0.00     0.005 C 
ATOM     13  C   UNL     1     -16.476  -2.859 -30.763  1.00  0.00    -0.023 C 
ATOM     14  C   UNL     1     -17.957  -3.449 -32.660  1.00  0.00     0.009 C 
ATOM     15  C   UNL     1     -17.972  -3.129 -31.158  1.00  0.00     0.021 C 
ATOM     16  C   UNL     1     -16.255  -1.359 -30.388  1.00  0.00     0.008 C 
ATOM     17  C   UNL     1     -16.081  -3.759 -29.564  1.00  0.00     0.012 C 
ATOM     18  C   UNL     1     -18.901  -1.994 -30.721  1.00  0.00    -0.067 C 
ATOM     19  C   UNL     1     -17.195  -0.844 -29.276  1.00  0.00     0.009 C 
ATOM     20  C   UNL     1     -18.631  -1.447 -29.321  1.00  0.00     0.021 C 
ATOM     21  C   UNL     1     -19.837  -1.455 -31.541  1.00  0.00    -0.027 C 
ATOM     22  C   UNL     1     -19.776  -0.506 -28.788  1.00  0.00    -0.023 C 
ATOM     23  C   UNL     1     -20.680  -0.260 -31.178  1.00  0.00     0.031 C 
ATOM     24  C   UNL     1     -20.147   0.484 -29.940  1.00  0.00     0.002 C 
ATOM     25  C   UNL     1     -19.355   0.269 -27.480  1.00  0.00     0.010 C 
ATOM     26  C   UNL     1     -21.000  -1.398 -28.415  1.00  0.00     0.012 C 
ATOM     27  C   UNL     1     -21.124   1.594 -29.495  1.00  0.00     0.036 C 
ATOM     28  C   UNL     1     -19.365   1.796 -27.633  1.00  0.00     0.032 C 
ATOM     29  C   UNL     1     -20.722   2.278 -28.163  1.00  0.00     0.114 C 
BRANCH  29  30
ATOM     30  O   UNL     1     -20.676   3.672 -28.327  1.00  0.00    -0.393 OA
ATOM     31  H   UNL     1     -20.439   4.056 -27.442  1.00  0.00     0.210 HD
ENDBRANCH  29  30
ENDBRANCH   1  11
TORSDOF 6
ENDMDL
MODEL 4
REMARK VINA RESULT:    -1.628      2.326      4.409
REMARK INTER + INTRA:          -1.542
REMARK INTER:                  -2.955
REMARK INTRA:                   1.413
REMARK UNBOUND:                 0.609
REMARK SMILES CC[C@@H](C=C[C@@H](C)[C@H]1CC[C@@H]2C3=CC[C@H]4C[C@H](O)CC[C@]4(C)[C@@H]3CC[C@@]21C)C(C)C
REMARK SMILES IDX 6 1 7 2 5 3 4 4 3 5 2 6 1 7 28 8 29 9 30 10 8 11 9 12 26 13
REMARK SMILES IDX 10 14 11 15 25 16 27 17 12 18 24 19 23 20 13 21 21 22 14 23
REMARK SMILES IDX 15 24 20 25 22 26 16 27 19 28 17 29 18 30
REMARK H PARENT 18 31
REMARK Flexibility Score: inf
ROOT
ATOM      1  C   UNL     1     -20.380   2.260 -29.375  1.00  0.00     0.012 C 
ATOM      2  C   UNL     1     -20.144   2.620 -30.852  1.00  0.00     0.012 C 
ENDROOT
BRANCH   1   3
ATOM      3  C   UNL     1     -19.987   3.413 -28.466  1.00  0.00    -0.028 C 
ATOM      4  C   UNL     1     -20.857   4.346 -28.031  1.00  0.00    -0.027 C 
BRANCH   4   5
ATOM      5  C   UNL     1     -20.494   5.454 -27.056  1.00  0.00     0.014 C 
BRANCH   5   6
ATOM      6  C   UNL     1     -21.096   5.240 -25.642  1.00  0.00     0.004 C 
ATOM      7  C   UNL     1     -20.499   6.195 -24.607  1.00  0.00     0.004 C 
ENDBRANCH   5   6
BRANCH   5   8
ATOM      8  C   UNL     1     -20.773   6.864 -27.667  1.00  0.00    -0.011 C 
ATOM      9  C   UNL     1     -19.604   7.344 -28.544  1.00  0.00     0.008 C 
ATOM     10  C   UNL     1     -21.125   7.942 -26.630  1.00  0.00     0.008 C 
ENDBRANCH   5   8
ENDBRANCH   4   5
ENDBRANCH   1   3
BRANCH   1  11
ATOM     11  C   UNL     1     -19.753   0.872 -29.012  1.00  0.00     0.002 C 
ATOM     12  C   UNL     1     -20.533   0.025 -28.012  1.00  0.00     0.005 C 
ATOM     13  C   UNL     1     -19.380  -0.105 -30.183  1.00  0.00    -0.023 C 
ATOM     14  C   UNL     1     -19.835  -1.316 -28.070  1.00  0.00     0.009 C 
ATOM     15  C   UNL     1     -19.542  -1.538 -29.562  1.00  0.00     0.021 C 
ATOM     16  C   UNL     1     -17.904   0.151 -30.629  1.00  0.00     0.008 C 
ATOM     17  C   UNL     1     -20.326   0.045 -31.403  1.00  0.00     0.012 C 
ATOM     18  C   UNL     1     -18.356  -2.449 -29.886  1.00  0.00    -0.067 C 
ATOM     19  C   UNL     1     -17.348  -0.913 -31.602  1.00  0.00     0.009 C 
ATOM     20  C   UNL     1     -17.853  -2.361 -31.324  1.00  0.00     0.021 C 
ATOM     21  C   UNL     1     -17.741  -3.214 -28.949  1.00  0.00    -0.027 C 
ATOM     22  C   UNL     1     -16.848  -3.511 -31.705  1.00  0.00    -0.023 C 
ATOM     23  C   UNL     1     -16.498  -4.025 -29.215  1.00  0.00     0.031 C 
ATOM     24  C   UNL     1     -15.815  -3.640 -30.539  1.00  0.00     0.002 C 
ATOM     25  C   UNL     1     -16.126  -3.245 -33.083  1.00  0.00     0.010 C 
ATOM     26  C   UNL     1     -17.662  -4.831 -31.866  1.00  0.00     0.012 C 
ATOM     27  C   UNL     1     -14.650  -4.601 -30.863  1.00  0.00     0.036 C 
ATOM     28  C   UNL     1     -14.599  -3.135 -32.973  1.00  0.00     0.032 C 
ATOM     29  C   UNL     1     -14.018  -4.363 -32.259  1.00  0.00     0.114 C 
BRANCH  29  30
ATOM     30  O   UNL     1     -12.628  -4.204 -32.143  1.00  0.00    -0.393 OA
ATOM     31  H   UNL     1     -12.244  -5.114 -32.037  1.00  0.00     0.210 HD
ENDBRANCH  29  30
ENDBRANCH   1  11
TORSDOF 6
ENDMDL
