MODEL 1
REMARK VINA RESULT:    -4.619      0.000      0.000
REMARK INTER + INTRA:          -4.889
REMARK INTER:                  -4.889
REMARK INTRA:                   0.000
REMARK UNBOUND:                 0.000
REMARK SMILES O=c1ccc2cc(O)c(O)cc2o1
REMARK SMILES IDX 4 1 3 2 2 3 1 4 13 5 12 6 11 7 9 8 7 9 6 10 5 11 8 12 10 14
REMARK H PARENT 8 13 10 15
REMARK Flexibility Score: inf
ROOT
ATOM      1  C   UNL     1       1.061   7.628 -10.783  1.00  0.00     0.019 A 
ATOM      2  C   UNL     1       1.809   7.757  -9.613  1.00  0.00     0.094 A 
ATOM      3  C   UNL     1       2.736   6.762  -9.288  1.00  0.00     0.336 A 
ATOM      4  O   UNL     1       3.421   6.860  -8.237  1.00  0.00    -0.246 OA
ATOM      5  O   UNL     1       2.901   5.708 -10.085  1.00  0.00    -0.423 OA
ATOM      6  C   UNL     1       2.208   5.547 -11.209  1.00  0.00     0.142 A 
ATOM      7  C   UNL     1       2.423   4.419 -12.007  1.00  0.00     0.098 A 
ATOM      8  C   UNL     1       1.696   4.242 -13.194  1.00  0.00     0.161 A 
ATOM      9  C   UNL     1       0.746   5.204 -13.584  1.00  0.00     0.158 A 
ATOM     10  C   UNL     1       0.528   6.334 -12.786  1.00  0.00     0.062 A 
ATOM     11  C   UNL     1       1.254   6.510 -11.601  1.00  0.00     0.022 A 
ENDROOT
BRANCH   9  12
ATOM     12  O   UNL     1       0.009   5.053 -14.758  1.00  0.00    -0.504 OA
ATOM     13  H   UNL     1       0.436   4.755 -15.628  1.00  0.00     0.293 HD
ENDBRANCH   9  12
BRANCH   8  14
ATOM     14  O   UNL     1       1.914   3.117 -13.988  1.00  0.00    -0.504 OA
ATOM     15  H   UNL     1       2.337   3.189 -14.906  1.00  0.00     0.293 HD
ENDBRANCH   8  14
TORSDOF 2
ENDMDL
MODEL 2
REMARK VINA RESULT:    -4.582      1.286      2.384
REMARK INTER + INTRA:          -4.850
REMARK INTER:                  -4.850
REMARK INTRA:                   0.000
REMARK UNBOUND:                 0.000
REMARK SMILES O=c1ccc2cc(O)c(O)cc2o1
REMARK SMILES IDX 4 1 3 2 2 3 1 4 13 5 12 6 11 7 9 8 7 9 6 10 5 11 8 12 10 14
REMARK H PARENT 8 13 10 15
REMARK Flexibility Score: inf
ROOT
ATOM      1  C   UNL     1       3.243   5.997  -9.415  1.00  0.00     0.019 A 
ATOM      2  C   UNL     1       3.049   7.094  -8.576  1.00  0.00     0.094 A 
ATOM      3  C   UNL     1       2.115   8.069  -8.941  1.00  0.00     0.336 A 
ATOM      4  O   UNL     1       1.924   9.066  -8.197  1.00  0.00    -0.246 OA
ATOM      5  O   UNL     1       1.424   7.950 -10.072  1.00  0.00    -0.423 OA
ATOM      6  C   UNL     1       1.579   6.921 -10.901  1.00  0.00     0.142 A 
ATOM      7  C   UNL     1       0.825   6.849 -12.076  1.00  0.00     0.098 A 
ATOM      8  C   UNL     1       0.985   5.766 -12.954  1.00  0.00     0.161 A 
ATOM      9  C   UNL     1       1.906   4.747 -12.650  1.00  0.00     0.158 A 
ATOM     10  C   UNL     1       2.662   4.817 -11.474  1.00  0.00     0.062 A 
ATOM     11  C   UNL     1       2.504   5.899 -10.598  1.00  0.00     0.022 A 
ENDROOT
BRANCH   9  12
ATOM     12  O   UNL     1       2.084   3.660 -13.506  1.00  0.00    -0.504 OA
ATOM     13  H   UNL     1       1.623   3.602 -14.406  1.00  0.00     0.293 HD
ENDBRANCH   9  12
BRANCH   8  14
ATOM     14  O   UNL     1       0.230   5.698 -14.125  1.00  0.00    -0.504 OA
ATOM     15  H   UNL     1      -0.775   5.826 -14.116  1.00  0.00     0.293 HD
ENDBRANCH   8  14
TORSDOF 2
ENDMDL
MODEL 3
REMARK VINA RESULT:    -4.343      7.588      8.942
REMARK INTER + INTRA:          -4.597
REMARK INTER:                  -4.597
REMARK INTRA:                   0.000
REMARK UNBOUND:                 0.000
REMARK SMILES O=c1ccc2cc(O)c(O)cc2o1
REMARK SMILES IDX 4 1 3 2 2 3 1 4 13 5 12 6 11 7 9 8 7 9 6 10 5 11 8 12 10 14
REMARK H PARENT 8 13 10 15
REMARK Flexibility Score: inf
ROOT
ATOM      1  C   UNL     1       0.378  10.289 -19.303  1.00  0.00     0.019 A 
ATOM      2  C   UNL     1       0.732  10.430 -17.962  1.00  0.00     0.094 A 
ATOM      3  C   UNL     1       1.749   9.624 -17.440  1.00  0.00     0.336 A 
ATOM      4  O   UNL     1       2.083   9.737 -16.232  1.00  0.00    -0.246 OA
ATOM      5  O   UNL     1       2.369   8.736 -18.215  1.00  0.00    -0.423 OA
ATOM      6  C   UNL     1       2.062   8.569 -19.499  1.00  0.00     0.142 A 
ATOM      7  C   UNL     1       2.747   7.620 -20.264  1.00  0.00     0.098 A 
ATOM      8  C   UNL     1       2.428   7.439 -21.618  1.00  0.00     0.161 A 
ATOM      9  C   UNL     1       1.415   8.216 -22.210  1.00  0.00     0.158 A 
ATOM     10  C   UNL     1       0.728   9.167 -21.446  1.00  0.00     0.062 A 
ATOM     11  C   UNL     1       1.045   9.347 -20.093  1.00  0.00     0.022 A 
ENDROOT
BRANCH   9  12
ATOM     12  O   UNL     1       1.078   8.056 -23.554  1.00  0.00    -0.504 OA
ATOM     13  H   UNL     1       1.457   7.305 -24.118  1.00  0.00     0.293 HD
ENDBRANCH   9  12
BRANCH   8  14
ATOM     14  O   UNL     1       3.114   6.492 -22.378  1.00  0.00    -0.504 OA
ATOM     15  H   UNL     1       3.381   5.595 -21.990  1.00  0.00     0.293 HD
ENDBRANCH   8  14
TORSDOF 2
ENDMDL
MODEL 4
REMARK VINA RESULT:    -4.185      1.136      4.534
REMARK INTER + INTRA:          -4.430
REMARK INTER:                  -4.430
REMARK INTRA:                   0.000
REMARK UNBOUND:                 0.000
REMARK SMILES O=c1ccc2cc(O)c(O)cc2o1
REMARK SMILES IDX 4 1 3 2 2 3 1 4 13 5 12 6 11 7 9 8 7 9 6 10 5 11 8 12 10 14
REMARK H PARENT 8 13 10 15
REMARK Flexibility Score: inf
ROOT
ATOM      1  C   UNL     1       0.221   6.229 -12.639  1.00  0.00     0.019 A 
ATOM      2  C   UNL     1       0.498   5.104 -13.415  1.00  0.00     0.094 A 
ATOM      3  C   UNL     1       1.571   4.281 -13.057  1.00  0.00     0.336 A 
ATOM      4  O   UNL     1       1.837   3.260 -13.744  1.00  0.00    -0.246 OA
ATOM      5  O   UNL     1       2.316   4.570 -11.992  1.00  0.00    -0.423 OA
ATOM      6  C   UNL     1       2.085   5.633 -11.226  1.00  0.00     0.142 A 
ATOM      7  C   UNL     1       2.901   5.887 -10.119  1.00  0.00     0.098 A 
ATOM      8  C   UNL     1       2.664   7.007  -9.307  1.00  0.00     0.161 A 
ATOM      9  C   UNL     1       1.601   7.878  -9.607  1.00  0.00     0.158 A 
ATOM     10  C   UNL     1       0.783   7.626 -10.715  1.00  0.00     0.062 A 
ATOM     11  C   UNL     1       1.020   6.508 -11.526  1.00  0.00     0.022 A 
ENDROOT
BRANCH   9  12
ATOM     12  O   UNL     1       1.344   8.998  -8.817  1.00  0.00    -0.504 OA
ATOM     13  H   UNL     1       1.091   8.920  -7.839  1.00  0.00     0.293 HD
ENDBRANCH   9  12
BRANCH   8  14
ATOM     14  O   UNL     1       3.480   7.255  -8.204  1.00  0.00    -0.504 OA
ATOM     15  H   UNL     1       4.448   6.958  -8.182  1.00  0.00     0.293 HD
ENDBRANCH   8  14
TORSDOF 2
ENDMDL
MODEL 5
REMARK VINA RESULT:    -4.112      1.169      5.055
REMARK INTER + INTRA:          -4.352
REMARK INTER:                  -4.352
REMARK INTRA:                   0.000
REMARK UNBOUND:                 0.000
REMARK SMILES O=c1ccc2cc(O)c(O)cc2o1
REMARK SMILES IDX 4 1 3 2 2 3 1 4 13 5 12 6 11 7 9 8 7 9 6 10 5 11 8 12 10 14
REMARK H PARENT 8 13 10 15
REMARK Flexibility Score: inf
ROOT
ATOM      1  C   UNL     1       2.501   4.461 -12.010  1.00  0.00     0.019 A 
ATOM      2  C   UNL     1       1.741   4.174 -13.144  1.00  0.00     0.094 A 
ATOM      3  C   UNL     1       0.684   5.025 -13.484  1.00  0.00     0.336 A 
ATOM      4  O   UNL     1      -0.013   4.785 -14.504  1.00  0.00    -0.246 OA
ATOM      5  O   UNL     1       0.410   6.092 -12.736  1.00  0.00    -0.423 OA
ATOM      6  C   UNL     1       1.110   6.400 -11.647  1.00  0.00     0.142 A 
ATOM      7  C   UNL     1       0.775   7.533 -10.899  1.00  0.00     0.098 A 
ATOM      8  C   UNL     1       1.509   7.865  -9.749  1.00  0.00     0.161 A 
ATOM      9  C   UNL     1       2.586   7.054  -9.348  1.00  0.00     0.158 A 
ATOM     10  C   UNL     1       2.923   5.919 -10.095  1.00  0.00     0.062 A 
ATOM     11  C   UNL     1       2.190   5.587 -11.242  1.00  0.00     0.022 A 
ENDROOT
BRANCH   9  12
ATOM     12  O   UNL     1       3.332   7.360  -8.209  1.00  0.00    -0.504 OA
ATOM     13  H   UNL     1       4.073   8.050  -8.221  1.00  0.00     0.293 HD
ENDBRANCH   9  12
BRANCH   8  14
ATOM     14  O   UNL     1       1.173   8.995  -9.007  1.00  0.00    -0.504 OA
ATOM     15  H   UNL     1       1.631   9.209  -8.129  1.00  0.00     0.293 HD
ENDBRANCH   8  14
TORSDOF 2
ENDMDL
MODEL 6
REMARK VINA RESULT:    -4.105      2.332      4.248
REMARK INTER + INTRA:          -4.345
REMARK INTER:                  -4.345
REMARK INTRA:                   0.000
REMARK UNBOUND:                 0.000
REMARK SMILES O=c1ccc2cc(O)c(O)cc2o1
REMARK SMILES IDX 4 1 3 2 2 3 1 4 13 5 12 6 11 7 9 8 7 9 6 10 5 11 8 12 10 14
REMARK H PARENT 8 13 10 15
REMARK Flexibility Score: inf
ROOT
ATOM      1  C   UNL     1       0.574   6.544 -14.307  1.00  0.00     0.019 A 
ATOM      2  C   UNL     1       0.132   7.827 -14.629  1.00  0.00     0.094 A 
ATOM      3  C   UNL     1       0.373   8.872 -13.731  1.00  0.00     0.336 A 
ATOM      4  O   UNL     1      -0.016  10.037 -14.003  1.00  0.00    -0.246 OA
ATOM      5  O   UNL     1       1.015   8.643 -12.587  1.00  0.00    -0.423 OA
ATOM      6  C   UNL     1       1.452   7.434 -12.243  1.00  0.00     0.142 A 
ATOM      7  C   UNL     1       2.121   7.253 -11.028  1.00  0.00     0.098 A 
ATOM      8  C   UNL     1       2.584   5.981 -10.658  1.00  0.00     0.161 A 
ATOM      9  C   UNL     1       2.377   4.884 -11.513  1.00  0.00     0.158 A 
ATOM     10  C   UNL     1       1.708   5.063 -12.730  1.00  0.00     0.062 A 
ATOM     11  C   UNL     1       1.244   6.332 -13.099  1.00  0.00     0.022 A 
ENDROOT
BRANCH   9  12
ATOM     12  O   UNL     1       2.827   3.609 -11.169  1.00  0.00    -0.504 OA
ATOM     13  H   UNL     1       2.189   2.844 -10.985  1.00  0.00     0.293 HD
ENDBRANCH   9  12
BRANCH   8  14
ATOM     14  O   UNL     1       3.250   5.805  -9.446  1.00  0.00    -0.504 OA
ATOM     15  H   UNL     1       3.777   6.557  -9.016  1.00  0.00     0.293 HD
ENDBRANCH   8  14
TORSDOF 2
ENDMDL
MODEL 7
REMARK VINA RESULT:    -3.962      1.820      4.971
REMARK INTER + INTRA:          -4.193
REMARK INTER:                  -4.193
REMARK INTRA:                   0.000
REMARK UNBOUND:                 0.000
REMARK SMILES O=c1ccc2cc(O)c(O)cc2o1
REMARK SMILES IDX 4 1 3 2 2 3 1 4 13 5 12 6 11 7 9 8 7 9 6 10 5 11 8 12 10 14
REMARK H PARENT 8 13 10 15
REMARK Flexibility Score: inf
ROOT
ATOM      1  C   UNL     1       0.201   7.177 -14.818  1.00  0.00     0.019 A 
ATOM      2  C   UNL     1      -0.093   6.731 -16.107  1.00  0.00     0.094 A 
ATOM      3  C   UNL     1       0.215   5.411 -16.453  1.00  0.00     0.336 A 
ATOM      4  O   UNL     1      -0.043   4.989 -17.611  1.00  0.00    -0.246 OA
ATOM      5  O   UNL     1       0.780   4.596 -15.566  1.00  0.00    -0.423 OA
ATOM      6  C   UNL     1       1.077   4.982 -14.328  1.00  0.00     0.142 A 
ATOM      7  C   UNL     1       1.671   4.081 -13.438  1.00  0.00     0.098 A 
ATOM      8  C   UNL     1       1.987   4.481 -12.130  1.00  0.00     0.161 A 
ATOM      9  C   UNL     1       1.704   5.794 -11.712  1.00  0.00     0.158 A 
ATOM     10  C   UNL     1       1.110   6.698 -12.601  1.00  0.00     0.062 A 
ATOM     11  C   UNL     1       0.796   6.299 -13.907  1.00  0.00     0.022 A 
ENDROOT
BRANCH   9  12
ATOM     12  O   UNL     1       2.008   6.219 -10.419  1.00  0.00    -0.504 OA
ATOM     13  H   UNL     1       2.492   7.090 -10.238  1.00  0.00     0.293 HD
ENDBRANCH   9  12
BRANCH   8  14
ATOM     14  O   UNL     1       2.578   3.580 -11.247  1.00  0.00    -0.504 OA
ATOM     15  H   UNL     1       3.392   3.832 -10.698  1.00  0.00     0.293 HD
ENDBRANCH   8  14
TORSDOF 2
ENDMDL
MODEL 8
REMARK VINA RESULT:    -3.812      9.174     11.438
REMARK INTER + INTRA:          -4.035
REMARK INTER:                  -4.035
REMARK INTRA:                   0.000
REMARK UNBOUND:                 0.000
REMARK SMILES O=c1ccc2cc(O)c(O)cc2o1
REMARK SMILES IDX 4 1 3 2 2 3 1 4 13 5 12 6 11 7 9 8 7 9 6 10 5 11 8 12 10 14
REMARK H PARENT 8 13 10 15
REMARK Flexibility Score: inf
ROOT
ATOM      1  C   UNL     1       0.124  10.882 -22.062  1.00  0.00     0.019 A 
ATOM      2  C   UNL     1      -0.060  10.832 -23.443  1.00  0.00     0.094 A 
ATOM      3  C   UNL     1       0.600   9.842 -24.179  1.00  0.00     0.336 A 
ATOM      4  O   UNL     1       0.447   9.780 -25.427  1.00  0.00    -0.246 OA
ATOM      5  O   UNL     1       1.389   8.962 -23.568  1.00  0.00    -0.423 OA
ATOM      6  C   UNL     1       1.592   8.975 -22.253  1.00  0.00     0.142 A 
ATOM      7  C   UNL     1       2.433   8.024 -21.666  1.00  0.00     0.098 A 
ATOM      8  C   UNL     1       2.651   8.032 -20.280  1.00  0.00     0.161 A 
ATOM      9  C   UNL     1       2.020   9.000 -19.477  1.00  0.00     0.158 A 
ATOM     10  C   UNL     1       1.177   9.952 -20.062  1.00  0.00     0.062 A 
ATOM     11  C   UNL     1       0.960   9.945 -21.447  1.00  0.00     0.022 A 
ENDROOT
BRANCH   9  12
ATOM     12  O   UNL     1       2.219   9.030 -18.097  1.00  0.00    -0.504 OA
ATOM     13  H   UNL     1       1.958   8.256 -17.497  1.00  0.00     0.293 HD
ENDBRANCH   9  12
BRANCH   8  14
ATOM     14  O   UNL     1       3.490   7.083 -19.698  1.00  0.00    -0.504 OA
ATOM     15  H   UNL     1       4.471   7.022 -19.943  1.00  0.00     0.293 HD
ENDBRANCH   8  14
TORSDOF 2
ENDMDL
MODEL 9
REMARK VINA RESULT:    -3.764      6.771      9.118
REMARK INTER + INTRA:          -3.984
REMARK INTER:                  -3.984
REMARK INTRA:                   0.000
REMARK UNBOUND:                 0.000
REMARK SMILES O=c1ccc2cc(O)c(O)cc2o1
REMARK SMILES IDX 4 1 3 2 2 3 1 4 13 5 12 6 11 7 9 8 7 9 6 10 5 11 8 12 10 14
REMARK H PARENT 8 13 10 15
REMARK Flexibility Score: inf
ROOT
ATOM      1  C   UNL     1       2.061   9.704 -20.783  1.00  0.00     0.019 A 
ATOM      2  C   UNL     1       2.527   8.811 -21.748  1.00  0.00     0.094 A 
ATOM      3  C   UNL     1       2.432   7.438 -21.502  1.00  0.00     0.336 A 
ATOM      4  O   UNL     1       2.846   6.616 -22.361  1.00  0.00    -0.246 OA
ATOM      5  O   UNL     1       1.903   6.991 -20.365  1.00  0.00    -0.423 OA
ATOM      6  C   UNL     1       1.447   7.809 -19.419  1.00  0.00     0.142 A 
ATOM      7  C   UNL     1       0.902   7.282 -18.244  1.00  0.00     0.098 A 
ATOM      8  C   UNL     1       0.419   8.139 -17.242  1.00  0.00     0.161 A 
ATOM      9  C   UNL     1       0.483   9.533 -17.421  1.00  0.00     0.158 A 
ATOM     10  C   UNL     1       1.028  10.062 -18.597  1.00  0.00     0.062 A 
ATOM     11  C   UNL     1       1.511   9.207 -19.597  1.00  0.00     0.022 A 
ENDROOT
BRANCH   9  12
ATOM     12  O   UNL     1       0.011  10.406 -16.442  1.00  0.00    -0.504 OA
ATOM     13  H   UNL     1       0.590  11.139 -16.050  1.00  0.00     0.293 HD
ENDBRANCH   9  12
BRANCH   8  14
ATOM     14  O   UNL     1      -0.124   7.610 -16.072  1.00  0.00    -0.504 OA
ATOM     15  H   UNL     1      -1.022   7.919 -15.718  1.00  0.00     0.293 HD
ENDBRANCH   8  14
TORSDOF 2
ENDMDL
