MODEL 1
REMARK VINA RESULT:    -6.973      0.000      0.000
REMARK INTER + INTRA:          -8.813
REMARK INTER:                  -8.399
REMARK INTRA:                  -0.414
REMARK UNBOUND:                -0.414
REMARK SMILES O=c1c(O)c(-c2ccc(O)cc2O)oc2cc(O)cc(O)c12
REMARK SMILES IDX 5 1 3 2 2 3 1 4 22 5 20 6 19 7 17 8 16 9 15 10 14 11 6 12
REMARK SMILES IDX 8 13 7 14 9 15 11 16 12 17 10 18 13 20 4 22 21 24 18 26
REMARK H PARENT 10 19 13 21 4 23 21 25 18 27
REMARK Flexibility Score: inf
ROOT
ATOM      1  C   UNL     1      46.190 -28.754  18.466  1.00  0.00     0.184 A 
ATOM      2  C   UNL     1      47.252 -28.169  19.170  1.00  0.00     0.208 A 
ATOM      3  C   UNL     1      48.017 -27.173  18.545  1.00  0.00     0.238 A 
ATOM      4  O   UNL     1      48.930 -26.609  19.204  1.00  0.00    -0.285 OA
ATOM      5  C   UNL     1      47.725 -26.795  17.211  1.00  0.00     0.111 A 
ATOM      6  C   UNL     1      48.458 -25.825  16.464  1.00  0.00     0.134 A 
ATOM      7  C   UNL     1      48.005 -25.443  15.196  1.00  0.00     0.093 A 
ATOM      8  C   UNL     1      46.884 -26.040  14.621  1.00  0.00     0.123 A 
ATOM      9  C   UNL     1      46.193 -27.031  15.318  1.00  0.00     0.094 A 
ATOM     10  C   UNL     1      46.599 -27.408  16.601  1.00  0.00     0.146 A 
ATOM     11  O   UNL     1      45.906 -28.346  17.236  1.00  0.00    -0.451 OA
ENDROOT
BRANCH   1  12
ATOM     12  C   UNL     1      45.366 -29.825  19.066  1.00  0.00     0.063 A 
ATOM     13  C   UNL     1      44.894 -32.200  19.317  1.00  0.00     0.047 A 
ATOM     14  C   UNL     1      45.688 -31.169  18.809  1.00  0.00     0.020 A 
ATOM     15  C   UNL     1      43.764 -31.904  20.083  1.00  0.00     0.119 A 
ATOM     16  C   UNL     1      43.432 -30.569  20.344  1.00  0.00     0.093 A 
ATOM     17  C   UNL     1      44.226 -29.527  19.849  1.00  0.00     0.130 A 
BRANCH  15  18
ATOM     18  O   UNL     1      42.979 -32.942  20.579  1.00  0.00    -0.508 OA
ATOM     19  H   UNL     1      42.345 -32.802  21.357  1.00  0.00     0.293 HD
ENDBRANCH  15  18
BRANCH  17  20
ATOM     20  O   UNL     1      43.868 -28.215  20.172  1.00  0.00    -0.507 OA
ATOM     21  H   UNL     1      43.333 -27.976  20.996  1.00  0.00     0.293 HD
ENDBRANCH  17  20
ENDBRANCH   1  12
BRANCH   2  22
ATOM     22  O   UNL     1      47.520 -28.565  20.484  1.00  0.00    -0.502 OA
ATOM     23  H   UNL     1      47.068 -29.363  20.914  1.00  0.00     0.293 HD
ENDBRANCH   2  22
BRANCH   6  24
ATOM     24  O   UNL     1      49.644 -25.230  16.907  1.00  0.00    -0.507 OA
ATOM     25  H   UNL     1      49.708 -24.314  17.323  1.00  0.00     0.293 HD
ENDBRANCH   6  24
BRANCH   8  26
ATOM     26  O   UNL     1      46.470 -25.646  13.351  1.00  0.00    -0.508 OA
ATOM     27  H   UNL     1      47.105 -25.653  12.560  1.00  0.00     0.293 HD
ENDBRANCH   8  26
TORSDOF 6
ENDMDL
MODEL 2
REMARK VINA RESULT:    -6.820      1.807      6.528
REMARK INTER + INTRA:          -8.630
REMARK INTER:                  -8.262
REMARK INTRA:                  -0.367
REMARK UNBOUND:                -0.414
REMARK SMILES O=c1c(O)c(-c2ccc(O)cc2O)oc2cc(O)cc(O)c12
REMARK SMILES IDX 5 1 3 2 2 3 1 4 22 5 20 6 19 7 17 8 16 9 15 10 14 11 6 12
REMARK SMILES IDX 8 13 7 14 9 15 11 16 12 17 10 18 13 20 4 22 21 24 18 26
REMARK H PARENT 10 19 13 21 4 23 21 25 18 27
REMARK Flexibility Score: inf
ROOT
ATOM      1  C   UNL     1      46.196 -29.331  17.786  1.00  0.00     0.184 A 
ATOM      2  C   UNL     1      46.943 -29.743  18.900  1.00  0.00     0.208 A 
ATOM      3  C   UNL     1      46.415 -30.729  19.747  1.00  0.00     0.238 A 
ATOM      4  O   UNL     1      47.118 -31.138  20.709  1.00  0.00    -0.285 OA
ATOM      5  C   UNL     1      45.133 -31.271  19.484  1.00  0.00     0.111 A 
ATOM      6  C   UNL     1      44.482 -32.246  20.297  1.00  0.00     0.134 A 
ATOM      7  C   UNL     1      43.268 -32.799  19.874  1.00  0.00     0.093 A 
ATOM      8  C   UNL     1      42.648 -32.366  18.703  1.00  0.00     0.123 A 
ATOM      9  C   UNL     1      43.247 -31.371  17.929  1.00  0.00     0.094 A 
ATOM     10  C   UNL     1      44.477 -30.826  18.305  1.00  0.00     0.146 A 
ATOM     11  O   UNL     1      45.019 -29.891  17.535  1.00  0.00    -0.451 OA
ENDROOT
BRANCH   1  12
ATOM     12  C   UNL     1      46.691 -28.279  16.873  1.00  0.00     0.063 A 
ATOM     13  C   UNL     1      48.249 -27.591  15.135  1.00  0.00     0.047 A 
ATOM     14  C   UNL     1      47.725 -28.581  15.970  1.00  0.00     0.020 A 
ATOM     15  C   UNL     1      47.755 -26.287  15.195  1.00  0.00     0.119 A 
ATOM     16  C   UNL     1      46.727 -25.973  16.092  1.00  0.00     0.093 A 
ATOM     17  C   UNL     1      46.185 -26.958  16.927  1.00  0.00     0.130 A 
BRANCH  15  18
ATOM     18  O   UNL     1      48.292 -25.309  14.360  1.00  0.00    -0.508 OA
ATOM     19  H   UNL     1      47.891 -24.380  14.305  1.00  0.00     0.293 HD
ENDBRANCH  15  18
BRANCH  17  20
ATOM     20  O   UNL     1      45.136 -26.599  17.776  1.00  0.00    -0.507 OA
ATOM     21  H   UNL     1      44.943 -25.641  18.041  1.00  0.00     0.293 HD
ENDBRANCH  17  20
ENDBRANCH   1  12
BRANCH   2  22
ATOM     22  O   UNL     1      48.204 -29.188  19.137  1.00  0.00    -0.502 OA
ATOM     23  H   UNL     1      48.563 -28.407  18.601  1.00  0.00     0.293 HD
ENDBRANCH   2  22
BRANCH   6  24
ATOM     24  O   UNL     1      44.969 -32.684  21.533  1.00  0.00    -0.507 OA
ATOM     25  H   UNL     1      45.945 -32.756  21.774  1.00  0.00     0.293 HD
ENDBRANCH   6  24
BRANCH   8  26
ATOM     26  O   UNL     1      41.432 -32.927  18.319  1.00  0.00    -0.508 OA
ATOM     27  H   UNL     1      40.744 -33.219  19.004  1.00  0.00     0.293 HD
ENDBRANCH   8  26
TORSDOF 6
ENDMDL
MODEL 3
REMARK VINA RESULT:    -6.627      1.717      3.069
REMARK INTER + INTRA:          -8.397
REMARK INTER:                  -8.137
REMARK INTRA:                  -0.260
REMARK UNBOUND:                -0.414
REMARK SMILES O=c1c(O)c(-c2ccc(O)cc2O)oc2cc(O)cc(O)c12
REMARK SMILES IDX 5 1 3 2 2 3 1 4 22 5 20 6 19 7 17 8 16 9 15 10 14 11 6 12
REMARK SMILES IDX 8 13 7 14 9 15 11 16 12 17 10 18 13 20 4 22 21 24 18 26
REMARK H PARENT 10 19 13 21 4 23 21 25 18 27
REMARK Flexibility Score: inf
ROOT
ATOM      1  C   UNL     1      46.462 -28.006  18.602  1.00  0.00     0.184 A 
ATOM      2  C   UNL     1      46.763 -27.968  17.232  1.00  0.00     0.208 A 
ATOM      3  C   UNL     1      47.545 -26.914  16.736  1.00  0.00     0.238 A 
ATOM      4  O   UNL     1      47.863 -26.919  15.517  1.00  0.00    -0.285 OA
ATOM      5  C   UNL     1      47.992 -25.895  17.613  1.00  0.00     0.111 A 
ATOM      6  C   UNL     1      48.757 -24.759  17.213  1.00  0.00     0.134 A 
ATOM      7  C   UNL     1      49.248 -23.880  18.186  1.00  0.00     0.093 A 
ATOM      8  C   UNL     1      48.948 -24.058  19.536  1.00  0.00     0.123 A 
ATOM      9  C   UNL     1      48.153 -25.134  19.933  1.00  0.00     0.094 A 
ATOM     10  C   UNL     1      47.679 -26.049  18.990  1.00  0.00     0.146 A 
ATOM     11  O   UNL     1      46.936 -27.066  19.410  1.00  0.00    -0.451 OA
ENDROOT
BRANCH   1  12
ATOM     12  C   UNL     1      45.622 -29.079  19.176  1.00  0.00     0.063 A 
ATOM     13  C   UNL     1      45.210 -31.455  19.500  1.00  0.00     0.047 A 
ATOM     14  C   UNL     1      46.013 -30.419  19.017  1.00  0.00     0.020 A 
ATOM     15  C   UNL     1      44.004 -31.168  20.143  1.00  0.00     0.119 A 
ATOM     16  C   UNL     1      43.603 -29.836  20.305  1.00  0.00     0.093 A 
ATOM     17  C   UNL     1      44.404 -28.789  19.835  1.00  0.00     0.130 A 
BRANCH  15  18
ATOM     18  O   UNL     1      43.211 -32.211  20.615  1.00  0.00    -0.508 OA
ATOM     19  H   UNL     1      42.349 -32.474  20.152  1.00  0.00     0.293 HD
ENDBRANCH  15  18
BRANCH  17  20
ATOM     20  O   UNL     1      43.974 -27.478  20.057  1.00  0.00    -0.507 OA
ATOM     21  H   UNL     1      44.597 -26.681  20.034  1.00  0.00     0.293 HD
ENDBRANCH  17  20
ENDBRANCH   1  12
BRANCH   2  22
ATOM     22  O   UNL     1      46.305 -28.984  16.389  1.00  0.00    -0.502 OA
ATOM     23  H   UNL     1      46.797 -29.253  15.545  1.00  0.00     0.293 HD
ENDBRANCH   2  22
BRANCH   6  24
ATOM     24  O   UNL     1      49.039 -24.435  15.882  1.00  0.00    -0.507 OA
ATOM     25  H   UNL     1      48.344 -24.239  15.178  1.00  0.00     0.293 HD
ENDBRANCH   6  24
BRANCH   8  26
ATOM     26  O   UNL     1      49.441 -23.155  20.475  1.00  0.00    -0.508 OA
ATOM     27  H   UNL     1      50.383 -22.788  20.414  1.00  0.00     0.293 HD
ENDBRANCH   8  26
TORSDOF 6
ENDMDL
MODEL 4
REMARK VINA RESULT:    -6.590      0.820      1.521
REMARK INTER + INTRA:          -8.353
REMARK INTER:                  -7.953
REMARK INTRA:                  -0.400
REMARK UNBOUND:                -0.414
REMARK SMILES O=c1c(O)c(-c2ccc(O)cc2O)oc2cc(O)cc(O)c12
REMARK SMILES IDX 5 1 3 2 2 3 1 4 22 5 20 6 19 7 17 8 16 9 15 10 14 11 6 12
REMARK SMILES IDX 8 13 7 14 9 15 11 16 12 17 10 18 13 20 4 22 21 24 18 26
REMARK H PARENT 10 19 13 21 4 23 21 25 18 27
REMARK Flexibility Score: inf
ROOT
ATOM      1  C   UNL     1      46.132 -28.984  18.308  1.00  0.00     0.184 A 
ATOM      2  C   UNL     1      47.195 -28.434  19.040  1.00  0.00     0.208 A 
ATOM      3  C   UNL     1      47.968 -27.417  18.458  1.00  0.00     0.238 A 
ATOM      4  O   UNL     1      48.881 -26.886  19.143  1.00  0.00    -0.285 OA
ATOM      5  C   UNL     1      47.684 -26.984  17.139  1.00  0.00     0.111 A 
ATOM      6  C   UNL     1      48.426 -25.989  16.435  1.00  0.00     0.134 A 
ATOM      7  C   UNL     1      47.981 -25.554  15.182  1.00  0.00     0.093 A 
ATOM      8  C   UNL     1      46.859 -26.121  14.578  1.00  0.00     0.123 A 
ATOM      9  C   UNL     1      46.159 -27.136  15.232  1.00  0.00     0.094 A 
ATOM     10  C   UNL     1      46.557 -27.566  16.500  1.00  0.00     0.146 A 
ATOM     11  O   UNL     1      45.856 -28.524  17.094  1.00  0.00    -0.451 OA
ENDROOT
BRANCH   1  12
ATOM     12  C   UNL     1      45.299 -30.073  18.861  1.00  0.00     0.063 A 
ATOM     13  C   UNL     1      43.344 -30.761  20.136  1.00  0.00     0.047 A 
ATOM     14  C   UNL     1      44.119 -29.755  19.555  1.00  0.00     0.020 A 
ATOM     15  C   UNL     1      43.737 -32.097  20.037  1.00  0.00     0.119 A 
ATOM     16  C   UNL     1      44.912 -32.426  19.350  1.00  0.00     0.093 A 
ATOM     17  C   UNL     1      45.692 -31.429  18.754  1.00  0.00     0.130 A 
BRANCH  15  18
ATOM     18  O   UNL     1      42.957 -33.089  20.626  1.00  0.00    -0.508 OA
ATOM     19  H   UNL     1      41.944 -33.047  20.609  1.00  0.00     0.293 HD
ENDBRANCH  15  18
BRANCH  17  20
ATOM     20  O   UNL     1      46.834 -31.817  18.049  1.00  0.00    -0.507 OA
ATOM     21  H   UNL     1      46.863 -32.635  17.453  1.00  0.00     0.293 HD
ENDBRANCH  17  20
ENDBRANCH   1  12
BRANCH   2  22
ATOM     22  O   UNL     1      47.454 -28.883  20.337  1.00  0.00    -0.502 OA
ATOM     23  H   UNL     1      48.377 -29.177  20.636  1.00  0.00     0.293 HD
ENDBRANCH   2  22
BRANCH   6  24
ATOM     24  O   UNL     1      49.613 -25.420  16.907  1.00  0.00    -0.507 OA
ATOM     25  H   UNL     1      49.675 -24.541  17.397  1.00  0.00     0.293 HD
ENDBRANCH   6  24
BRANCH   8  26
ATOM     26  O   UNL     1      46.453 -25.674  13.323  1.00  0.00    -0.508 OA
ATOM     27  H   UNL     1      47.121 -25.341  12.637  1.00  0.00     0.293 HD
ENDBRANCH   8  26
TORSDOF 6
ENDMDL
MODEL 5
REMARK VINA RESULT:    -6.517      2.978      6.828
REMARK INTER + INTRA:          -8.264
REMARK INTER:                  -7.861
REMARK INTRA:                  -0.403
REMARK UNBOUND:                -0.414
REMARK SMILES O=c1c(O)c(-c2ccc(O)cc2O)oc2cc(O)cc(O)c12
REMARK SMILES IDX 5 1 3 2 2 3 1 4 22 5 20 6 19 7 17 8 16 9 15 10 14 11 6 12
REMARK SMILES IDX 8 13 7 14 9 15 11 16 12 17 10 18 13 20 4 22 21 24 18 26
REMARK H PARENT 10 19 13 21 4 23 21 25 18 27
REMARK Flexibility Score: inf
ROOT
ATOM      1  C   UNL     1      48.032 -26.152  20.012  1.00  0.00     0.184 A 
ATOM      2  C   UNL     1      48.566 -27.283  20.648  1.00  0.00     0.208 A 
ATOM      3  C   UNL     1      47.811 -28.466  20.680  1.00  0.00     0.238 A 
ATOM      4  O   UNL     1      48.321 -29.494  21.198  1.00  0.00    -0.285 OA
ATOM      5  C   UNL     1      46.519 -28.493  20.099  1.00  0.00     0.111 A 
ATOM      6  C   UNL     1      45.650 -29.624  20.107  1.00  0.00     0.134 A 
ATOM      7  C   UNL     1      44.445 -29.574  19.395  1.00  0.00     0.093 A 
ATOM      8  C   UNL     1      44.048 -28.415  18.731  1.00  0.00     0.123 A 
ATOM      9  C   UNL     1      44.864 -27.283  18.764  1.00  0.00     0.094 A 
ATOM     10  C   UNL     1      46.089 -27.313  19.435  1.00  0.00     0.146 A 
ATOM     11  O   UNL     1      46.841 -26.220  19.432  1.00  0.00    -0.451 OA
ENDROOT
BRANCH   1  12
ATOM     12  C   UNL     1      48.772 -24.873  19.969  1.00  0.00     0.063 A 
ATOM     13  C   UNL     1      50.379 -23.431  18.846  1.00  0.00     0.047 A 
ATOM     14  C   UNL     1      49.626 -24.607  18.885  1.00  0.00     0.020 A 
ATOM     15  C   UNL     1      50.296 -22.508  19.891  1.00  0.00     0.119 A 
ATOM     16  C   UNL     1      49.450 -22.764  20.978  1.00  0.00     0.093 A 
ATOM     17  C   UNL     1      48.682 -23.933  21.023  1.00  0.00     0.130 A 
BRANCH  15  18
ATOM     18  O   UNL     1      51.057 -21.343  19.842  1.00  0.00    -0.508 OA
ATOM     19  H   UNL     1      50.627 -20.433  19.726  1.00  0.00     0.293 HD
ENDBRANCH  15  18
BRANCH  17  20
ATOM     20  O   UNL     1      47.827 -24.119  22.112  1.00  0.00    -0.507 OA
ATOM     21  H   UNL     1      47.702 -23.427  22.840  1.00  0.00     0.293 HD
ENDBRANCH  17  20
ENDBRANCH   1  12
BRANCH   2  22
ATOM     22  O   UNL     1      49.841 -27.227  21.216  1.00  0.00    -0.502 OA
ATOM     23  H   UNL     1      50.641 -27.695  20.805  1.00  0.00     0.293 HD
ENDBRANCH   2  22
BRANCH   6  24
ATOM     24  O   UNL     1      45.908 -30.803  20.814  1.00  0.00    -0.507 OA
ATOM     25  H   UNL     1      46.615 -31.478  20.569  1.00  0.00     0.293 HD
ENDBRANCH   6  24
BRANCH   8  26
ATOM     26  O   UNL     1      42.835 -28.396  18.046  1.00  0.00    -0.508 OA
ATOM     27  H   UNL     1      42.079 -29.026  18.288  1.00  0.00     0.293 HD
ENDBRANCH   8  26
TORSDOF 6
ENDMDL
MODEL 6
REMARK VINA RESULT:    -6.426      2.898      6.705
REMARK INTER + INTRA:          -8.155
REMARK INTER:                  -7.849
REMARK INTRA:                  -0.305
REMARK UNBOUND:                -0.414
REMARK SMILES O=c1c(O)c(-c2ccc(O)cc2O)oc2cc(O)cc(O)c12
REMARK SMILES IDX 5 1 3 2 2 3 1 4 22 5 20 6 19 7 17 8 16 9 15 10 14 11 6 12
REMARK SMILES IDX 8 13 7 14 9 15 11 16 12 17 10 18 13 20 4 22 21 24 18 26
REMARK H PARENT 10 19 13 21 4 23 21 25 18 27
REMARK Flexibility Score: inf
ROOT
ATOM      1  C   UNL     1      48.388 -25.971  18.884  1.00  0.00     0.184 A 
ATOM      2  C   UNL     1      49.166 -27.100  18.588  1.00  0.00     0.208 A 
ATOM      3  C   UNL     1      48.523 -28.317  18.314  1.00  0.00     0.238 A 
ATOM      4  O   UNL     1      49.225 -29.311  17.989  1.00  0.00    -0.285 OA
ATOM      5  C   UNL     1      47.109 -28.394  18.366  1.00  0.00     0.111 A 
ATOM      6  C   UNL     1      46.353 -29.583  18.145  1.00  0.00     0.134 A 
ATOM      7  C   UNL     1      44.956 -29.515  18.102  1.00  0.00     0.093 A 
ATOM      8  C   UNL     1      44.285 -28.316  18.336  1.00  0.00     0.123 A 
ATOM      9  C   UNL     1      45.012 -27.157  18.611  1.00  0.00     0.094 A 
ATOM     10  C   UNL     1      46.409 -27.185  18.624  1.00  0.00     0.146 A 
ATOM     11  O   UNL     1      47.064 -26.059  18.877  1.00  0.00    -0.451 OA
ENDROOT
BRANCH   1  12
ATOM     12  C   UNL     1      49.012 -24.669  19.205  1.00  0.00     0.063 A 
ATOM     13  C   UNL     1      50.460 -22.831  18.538  1.00  0.00     0.047 A 
ATOM     14  C   UNL     1      49.814 -24.033  18.242  1.00  0.00     0.020 A 
ATOM     15  C   UNL     1      50.320 -22.250  19.800  1.00  0.00     0.119 A 
ATOM     16  C   UNL     1      49.525 -22.875  20.768  1.00  0.00     0.093 A 
ATOM     17  C   UNL     1      48.863 -24.075  20.480  1.00  0.00     0.130 A 
BRANCH  15  18
ATOM     18  O   UNL     1      50.975 -21.054  20.083  1.00  0.00    -0.508 OA
ATOM     19  H   UNL     1      51.983 -20.974  20.028  1.00  0.00     0.293 HD
ENDBRANCH  15  18
BRANCH  17  20
ATOM     20  O   UNL     1      48.053 -24.636  21.471  1.00  0.00    -0.507 OA
ATOM     21  H   UNL     1      47.804 -25.616  21.491  1.00  0.00     0.293 HD
ENDBRANCH  17  20
ENDBRANCH   1  12
BRANCH   2  22
ATOM     22  O   UNL     1      50.559 -26.996  18.547  1.00  0.00    -0.502 OA
ATOM     23  H   UNL     1      51.111 -27.389  17.794  1.00  0.00     0.293 HD
ENDBRANCH   2  22
BRANCH   6  24
ATOM     24  O   UNL     1      46.921 -30.852  17.989  1.00  0.00    -0.507 OA
ATOM     25  H   UNL     1      46.819 -31.432  17.171  1.00  0.00     0.293 HD
ENDBRANCH   6  24
BRANCH   8  26
ATOM     26  O   UNL     1      42.893 -28.288  18.301  1.00  0.00    -0.508 OA
ATOM     27  H   UNL     1      42.339 -29.097  18.559  1.00  0.00     0.293 HD
ENDBRANCH   8  26
TORSDOF 6
ENDMDL
MODEL 7
REMARK VINA RESULT:    -6.070      2.875      7.197
REMARK INTER + INTRA:          -7.726
REMARK INTER:                  -7.490
REMARK INTRA:                  -0.236
REMARK UNBOUND:                -0.414
REMARK SMILES O=c1c(O)c(-c2ccc(O)cc2O)oc2cc(O)cc(O)c12
REMARK SMILES IDX 5 1 3 2 2 3 1 4 22 5 20 6 19 7 17 8 16 9 15 10 14 11 6 12
REMARK SMILES IDX 8 13 7 14 9 15 11 16 12 17 10 18 13 20 4 22 21 24 18 26
REMARK H PARENT 10 19 13 21 4 23 21 25 18 27
REMARK Flexibility Score: inf
ROOT
ATOM      1  C   UNL     1      47.917 -25.862  19.183  1.00  0.00     0.184 A 
ATOM      2  C   UNL     1      47.053 -25.982  18.085  1.00  0.00     0.208 A 
ATOM      3  C   UNL     1      46.371 -27.192  17.885  1.00  0.00     0.238 A 
ATOM      4  O   UNL     1      45.550 -27.273  16.933  1.00  0.00    -0.285 OA
ATOM      5  C   UNL     1      46.585 -28.277  18.771  1.00  0.00     0.111 A 
ATOM      6  C   UNL     1      45.979 -29.562  18.642  1.00  0.00     0.134 A 
ATOM      7  C   UNL     1      46.169 -30.519  19.646  1.00  0.00     0.093 A 
ATOM      8  C   UNL     1      46.994 -30.262  20.740  1.00  0.00     0.123 A 
ATOM      9  C   UNL     1      47.639 -29.029  20.847  1.00  0.00     0.094 A 
ATOM     10  C   UNL     1      47.440 -28.040  19.881  1.00  0.00     0.146 A 
ATOM     11  O   UNL     1      48.061 -26.877  20.027  1.00  0.00    -0.451 OA
ENDROOT
BRANCH   1  12
ATOM     12  C   UNL     1      48.680 -24.620  19.430  1.00  0.00     0.063 A 
ATOM     13  C   UNL     1      50.246 -22.940  18.624  1.00  0.00     0.047 A 
ATOM     14  C   UNL     1      49.472 -24.081  18.401  1.00  0.00     0.020 A 
ATOM     15  C   UNL     1      50.246 -22.325  19.877  1.00  0.00     0.119 A 
ATOM     16  C   UNL     1      49.463 -22.853  20.911  1.00  0.00     0.093 A 
ATOM     17  C   UNL     1      48.674 -23.990  20.697  1.00  0.00     0.130 A 
BRANCH  15  18
ATOM     18  O   UNL     1      51.027 -21.191  20.087  1.00  0.00    -0.508 OA
ATOM     19  H   UNL     1      50.937 -20.369  19.501  1.00  0.00     0.293 HD
ENDBRANCH  15  18
BRANCH  17  20
ATOM     20  O   UNL     1      47.884 -24.453  21.752  1.00  0.00    -0.507 OA
ATOM     21  H   UNL     1      46.955 -24.099  21.942  1.00  0.00     0.293 HD
ENDBRANCH  17  20
ENDBRANCH   1  12
BRANCH   2  22
ATOM     22  O   UNL     1      46.863 -24.898  17.224  1.00  0.00    -0.502 OA
ATOM     23  H   UNL     1      46.052 -24.817  16.623  1.00  0.00     0.293 HD
ENDBRANCH   2  22
BRANCH   6  24
ATOM     24  O   UNL     1      45.208 -29.955  17.544  1.00  0.00    -0.507 OA
ATOM     25  H   UNL     1      44.223 -29.768  17.435  1.00  0.00     0.293 HD
ENDBRANCH   6  24
BRANCH   8  26
ATOM     26  O   UNL     1      47.173 -31.243  21.712  1.00  0.00    -0.508 OA
ATOM     27  H   UNL     1      47.748 -32.060  21.542  1.00  0.00     0.293 HD
ENDBRANCH   8  26
TORSDOF 6
ENDMDL
MODEL 8
REMARK VINA RESULT:    -6.064      1.969      3.486
REMARK INTER + INTRA:          -7.719
REMARK INTER:                  -7.360
REMARK INTRA:                  -0.359
REMARK UNBOUND:                -0.414
REMARK SMILES O=c1c(O)c(-c2ccc(O)cc2O)oc2cc(O)cc(O)c12
REMARK SMILES IDX 5 1 3 2 2 3 1 4 22 5 20 6 19 7 17 8 16 9 15 10 14 11 6 12
REMARK SMILES IDX 8 13 7 14 9 15 11 16 12 17 10 18 13 20 4 22 21 24 18 26
REMARK H PARENT 10 19 13 21 4 23 21 25 18 27
REMARK Flexibility Score: inf
ROOT
ATOM      1  C   UNL     1      46.724 -27.699  18.374  1.00  0.00     0.184 A 
ATOM      2  C   UNL     1      47.358 -27.670  17.123  1.00  0.00     0.208 A 
ATOM      3  C   UNL     1      48.276 -26.645  16.848  1.00  0.00     0.238 A 
ATOM      4  O   UNL     1      48.887 -26.660  15.747  1.00  0.00    -0.285 OA
ATOM      5  C   UNL     1      48.527 -25.644  17.819  1.00  0.00     0.111 A 
ATOM      6  C   UNL     1      49.406 -24.536  17.634  1.00  0.00     0.134 A 
ATOM      7  C   UNL     1      49.670 -23.677  18.708  1.00  0.00     0.093 A 
ATOM      8  C   UNL     1      49.038 -23.846  19.938  1.00  0.00     0.123 A 
ATOM      9  C   UNL     1      48.131 -24.893  20.114  1.00  0.00     0.094 A 
ATOM     10  C   UNL     1      47.875 -25.789  19.073  1.00  0.00     0.146 A 
ATOM     11  O   UNL     1      47.015 -26.778  19.285  1.00  0.00    -0.451 OA
ENDROOT
BRANCH   1  12
ATOM     12  C   UNL     1      45.731 -28.741  18.710  1.00  0.00     0.063 A 
ATOM     13  C   UNL     1      43.547 -29.742  18.321  1.00  0.00     0.047 A 
ATOM     14  C   UNL     1      44.526 -28.803  17.988  1.00  0.00     0.020 A 
ATOM     15  C   UNL     1      43.753 -30.626  19.382  1.00  0.00     0.119 A 
ATOM     16  C   UNL     1      44.948 -30.572  20.110  1.00  0.00     0.093 A 
ATOM     17  C   UNL     1      45.942 -29.643  19.779  1.00  0.00     0.130 A 
BRANCH  15  18
ATOM     18  O   UNL     1      42.766 -31.553  19.706  1.00  0.00    -0.508 OA
ATOM     19  H   UNL     1      42.269 -32.071  18.992  1.00  0.00     0.293 HD
ENDBRANCH  15  18
BRANCH  17  20
ATOM     20  O   UNL     1      47.130 -29.658  20.515  1.00  0.00    -0.507 OA
ATOM     21  H   UNL     1      47.178 -29.959  21.480  1.00  0.00     0.293 HD
ENDBRANCH  17  20
ENDBRANCH   1  12
BRANCH   2  22
ATOM     22  O   UNL     1      47.089 -28.668  16.182  1.00  0.00    -0.502 OA
ATOM     23  H   UNL     1      46.220 -29.190  16.177  1.00  0.00     0.293 HD
ENDBRANCH   2  22
BRANCH   6  24
ATOM     24  O   UNL     1      50.022 -24.222  16.419  1.00  0.00    -0.507 OA
ATOM     25  H   UNL     1      49.721 -24.558  15.517  1.00  0.00     0.293 HD
ENDBRANCH   6  24
BRANCH   8  26
ATOM     26  O   UNL     1      49.312 -22.963  20.980  1.00  0.00    -0.508 OA
ATOM     27  H   UNL     1      49.799 -22.089  20.820  1.00  0.00     0.293 HD
ENDBRANCH   8  26
TORSDOF 6
ENDMDL
MODEL 9
REMARK VINA RESULT:    -6.029      4.307      6.037
REMARK INTER + INTRA:          -7.677
REMARK INTER:                  -7.286
REMARK INTRA:                  -0.390
REMARK UNBOUND:                -0.414
REMARK SMILES O=c1c(O)c(-c2ccc(O)cc2O)oc2cc(O)cc(O)c12
REMARK SMILES IDX 5 1 3 2 2 3 1 4 22 5 20 6 19 7 17 8 16 9 15 10 14 11 6 12
REMARK SMILES IDX 8 13 7 14 9 15 11 16 12 17 10 18 13 20 4 22 21 24 18 26
REMARK H PARENT 10 19 13 21 4 23 21 25 18 27
REMARK Flexibility Score: inf
ROOT
ATOM      1  C   UNL     1      48.843 -25.508  17.886  1.00  0.00     0.184 A 
ATOM      2  C   UNL     1      49.789 -26.533  17.727  1.00  0.00     0.208 A 
ATOM      3  C   UNL     1      49.597 -27.485  16.714  1.00  0.00     0.238 A 
ATOM      4  O   UNL     1      50.481 -28.365  16.537  1.00  0.00    -0.285 OA
ATOM      5  C   UNL     1      48.446 -27.416  15.891  1.00  0.00     0.111 A 
ATOM      6  C   UNL     1      48.129 -28.350  14.860  1.00  0.00     0.134 A 
ATOM      7  C   UNL     1      47.027 -28.114  14.030  1.00  0.00     0.093 A 
ATOM      8  C   UNL     1      46.194 -27.015  14.232  1.00  0.00     0.123 A 
ATOM      9  C   UNL     1      46.461 -26.125  15.274  1.00  0.00     0.094 A 
ATOM     10  C   UNL     1      47.574 -26.314  16.097  1.00  0.00     0.146 A 
ATOM     11  O   UNL     1      47.800 -25.438  17.069  1.00  0.00    -0.451 OA
ENDROOT
BRANCH   1  12
ATOM     12  C   UNL     1      48.981 -24.492  18.951  1.00  0.00     0.063 A 
ATOM     13  C   UNL     1      49.947 -22.394  19.718  1.00  0.00     0.047 A 
ATOM     14  C   UNL     1      49.754 -23.343  18.711  1.00  0.00     0.020 A 
ATOM     15  C   UNL     1      49.378 -22.582  20.979  1.00  0.00     0.119 A 
ATOM     16  C   UNL     1      48.607 -23.724  21.230  1.00  0.00     0.093 A 
ATOM     17  C   UNL     1      48.397 -24.677  20.227  1.00  0.00     0.130 A 
BRANCH  15  18
ATOM     18  O   UNL     1      49.583 -21.631  21.975  1.00  0.00    -0.508 OA
ATOM     19  H   UNL     1      50.076 -20.765  21.789  1.00  0.00     0.293 HD
ENDBRANCH  15  18
BRANCH  17  20
ATOM     20  O   UNL     1      47.590 -25.779  20.521  1.00  0.00    -0.507 OA
ATOM     21  H   UNL     1      47.193 -25.943  21.437  1.00  0.00     0.293 HD
ENDBRANCH  17  20
ENDBRANCH   1  12
BRANCH   2  22
ATOM     22  O   UNL     1      50.913 -26.579  18.556  1.00  0.00    -0.502 OA
ATOM     23  H   UNL     1      51.655 -27.258  18.428  1.00  0.00     0.293 HD
ENDBRANCH   2  22
BRANCH   6  24
ATOM     24  O   UNL     1      48.842 -29.530  14.629  1.00  0.00    -0.507 OA
ATOM     25  H   UNL     1      49.286 -29.772  13.757  1.00  0.00     0.293 HD
ENDBRANCH   6  24
BRANCH   8  26
ATOM     26  O   UNL     1      45.097 -26.819  13.396  1.00  0.00    -0.508 OA
ATOM     27  H   UNL     1      44.249 -27.364  13.498  1.00  0.00     0.293 HD
ENDBRANCH   8  26
TORSDOF 6
ENDMDL
