MODEL 1
REMARK VINA RESULT:    -3.364      0.000      0.000
REMARK INTER + INTRA:          -3.601
REMARK INTER:                  -4.052
REMARK INTRA:                   0.452
REMARK UNBOUND:                 0.452
REMARK SMILES O=c1c(O)c(-c2ccc(O)c(O)c2)oc2cc(O)cc(O)c12
REMARK SMILES IDX 5 1 3 2 2 3 1 4 22 5 20 6 19 7 17 8 16 9 15 10 14 11 6 12
REMARK SMILES IDX 7 13 8 14 9 15 13 16 11 17 10 18 12 20 4 22 21 24 18 26
REMARK H PARENT 10 19 12 21 4 23 21 25 18 27
REMARK Flexibility Score: inf
ROOT
ATOM      1  C   UNL     1      72.240  40.781  20.273  1.00  0.00     0.180 A 
ATOM      2  C   UNL     1      73.124  40.763  19.181  1.00  0.00     0.208 A 
ATOM      3  C   UNL     1      74.507  40.733  19.425  1.00  0.00     0.238 A 
ATOM      4  O   UNL     1      75.292  40.663  18.444  1.00  0.00    -0.285 OA
ATOM      5  C   UNL     1      74.987  40.739  20.756  1.00  0.00     0.111 A 
ATOM      6  C   UNL     1      76.368  40.751  21.119  1.00  0.00     0.134 A 
ATOM      7  C   UNL     1      76.729  40.622  22.467  1.00  0.00     0.093 A 
ATOM      8  C   UNL     1      75.758  40.549  23.469  1.00  0.00     0.123 A 
ATOM      9  C   UNL     1      74.409  40.596  23.129  1.00  0.00     0.094 A 
ATOM     10  C   UNL     1      74.017  40.687  21.791  1.00  0.00     0.146 A 
ATOM     11  O   UNL     1      72.720  40.719  21.510  1.00  0.00    -0.452 OA
ENDROOT
BRANCH   1  12
ATOM     12  C   UNL     1      70.770  40.837  20.097  1.00  0.00     0.025 A 
ATOM     13  C   UNL     1      70.192  41.027  18.829  1.00  0.00     0.016 A 
ATOM     14  C   UNL     1      68.804  41.101  18.689  1.00  0.00     0.051 A 
ATOM     15  C   UNL     1      67.975  41.003  19.813  1.00  0.00     0.157 A 
ATOM     16  C   UNL     1      69.935  40.760  21.223  1.00  0.00     0.062 A 
ATOM     17  C   UNL     1      68.541  40.834  21.083  1.00  0.00     0.158 A 
BRANCH  15  18
ATOM     18  O   UNL     1      66.590  41.075  19.678  1.00  0.00    -0.504 OA
ATOM     19  H   UNL     1      65.999  41.390  20.438  1.00  0.00     0.293 HD
ENDBRANCH  15  18
BRANCH  17  20
ATOM     20  O   UNL     1      67.715  40.743  22.202  1.00  0.00    -0.504 OA
ATOM     21  H   UNL     1      66.772  40.379  22.136  1.00  0.00     0.293 HD
ENDBRANCH  17  20
ENDBRANCH   1  12
BRANCH   2  22
ATOM     22  O   UNL     1      72.628  40.737  17.875  1.00  0.00    -0.502 OA
ATOM     23  H   UNL     1      72.195  39.914  17.474  1.00  0.00     0.293 HD
ENDBRANCH   2  22
BRANCH   6  24
ATOM     24  O   UNL     1      77.414  40.912  20.206  1.00  0.00    -0.507 OA
ATOM     25  H   UNL     1      78.228  41.488  20.361  1.00  0.00     0.293 HD
ENDBRANCH   6  24
BRANCH   8  26
ATOM     26  O   UNL     1      76.126  40.437  24.807  1.00  0.00    -0.508 OA
ATOM     27  H   UNL     1      75.444  40.522  25.553  1.00  0.00     0.293 HD
ENDBRANCH   8  26
TORSDOF 6
ENDMDL
MODEL 2
REMARK VINA RESULT:    -2.235      1.997      7.118
REMARK INTER + INTRA:          -2.241
REMARK INTER:                  -1.912
REMARK INTRA:                  -0.329
REMARK UNBOUND:                 0.452
REMARK SMILES O=c1c(O)c(-c2ccc(O)c(O)c2)oc2cc(O)cc(O)c12
REMARK SMILES IDX 5 1 3 2 2 3 1 4 22 5 20 6 19 7 17 8 16 9 15 10 14 11 6 12
REMARK SMILES IDX 7 13 8 14 9 15 13 16 11 17 10 18 12 20 4 22 21 24 18 26
REMARK H PARENT 10 19 12 21 4 23 21 25 18 27
REMARK Flexibility Score: inf
ROOT
ATOM      1  C   UNL     1      72.785  40.157  20.074  1.00  0.00     0.180 A 
ATOM      2  C   UNL     1      72.514  40.033  21.447  1.00  0.00     0.208 A 
ATOM      3  C   UNL     1      71.195  40.207  21.898  1.00  0.00     0.238 A 
ATOM      4  O   UNL     1      70.948  40.040  23.122  1.00  0.00    -0.285 OA
ATOM      5  C   UNL     1      70.170  40.519  20.975  1.00  0.00     0.111 A 
ATOM      6  C   UNL     1      68.807  40.757  21.326  1.00  0.00     0.134 A 
ATOM      7  C   UNL     1      67.852  40.929  20.315  1.00  0.00     0.093 A 
ATOM      8  C   UNL     1      68.224  40.937  18.968  1.00  0.00     0.123 A 
ATOM      9  C   UNL     1      69.561  40.766  18.618  1.00  0.00     0.094 A 
ATOM     10  C   UNL     1      70.530  40.555  19.602  1.00  0.00     0.146 A 
ATOM     11  O   UNL     1      71.792  40.386  19.225  1.00  0.00    -0.452 OA
ENDROOT
BRANCH   1  12
ATOM     12  C   UNL     1      74.154  40.012  19.526  1.00  0.00     0.025 A 
ATOM     13  C   UNL     1      74.998  41.125  19.361  1.00  0.00     0.016 A 
ATOM     14  C   UNL     1      76.277  40.968  18.820  1.00  0.00     0.051 A 
ATOM     15  C   UNL     1      76.724  39.702  18.421  1.00  0.00     0.157 A 
ATOM     16  C   UNL     1      74.600  38.748  19.105  1.00  0.00     0.062 A 
ATOM     17  C   UNL     1      75.884  38.590  18.562  1.00  0.00     0.158 A 
BRANCH  15  18
ATOM     18  O   UNL     1      77.999  39.541  17.882  1.00  0.00    -0.504 OA
ATOM     19  H   UNL     1      78.710  40.256  17.981  1.00  0.00     0.293 HD
ENDBRANCH  15  18
BRANCH  17  20
ATOM     20  O   UNL     1      76.328  37.333  18.159  1.00  0.00    -0.504 OA
ATOM     21  H   UNL     1      77.287  37.176  17.872  1.00  0.00     0.293 HD
ENDBRANCH  17  20
ENDBRANCH   1  12
BRANCH   2  22
ATOM     22  O   UNL     1      73.537  39.702  22.340  1.00  0.00    -0.502 OA
ATOM     23  H   UNL     1      74.106  40.403  22.799  1.00  0.00     0.293 HD
ENDBRANCH   2  22
BRANCH   6  24
ATOM     24  O   UNL     1      68.347  40.859  22.642  1.00  0.00    -0.507 OA
ATOM     25  H   UNL     1      67.465  41.268  22.912  1.00  0.00     0.293 HD
ENDBRANCH   6  24
BRANCH   8  26
ATOM     26  O   UNL     1      67.271  41.125  17.970  1.00  0.00    -0.508 OA
ATOM     27  H   UNL     1      66.654  41.929  17.971  1.00  0.00     0.293 HD
ENDBRANCH   8  26
TORSDOF 6
ENDMDL
MODEL 3
REMARK VINA RESULT:    -2.103      1.232      2.866
REMARK INTER + INTRA:          -2.081
REMARK INTER:                  -2.625
REMARK INTRA:                   0.544
REMARK UNBOUND:                 0.452
REMARK SMILES O=c1c(O)c(-c2ccc(O)c(O)c2)oc2cc(O)cc(O)c12
REMARK SMILES IDX 5 1 3 2 2 3 1 4 22 5 20 6 19 7 17 8 16 9 15 10 14 11 6 12
REMARK SMILES IDX 7 13 8 14 9 15 13 16 11 17 10 18 12 20 4 22 21 24 18 26
REMARK H PARENT 10 19 12 21 4 23 21 25 18 27
REMARK Flexibility Score: inf
ROOT
ATOM      1  C   UNL     1      72.077  40.729  20.686  1.00  0.00     0.180 A 
ATOM      2  C   UNL     1      72.505  40.538  22.011  1.00  0.00     0.208 A 
ATOM      3  C   UNL     1      73.882  40.445  22.275  1.00  0.00     0.238 A 
ATOM      4  O   UNL     1      74.261  40.329  23.469  1.00  0.00    -0.285 OA
ATOM      5  C   UNL     1      74.810  40.527  21.211  1.00  0.00     0.111 A 
ATOM      6  C   UNL     1      76.225  40.405  21.357  1.00  0.00     0.134 A 
ATOM      7  C   UNL     1      77.057  40.633  20.253  1.00  0.00     0.093 A 
ATOM      8  C   UNL     1      76.520  40.914  18.994  1.00  0.00     0.123 A 
ATOM      9  C   UNL     1      75.140  40.976  18.828  1.00  0.00     0.094 A 
ATOM     10  C   UNL     1      74.285  40.789  19.918  1.00  0.00     0.146 A 
ATOM     11  O   UNL     1      72.975  40.867  19.718  1.00  0.00    -0.452 OA
ENDROOT
BRANCH   1  12
ATOM     12  C   UNL     1      70.643  40.811  20.326  1.00  0.00     0.025 A 
ATOM     13  C   UNL     1      70.231  40.969  18.990  1.00  0.00     0.016 A 
ATOM     14  C   UNL     1      68.873  41.068  18.676  1.00  0.00     0.051 A 
ATOM     15  C   UNL     1      67.909  41.027  19.692  1.00  0.00     0.157 A 
ATOM     16  C   UNL     1      69.673  40.791  21.342  1.00  0.00     0.062 A 
ATOM     17  C   UNL     1      68.309  40.891  21.027  1.00  0.00     0.158 A 
BRANCH  15  18
ATOM     18  O   UNL     1      66.554  41.125  19.382  1.00  0.00    -0.504 OA
ATOM     19  H   UNL     1      66.137  40.567  18.646  1.00  0.00     0.293 HD
ENDBRANCH  15  18
BRANCH  17  20
ATOM     20  O   UNL     1      67.349  40.857  22.036  1.00  0.00    -0.504 OA
ATOM     21  H   UNL     1      66.673  41.602  22.150  1.00  0.00     0.293 HD
ENDBRANCH  17  20
ENDBRANCH   1  12
BRANCH   2  22
ATOM     22  O   UNL     1      71.573  40.481  23.050  1.00  0.00    -0.502 OA
ATOM     23  H   UNL     1      70.573  40.479  22.885  1.00  0.00     0.293 HD
ENDBRANCH   2  22
BRANCH   6  24
ATOM     24  O   UNL     1      76.857  40.038  22.549  1.00  0.00    -0.507 OA
ATOM     25  H   UNL     1      77.300  39.147  22.714  1.00  0.00     0.293 HD
ENDBRANCH   6  24
BRANCH   8  26
ATOM     26  O   UNL     1      77.354  41.124  17.898  1.00  0.00    -0.508 OA
ATOM     27  H   UNL     1      76.984  41.401  16.996  1.00  0.00     0.293 HD
ENDBRANCH   8  26
TORSDOF 6
ENDMDL
MODEL 4
REMARK VINA RESULT:    -0.469      0.974      1.629
REMARK INTER + INTRA:          -0.114
REMARK INTER:                  -0.648
REMARK INTRA:                   0.534
REMARK UNBOUND:                 0.452
REMARK SMILES O=c1c(O)c(-c2ccc(O)c(O)c2)oc2cc(O)cc(O)c12
REMARK SMILES IDX 5 1 3 2 2 3 1 4 22 5 20 6 19 7 17 8 16 9 15 10 14 11 6 12
REMARK SMILES IDX 7 13 8 14 9 15 13 16 11 17 10 18 12 20 4 22 21 24 18 26
REMARK H PARENT 10 19 12 21 4 23 21 25 18 27
REMARK Flexibility Score: inf
ROOT
ATOM      1  C   UNL     1      72.250  40.746  21.084  1.00  0.00     0.180 A 
ATOM      2  C   UNL     1      73.187  40.932  20.054  1.00  0.00     0.208 A 
ATOM      3  C   UNL     1      74.556  40.881  20.362  1.00  0.00     0.238 A 
ATOM      4  O   UNL     1      75.391  40.993  19.426  1.00  0.00    -0.285 OA
ATOM      5  C   UNL     1      74.970  40.663  21.697  1.00  0.00     0.111 A 
ATOM      6  C   UNL     1      76.330  40.633  22.129  1.00  0.00     0.134 A 
ATOM      7  C   UNL     1      76.628  40.279  23.452  1.00  0.00     0.093 A 
ATOM      8  C   UNL     1      75.610  40.018  24.373  1.00  0.00     0.123 A 
ATOM      9  C   UNL     1      74.279  40.103  23.976  1.00  0.00     0.094 A 
ATOM     10  C   UNL     1      73.951  40.418  22.654  1.00  0.00     0.146 A 
ATOM     11  O   UNL     1      72.669  40.479  22.315  1.00  0.00    -0.452 OA
ENDROOT
BRANCH   1  12
ATOM     12  C   UNL     1      70.790  40.810  20.843  1.00  0.00     0.025 A 
ATOM     13  C   UNL     1      69.868  40.738  21.902  1.00  0.00     0.016 A 
ATOM     14  C   UNL     1      68.494  40.776  21.649  1.00  0.00     0.051 A 
ATOM     15  C   UNL     1      68.022  40.872  20.333  1.00  0.00     0.157 A 
ATOM     16  C   UNL     1      70.310  40.885  19.524  1.00  0.00     0.062 A 
ATOM     17  C   UNL     1      68.931  40.924  19.269  1.00  0.00     0.158 A 
BRANCH  15  18
ATOM     18  O   UNL     1      66.653  40.912  20.076  1.00  0.00    -0.504 OA
ATOM     19  H   UNL     1      65.975  40.975  20.826  1.00  0.00     0.293 HD
ENDBRANCH  15  18
BRANCH  17  20
ATOM     20  O   UNL     1      68.459  41.012  17.961  1.00  0.00    -0.504 OA
ATOM     21  H   UNL     1      67.655  40.480  17.651  1.00  0.00     0.293 HD
ENDBRANCH  17  20
ENDBRANCH   1  12
BRANCH   2  22
ATOM     22  O   UNL     1      72.756  41.124  18.738  1.00  0.00    -0.502 OA
ATOM     23  H   UNL     1      72.151  40.467  18.262  1.00  0.00     0.293 HD
ENDBRANCH   2  22
BRANCH   6  24
ATOM     24  O   UNL     1      77.416  40.966  21.314  1.00  0.00    -0.507 OA
ATOM     25  H   UNL     1      78.066  40.301  20.923  1.00  0.00     0.293 HD
ENDBRANCH   6  24
BRANCH   8  26
ATOM     26  O   UNL     1      75.914  39.682  25.690  1.00  0.00    -0.508 OA
ATOM     27  H   UNL     1      75.440  40.120  26.472  1.00  0.00     0.293 HD
ENDBRANCH   8  26
TORSDOF 6
ENDMDL
