MODEL 1
REMARK VINA RESULT:    11.897      0.000      0.000
REMARK INTER + INTRA:          26.038
REMARK INTER:                  27.198
REMARK INTRA:                  -1.160
REMARK UNBOUND:                -1.160
REMARK SMILES CCCCCCCCCCCCCCCCCCCCCCCC(=O)[O-]
REMARK SMILES IDX 13 1 14 2 15 3 16 4 17 5 18 6 19 7 20 8 21 9 22 10 23 11
REMARK SMILES IDX 24 12 25 13 26 14 12 15 11 16 10 17 9 18 8 19 7 20 6 21 5 22
REMARK SMILES IDX 4 23 3 24 2 25 1 26
REMARK H PARENT
REMARK Flexibility Score: inf
ROOT
ATOM      1  C   UNL     1      12.917  36.249  47.401  1.00  0.00     0.000 C 
ENDROOT
BRANCH   1   2
ATOM      2  C   UNL     1      13.933  35.293  48.047  1.00  0.00     0.000 C 
BRANCH   2   3
ATOM      3  C   UNL     1      14.921  36.025  48.973  1.00  0.00     0.000 C 
BRANCH   3   4
ATOM      4  C   UNL     1      15.632  35.060  49.945  1.00  0.00     0.000 C 
BRANCH   4   5
ATOM      5  C   UNL     1      15.460  33.576  49.575  1.00  0.00     0.000 C 
BRANCH   5   6
ATOM      6  C   UNL     1      15.537  32.643  50.795  1.00  0.00     0.000 C 
BRANCH   6   7
ATOM      7  C   UNL     1      15.218  31.175  50.456  1.00  0.00     0.000 C 
BRANCH   7   8
ATOM      8  C   UNL     1      13.720  30.815  50.443  1.00  0.00     0.000 C 
BRANCH   8   9
ATOM      9  C   UNL     1      13.345  29.844  49.311  1.00  0.00     0.000 C 
BRANCH   9  10
ATOM     10  C   UNL     1      13.050  28.426  49.821  1.00  0.00     0.006 C 
BRANCH  10  11
ATOM     11  C   UNL     1      14.095  27.933  50.831  1.00  0.00     0.053 C 
BRANCH  11  12
ATOM     12  C   UNL     1      13.465  27.705  52.168  1.00  0.00     0.041 C 
ATOM     13  O   UNL     1      13.158  28.683  52.899  1.00  0.00    -0.550 OA
ATOM     14  O   UNL     1      13.250  26.409  52.624  1.00  0.00    -0.550 OA
ENDBRANCH  11  12
ENDBRANCH  10  11
ENDBRANCH   9  10
ENDBRANCH   8   9
ENDBRANCH   7   8
ENDBRANCH   6   7
ENDBRANCH   5   6
ENDBRANCH   4   5
ENDBRANCH   3   4
ENDBRANCH   2   3
ENDBRANCH   1   2
BRANCH   1  15
ATOM     15  C   UNL     1      13.201  37.723  47.737  1.00  0.00     0.000 C 
BRANCH  15  16
ATOM     16  C   UNL     1      13.571  38.559  46.499  1.00  0.00     0.000 C 
BRANCH  16  17
ATOM     17  C   UNL     1      14.244  39.911  46.802  1.00  0.00     0.000 C 
BRANCH  17  18
ATOM     18  C   UNL     1      15.675  39.759  47.344  1.00  0.00    -0.000 C 
BRANCH  18  19
ATOM     19  C   UNL     1      16.330  38.424  46.949  1.00  0.00    -0.000 C 
BRANCH  19  20
ATOM     20  C   UNL     1      17.708  38.540  46.265  1.00  0.00    -0.000 C 
BRANCH  20  21
ATOM     21  C   UNL     1      18.898  38.757  47.216  1.00  0.00    -0.000 C 
BRANCH  21  22
ATOM     22  C   UNL     1      20.083  37.827  46.916  1.00  0.00    -0.000 C 
BRANCH  22  23
ATOM     23  C   UNL     1      19.595  36.462  46.406  1.00  0.00    -0.000 C 
BRANCH  23  24
ATOM     24  C   UNL     1      20.132  36.136  44.997  1.00  0.00    -0.000 C 
BRANCH  24  25
ATOM     25  C   UNL     1      20.846  34.777  44.909  1.00  0.00    -0.003 C 
ATOM     26  C   UNL     1      21.330  34.447  43.498  1.00  0.00     0.004 C 
ENDBRANCH  24  25
ENDBRANCH  23  24
ENDBRANCH  22  23
ENDBRANCH  21  22
ENDBRANCH  20  21
ENDBRANCH  19  20
ENDBRANCH  18  19
ENDBRANCH  17  18
ENDBRANCH  16  17
ENDBRANCH  15  16
ENDBRANCH   1  15
TORSDOF 22
ENDMDL
MODEL 2
REMARK VINA RESULT:    11.901      1.390      1.624
REMARK INTER + INTRA:          26.047
REMARK INTER:                  27.099
REMARK INTRA:                  -1.052
REMARK UNBOUND:                -1.160
REMARK SMILES CCCCCCCCCCCCCCCCCCCCCCCC(=O)[O-]
REMARK SMILES IDX 13 1 14 2 15 3 16 4 17 5 18 6 19 7 20 8 21 9 22 10 23 11
REMARK SMILES IDX 24 12 25 13 26 14 12 15 11 16 10 17 9 18 8 19 7 20 6 21 5 22
REMARK SMILES IDX 4 23 3 24 2 25 1 26
REMARK H PARENT
REMARK Flexibility Score: inf
ROOT
ATOM      1  C   UNL     1      13.097  36.400  47.397  1.00  0.00     0.000 C 
ENDROOT
BRANCH   1   2
ATOM      2  C   UNL     1      13.835  35.301  48.178  1.00  0.00     0.000 C 
BRANCH   2   3
ATOM      3  C   UNL     1      15.221  35.759  48.668  1.00  0.00     0.000 C 
BRANCH   3   4
ATOM      4  C   UNL     1      15.581  35.156  50.043  1.00  0.00     0.000 C 
BRANCH   4   5
ATOM      5  C   UNL     1      15.081  33.712  50.232  1.00  0.00     0.000 C 
BRANCH   5   6
ATOM      6  C   UNL     1      16.226  32.705  50.427  1.00  0.00     0.000 C 
BRANCH   6   7
ATOM      7  C   UNL     1      15.740  31.316  50.883  1.00  0.00     0.000 C 
BRANCH   7   8
ATOM      8  C   UNL     1      14.306  30.951  50.453  1.00  0.00     0.000 C 
BRANCH   8   9
ATOM      9  C   UNL     1      13.646  29.917  51.381  1.00  0.00     0.000 C 
BRANCH   9  10
ATOM     10  C   UNL     1      13.399  28.569  50.685  1.00  0.00     0.006 C 
BRANCH  10  11
ATOM     11  C   UNL     1      13.009  28.730  49.209  1.00  0.00     0.053 C 
BRANCH  11  12
ATOM     12  C   UNL     1      12.236  27.539  48.739  1.00  0.00     0.041 C 
ATOM     13  O   UNL     1      11.006  27.640  48.492  1.00  0.00    -0.550 OA
ATOM     14  O   UNL     1      12.866  26.307  48.609  1.00  0.00    -0.550 OA
ENDBRANCH  11  12
ENDBRANCH  10  11
ENDBRANCH   9  10
ENDBRANCH   8   9
ENDBRANCH   7   8
ENDBRANCH   6   7
ENDBRANCH   5   6
ENDBRANCH   4   5
ENDBRANCH   3   4
ENDBRANCH   2   3
ENDBRANCH   1   2
BRANCH   1  15
ATOM     15  C   UNL     1      13.552  37.814  47.799  1.00  0.00     0.000 C 
BRANCH  15  16
ATOM     16  C   UNL     1      13.462  38.824  46.640  1.00  0.00     0.000 C 
BRANCH  16  17
ATOM     17  C   UNL     1      14.400  40.039  46.760  1.00  0.00     0.000 C 
BRANCH  17  18
ATOM     18  C   UNL     1      15.816  39.659  47.224  1.00  0.00    -0.000 C 
BRANCH  18  19
ATOM     19  C   UNL     1      16.293  38.309  46.660  1.00  0.00    -0.000 C 
BRANCH  19  20
ATOM     20  C   UNL     1      17.585  38.363  45.819  1.00  0.00    -0.000 C 
BRANCH  20  21
ATOM     21  C   UNL     1      18.828  38.894  46.556  1.00  0.00    -0.000 C 
BRANCH  21  22
ATOM     22  C   UNL     1      19.737  37.774  47.081  1.00  0.00    -0.000 C 
BRANCH  22  23
ATOM     23  C   UNL     1      19.500  36.466  46.310  1.00  0.00    -0.000 C 
BRANCH  23  24
ATOM     24  C   UNL     1      20.618  36.178  45.287  1.00  0.00    -0.000 C 
BRANCH  24  25
ATOM     25  C   UNL     1      20.611  34.735  44.756  1.00  0.00    -0.003 C 
ATOM     26  C   UNL     1      21.273  34.598  43.386  1.00  0.00     0.004 C 
ENDBRANCH  24  25
ENDBRANCH  23  24
ENDBRANCH  22  23
ENDBRANCH  21  22
ENDBRANCH  20  21
ENDBRANCH  19  20
ENDBRANCH  18  19
ENDBRANCH  17  18
ENDBRANCH  16  17
ENDBRANCH  15  16
ENDBRANCH   1  15
TORSDOF 22
ENDMDL
MODEL 3
REMARK VINA RESULT:    12.083      1.546      2.076
REMARK INTER + INTRA:          26.463
REMARK INTER:                  27.688
REMARK INTRA:                  -1.225
REMARK UNBOUND:                -1.160
REMARK SMILES CCCCCCCCCCCCCCCCCCCCCCCC(=O)[O-]
REMARK SMILES IDX 13 1 14 2 15 3 16 4 17 5 18 6 19 7 20 8 21 9 22 10 23 11
REMARK SMILES IDX 24 12 25 13 26 14 12 15 11 16 10 17 9 18 8 19 7 20 6 21 5 22
REMARK SMILES IDX 4 23 3 24 2 25 1 26
REMARK H PARENT
REMARK Flexibility Score: inf
ROOT
ATOM      1  C   UNL     1      14.025  35.335  48.205  1.00  0.00     0.000 C 
ENDROOT
BRANCH   1   2
ATOM      2  C   UNL     1      15.211  35.916  48.991  1.00  0.00     0.000 C 
BRANCH   2   3
ATOM      3  C   UNL     1      15.697  34.971  50.104  1.00  0.00     0.000 C 
BRANCH   3   4
ATOM      4  C   UNL     1      15.193  33.525  49.902  1.00  0.00     0.000 C 
BRANCH   4   5
ATOM      5  C   UNL     1      16.164  32.455  50.430  1.00  0.00     0.000 C 
BRANCH   5   6
ATOM      6  C   UNL     1      15.486  31.443  51.368  1.00  0.00     0.000 C 
BRANCH   6   7
ATOM      7  C   UNL     1      14.457  30.548  50.651  1.00  0.00     0.000 C 
BRANCH   7   8
ATOM      8  C   UNL     1      13.524  29.748  51.580  1.00  0.00     0.000 C 
BRANCH   8   9
ATOM      9  C   UNL     1      13.322  28.294  51.121  1.00  0.00     0.000 C 
BRANCH   9  10
ATOM     10  C   UNL     1      13.735  28.072  49.658  1.00  0.00     0.006 C 
BRANCH  10  11
ATOM     11  C   UNL     1      12.636  28.480  48.667  1.00  0.00     0.053 C 
BRANCH  11  12
ATOM     12  C   UNL     1      11.610  27.398  48.547  1.00  0.00     0.041 C 
ATOM     13  O   UNL     1      11.958  26.188  48.582  1.00  0.00    -0.550 OA
ATOM     14  O   UNL     1      10.272  27.725  48.361  1.00  0.00    -0.550 OA
ENDBRANCH  11  12
ENDBRANCH  10  11
ENDBRANCH   9  10
ENDBRANCH   8   9
ENDBRANCH   7   8
ENDBRANCH   6   7
ENDBRANCH   5   6
ENDBRANCH   4   5
ENDBRANCH   3   4
ENDBRANCH   2   3
ENDBRANCH   1   2
BRANCH   1  15
ATOM     15  C   UNL     1      13.168  36.427  47.541  1.00  0.00     0.000 C 
BRANCH  15  16
ATOM     16  C   UNL     1      13.697  37.848  47.808  1.00  0.00     0.000 C 
BRANCH  16  17
ATOM     17  C   UNL     1      13.721  38.776  46.579  1.00  0.00     0.000 C 
BRANCH  17  18
ATOM     18  C   UNL     1      15.113  39.370  46.304  1.00  0.00    -0.000 C 
BRANCH  18  19
ATOM     19  C   UNL     1      16.246  38.597  47.000  1.00  0.00    -0.000 C 
BRANCH  19  20
ATOM     20  C   UNL     1      17.600  38.598  46.259  1.00  0.00    -0.000 C 
BRANCH  20  21
ATOM     21  C   UNL     1      18.816  38.998  47.113  1.00  0.00    -0.000 C 
BRANCH  21  22
ATOM     22  C   UNL     1      20.086  38.216  46.750  1.00  0.00    -0.000 C 
BRANCH  22  23
ATOM     23  C   UNL     1      19.811  36.704  46.720  1.00  0.00    -0.000 C 
BRANCH  23  24
ATOM     24  C   UNL     1      19.845  36.130  45.289  1.00  0.00    -0.000 C 
BRANCH  24  25
ATOM     25  C   UNL     1      20.739  34.888  45.143  1.00  0.00    -0.003 C 
ATOM     26  C   UNL     1      21.267  34.693  43.723  1.00  0.00     0.004 C 
ENDBRANCH  24  25
ENDBRANCH  23  24
ENDBRANCH  22  23
ENDBRANCH  21  22
ENDBRANCH  20  21
ENDBRANCH  19  20
ENDBRANCH  18  19
ENDBRANCH  17  18
ENDBRANCH  16  17
ENDBRANCH  15  16
ENDBRANCH   1  15
TORSDOF 22
ENDMDL
MODEL 4
REMARK VINA RESULT:    12.452      3.809      9.136
REMARK INTER + INTRA:          27.306
REMARK INTER:                  28.085
REMARK INTRA:                  -0.779
REMARK UNBOUND:                -1.160
REMARK SMILES CCCCCCCCCCCCCCCCCCCCCCCC(=O)[O-]
REMARK SMILES IDX 13 1 14 2 15 3 16 4 17 5 18 6 19 7 20 8 21 9 22 10 23 11
REMARK SMILES IDX 24 12 25 13 26 14 12 15 11 16 10 17 9 18 8 19 7 20 6 21 5 22
REMARK SMILES IDX 4 23 3 24 2 25 1 26
REMARK H PARENT
REMARK Flexibility Score: inf
ROOT
ATOM      1  C   UNL     1      14.344  38.714  48.021  1.00  0.00     0.000 C 
ENDROOT
BRANCH   1   2
ATOM      2  C   UNL     1      14.296  40.003  47.186  1.00  0.00     0.000 C 
BRANCH   2   3
ATOM      3  C   UNL     1      14.502  39.737  45.683  1.00  0.00     0.000 C 
BRANCH   3   4
ATOM      4  C   UNL     1      15.971  39.404  45.347  1.00  0.00     0.000 C 
BRANCH   4   5
ATOM      5  C   UNL     1      16.483  38.121  46.028  1.00  0.00     0.000 C 
BRANCH   5   6
ATOM      6  C   UNL     1      17.563  38.397  47.087  1.00  0.00     0.000 C 
BRANCH   6   7
ATOM      7  C   UNL     1      18.783  39.152  46.525  1.00  0.00     0.000 C 
BRANCH   7   8
ATOM      8  C   UNL     1      20.147  38.493  46.804  1.00  0.00     0.000 C 
BRANCH   8   9
ATOM      9  C   UNL     1      20.024  37.044  47.304  1.00  0.00     0.000 C 
BRANCH   9  10
ATOM     10  C   UNL     1      19.715  36.052  46.172  1.00  0.00     0.006 C 
BRANCH  10  11
ATOM     11  C   UNL     1      20.579  36.291  44.926  1.00  0.00     0.053 C 
BRANCH  11  12
ATOM     12  C   UNL     1      20.933  34.991  44.276  1.00  0.00     0.041 C 
ATOM     13  O   UNL     1      20.907  33.923  44.941  1.00  0.00    -0.550 OA
ATOM     14  O   UNL     1      21.327  34.964  42.943  1.00  0.00    -0.550 OA
ENDBRANCH  11  12
ENDBRANCH  10  11
ENDBRANCH   9  10
ENDBRANCH   8   9
ENDBRANCH   7   8
ENDBRANCH   6   7
ENDBRANCH   5   6
ENDBRANCH   4   5
ENDBRANCH   3   4
ENDBRANCH   2   3
ENDBRANCH   1   2
BRANCH   1  15
ATOM     15  C   UNL     1      13.500  37.584  47.407  1.00  0.00     0.000 C 
BRANCH  15  16
ATOM     16  C   UNL     1      13.582  36.271  48.208  1.00  0.00     0.000 C 
BRANCH  16  17
ATOM     17  C   UNL     1      15.008  35.815  48.567  1.00  0.00     0.000 C 
BRANCH  17  18
ATOM     18  C   UNL     1      15.075  35.049  49.898  1.00  0.00    -0.000 C 
BRANCH  18  19
ATOM     19  C   UNL     1      15.606  33.613  49.741  1.00  0.00    -0.000 C 
BRANCH  19  20
ATOM     20  C   UNL     1      15.425  32.701  50.972  1.00  0.00    -0.000 C 
BRANCH  20  21
ATOM     21  C   UNL     1      15.464  31.190  50.683  1.00  0.00    -0.000 C 
BRANCH  21  22
ATOM     22  C   UNL     1      14.071  30.590  50.447  1.00  0.00    -0.000 C 
BRANCH  22  23
ATOM     23  C   UNL     1      13.772  29.478  51.464  1.00  0.00    -0.000 C 
BRANCH  23  24
ATOM     24  C   UNL     1      13.344  28.160  50.784  1.00  0.00    -0.000 C 
BRANCH  24  25
ATOM     25  C   UNL     1      13.205  28.271  49.257  1.00  0.00    -0.003 C 
ATOM     26  C   UNL     1      11.866  27.750  48.739  1.00  0.00     0.004 C 
ENDBRANCH  24  25
ENDBRANCH  23  24
ENDBRANCH  22  23
ENDBRANCH  21  22
ENDBRANCH  20  21
ENDBRANCH  19  20
ENDBRANCH  18  19
ENDBRANCH  17  18
ENDBRANCH  16  17
ENDBRANCH  15  16
ENDBRANCH   1  15
TORSDOF 22
ENDMDL
MODEL 5
REMARK VINA RESULT:    12.505      1.230      2.362
REMARK INTER + INTRA:          27.427
REMARK INTER:                  28.246
REMARK INTRA:                  -0.818
REMARK UNBOUND:                -1.160
REMARK SMILES CCCCCCCCCCCCCCCCCCCCCCCC(=O)[O-]
REMARK SMILES IDX 13 1 14 2 15 3 16 4 17 5 18 6 19 7 20 8 21 9 22 10 23 11
REMARK SMILES IDX 24 12 25 13 26 14 12 15 11 16 10 17 9 18 8 19 7 20 6 21 5 22
REMARK SMILES IDX 4 23 3 24 2 25 1 26
REMARK H PARENT
REMARK Flexibility Score: inf
ROOT
ATOM      1  C   UNL     1      14.601  39.984  47.965  1.00  0.00     0.000 C 
ENDROOT
BRANCH   1   2
ATOM      2  C   UNL     1      14.585  38.554  48.528  1.00  0.00     0.000 C 
BRANCH   2   3
ATOM      3  C   UNL     1      13.833  37.571  47.612  1.00  0.00     0.000 C 
BRANCH   3   4
ATOM      4  C   UNL     1      13.813  36.138  48.188  1.00  0.00     0.000 C 
BRANCH   4   5
ATOM      5  C   UNL     1      15.185  35.659  48.695  1.00  0.00     0.000 C 
BRANCH   5   6
ATOM      6  C   UNL     1      15.085  34.795  49.962  1.00  0.00     0.000 C 
BRANCH   6   7
ATOM      7  C   UNL     1      15.523  33.335  49.736  1.00  0.00     0.000 C 
BRANCH   7   8
ATOM      8  C   UNL     1      15.708  32.500  51.017  1.00  0.00     0.000 C 
BRANCH   8   9
ATOM      9  C   UNL     1      15.495  30.994  50.789  1.00  0.00     0.000 C 
BRANCH   9  10
ATOM     10  C   UNL     1      14.010  30.603  50.767  1.00  0.00     0.006 C 
BRANCH  10  11
ATOM     11  C   UNL     1      13.612  29.868  49.479  1.00  0.00     0.053 C 
BRANCH  11  12
ATOM     12  C   UNL     1      13.119  28.491  49.793  1.00  0.00     0.041 C 
ATOM     13  O   UNL     1      12.384  27.879  48.974  1.00  0.00    -0.550 OA
ATOM     14  O   UNL     1      13.440  27.897  51.008  1.00  0.00    -0.550 OA
ENDBRANCH  11  12
ENDBRANCH  10  11
ENDBRANCH   9  10
ENDBRANCH   8   9
ENDBRANCH   7   8
ENDBRANCH   6   7
ENDBRANCH   5   6
ENDBRANCH   4   5
ENDBRANCH   3   4
ENDBRANCH   2   3
ENDBRANCH   1   2
BRANCH   1  15
ATOM     15  C   UNL     1      13.749  40.124  46.691  1.00  0.00     0.000 C 
BRANCH  15  16
ATOM     16  C   UNL     1      14.445  39.558  45.440  1.00  0.00     0.000 C 
BRANCH  16  17
ATOM     17  C   UNL     1      15.984  39.574  45.487  1.00  0.00     0.000 C 
BRANCH  17  18
ATOM     18  C   UNL     1      16.596  38.165  45.548  1.00  0.00    -0.000 C 
BRANCH  18  19
ATOM     19  C   UNL     1      17.446  37.933  46.810  1.00  0.00    -0.000 C 
BRANCH  19  20
ATOM     20  C   UNL     1      18.606  38.929  47.019  1.00  0.00    -0.000 C 
BRANCH  20  21
ATOM     21  C   UNL     1      20.012  38.366  46.751  1.00  0.00    -0.000 C 
BRANCH  21  22
ATOM     22  C   UNL     1      20.067  36.833  46.821  1.00  0.00    -0.000 C 
BRANCH  22  23
ATOM     23  C   UNL     1      19.671  36.206  45.475  1.00  0.00    -0.000 C 
BRANCH  23  24
ATOM     24  C   UNL     1      20.631  35.075  45.050  1.00  0.00    -0.000 C 
BRANCH  24  25
ATOM     25  C   UNL     1      21.226  35.266  43.646  1.00  0.00    -0.003 C 
ATOM     26  C   UNL     1      21.921  34.014  43.115  1.00  0.00     0.004 C 
ENDBRANCH  24  25
ENDBRANCH  23  24
ENDBRANCH  22  23
ENDBRANCH  21  22
ENDBRANCH  20  21
ENDBRANCH  19  20
ENDBRANCH  18  19
ENDBRANCH  17  18
ENDBRANCH  16  17
ENDBRANCH  15  16
ENDBRANCH   1  15
TORSDOF 22
ENDMDL
MODEL 6
REMARK VINA RESULT:    12.762      3.651      9.549
REMARK INTER + INTRA:          28.015
REMARK INTER:                  29.519
REMARK INTRA:                  -1.504
REMARK UNBOUND:                -1.160
REMARK SMILES CCCCCCCCCCCCCCCCCCCCCCCC(=O)[O-]
REMARK SMILES IDX 13 1 14 2 15 3 16 4 17 5 18 6 19 7 20 8 21 9 22 10 23 11
REMARK SMILES IDX 24 12 25 13 26 14 12 15 11 16 10 17 9 18 8 19 7 20 6 21 5 22
REMARK SMILES IDX 4 23 3 24 2 25 1 26
REMARK H PARENT
REMARK Flexibility Score: inf
ROOT
ATOM      1  C   UNL     1      13.061  36.287  47.613  1.00  0.00     0.000 C 
ENDROOT
BRANCH   1   2
ATOM      2  C   UNL     1      13.732  37.666  47.706  1.00  0.00     0.000 C 
BRANCH   2   3
ATOM      3  C   UNL     1      13.318  38.599  46.554  1.00  0.00     0.000 C 
BRANCH   3   4
ATOM      4  C   UNL     1      14.202  39.863  46.481  1.00  0.00     0.000 C 
BRANCH   4   5
ATOM      5  C   UNL     1      15.637  39.640  46.990  1.00  0.00     0.000 C 
BRANCH   5   6
ATOM      6  C   UNL     1      16.525  38.905  45.971  1.00  0.00     0.000 C 
BRANCH   6   7
ATOM      7  C   UNL     1      17.586  38.005  46.632  1.00  0.00     0.000 C 
BRANCH   7   8
ATOM      8  C   UNL     1      18.825  38.743  47.174  1.00  0.00     0.000 C 
BRANCH   8   9
ATOM      9  C   UNL     1      20.149  38.069  46.774  1.00  0.00     0.000 C 
BRANCH   9  10
ATOM     10  C   UNL     1      19.974  36.585  46.419  1.00  0.00     0.006 C 
BRANCH  10  11
ATOM     11  C   UNL     1      19.989  36.335  44.905  1.00  0.00     0.053 C 
BRANCH  11  12
ATOM     12  C   UNL     1      20.685  35.048  44.593  1.00  0.00     0.041 C 
ATOM     13  O   UNL     1      20.683  34.108  45.429  1.00  0.00    -0.550 OA
ATOM     14  O   UNL     1      21.369  34.901  43.391  1.00  0.00    -0.550 OA
ENDBRANCH  11  12
ENDBRANCH  10  11
ENDBRANCH   9  10
ENDBRANCH   8   9
ENDBRANCH   7   8
ENDBRANCH   6   7
ENDBRANCH   5   6
ENDBRANCH   4   5
ENDBRANCH   3   4
ENDBRANCH   2   3
ENDBRANCH   1   2
BRANCH   1  15
ATOM     15  C   UNL     1      13.918  35.173  48.238  1.00  0.00     0.000 C 
BRANCH  15  16
ATOM     16  C   UNL     1      14.968  35.709  49.228  1.00  0.00     0.000 C 
BRANCH  16  17
ATOM     17  C   UNL     1      15.715  34.631  50.035  1.00  0.00     0.000 C 
BRANCH  17  18
ATOM     18  C   UNL     1      15.251  33.203  49.700  1.00  0.00    -0.000 C 
BRANCH  18  19
ATOM     19  C   UNL     1      15.582  32.187  50.808  1.00  0.00    -0.000 C 
BRANCH  19  20
ATOM     20  C   UNL     1      14.796  30.861  50.745  1.00  0.00    -0.000 C 
BRANCH  20  21
ATOM     21  C   UNL     1      13.728  30.781  49.640  1.00  0.00    -0.000 C 
BRANCH  21  22
ATOM     22  C   UNL     1      13.325  29.339  49.300  1.00  0.00    -0.000 C 
BRANCH  22  23
ATOM     23  C   UNL     1      12.804  28.606  50.546  1.00  0.00    -0.000 C 
BRANCH  23  24
ATOM     24  C   UNL     1      13.572  27.296  50.821  1.00  0.00    -0.000 C 
BRANCH  24  25
ATOM     25  C   UNL     1      13.777  27.004  52.316  1.00  0.00    -0.003 C 
ATOM     26  C   UNL     1      13.112  28.036  53.224  1.00  0.00     0.004 C 
ENDBRANCH  24  25
ENDBRANCH  23  24
ENDBRANCH  22  23
ENDBRANCH  21  22
ENDBRANCH  20  21
ENDBRANCH  19  20
ENDBRANCH  18  19
ENDBRANCH  17  18
ENDBRANCH  16  17
ENDBRANCH  15  16
ENDBRANCH   1  15
TORSDOF 22
ENDMDL
MODEL 7
REMARK VINA RESULT:    12.851      3.859      9.422
REMARK INTER + INTRA:          28.219
REMARK INTER:                  29.566
REMARK INTRA:                  -1.347
REMARK UNBOUND:                -1.160
REMARK SMILES CCCCCCCCCCCCCCCCCCCCCCCC(=O)[O-]
REMARK SMILES IDX 13 1 14 2 15 3 16 4 17 5 18 6 19 7 20 8 21 9 22 10 23 11
REMARK SMILES IDX 24 12 25 13 26 14 12 15 11 16 10 17 9 18 8 19 7 20 6 21 5 22
REMARK SMILES IDX 4 23 3 24 2 25 1 26
REMARK H PARENT
REMARK Flexibility Score: inf
ROOT
ATOM      1  C   UNL     1      12.990  36.405  47.627  1.00  0.00     0.000 C 
ENDROOT
BRANCH   1   2
ATOM      2  C   UNL     1      13.500  37.851  47.740  1.00  0.00     0.000 C 
BRANCH   2   3
ATOM      3  C   UNL     1      13.374  38.623  46.415  1.00  0.00     0.000 C 
BRANCH   3   4
ATOM      4  C   UNL     1      14.486  39.681  46.250  1.00  0.00     0.000 C 
BRANCH   4   5
ATOM      5  C   UNL     1      15.677  39.477  47.204  1.00  0.00     0.000 C 
BRANCH   5   6
ATOM      6  C   UNL     1      16.802  38.634  46.581  1.00  0.00     0.000 C 
BRANCH   6   7
ATOM      7  C   UNL     1      18.203  39.021  47.093  1.00  0.00     0.000 C 
BRANCH   7   8
ATOM      8  C   UNL     1      19.357  38.143  46.573  1.00  0.00     0.000 C 
BRANCH   8   9
ATOM      9  C   UNL     1      18.935  36.688  46.314  1.00  0.00     0.000 C 
BRANCH   9  10
ATOM     10  C   UNL     1      20.123  35.782  45.953  1.00  0.00     0.006 C 
BRANCH  10  11
ATOM     11  C   UNL     1      20.583  35.963  44.501  1.00  0.00     0.053 C 
BRANCH  11  12
ATOM     12  C   UNL     1      21.212  34.706  43.990  1.00  0.00     0.041 C 
ATOM     13  O   UNL     1      21.473  34.581  42.764  1.00  0.00    -0.550 OA
ATOM     14  O   UNL     1      21.477  33.656  44.861  1.00  0.00    -0.550 OA
ENDBRANCH  11  12
ENDBRANCH  10  11
ENDBRANCH   9  10
ENDBRANCH   8   9
ENDBRANCH   7   8
ENDBRANCH   6   7
ENDBRANCH   5   6
ENDBRANCH   4   5
ENDBRANCH   3   4
ENDBRANCH   2   3
ENDBRANCH   1   2
BRANCH   1  15
ATOM     15  C   UNL     1      14.021  35.378  48.126  1.00  0.00     0.000 C 
BRANCH  15  16
ATOM     16  C   UNL     1      15.066  35.991  49.076  1.00  0.00     0.000 C 
BRANCH  16  17
ATOM     17  C   UNL     1      15.713  34.999  50.060  1.00  0.00     0.000 C 
BRANCH  17  18
ATOM     18  C   UNL     1      15.312  33.539  49.791  1.00  0.00    -0.000 C 
BRANCH  18  19
ATOM     19  C   UNL     1      15.813  32.567  50.875  1.00  0.00    -0.000 C 
BRANCH  19  20
ATOM     20  C   UNL     1      15.513  31.076  50.616  1.00  0.00    -0.000 C 
BRANCH  20  21
ATOM     21  C   UNL     1      14.159  30.576  51.150  1.00  0.00    -0.000 C 
BRANCH  21  22
ATOM     22  C   UNL     1      13.938  29.075  50.909  1.00  0.00    -0.000 C 
BRANCH  22  23
ATOM     23  C   UNL     1      13.111  28.838  49.637  1.00  0.00    -0.000 C 
BRANCH  23  24
ATOM     24  C   UNL     1      13.092  27.354  49.218  1.00  0.00    -0.000 C 
BRANCH  24  25
ATOM     25  C   UNL     1      11.728  26.879  48.688  1.00  0.00    -0.003 C 
ATOM     26  C   UNL     1      10.870  28.018  48.141  1.00  0.00     0.004 C 
ENDBRANCH  24  25
ENDBRANCH  23  24
ENDBRANCH  22  23
ENDBRANCH  21  22
ENDBRANCH  20  21
ENDBRANCH  19  20
ENDBRANCH  18  19
ENDBRANCH  17  18
ENDBRANCH  16  17
ENDBRANCH  15  16
ENDBRANCH   1  15
TORSDOF 22
ENDMDL
MODEL 8
REMARK VINA RESULT:    12.889      4.107     10.619
REMARK INTER + INTRA:          28.307
REMARK INTER:                  28.739
REMARK INTRA:                  -0.432
REMARK UNBOUND:                -1.160
REMARK SMILES CCCCCCCCCCCCCCCCCCCCCCCC(=O)[O-]
REMARK SMILES IDX 13 1 14 2 15 3 16 4 17 5 18 6 19 7 20 8 21 9 22 10 23 11
REMARK SMILES IDX 24 12 25 13 26 14 12 15 11 16 10 17 9 18 8 19 7 20 6 21 5 22
REMARK SMILES IDX 4 23 3 24 2 25 1 26
REMARK H PARENT
REMARK Flexibility Score: inf
ROOT
ATOM      1  C   UNL     1      15.253  34.366  50.547  1.00  0.00     0.000 C 
ENDROOT
BRANCH   1   2
ATOM      2  C   UNL     1      15.868  35.703  50.105  1.00  0.00     0.000 C 
BRANCH   2   3
ATOM      3  C   UNL     1      15.346  36.165  48.732  1.00  0.00     0.000 C 
BRANCH   3   4
ATOM      4  C   UNL     1      14.016  35.477  48.355  1.00  0.00     0.000 C 
BRANCH   4   5
ATOM      5  C   UNL     1      13.087  36.359  47.502  1.00  0.00     0.000 C 
BRANCH   5   6
ATOM      6  C   UNL     1      13.345  37.862  47.698  1.00  0.00     0.000 C 
BRANCH   6   7
ATOM      7  C   UNL     1      13.440  38.638  46.371  1.00  0.00     0.000 C 
BRANCH   7   8
ATOM      8  C   UNL     1      14.213  39.969  46.443  1.00  0.00     0.000 C 
BRANCH   8   9
ATOM      9  C   UNL     1      15.513  39.865  47.259  1.00  0.00     0.000 C 
BRANCH   9  10
ATOM     10  C   UNL     1      16.234  38.524  47.056  1.00  0.00     0.006 C 
BRANCH  10  11
ATOM     11  C   UNL     1      17.311  38.593  45.964  1.00  0.00     0.053 C 
BRANCH  11  12
ATOM     12  C   UNL     1      18.664  38.329  46.545  1.00  0.00     0.041 C 
ATOM     13  O   UNL     1      19.364  39.281  46.979  1.00  0.00    -0.550 OA
ATOM     14  O   UNL     1      19.168  37.033  46.575  1.00  0.00    -0.550 OA
ENDBRANCH  11  12
ENDBRANCH  10  11
ENDBRANCH   9  10
ENDBRANCH   8   9
ENDBRANCH   7   8
ENDBRANCH   6   7
ENDBRANCH   5   6
ENDBRANCH   4   5
ENDBRANCH   3   4
ENDBRANCH   2   3
ENDBRANCH   1   2
BRANCH   1  15
ATOM     15  C   UNL     1      15.750  33.181  49.700  1.00  0.00     0.000 C 
BRANCH  15  16
ATOM     16  C   UNL     1      16.280  32.015  50.554  1.00  0.00     0.000 C 
BRANCH  16  17
ATOM     17  C   UNL     1      15.198  31.192  51.277  1.00  0.00     0.000 C 
BRANCH  17  18
ATOM     18  C   UNL     1      14.065  30.738  50.340  1.00  0.00    -0.000 C 
BRANCH  18  19
ATOM     19  C   UNL     1      13.340  29.476  50.841  1.00  0.00    -0.000 C 
BRANCH  19  20
ATOM     20  C   UNL     1      13.715  28.166  50.117  1.00  0.00    -0.000 C 
BRANCH  20  21
ATOM     21  C   UNL     1      12.988  27.922  48.782  1.00  0.00    -0.000 C 
BRANCH  21  22
ATOM     22  C   UNL     1      11.677  27.140  48.949  1.00  0.00    -0.000 C 
BRANCH  22  23
ATOM     23  C   UNL     1      10.530  27.820  48.185  1.00  0.00    -0.000 C 
BRANCH  23  24
ATOM     24  C   UNL     1       9.243  26.970  48.181  1.00  0.00    -0.000 C 
BRANCH  24  25
ATOM     25  C   UNL     1       9.504  25.455  48.202  1.00  0.00    -0.003 C 
ATOM     26  C   UNL     1       8.571  24.674  47.279  1.00  0.00     0.004 C 
ENDBRANCH  24  25
ENDBRANCH  23  24
ENDBRANCH  22  23
ENDBRANCH  21  22
ENDBRANCH  20  21
ENDBRANCH  19  20
ENDBRANCH  18  19
ENDBRANCH  17  18
ENDBRANCH  16  17
ENDBRANCH  15  16
ENDBRANCH   1  15
TORSDOF 22
ENDMDL
MODEL 9
REMARK VINA RESULT:    13.192      2.520      4.022
REMARK INTER + INTRA:          28.999
REMARK INTER:                  29.509
REMARK INTRA:                  -0.510
REMARK UNBOUND:                -1.160
REMARK SMILES CCCCCCCCCCCCCCCCCCCCCCCC(=O)[O-]
REMARK SMILES IDX 13 1 14 2 15 3 16 4 17 5 18 6 19 7 20 8 21 9 22 10 23 11
REMARK SMILES IDX 24 12 25 13 26 14 12 15 11 16 10 17 9 18 8 19 7 20 6 21 5 22
REMARK SMILES IDX 4 23 3 24 2 25 1 26
REMARK H PARENT
REMARK Flexibility Score: inf
ROOT
ATOM      1  C   UNL     1      15.251  35.134  49.887  1.00  0.00     0.000 C 
ENDROOT
BRANCH   1   2
ATOM      2  C   UNL     1      15.684  33.669  49.720  1.00  0.00     0.000 C 
BRANCH   2   3
ATOM      3  C   UNL     1      15.771  32.925  51.065  1.00  0.00     0.000 C 
BRANCH   3   4
ATOM      4  C   UNL     1      15.927  31.401  50.878  1.00  0.00     0.000 C 
BRANCH   4   5
ATOM      5  C   UNL     1      14.689  30.597  51.314  1.00  0.00     0.000 C 
BRANCH   5   6
ATOM      6  C   UNL     1      13.719  30.316  50.153  1.00  0.00     0.000 C 
BRANCH   6   7
ATOM      7  C   UNL     1      13.285  28.841  50.071  1.00  0.00     0.000 C 
BRANCH   7   8
ATOM      8  C   UNL     1      12.832  28.367  48.677  1.00  0.00     0.000 C 
BRANCH   8   9
ATOM      9  C   UNL     1      11.732  27.295  48.735  1.00  0.00     0.000 C 
BRANCH   9  10
ATOM     10  C   UNL     1      10.469  27.699  47.959  1.00  0.00     0.006 C 
BRANCH  10  11
ATOM     11  C   UNL     1       9.205  27.007  48.487  1.00  0.00     0.053 C 
BRANCH  11  12
ATOM     12  C   UNL     1       9.088  25.628  47.919  1.00  0.00     0.041 C 
ATOM     13  O   UNL     1       9.973  24.766  48.161  1.00  0.00    -0.550 OA
ATOM     14  O   UNL     1       8.019  25.304  47.092  1.00  0.00    -0.550 OA
ENDBRANCH  11  12
ENDBRANCH  10  11
ENDBRANCH   9  10
ENDBRANCH   8   9
ENDBRANCH   7   8
ENDBRANCH   6   7
ENDBRANCH   5   6
ENDBRANCH   4   5
ENDBRANCH   3   4
ENDBRANCH   2   3
ENDBRANCH   1   2
BRANCH   1  15
ATOM     15  C   UNL     1      14.954  35.817  48.541  1.00  0.00     0.000 C 
BRANCH  15  16
ATOM     16  C   UNL     1      13.455  35.822  48.190  1.00  0.00     0.000 C 
BRANCH  16  17
ATOM     17  C   UNL     1      12.976  37.050  47.394  1.00  0.00     0.000 C 
BRANCH  17  18
ATOM     18  C   UNL     1      13.764  38.327  47.730  1.00  0.00    -0.000 C 
BRANCH  18  19
ATOM     19  C   UNL     1      13.363  39.529  46.856  1.00  0.00    -0.000 C 
BRANCH  19  20
ATOM     20  C   UNL     1      14.492  40.122  45.988  1.00  0.00    -0.000 C 
BRANCH  20  21
ATOM     21  C   UNL     1      15.555  39.115  45.514  1.00  0.00    -0.000 C 
BRANCH  21  22
ATOM     22  C   UNL     1      16.511  38.682  46.635  1.00  0.00    -0.000 C 
BRANCH  22  23
ATOM     23  C   UNL     1      17.897  38.333  46.072  1.00  0.00    -0.000 C 
BRANCH  23  24
ATOM     24  C   UNL     1      19.034  38.675  47.056  1.00  0.00    -0.000 C 
BRANCH  24  25
ATOM     25  C   UNL     1      20.266  37.766  46.916  1.00  0.00    -0.003 C 
ATOM     26  C   UNL     1      19.920  36.360  46.429  1.00  0.00     0.004 C 
ENDBRANCH  24  25
ENDBRANCH  23  24
ENDBRANCH  22  23
ENDBRANCH  21  22
ENDBRANCH  20  21
ENDBRANCH  19  20
ENDBRANCH  18  19
ENDBRANCH  17  18
ENDBRANCH  16  17
ENDBRANCH  15  16
ENDBRANCH   1  15
TORSDOF 22
ENDMDL
