MODEL 1
REMARK VINA RESULT:    -4.458      0.000      0.000
REMARK INTER + INTRA:          -8.685
REMARK INTER:                  -7.585
REMARK INTRA:                  -1.100
REMARK UNBOUND:                -1.100
REMARK SMILES CCCCCCCCCCCCCC(=O)[O-]
REMARK SMILES IDX 8 1 9 2 10 3 11 4 12 5 13 6 14 7 15 8 16 9 7 10 6 11 5 12
REMARK SMILES IDX 4 13 3 14 2 15 1 16
REMARK H PARENT
REMARK Flexibility Score: inf
ROOT
ATOM      1  C   UNL     1      32.613  78.788  11.388  1.00  0.00     0.000 C 
ENDROOT
BRANCH   1   2
ATOM      2  C   UNL     1      33.019  77.875  12.559  1.00  0.00     0.000 C 
BRANCH   2   3
ATOM      3  C   UNL     1      32.688  78.490  13.929  1.00  0.00     0.000 C 
BRANCH   3   4
ATOM      4  C   UNL     1      31.607  79.577  13.843  1.00  0.00     0.000 C 
BRANCH   4   5
ATOM      5  C   UNL     1      31.295  80.151  15.233  1.00  0.00     0.006 C 
BRANCH   5   6
ATOM      6  C   UNL     1      32.568  80.441  16.041  1.00  0.00     0.053 C 
BRANCH   6   7
ATOM      7  C   UNL     1      32.494  81.761  16.744  1.00  0.00     0.041 C 
ATOM      8  O   UNL     1      31.924  81.852  17.863  1.00  0.00    -0.550 OA
ATOM      9  O   UNL     1      33.085  82.884  16.179  1.00  0.00    -0.550 OA
ENDBRANCH   6   7
ENDBRANCH   5   6
ENDBRANCH   4   5
ENDBRANCH   3   4
ENDBRANCH   2   3
ENDBRANCH   1   2
BRANCH   1  10
ATOM     10  C   UNL     1      31.585  78.128  10.456  1.00  0.00     0.000 C 
BRANCH  10  11
ATOM     11  C   UNL     1      32.240  77.230   9.392  1.00  0.00    -0.000 C 
BRANCH  11  12
ATOM     12  C   UNL     1      33.593  77.795   8.908  1.00  0.00    -0.000 C 
BRANCH  12  13
ATOM     13  C   UNL     1      34.659  76.714   8.661  1.00  0.00    -0.000 C 
BRANCH  13  14
ATOM     14  C   UNL     1      35.054  75.962   9.942  1.00  0.00    -0.000 C 
BRANCH  14  15
ATOM     15  C   UNL     1      36.442  76.369  10.460  1.00  0.00    -0.003 C 
ATOM     16  C   UNL     1      36.401  77.602  11.362  1.00  0.00     0.004 C 
ENDBRANCH  14  15
ENDBRANCH  13  14
ENDBRANCH  12  13
ENDBRANCH  11  12
ENDBRANCH  10  11
ENDBRANCH   1  10
TORSDOF 12
ENDMDL
MODEL 2
REMARK VINA RESULT:    -4.312     11.427     14.698
REMARK INTER + INTRA:          -8.437
REMARK INTER:                  -6.855
REMARK INTRA:                  -1.581
REMARK UNBOUND:                -1.100
REMARK SMILES CCCCCCCCCCCCCC(=O)[O-]
REMARK SMILES IDX 8 1 9 2 10 3 11 4 12 5 13 6 14 7 15 8 16 9 7 10 6 11 5 12
REMARK SMILES IDX 4 13 3 14 2 15 1 16
REMARK H PARENT
REMARK Flexibility Score: inf
ROOT
ATOM      1  C   UNL     1      47.558  71.758  13.284  1.00  0.00     0.000 C 
ENDROOT
BRANCH   1   2
ATOM      2  C   UNL     1      46.153  71.839  12.660  1.00  0.00     0.000 C 
BRANCH   2   3
ATOM      3  C   UNL     1      46.195  71.995  11.131  1.00  0.00     0.000 C 
BRANCH   3   4
ATOM      4  C   UNL     1      46.660  73.391  10.692  1.00  0.00     0.000 C 
BRANCH   4   5
ATOM      5  C   UNL     1      45.661  74.017   9.708  1.00  0.00     0.006 C 
BRANCH   5   6
ATOM      6  C   UNL     1      44.802  72.959   9.000  1.00  0.00     0.053 C 
BRANCH   6   7
ATOM      7  C   UNL     1      43.374  73.393   8.875  1.00  0.00     0.041 C 
ATOM      8  O   UNL     1      42.873  74.174   9.726  1.00  0.00    -0.550 OA
ATOM      9  O   UNL     1      42.607  72.963   7.800  1.00  0.00    -0.550 OA
ENDBRANCH   6   7
ENDBRANCH   5   6
ENDBRANCH   4   5
ENDBRANCH   3   4
ENDBRANCH   2   3
ENDBRANCH   1   2
BRANCH   1  10
ATOM     10  C   UNL     1      47.813  72.875  14.308  1.00  0.00     0.000 C 
BRANCH  10  11
ATOM     11  C   UNL     1      46.568  73.201  15.152  1.00  0.00    -0.000 C 
BRANCH  11  12
ATOM     12  C   UNL     1      46.553  74.672  15.621  1.00  0.00    -0.000 C 
BRANCH  12  13
ATOM     13  C   UNL     1      45.390  75.493  15.038  1.00  0.00    -0.000 C 
BRANCH  13  14
ATOM     14  C   UNL     1      45.350  75.463  13.501  1.00  0.00    -0.000 C 
BRANCH  14  15
ATOM     15  C   UNL     1      43.984  75.014  12.957  1.00  0.00    -0.003 C 
ATOM     16  C   UNL     1      42.870  75.106  13.999  1.00  0.00     0.004 C 
ENDBRANCH  14  15
ENDBRANCH  13  14
ENDBRANCH  12  13
ENDBRANCH  11  12
ENDBRANCH  10  11
ENDBRANCH   1  10
TORSDOF 12
ENDMDL
MODEL 3
REMARK VINA RESULT:    -4.219      2.328      4.279
REMARK INTER + INTRA:          -8.280
REMARK INTER:                  -6.396
REMARK INTRA:                  -1.884
REMARK UNBOUND:                -1.100
REMARK SMILES CCCCCCCCCCCCCC(=O)[O-]
REMARK SMILES IDX 8 1 9 2 10 3 11 4 12 5 13 6 14 7 15 8 16 9 7 10 6 11 5 12
REMARK SMILES IDX 4 13 3 14 2 15 1 16
REMARK H PARENT
REMARK Flexibility Score: inf
ROOT
ATOM      1  C   UNL     1      35.696  75.607   9.979  1.00  0.00     0.000 C 
ENDROOT
BRANCH   1   2
ATOM      2  C   UNL     1      36.445  76.741  10.702  1.00  0.00     0.000 C 
BRANCH   2   3
ATOM      3  C   UNL     1      35.491  77.762  11.344  1.00  0.00     0.000 C 
BRANCH   3   4
ATOM      4  C   UNL     1      34.281  78.082  10.455  1.00  0.00     0.000 C 
BRANCH   4   5
ATOM      5  C   UNL     1      33.048  78.415  11.306  1.00  0.00     0.006 C 
BRANCH   5   6
ATOM      6  C   UNL     1      33.111  77.772  12.699  1.00  0.00     0.053 C 
BRANCH   6   7
ATOM      7  C   UNL     1      32.682  78.724  13.772  1.00  0.00     0.041 C 
ATOM      8  O   UNL     1      31.731  79.523  13.568  1.00  0.00    -0.550 OA
ATOM      9  O   UNL     1      33.309  78.704  15.012  1.00  0.00    -0.550 OA
ENDBRANCH   6   7
ENDBRANCH   5   6
ENDBRANCH   4   5
ENDBRANCH   3   4
ENDBRANCH   2   3
ENDBRANCH   1   2
BRANCH   1  10
ATOM     10  C   UNL     1      36.065  75.514   8.491  1.00  0.00     0.000 C 
BRANCH  10  11
ATOM     11  C   UNL     1      34.845  75.674   7.566  1.00  0.00    -0.000 C 
BRANCH  11  12
ATOM     12  C   UNL     1      33.641  74.834   8.043  1.00  0.00    -0.000 C 
BRANCH  12  13
ATOM     13  C   UNL     1      32.401  75.676   8.390  1.00  0.00    -0.000 C 
BRANCH  13  14
ATOM     14  C   UNL     1      31.765  75.276   9.732  1.00  0.00    -0.000 C 
BRANCH  14  15
ATOM     15  C   UNL     1      32.523  74.133  10.425  1.00  0.00    -0.003 C 
ATOM     16  C   UNL     1      32.470  74.225  11.950  1.00  0.00     0.004 C 
ENDBRANCH  14  15
ENDBRANCH  13  14
ENDBRANCH  12  13
ENDBRANCH  11  12
ENDBRANCH  10  11
ENDBRANCH   1  10
TORSDOF 12
ENDMDL
MODEL 4
REMARK VINA RESULT:    -4.177      1.399      2.105
REMARK INTER + INTRA:          -8.207
REMARK INTER:                  -6.850
REMARK INTRA:                  -1.358
REMARK UNBOUND:                -1.100
REMARK SMILES CCCCCCCCCCCCCC(=O)[O-]
REMARK SMILES IDX 8 1 9 2 10 3 11 4 12 5 13 6 14 7 15 8 16 9 7 10 6 11 5 12
REMARK SMILES IDX 4 13 3 14 2 15 1 16
REMARK H PARENT
REMARK Flexibility Score: inf
ROOT
ATOM      1  C   UNL     1      32.383  78.925  11.883  1.00  0.00     0.000 C 
ENDROOT
BRANCH   1   2
ATOM      2  C   UNL     1      33.113  78.196  13.025  1.00  0.00     0.000 C 
BRANCH   2   3
ATOM      3  C   UNL     1      32.143  77.533  14.017  1.00  0.00     0.000 C 
BRANCH   3   4
ATOM      4  C   UNL     1      32.365  78.002  15.462  1.00  0.00     0.000 C 
BRANCH   4   5
ATOM      5  C   UNL     1      33.055  79.373  15.495  1.00  0.00     0.006 C 
BRANCH   5   6
ATOM      6  C   UNL     1      32.049  80.528  15.602  1.00  0.00     0.053 C 
BRANCH   6   7
ATOM      7  C   UNL     1      32.524  81.595  16.540  1.00  0.00     0.041 C 
ATOM      8  O   UNL     1      32.987  82.675  16.088  1.00  0.00    -0.550 OA
ATOM      9  O   UNL     1      32.422  81.411  17.913  1.00  0.00    -0.550 OA
ENDBRANCH   6   7
ENDBRANCH   5   6
ENDBRANCH   4   5
ENDBRANCH   3   4
ENDBRANCH   2   3
ENDBRANCH   1   2
BRANCH   1  10
ATOM     10  C   UNL     1      32.572  78.230  10.526  1.00  0.00     0.000 C 
BRANCH  10  11
ATOM     11  C   UNL     1      34.047  78.173  10.090  1.00  0.00    -0.000 C 
BRANCH  11  12
ATOM     12  C   UNL     1      34.293  77.093   9.015  1.00  0.00    -0.000 C 
BRANCH  12  13
ATOM     13  C   UNL     1      33.965  75.666   9.488  1.00  0.00    -0.000 C 
BRANCH  13  14
ATOM     14  C   UNL     1      34.687  75.289  10.791  1.00  0.00    -0.000 C 
BRANCH  14  15
ATOM     15  C   UNL     1      33.726  74.744  11.860  1.00  0.00    -0.003 C 
ATOM     16  C   UNL     1      32.318  74.496  11.321  1.00  0.00     0.004 C 
ENDBRANCH  14  15
ENDBRANCH  13  14
ENDBRANCH  12  13
ENDBRANCH  11  12
ENDBRANCH  10  11
ENDBRANCH   1  10
TORSDOF 12
ENDMDL
MODEL 5
REMARK VINA RESULT:    -4.174      5.122      7.185
REMARK INTER + INTRA:          -8.203
REMARK INTER:                  -6.165
REMARK INTRA:                  -2.038
REMARK UNBOUND:                -1.100
REMARK SMILES CCCCCCCCCCCCCC(=O)[O-]
REMARK SMILES IDX 8 1 9 2 10 3 11 4 12 5 13 6 14 7 15 8 16 9 7 10 6 11 5 12
REMARK SMILES IDX 4 13 3 14 2 15 1 16
REMARK H PARENT
REMARK Flexibility Score: inf
ROOT
ATOM      1  C   UNL     1      33.816  77.901  11.932  1.00  0.00     0.000 C 
ENDROOT
BRANCH   1   2
ATOM      2  C   UNL     1      34.697  77.800  10.675  1.00  0.00     0.000 C 
BRANCH   2   3
ATOM      3  C   UNL     1      35.829  76.770  10.829  1.00  0.00     0.000 C 
BRANCH   3   4
ATOM      4  C   UNL     1      36.033  75.922   9.566  1.00  0.00     0.000 C 
BRANCH   4   5
ATOM      5  C   UNL     1      34.940  76.214   8.527  1.00  0.00     0.006 C 
BRANCH   5   6
ATOM      6  C   UNL     1      34.993  75.241   7.340  1.00  0.00     0.053 C 
BRANCH   6   7
ATOM      7  C   UNL     1      33.685  74.541   7.135  1.00  0.00     0.041 C 
ATOM      8  O   UNL     1      33.536  73.351   7.519  1.00  0.00    -0.550 OA
ATOM      9  O   UNL     1      32.618  75.215   6.553  1.00  0.00    -0.550 OA
ENDBRANCH   6   7
ENDBRANCH   5   6
ENDBRANCH   4   5
ENDBRANCH   3   4
ENDBRANCH   2   3
ENDBRANCH   1   2
BRANCH   1  10
ATOM     10  C   UNL     1      32.538  78.719  11.691  1.00  0.00     0.000 C 
BRANCH  10  11
ATOM     11  C   UNL     1      31.898  78.429  10.322  1.00  0.00    -0.000 C 
BRANCH  11  12
ATOM     12  C   UNL     1      30.805  77.341  10.411  1.00  0.00    -0.000 C 
BRANCH  12  13
ATOM     13  C   UNL     1      31.251  75.973   9.868  1.00  0.00    -0.000 C 
BRANCH  13  14
ATOM     14  C   UNL     1      31.551  74.958  10.982  1.00  0.00    -0.000 C 
BRANCH  14  15
ATOM     15  C   UNL     1      32.917  74.275  10.804  1.00  0.00    -0.003 C 
ATOM     16  C   UNL     1      33.620  74.000  12.133  1.00  0.00     0.004 C 
ENDBRANCH  14  15
ENDBRANCH  13  14
ENDBRANCH  12  13
ENDBRANCH  11  12
ENDBRANCH  10  11
ENDBRANCH   1  10
TORSDOF 12
ENDMDL
MODEL 6
REMARK VINA RESULT:    -4.171      2.029      3.313
REMARK INTER + INTRA:          -8.197
REMARK INTER:                  -6.357
REMARK INTRA:                  -1.840
REMARK UNBOUND:                -1.100
REMARK SMILES CCCCCCCCCCCCCC(=O)[O-]
REMARK SMILES IDX 8 1 9 2 10 3 11 4 12 5 13 6 14 7 15 8 16 9 7 10 6 11 5 12
REMARK SMILES IDX 4 13 3 14 2 15 1 16
REMARK H PARENT
REMARK Flexibility Score: inf
ROOT
ATOM      1  C   UNL     1      31.346  75.680  10.430  1.00  0.00     0.000 C 
ENDROOT
BRANCH   1   2
ATOM      2  C   UNL     1      30.785  77.065  10.799  1.00  0.00     0.000 C 
BRANCH   2   3
ATOM      3  C   UNL     1      31.567  78.213  10.139  1.00  0.00     0.000 C 
BRANCH   3   4
ATOM      4  C   UNL     1      32.618  78.827  11.075  1.00  0.00     0.000 C 
BRANCH   4   5
ATOM      5  C   UNL     1      32.102  78.880  12.520  1.00  0.00     0.006 C 
BRANCH   5   6
ATOM      6  C   UNL     1      33.152  78.395  13.530  1.00  0.00     0.053 C 
BRANCH   6   7
ATOM      7  C   UNL     1      32.879  78.911  14.909  1.00  0.00     0.041 C 
ATOM      8  O   UNL     1      33.540  78.480  15.890  1.00  0.00    -0.550 OA
ATOM      9  O   UNL     1      31.918  79.894  15.107  1.00  0.00    -0.550 OA
ENDBRANCH   6   7
ENDBRANCH   5   6
ENDBRANCH   4   5
ENDBRANCH   3   4
ENDBRANCH   2   3
ENDBRANCH   1   2
BRANCH   1  10
ATOM     10  C   UNL     1      31.605  74.802  11.663  1.00  0.00     0.000 C 
BRANCH  10  11
ATOM     11  C   UNL     1      32.983  75.063  12.298  1.00  0.00    -0.000 C 
BRANCH  11  12
ATOM     12  C   UNL     1      34.134  74.869  11.288  1.00  0.00    -0.000 C 
BRANCH  12  13
ATOM     13  C   UNL     1      35.016  76.117  11.111  1.00  0.00    -0.000 C 
BRANCH  13  14
ATOM     14  C   UNL     1      36.003  75.988   9.940  1.00  0.00    -0.000 C 
BRANCH  14  15
ATOM     15  C   UNL     1      35.300  75.689   8.606  1.00  0.00    -0.003 C 
ATOM     16  C   UNL     1      34.341  76.800   8.179  1.00  0.00     0.004 C 
ENDBRANCH  14  15
ENDBRANCH  13  14
ENDBRANCH  12  13
ENDBRANCH  11  12
ENDBRANCH  10  11
ENDBRANCH   1  10
TORSDOF 12
ENDMDL
MODEL 7
REMARK VINA RESULT:    -4.168      1.802      2.921
REMARK INTER + INTRA:          -8.193
REMARK INTER:                  -6.275
REMARK INTRA:                  -1.919
REMARK UNBOUND:                -1.100
REMARK SMILES CCCCCCCCCCCCCC(=O)[O-]
REMARK SMILES IDX 8 1 9 2 10 3 11 4 12 5 13 6 14 7 15 8 16 9 7 10 6 11 5 12
REMARK SMILES IDX 4 13 3 14 2 15 1 16
REMARK H PARENT
REMARK Flexibility Score: inf
ROOT
ATOM      1  C   UNL     1      31.563  78.169   9.233  1.00  0.00     0.000 C 
ENDROOT
BRANCH   1   2
ATOM      2  C   UNL     1      31.475  78.006  10.760  1.00  0.00     0.000 C 
BRANCH   2   3
ATOM      3  C   UNL     1      32.407  78.970  11.512  1.00  0.00     0.000 C 
BRANCH   3   4
ATOM      4  C   UNL     1      33.288  78.255  12.546  1.00  0.00     0.000 C 
BRANCH   4   5
ATOM      5  C   UNL     1      32.429  77.594  13.634  1.00  0.00     0.006 C 
BRANCH   5   6
ATOM      6  C   UNL     1      31.473  78.591  14.305  1.00  0.00     0.053 C 
BRANCH   6   7
ATOM      7  C   UNL     1      32.175  79.438  15.321  1.00  0.00     0.041 C 
ATOM      8  O   UNL     1      32.014  80.687  15.326  1.00  0.00    -0.550 OA
ATOM      9  O   UNL     1      32.980  78.845  16.286  1.00  0.00    -0.550 OA
ENDBRANCH   6   7
ENDBRANCH   5   6
ENDBRANCH   4   5
ENDBRANCH   3   4
ENDBRANCH   2   3
ENDBRANCH   1   2
BRANCH   1  10
ATOM     10  C   UNL     1      32.415  77.075   8.572  1.00  0.00     0.000 C 
BRANCH  10  11
ATOM     11  C   UNL     1      33.886  77.493   8.398  1.00  0.00    -0.000 C 
BRANCH  11  12
ATOM     12  C   UNL     1      34.842  76.620   9.239  1.00  0.00    -0.000 C 
BRANCH  12  13
ATOM     13  C   UNL     1      34.175  75.362   9.822  1.00  0.00    -0.000 C 
BRANCH  13  14
ATOM     14  C   UNL     1      34.522  75.135  11.302  1.00  0.00    -0.000 C 
BRANCH  14  15
ATOM     15  C   UNL     1      33.491  74.247  12.018  1.00  0.00    -0.003 C 
ATOM     16  C   UNL     1      32.066  74.468  11.515  1.00  0.00     0.004 C 
ENDBRANCH  14  15
ENDBRANCH  13  14
ENDBRANCH  12  13
ENDBRANCH  11  12
ENDBRANCH  10  11
ENDBRANCH   1  10
TORSDOF 12
ENDMDL
MODEL 8
REMARK VINA RESULT:    -4.161      1.527      2.258
REMARK INTER + INTRA:          -8.181
REMARK INTER:                  -7.383
REMARK INTRA:                  -0.798
REMARK UNBOUND:                -1.100
REMARK SMILES CCCCCCCCCCCCCC(=O)[O-]
REMARK SMILES IDX 8 1 9 2 10 3 11 4 12 5 13 6 14 7 15 8 16 9 7 10 6 11 5 12
REMARK SMILES IDX 4 13 3 14 2 15 1 16
REMARK H PARENT
REMARK Flexibility Score: inf
ROOT
ATOM      1  C   UNL     1      32.370  78.846  12.384  1.00  0.00     0.000 C 
ENDROOT
BRANCH   1   2
ATOM      2  C   UNL     1      33.132  78.521  13.680  1.00  0.00     0.000 C 
BRANCH   2   3
ATOM      3  C   UNL     1      32.222  77.928  14.768  1.00  0.00     0.000 C 
BRANCH   3   4
ATOM      4  C   UNL     1      32.636  78.354  16.183  1.00  0.00     0.000 C 
BRANCH   4   5
ATOM      5  C   UNL     1      31.696  79.441  16.725  1.00  0.00     0.006 C 
BRANCH   5   6
ATOM      6  C   UNL     1      32.431  80.761  16.998  1.00  0.00     0.053 C 
BRANCH   6   7
ATOM      7  C   UNL     1      32.215  81.756  15.900  1.00  0.00     0.041 C 
ATOM      8  O   UNL     1      31.429  81.493  14.952  1.00  0.00    -0.550 OA
ATOM      9  O   UNL     1      32.854  82.989  15.942  1.00  0.00    -0.550 OA
ENDBRANCH   6   7
ENDBRANCH   5   6
ENDBRANCH   4   5
ENDBRANCH   3   4
ENDBRANCH   2   3
ENDBRANCH   1   2
BRANCH   1  10
ATOM     10  C   UNL     1      33.207  78.575  11.124  1.00  0.00     0.000 C 
BRANCH  10  11
ATOM     11  C   UNL     1      34.239  77.452  11.329  1.00  0.00    -0.000 C 
BRANCH  11  12
ATOM     12  C   UNL     1      34.950  77.069  10.013  1.00  0.00    -0.000 C 
BRANCH  12  13
ATOM     13  C   UNL     1      34.047  77.173   8.772  1.00  0.00    -0.000 C 
BRANCH  13  14
ATOM     14  C   UNL     1      34.460  76.206   7.651  1.00  0.00    -0.000 C 
BRANCH  14  15
ATOM     15  C   UNL     1      35.557  75.224   8.095  1.00  0.00    -0.003 C 
ATOM     16  C   UNL     1      36.477  74.805   6.949  1.00  0.00     0.004 C 
ENDBRANCH  14  15
ENDBRANCH  13  14
ENDBRANCH  12  13
ENDBRANCH  11  12
ENDBRANCH  10  11
ENDBRANCH   1  10
TORSDOF 12
ENDMDL
MODEL 9
REMARK VINA RESULT:    -4.116      1.639      2.402
REMARK INTER + INTRA:          -8.104
REMARK INTER:                  -6.592
REMARK INTRA:                  -1.513
REMARK UNBOUND:                -1.100
REMARK SMILES CCCCCCCCCCCCCC(=O)[O-]
REMARK SMILES IDX 8 1 9 2 10 3 11 4 12 5 13 6 14 7 15 8 16 9 7 10 6 11 5 12
REMARK SMILES IDX 4 13 3 14 2 15 1 16
REMARK H PARENT
REMARK Flexibility Score: inf
ROOT
ATOM      1  C   UNL     1      32.195  78.110   9.416  1.00  0.00     0.000 C 
ENDROOT
BRANCH   1   2
ATOM      2  C   UNL     1      32.227  78.534  10.894  1.00  0.00     0.000 C 
BRANCH   2   3
ATOM      3  C   UNL     1      31.490  77.541  11.809  1.00  0.00     0.000 C 
BRANCH   3   4
ATOM      4  C   UNL     1      32.247  77.268  13.116  1.00  0.00     0.000 C 
BRANCH   4   5
ATOM      5  C   UNL     1      33.291  78.361  13.384  1.00  0.00     0.006 C 
BRANCH   5   6
ATOM      6  C   UNL     1      33.243  78.868  14.832  1.00  0.00     0.053 C 
BRANCH   6   7
ATOM      7  C   UNL     1      31.940  79.536  15.145  1.00  0.00     0.041 C 
ATOM      8  O   UNL     1      31.572  80.546  14.490  1.00  0.00    -0.550 OA
ATOM      9  O   UNL     1      31.115  79.023  16.138  1.00  0.00    -0.550 OA
ENDBRANCH   6   7
ENDBRANCH   5   6
ENDBRANCH   4   5
ENDBRANCH   3   4
ENDBRANCH   2   3
ENDBRANCH   1   2
BRANCH   1  10
ATOM     10  C   UNL     1      32.233  76.584   9.239  1.00  0.00     0.000 C 
BRANCH  10  11
ATOM     11  C   UNL     1      33.098  76.147   8.044  1.00  0.00    -0.000 C 
BRANCH  11  12
ATOM     12  C   UNL     1      34.564  76.609   8.187  1.00  0.00    -0.000 C 
BRANCH  12  13
ATOM     13  C   UNL     1      35.533  75.475   8.562  1.00  0.00    -0.000 C 
BRANCH  13  14
ATOM     14  C   UNL     1      36.441  75.835   9.750  1.00  0.00    -0.000 C 
BRANCH  14  15
ATOM     15  C   UNL     1      35.666  76.482  10.908  1.00  0.00    -0.003 C 
ATOM     16  C   UNL     1      36.402  77.671  11.524  1.00  0.00     0.004 C 
ENDBRANCH  14  15
ENDBRANCH  13  14
ENDBRANCH  12  13
ENDBRANCH  11  12
ENDBRANCH  10  11
ENDBRANCH   1  10
TORSDOF 12
ENDMDL
