MODEL 1
REMARK VINA RESULT:    -6.731      0.000      0.000
REMARK INTER + INTRA:          -8.271
REMARK INTER:                  -8.108
REMARK INTRA:                  -0.163
REMARK UNBOUND:                -0.163
REMARK SMILES O=c1c(O)c(-c2ccc(O)c(O)c2)oc2cc(O)cc(O)c12
REMARK SMILES IDX 5 1 3 2 2 3 1 4 22 5 20 6 19 7 17 8 16 9 15 10 14 11 6 12
REMARK SMILES IDX 7 13 8 14 9 15 13 16 11 17 10 18 12 20 4 22 21 24 18 26
REMARK H PARENT 10 19 12 21 4 23 21 25 18 27
REMARK Flexibility Score: inf
ROOT
ATOM      1  C   UNL     1      28.737  47.667 140.047  1.00  0.00     0.180 A 
ATOM      2  C   UNL     1      28.154  48.855 140.527  1.00  0.00     0.208 A 
ATOM      3  C   UNL     1      28.980  49.825 141.114  1.00  0.00     0.238 A 
ATOM      4  O   UNL     1      28.468  50.890 141.558  1.00  0.00    -0.285 OA
ATOM      5  C   UNL     1      30.370  49.603 141.194  1.00  0.00     0.111 A 
ATOM      6  C   UNL     1      31.272  50.532 141.768  1.00  0.00     0.134 A 
ATOM      7  C   UNL     1      32.643  50.240 141.801  1.00  0.00     0.093 A 
ATOM      8  C   UNL     1      33.130  49.039 141.272  1.00  0.00     0.123 A 
ATOM      9  C   UNL     1      32.244  48.120 140.706  1.00  0.00     0.094 A 
ATOM     10  C   UNL     1      30.874  48.392 140.665  1.00  0.00     0.146 A 
ATOM     11  O   UNL     1      30.054  47.497 140.126  1.00  0.00    -0.452 OA
ENDROOT
BRANCH   1  12
ATOM     12  C   UNL     1      27.931  46.588 139.432  1.00  0.00     0.025 A 
ATOM     13  C   UNL     1      27.228  46.792 138.231  1.00  0.00     0.016 A 
ATOM     14  C   UNL     1      26.454  45.765 137.683  1.00  0.00     0.051 A 
ATOM     15  C   UNL     1      26.359  44.527 138.331  1.00  0.00     0.157 A 
ATOM     16  C   UNL     1      27.816  45.351 140.089  1.00  0.00     0.062 A 
ATOM     17  C   UNL     1      27.042  44.321 139.541  1.00  0.00     0.158 A 
BRANCH  15  18
ATOM     18  O   UNL     1      25.588  43.505 137.780  1.00  0.00    -0.504 OA
ATOM     19  H   UNL     1      24.653  43.306 138.115  1.00  0.00     0.293 HD
ENDBRANCH  15  18
BRANCH  17  20
ATOM     20  O   UNL     1      26.962  43.103 140.215  1.00  0.00    -0.504 OA
ATOM     21  H   UNL     1      26.788  42.230 139.730  1.00  0.00     0.293 HD
ENDBRANCH  17  20
ENDBRANCH   1  12
BRANCH   2  22
ATOM     22  O   UNL     1      26.781  49.073 140.391  1.00  0.00    -0.502 OA
ATOM     23  H   UNL     1      26.091  48.509 140.873  1.00  0.00     0.293 HD
ENDBRANCH   2  22
BRANCH   6  24
ATOM     24  O   UNL     1      30.817  51.739 142.302  1.00  0.00    -0.507 OA
ATOM     25  H   UNL     1      30.303  51.775 143.175  1.00  0.00     0.293 HD
ENDBRANCH   6  24
BRANCH   8  26
ATOM     26  O   UNL     1      34.492  48.749 141.305  1.00  0.00    -0.508 OA
ATOM     27  H   UNL     1      34.834  47.852 141.632  1.00  0.00     0.293 HD
ENDBRANCH   8  26
TORSDOF 6
ENDMDL
MODEL 2
REMARK VINA RESULT:    -6.338      2.383      4.504
REMARK INTER + INTRA:          -7.798
REMARK INTER:                  -7.467
REMARK INTRA:                  -0.331
REMARK UNBOUND:                -0.163
REMARK SMILES O=c1c(O)c(-c2ccc(O)c(O)c2)oc2cc(O)cc(O)c12
REMARK SMILES IDX 5 1 3 2 2 3 1 4 22 5 20 6 19 7 17 8 16 9 15 10 14 11 6 12
REMARK SMILES IDX 7 13 8 14 9 15 13 16 11 17 10 18 12 20 4 22 21 24 18 26
REMARK H PARENT 10 19 12 21 4 23 21 25 18 27
REMARK Flexibility Score: inf
ROOT
ATOM      1  C   UNL     1      28.881  48.632 140.011  1.00  0.00     0.180 A 
ATOM      2  C   UNL     1      28.802  47.227 140.059  1.00  0.00     0.208 A 
ATOM      3  C   UNL     1      29.959  46.494 140.365  1.00  0.00     0.238 A 
ATOM      4  O   UNL     1      29.904  45.234 140.400  1.00  0.00    -0.285 OA
ATOM      5  C   UNL     1      31.164  47.174 140.636  1.00  0.00     0.111 A 
ATOM      6  C   UNL     1      32.373  46.509 140.956  1.00  0.00     0.134 A 
ATOM      7  C   UNL     1      33.529  47.258 141.221  1.00  0.00     0.093 A 
ATOM      8  C   UNL     1      33.499  48.656 141.175  1.00  0.00     0.123 A 
ATOM      9  C   UNL     1      32.309  49.316 140.859  1.00  0.00     0.094 A 
ATOM     10  C   UNL     1      31.147  48.587 140.589  1.00  0.00     0.146 A 
ATOM     11  O   UNL     1      30.031  49.240 140.287  1.00  0.00    -0.452 OA
ENDROOT
BRANCH   1  12
ATOM     12  C   UNL     1      27.709  49.474 139.677  1.00  0.00     0.025 A 
ATOM     13  C   UNL     1      27.433  49.852 138.351  1.00  0.00     0.016 A 
ATOM     14  C   UNL     1      26.335  50.668 138.064  1.00  0.00     0.051 A 
ATOM     15  C   UNL     1      25.507  51.128 139.095  1.00  0.00     0.157 A 
ATOM     16  C   UNL     1      26.888  49.956 140.710  1.00  0.00     0.062 A 
ATOM     17  C   UNL     1      25.787  50.772 140.424  1.00  0.00     0.158 A 
BRANCH  15  18
ATOM     18  O   UNL     1      24.411  51.939 138.805  1.00  0.00    -0.504 OA
ATOM     19  H   UNL     1      23.462  51.633 138.984  1.00  0.00     0.293 HD
ENDBRANCH  15  18
BRANCH  17  20
ATOM     20  O   UNL     1      24.986  51.220 141.475  1.00  0.00    -0.504 OA
ATOM     21  H   UNL     1      24.842  50.669 142.313  1.00  0.00     0.293 HD
ENDBRANCH  17  20
ENDBRANCH   1  12
BRANCH   2  22
ATOM     22  O   UNL     1      27.585  46.579 139.835  1.00  0.00    -0.502 OA
ATOM     23  H   UNL     1      27.279  46.302 138.910  1.00  0.00     0.293 HD
ENDBRANCH   2  22
BRANCH   6  24
ATOM     24  O   UNL     1      32.434  45.116 141.012  1.00  0.00    -0.507 OA
ATOM     25  H   UNL     1      31.602  44.543 140.929  1.00  0.00     0.293 HD
ENDBRANCH   6  24
BRANCH   8  26
ATOM     26  O   UNL     1      34.646  49.401 141.439  1.00  0.00    -0.508 OA
ATOM     27  H   UNL     1      35.569  48.981 141.410  1.00  0.00     0.293 HD
ENDBRANCH   8  26
TORSDOF 6
ENDMDL
MODEL 3
REMARK VINA RESULT:    -6.136      2.742      4.820
REMARK INTER + INTRA:          -7.555
REMARK INTER:                  -7.245
REMARK INTRA:                  -0.310
REMARK UNBOUND:                -0.163
REMARK SMILES O=c1c(O)c(-c2ccc(O)c(O)c2)oc2cc(O)cc(O)c12
REMARK SMILES IDX 5 1 3 2 2 3 1 4 22 5 20 6 19 7 17 8 16 9 15 10 14 11 6 12
REMARK SMILES IDX 7 13 8 14 9 15 13 16 11 17 10 18 12 20 4 22 21 24 18 26
REMARK H PARENT 10 19 12 21 4 23 21 25 18 27
REMARK Flexibility Score: inf
ROOT
ATOM      1  C   UNL     1      27.436  43.613 138.985  1.00  0.00     0.180 A 
ATOM      2  C   UNL     1      26.445  44.448 138.433  1.00  0.00     0.208 A 
ATOM      3  C   UNL     1      26.593  45.839 138.542  1.00  0.00     0.238 A 
ATOM      4  O   UNL     1      25.706  46.597 138.061  1.00  0.00    -0.285 OA
ATOM      5  C   UNL     1      27.733  46.371 139.179  1.00  0.00     0.111 A 
ATOM      6  C   UNL     1      27.960  47.761 139.327  1.00  0.00     0.134 A 
ATOM      7  C   UNL     1      29.124  48.212 139.966  1.00  0.00     0.093 A 
ATOM      8  C   UNL     1      30.065  47.301 140.458  1.00  0.00     0.123 A 
ATOM      9  C   UNL     1      29.846  45.930 140.315  1.00  0.00     0.094 A 
ATOM     10  C   UNL     1      28.690  45.461 139.683  1.00  0.00     0.146 A 
ATOM     11  O   UNL     1      28.504  44.151 139.566  1.00  0.00    -0.452 OA
ENDROOT
BRANCH   1  12
ATOM     12  C   UNL     1      27.342  42.137 138.928  1.00  0.00     0.025 A 
ATOM     13  C   UNL     1      27.972  41.401 137.909  1.00  0.00     0.016 A 
ATOM     14  C   UNL     1      27.849  40.010 137.862  1.00  0.00     0.051 A 
ATOM     15  C   UNL     1      27.084  39.335 138.823  1.00  0.00     0.157 A 
ATOM     16  C   UNL     1      26.559  41.457 139.876  1.00  0.00     0.062 A 
ATOM     17  C   UNL     1      26.434  40.064 139.832  1.00  0.00     0.158 A 
BRANCH  15  18
ATOM     18  O   UNL     1      26.965  37.947 138.775  1.00  0.00    -0.504 OA
ATOM     19  H   UNL     1      27.241  37.419 137.956  1.00  0.00     0.293 HD
ENDBRANCH  15  18
BRANCH  17  20
ATOM     20  O   UNL     1      25.659  39.423 140.799  1.00  0.00    -0.504 OA
ATOM     21  H   UNL     1      25.972  38.581 141.267  1.00  0.00     0.293 HD
ENDBRANCH  17  20
ENDBRANCH   1  12
BRANCH   2  22
ATOM     22  O   UNL     1      25.350  43.897 137.764  1.00  0.00    -0.502 OA
ATOM     23  H   UNL     1      25.449  43.356 136.913  1.00  0.00     0.293 HD
ENDBRANCH   2  22
BRANCH   6  24
ATOM     24  O   UNL     1      27.040  48.694 138.844  1.00  0.00    -0.507 OA
ATOM     25  H   UNL     1      26.739  49.484 139.404  1.00  0.00     0.293 HD
ENDBRANCH   6  24
BRANCH   8  26
ATOM     26  O   UNL     1      31.222  47.748 141.092  1.00  0.00    -0.508 OA
ATOM     27  H   UNL     1      31.881  47.100 141.509  1.00  0.00     0.293 HD
ENDBRANCH   8  26
TORSDOF 6
ENDMDL
MODEL 4
REMARK VINA RESULT:    -6.066      6.770      9.137
REMARK INTER + INTRA:          -7.471
REMARK INTER:                  -7.150
REMARK INTRA:                  -0.321
REMARK UNBOUND:                -0.163
REMARK SMILES O=c1c(O)c(-c2ccc(O)c(O)c2)oc2cc(O)cc(O)c12
REMARK SMILES IDX 5 1 3 2 2 3 1 4 22 5 20 6 19 7 17 8 16 9 15 10 14 11 6 12
REMARK SMILES IDX 7 13 8 14 9 15 13 16 11 17 10 18 12 20 4 22 21 24 18 26
REMARK H PARENT 10 19 12 21 4 23 21 25 18 27
REMARK Flexibility Score: inf
ROOT
ATOM      1  C   UNL     1      34.800  44.934 144.395  1.00  0.00     0.180 A 
ATOM      2  C   UNL     1      34.136  45.074 145.629  1.00  0.00     0.208 A 
ATOM      3  C   UNL     1      34.494  44.228 146.691  1.00  0.00     0.238 A 
ATOM      4  O   UNL     1      33.899  44.337 147.799  1.00  0.00    -0.285 OA
ATOM      5  C   UNL     1      35.518  43.276 146.509  1.00  0.00     0.111 A 
ATOM      6  C   UNL     1      35.940  42.389 147.529  1.00  0.00     0.134 A 
ATOM      7  C   UNL     1      36.972  41.475 147.272  1.00  0.00     0.093 A 
ATOM      8  C   UNL     1      37.590  41.431 146.017  1.00  0.00     0.123 A 
ATOM      9  C   UNL     1      37.175  42.303 145.008  1.00  0.00     0.094 A 
ATOM     10  C   UNL     1      36.147  43.220 145.245  1.00  0.00     0.146 A 
ATOM     11  O   UNL     1      35.770  44.033 144.265  1.00  0.00    -0.452 OA
ENDROOT
BRANCH   1  12
ATOM     12  C   UNL     1      34.466  45.774 143.223  1.00  0.00     0.025 A 
ATOM     13  C   UNL     1      35.051  47.039 143.038  1.00  0.00     0.016 A 
ATOM     14  C   UNL     1      34.702  47.824 141.936  1.00  0.00     0.051 A 
ATOM     15  C   UNL     1      33.755  47.365 141.012  1.00  0.00     0.157 A 
ATOM     16  C   UNL     1      33.501  45.327 142.305  1.00  0.00     0.062 A 
ATOM     17  C   UNL     1      33.150  46.111 141.200  1.00  0.00     0.158 A 
BRANCH  15  18
ATOM     18  O   UNL     1      33.410  48.150 139.913  1.00  0.00    -0.504 OA
ATOM     19  H   UNL     1      33.587  47.841 138.964  1.00  0.00     0.293 HD
ENDBRANCH  15  18
BRANCH  17  20
ATOM     20  O   UNL     1      32.198  45.628 140.302  1.00  0.00    -0.504 OA
ATOM     21  H   UNL     1      31.221  45.535 140.554  1.00  0.00     0.293 HD
ENDBRANCH  17  20
ENDBRANCH   1  12
BRANCH   2  22
ATOM     22  O   UNL     1      33.160  46.059 145.799  1.00  0.00    -0.502 OA
ATOM     23  H   UNL     1      32.338  46.116 145.210  1.00  0.00     0.293 HD
ENDBRANCH   2  22
BRANCH   6  24
ATOM     24  O   UNL     1      35.345  42.410 148.792  1.00  0.00    -0.507 OA
ATOM     25  H   UNL     1      35.536  43.150 149.458  1.00  0.00     0.293 HD
ENDBRANCH   6  24
BRANCH   8  26
ATOM     26  O   UNL     1      38.615  40.523 145.761  1.00  0.00    -0.508 OA
ATOM     27  H   UNL     1      39.301  40.286 146.469  1.00  0.00     0.293 HD
ENDBRANCH   8  26
TORSDOF 6
ENDMDL
MODEL 5
REMARK VINA RESULT:    -6.059      1.494      6.824
REMARK INTER + INTRA:          -7.462
REMARK INTER:                  -7.173
REMARK INTRA:                  -0.289
REMARK UNBOUND:                -0.163
REMARK SMILES O=c1c(O)c(-c2ccc(O)c(O)c2)oc2cc(O)cc(O)c12
REMARK SMILES IDX 5 1 3 2 2 3 1 4 22 5 20 6 19 7 17 8 16 9 15 10 14 11 6 12
REMARK SMILES IDX 7 13 8 14 9 15 13 16 11 17 10 18 12 20 4 22 21 24 18 26
REMARK H PARENT 10 19 12 21 4 23 21 25 18 27
REMARK Flexibility Score: inf
ROOT
ATOM      1  C   UNL     1      29.402  48.528 140.217  1.00  0.00     0.180 A 
ATOM      2  C   UNL     1      28.730  48.984 139.067  1.00  0.00     0.208 A 
ATOM      3  C   UNL     1      27.829  48.123 138.423  1.00  0.00     0.238 A 
ATOM      4  O   UNL     1      27.227  48.516 137.385  1.00  0.00    -0.285 OA
ATOM      5  C   UNL     1      27.600  46.834 138.946  1.00  0.00     0.111 A 
ATOM      6  C   UNL     1      26.706  45.906 138.359  1.00  0.00     0.134 A 
ATOM      7  C   UNL     1      26.527  44.645 138.946  1.00  0.00     0.093 A 
ATOM      8  C   UNL     1      27.224  44.294 140.107  1.00  0.00     0.123 A 
ATOM      9  C   UNL     1      28.108  45.205 140.689  1.00  0.00     0.094 A 
ATOM     10  C   UNL     1      28.301  46.466 140.118  1.00  0.00     0.146 A 
ATOM     11  O   UNL     1      29.151  47.311 140.690  1.00  0.00    -0.452 OA
ENDROOT
BRANCH   1  12
ATOM     12  C   UNL     1      30.382  49.370 140.941  1.00  0.00     0.025 A 
ATOM     13  C   UNL     1      29.966  50.394 141.810  1.00  0.00     0.016 A 
ATOM     14  C   UNL     1      30.910  51.191 142.464  1.00  0.00     0.051 A 
ATOM     15  C   UNL     1      32.279  50.987 142.249  1.00  0.00     0.157 A 
ATOM     16  C   UNL     1      31.756  49.182 140.713  1.00  0.00     0.062 A 
ATOM     17  C   UNL     1      32.702  49.979 141.367  1.00  0.00     0.158 A 
BRANCH  15  18
ATOM     18  O   UNL     1      33.218  51.782 142.905  1.00  0.00    -0.504 OA
ATOM     19  H   UNL     1      33.062  52.772 143.055  1.00  0.00     0.293 HD
ENDBRANCH  15  18
BRANCH  17  20
ATOM     20  O   UNL     1      34.058  49.755 141.126  1.00  0.00    -0.504 OA
ATOM     21  H   UNL     1      34.711  49.555 141.874  1.00  0.00     0.293 HD
ENDBRANCH  17  20
ENDBRANCH   1  12
BRANCH   2  22
ATOM     22  O   UNL     1      28.936  50.283 138.597  1.00  0.00    -0.502 OA
ATOM     23  H   UNL     1      29.277  50.475 137.662  1.00  0.00     0.293 HD
ENDBRANCH   2  22
BRANCH   6  24
ATOM     24  O   UNL     1      25.995  46.228 137.201  1.00  0.00    -0.507 OA
ATOM     25  H   UNL     1      25.152  46.789 137.233  1.00  0.00     0.293 HD
ENDBRANCH   6  24
BRANCH   8  26
ATOM     26  O   UNL     1      27.047  43.042 140.691  1.00  0.00    -0.508 OA
ATOM     27  H   UNL     1      27.753  42.634 141.293  1.00  0.00     0.293 HD
ENDBRANCH   8  26
TORSDOF 6
ENDMDL
MODEL 6
REMARK VINA RESULT:    -5.995      3.366      6.344
REMARK INTER + INTRA:          -7.385
REMARK INTER:                  -7.110
REMARK INTRA:                  -0.275
REMARK UNBOUND:                -0.163
REMARK SMILES O=c1c(O)c(-c2ccc(O)c(O)c2)oc2cc(O)cc(O)c12
REMARK SMILES IDX 5 1 3 2 2 3 1 4 22 5 20 6 19 7 17 8 16 9 15 10 14 11 6 12
REMARK SMILES IDX 7 13 8 14 9 15 13 16 11 17 10 18 12 20 4 22 21 24 18 26
REMARK H PARENT 10 19 12 21 4 23 21 25 18 27
REMARK Flexibility Score: inf
ROOT
ATOM      1  C   UNL     1      29.762  49.598 139.712  1.00  0.00     0.180 A 
ATOM      2  C   UNL     1      29.945  50.457 138.612  1.00  0.00     0.208 A 
ATOM      3  C   UNL     1      28.814  51.004 137.984  1.00  0.00     0.238 A 
ATOM      4  O   UNL     1      28.965  51.768 136.991  1.00  0.00    -0.285 OA
ATOM      5  C   UNL     1      27.529  50.700 138.476  1.00  0.00     0.111 A 
ATOM      6  C   UNL     1      26.339  51.213 137.903  1.00  0.00     0.134 A 
ATOM      7  C   UNL     1      25.097  50.870 138.456  1.00  0.00     0.093 A 
ATOM      8  C   UNL     1      25.021  50.027 139.571  1.00  0.00     0.123 A 
ATOM      9  C   UNL     1      26.191  49.519 140.138  1.00  0.00     0.094 A 
ATOM     10  C   UNL     1      27.438  49.847 139.600  1.00  0.00     0.146 A 
ATOM     11  O   UNL     1      28.534  49.345 140.157  1.00  0.00    -0.452 OA
ENDROOT
BRANCH   1  12
ATOM     12  C   UNL     1      30.902  48.967 140.415  1.00  0.00     0.025 A 
ATOM     13  C   UNL     1      31.704  49.695 141.312  1.00  0.00     0.016 A 
ATOM     14  C   UNL     1      32.790  49.084 141.944  1.00  0.00     0.051 A 
ATOM     15  C   UNL     1      33.099  47.743 141.681  1.00  0.00     0.157 A 
ATOM     16  C   UNL     1      31.229  47.628 140.138  1.00  0.00     0.062 A 
ATOM     17  C   UNL     1      32.315  47.014 140.772  1.00  0.00     0.158 A 
BRANCH  15  18
ATOM     18  O   UNL     1      34.181  47.136 142.316  1.00  0.00    -0.504 OA
ATOM     19  H   UNL     1      34.980  47.672 142.633  1.00  0.00     0.293 HD
ENDBRANCH  15  18
BRANCH  17  20
ATOM     20  O   UNL     1      32.601  45.679 140.482  1.00  0.00    -0.504 OA
ATOM     21  H   UNL     1      31.941  44.935 140.673  1.00  0.00     0.293 HD
ENDBRANCH  17  20
ENDBRANCH   1  12
BRANCH   2  22
ATOM     22  O   UNL     1      31.231  50.782 138.175  1.00  0.00    -0.502 OA
ATOM     23  H   UNL     1      31.431  51.631 137.659  1.00  0.00     0.293 HD
ENDBRANCH   2  22
BRANCH   6  24
ATOM     24  O   UNL     1      26.383  52.058 136.793  1.00  0.00    -0.507 OA
ATOM     25  H   UNL     1      25.585  52.171 136.178  1.00  0.00     0.293 HD
ENDBRANCH   6  24
BRANCH   8  26
ATOM     26  O   UNL     1      23.787  49.687 140.121  1.00  0.00    -0.508 OA
ATOM     27  H   UNL     1      23.185  48.998 139.684  1.00  0.00     0.293 HD
ENDBRANCH   8  26
TORSDOF 6
ENDMDL
MODEL 7
REMARK VINA RESULT:    -5.899      8.133     10.626
REMARK INTER + INTRA:          -7.269
REMARK INTER:                  -6.939
REMARK INTRA:                  -0.330
REMARK UNBOUND:                -0.163
REMARK SMILES O=c1c(O)c(-c2ccc(O)c(O)c2)oc2cc(O)cc(O)c12
REMARK SMILES IDX 5 1 3 2 2 3 1 4 22 5 20 6 19 7 17 8 16 9 15 10 14 11 6 12
REMARK SMILES IDX 7 13 8 14 9 15 13 16 11 17 10 18 12 20 4 22 21 24 18 26
REMARK H PARENT 10 19 12 21 4 23 21 25 18 27
REMARK Flexibility Score: inf
ROOT
ATOM      1  C   UNL     1      33.946  42.557 144.810  1.00  0.00     0.180 A 
ATOM      2  C   UNL     1      32.870  41.703 144.503  1.00  0.00     0.208 A 
ATOM      3  C   UNL     1      33.038  40.318 144.658  1.00  0.00     0.238 A 
ATOM      4  O   UNL     1      32.085  39.541 144.377  1.00  0.00    -0.285 OA
ATOM      5  C   UNL     1      34.266  39.814 145.134  1.00  0.00     0.111 A 
ATOM      6  C   UNL     1      34.516  38.433 145.322  1.00  0.00     0.134 A 
ATOM      7  C   UNL     1      35.763  38.011 145.807  1.00  0.00     0.093 A 
ATOM      8  C   UNL     1      36.762  38.943 146.109  1.00  0.00     0.123 A 
ATOM      9  C   UNL     1      36.521  40.306 145.925  1.00  0.00     0.094 A 
ATOM     10  C   UNL     1      35.286  40.745 145.440  1.00  0.00     0.146 A 
ATOM     11  O   UNL     1      35.085  42.047 145.269  1.00  0.00    -0.452 OA
ENDROOT
BRANCH   1  12
ATOM     12  C   UNL     1      33.853  44.027 144.654  1.00  0.00     0.025 A 
ATOM     13  C   UNL     1      34.245  44.664 143.463  1.00  0.00     0.016 A 
ATOM     14  C   UNL     1      34.170  46.054 143.348  1.00  0.00     0.051 A 
ATOM     15  C   UNL     1      33.717  46.830 144.423  1.00  0.00     0.157 A 
ATOM     16  C   UNL     1      33.419  44.810 145.737  1.00  0.00     0.062 A 
ATOM     17  C   UNL     1      33.343  46.203 145.623  1.00  0.00     0.158 A 
BRANCH  15  18
ATOM     18  O   UNL     1      33.642  48.216 144.305  1.00  0.00    -0.504 OA
ATOM     19  H   UNL     1      34.259  48.730 143.687  1.00  0.00     0.293 HD
ENDBRANCH  15  18
BRANCH  17  20
ATOM     20  O   UNL     1      32.895  46.947 146.715  1.00  0.00    -0.504 OA
ATOM     21  H   UNL     1      32.381  47.812 146.601  1.00  0.00     0.293 HD
ENDBRANCH  17  20
ENDBRANCH   1  12
BRANCH   2  22
ATOM     22  O   UNL     1      31.647  42.230 144.081  1.00  0.00    -0.502 OA
ATOM     23  H   UNL     1      30.997  42.672 144.720  1.00  0.00     0.293 HD
ENDBRANCH   2  22
BRANCH   6  24
ATOM     24  O   UNL     1      33.538  37.480 145.031  1.00  0.00    -0.507 OA
ATOM     25  H   UNL     1      33.141  37.390 144.103  1.00  0.00     0.293 HD
ENDBRANCH   6  24
BRANCH   8  26
ATOM     26  O   UNL     1      38.000  38.525 146.592  1.00  0.00    -0.508 OA
ATOM     27  H   UNL     1      38.207  38.519 147.584  1.00  0.00     0.293 HD
ENDBRANCH   8  26
TORSDOF 6
ENDMDL
MODEL 8
REMARK VINA RESULT:    -5.874     13.383     15.247
REMARK INTER + INTRA:          -7.239
REMARK INTER:                  -7.036
REMARK INTRA:                  -0.203
REMARK UNBOUND:                -0.163
REMARK SMILES O=c1c(O)c(-c2ccc(O)c(O)c2)oc2cc(O)cc(O)c12
REMARK SMILES IDX 5 1 3 2 2 3 1 4 22 5 20 6 19 7 17 8 16 9 15 10 14 11 6 12
REMARK SMILES IDX 7 13 8 14 9 15 13 16 11 17 10 18 12 20 4 22 21 24 18 26
REMARK H PARENT 10 19 12 21 4 23 21 25 18 27
REMARK Flexibility Score: inf
ROOT
ATOM      1  C   UNL     1      25.350  35.728 147.097  1.00  0.00     0.180 A 
ATOM      2  C   UNL     1      26.461  36.117 146.324  1.00  0.00     0.208 A 
ATOM      3  C   UNL     1      27.722  35.584 146.633  1.00  0.00     0.238 A 
ATOM      4  O   UNL     1      28.727  35.933 145.955  1.00  0.00    -0.285 OA
ATOM      5  C   UNL     1      27.847  34.660 147.691  1.00  0.00     0.111 A 
ATOM      6  C   UNL     1      29.081  34.074 148.064  1.00  0.00     0.134 A 
ATOM      7  C   UNL     1      29.122  33.156 149.124  1.00  0.00     0.093 A 
ATOM      8  C   UNL     1      27.956  32.812 149.816  1.00  0.00     0.123 A 
ATOM      9  C   UNL     1      26.737  33.389 149.452  1.00  0.00     0.094 A 
ATOM     10  C   UNL     1      26.676  34.308 148.400  1.00  0.00     0.146 A 
ATOM     11  O   UNL     1      25.504  34.844 148.078  1.00  0.00    -0.452 OA
ENDROOT
BRANCH   1  12
ATOM     12  C   UNL     1      23.992  36.261 146.846  1.00  0.00     0.025 A 
ATOM     13  C   UNL     1      22.974  35.451 146.311  1.00  0.00     0.016 A 
ATOM     14  C   UNL     1      21.706  35.984 146.060  1.00  0.00     0.051 A 
ATOM     15  C   UNL     1      21.441  37.333 146.325  1.00  0.00     0.157 A 
ATOM     16  C   UNL     1      23.726  37.620 147.090  1.00  0.00     0.062 A 
ATOM     17  C   UNL     1      22.457  38.154 146.840  1.00  0.00     0.158 A 
BRANCH  15  18
ATOM     18  O   UNL     1      20.175  37.860 146.076  1.00  0.00    -0.504 OA
ATOM     19  H   UNL     1      20.018  38.860 146.020  1.00  0.00     0.293 HD
ENDBRANCH  15  18
BRANCH  17  20
ATOM     20  O   UNL     1      22.227  39.504 147.108  1.00  0.00    -0.504 OA
ATOM     21  H   UNL     1      22.965  40.196 147.052  1.00  0.00     0.293 HD
ENDBRANCH  17  20
ENDBRANCH   1  12
BRANCH   2  22
ATOM     22  O   UNL     1      26.301  36.996 145.250  1.00  0.00    -0.502 OA
ATOM     23  H   UNL     1      25.800  37.872 145.334  1.00  0.00     0.293 HD
ENDBRANCH   2  22
BRANCH   6  24
ATOM     24  O   UNL     1      30.262  34.395 147.392  1.00  0.00    -0.507 OA
ATOM     25  H   UNL     1      30.402  34.155 146.417  1.00  0.00     0.293 HD
ENDBRANCH   6  24
BRANCH   8  26
ATOM     26  O   UNL     1      27.995  31.901 150.868  1.00  0.00    -0.508 OA
ATOM     27  H   UNL     1      27.615  30.965 150.773  1.00  0.00     0.293 HD
ENDBRANCH   8  26
TORSDOF 6
ENDMDL
MODEL 9
REMARK VINA RESULT:    -5.732      3.272      4.021
REMARK INTER + INTRA:          -7.068
REMARK INTER:                  -6.777
REMARK INTRA:                  -0.291
REMARK UNBOUND:                -0.163
REMARK SMILES O=c1c(O)c(-c2ccc(O)c(O)c2)oc2cc(O)cc(O)c12
REMARK SMILES IDX 5 1 3 2 2 3 1 4 22 5 20 6 19 7 17 8 16 9 15 10 14 11 6 12
REMARK SMILES IDX 7 13 8 14 9 15 13 16 11 17 10 18 12 20 4 22 21 24 18 26
REMARK H PARENT 10 19 12 21 4 23 21 25 18 27
REMARK Flexibility Score: inf
ROOT
ATOM      1  C   UNL     1      29.827  49.423 139.814  1.00  0.00     0.180 A 
ATOM      2  C   UNL     1      30.716  50.497 140.011  1.00  0.00     0.208 A 
ATOM      3  C   UNL     1      32.010  50.229 140.484  1.00  0.00     0.238 A 
ATOM      4  O   UNL     1      32.812  51.184 140.675  1.00  0.00    -0.285 OA
ATOM      5  C   UNL     1      32.399  48.896 140.733  1.00  0.00     0.111 A 
ATOM      6  C   UNL     1      33.685  48.540 141.207  1.00  0.00     0.134 A 
ATOM      7  C   UNL     1      33.998  47.190 141.421  1.00  0.00     0.093 A 
ATOM      8  C   UNL     1      33.052  46.190 141.170  1.00  0.00     0.123 A 
ATOM      9  C   UNL     1      31.782  46.537 140.703  1.00  0.00     0.094 A 
ATOM     10  C   UNL     1      31.450  47.877 140.485  1.00  0.00     0.146 A 
ATOM     11  O   UNL     1      30.234  48.178 140.046  1.00  0.00    -0.452 OA
ENDROOT
BRANCH   1  12
ATOM     12  C   UNL     1      28.441  49.627 139.336  1.00  0.00     0.025 A 
ATOM     13  C   UNL     1      28.161  49.862 137.978  1.00  0.00     0.016 A 
ATOM     14  C   UNL     1      26.846  50.075 137.555  1.00  0.00     0.051 A 
ATOM     15  C   UNL     1      25.795  50.071 138.481  1.00  0.00     0.157 A 
ATOM     16  C   UNL     1      27.386  49.644 140.264  1.00  0.00     0.062 A 
ATOM     17  C   UNL     1      26.068  49.857 139.842  1.00  0.00     0.158 A 
BRANCH  15  18
ATOM     18  O   UNL     1      24.485  50.282 138.055  1.00  0.00    -0.504 OA
ATOM     19  H   UNL     1      24.217  51.124 137.561  1.00  0.00     0.293 HD
ENDBRANCH  15  18
BRANCH  17  20
ATOM     20  O   UNL     1      25.045  49.854 140.791  1.00  0.00    -0.504 OA
ATOM     21  H   UNL     1      24.570  50.703 141.071  1.00  0.00     0.293 HD
ENDBRANCH  17  20
ENDBRANCH   1  12
BRANCH   2  22
ATOM     22  O   UNL     1      30.323  51.804 139.710  1.00  0.00    -0.502 OA
ATOM     23  H   UNL     1      30.312  52.163 138.763  1.00  0.00     0.293 HD
ENDBRANCH   2  22
BRANCH   6  24
ATOM     24  O   UNL     1      34.650  49.515 141.465  1.00  0.00    -0.507 OA
ATOM     25  H   UNL     1      34.424  50.503 141.459  1.00  0.00     0.293 HD
ENDBRANCH   6  24
BRANCH   8  26
ATOM     26  O   UNL     1      33.362  44.849 141.382  1.00  0.00    -0.508 OA
ATOM     27  H   UNL     1      33.998  44.349 140.771  1.00  0.00     0.293 HD
ENDBRANCH   8  26
TORSDOF 6
ENDMDL
