MODEL 1
REMARK VINA RESULT:    -7.237      0.000      0.000
REMARK INTER + INTRA:          -8.275
REMARK INTER:                  -8.507
REMARK INTRA:                   0.232
REMARK UNBOUND:                 0.232
REMARK SMILES O=c1c(O)c(-c2ccc(O)cc2)oc2cc(O)cc(O)c12
REMARK SMILES IDX 5 1 3 2 2 3 1 4 21 5 19 6 18 7 16 8 15 9 14 10 13 11 6 12
REMARK SMILES IDX 7 13 8 14 9 15 12 16 11 17 10 18 4 20 20 22 17 24
REMARK H PARENT 10 19 4 21 20 23 17 25
REMARK Flexibility Score: inf
ROOT
ATOM      1  C   UNL     1      40.254 117.475  12.719  1.00  0.00     0.180 A 
ATOM      2  C   UNL     1      40.541 117.492  14.095  1.00  0.00     0.208 A 
ATOM      3  C   UNL     1      39.513 117.797  15.002  1.00  0.00     0.238 A 
ATOM      4  O   UNL     1      39.763 117.758  16.234  1.00  0.00    -0.285 OA
ATOM      5  C   UNL     1      38.215 118.095  14.521  1.00  0.00     0.111 A 
ATOM      6  C   UNL     1      37.108 118.456  15.346  1.00  0.00     0.134 A 
ATOM      7  C   UNL     1      35.839 118.603  14.774  1.00  0.00     0.093 A 
ATOM      8  C   UNL     1      35.650 118.465  13.397  1.00  0.00     0.123 A 
ATOM      9  C   UNL     1      36.735 118.171  12.575  1.00  0.00     0.094 A 
ATOM     10  C   UNL     1      38.007 117.984  13.122  1.00  0.00     0.146 A 
ATOM     11  O   UNL     1      39.012 117.694  12.304  1.00  0.00    -0.452 OA
ENDROOT
BRANCH   1  12
ATOM     12  C   UNL     1      41.290 117.188  11.701  1.00  0.00     0.021 A 
ATOM     13  C   UNL     1      42.303 116.240  11.935  1.00  0.00     0.016 A 
ATOM     14  C   UNL     1      43.286 116.002  10.968  1.00  0.00     0.047 A 
ATOM     15  C   UNL     1      43.276 116.718   9.764  1.00  0.00     0.115 A 
ATOM     16  C   UNL     1      41.300 117.916  10.499  1.00  0.00     0.016 A 
ATOM     17  C   UNL     1      42.283 117.675   9.534  1.00  0.00     0.047 A 
BRANCH  15  18
ATOM     18  O   UNL     1      44.249 116.488   8.793  1.00  0.00    -0.508 OA
ATOM     19  H   UNL     1      45.098 117.039   8.753  1.00  0.00     0.293 HD
ENDBRANCH  15  18
ENDBRANCH   1  12
BRANCH   2  20
ATOM     20  O   UNL     1      41.824 117.174  14.549  1.00  0.00    -0.502 OA
ATOM     21  H   UNL     1      42.143 117.404  15.483  1.00  0.00     0.293 HD
ENDBRANCH   2  20
BRANCH   6  22
ATOM     22  O   UNL     1      37.207 118.708  16.718  1.00  0.00    -0.507 OA
ATOM     23  H   UNL     1      37.995 118.452  17.294  1.00  0.00     0.293 HD
ENDBRANCH   6  22
BRANCH   8  24
ATOM     24  O   UNL     1      34.385 118.628  12.834  1.00  0.00    -0.508 OA
ATOM     25  H   UNL     1      34.137 119.465  12.322  1.00  0.00     0.293 HD
ENDBRANCH   8  24
TORSDOF 5
ENDMDL
MODEL 2
REMARK VINA RESULT:    -7.188      5.163      8.105
REMARK INTER + INTRA:          -8.217
REMARK INTER:                  -8.599
REMARK INTRA:                   0.383
REMARK UNBOUND:                 0.232
REMARK SMILES O=c1c(O)c(-c2ccc(O)cc2)oc2cc(O)cc(O)c12
REMARK SMILES IDX 5 1 3 2 2 3 1 4 21 5 19 6 18 7 16 8 15 9 14 10 13 11 6 12
REMARK SMILES IDX 7 13 8 14 9 15 12 16 11 17 10 18 4 20 20 22 17 24
REMARK H PARENT 10 19 4 21 20 23 17 25
REMARK Flexibility Score: inf
ROOT
ATOM      1  C   UNL     1      45.608 112.941   9.156  1.00  0.00     0.180 A 
ATOM      2  C   UNL     1      45.406 112.621  10.509  1.00  0.00     0.208 A 
ATOM      3  C   UNL     1      44.639 113.486  11.307  1.00  0.00     0.238 A 
ATOM      4  O   UNL     1      44.417 113.167  12.503  1.00  0.00    -0.285 OA
ATOM      5  C   UNL     1      44.095 114.666  10.745  1.00  0.00     0.111 A 
ATOM      6  C   UNL     1      43.336 115.634  11.468  1.00  0.00     0.134 A 
ATOM      7  C   UNL     1      42.738 116.697  10.781  1.00  0.00     0.093 A 
ATOM      8  C   UNL     1      42.926 116.863   9.407  1.00  0.00     0.123 A 
ATOM      9  C   UNL     1      43.715 115.958   8.702  1.00  0.00     0.094 A 
ATOM     10  C   UNL     1      44.295 114.866   9.354  1.00  0.00     0.146 A 
ATOM     11  O   UNL     1      45.031 114.021   8.642  1.00  0.00    -0.452 OA
ENDROOT
BRANCH   1  12
ATOM     12  C   UNL     1      46.426 112.093   8.259  1.00  0.00     0.021 A 
ATOM     13  C   UNL     1      46.636 110.728   8.531  1.00  0.00     0.016 A 
ATOM     14  C   UNL     1      47.432 109.952   7.683  1.00  0.00     0.047 A 
ATOM     15  C   UNL     1      48.039 110.532   6.561  1.00  0.00     0.115 A 
ATOM     16  C   UNL     1      47.055 112.671   7.143  1.00  0.00     0.016 A 
ATOM     17  C   UNL     1      47.849 111.892   6.295  1.00  0.00     0.047 A 
BRANCH  15  18
ATOM     18  O   UNL     1      48.832 109.768   5.707  1.00  0.00    -0.508 OA
ATOM     19  H   UNL     1      49.839 109.870   5.688  1.00  0.00     0.293 HD
ENDBRANCH  15  18
ENDBRANCH   1  12
BRANCH   2  20
ATOM     20  O   UNL     1      45.934 111.440  11.039  1.00  0.00    -0.502 OA
ATOM     21  H   UNL     1      46.578 110.853  10.522  1.00  0.00     0.293 HD
ENDBRANCH   2  20
BRANCH   6  22
ATOM     22  O   UNL     1      43.164 115.612  12.855  1.00  0.00    -0.507 OA
ATOM     23  H   UNL     1      43.913 115.665  13.528  1.00  0.00     0.293 HD
ENDBRANCH   6  22
BRANCH   8  24
ATOM     24  O   UNL     1      42.340 117.934   8.734  1.00  0.00    -0.508 OA
ATOM     25  H   UNL     1      42.529 118.112   7.755  1.00  0.00     0.293 HD
ENDBRANCH   8  24
TORSDOF 5
ENDMDL
MODEL 3
REMARK VINA RESULT:    -7.174      1.679      6.755
REMARK INTER + INTRA:          -8.201
REMARK INTER:                  -7.911
REMARK INTRA:                  -0.289
REMARK UNBOUND:                 0.232
REMARK SMILES O=c1c(O)c(-c2ccc(O)cc2)oc2cc(O)cc(O)c12
REMARK SMILES IDX 5 1 3 2 2 3 1 4 21 5 19 6 18 7 16 8 15 9 14 10 13 11 6 12
REMARK SMILES IDX 7 13 8 14 9 15 12 16 11 17 10 18 4 20 20 22 17 24
REMARK H PARENT 10 19 4 21 20 23 17 25
REMARK Flexibility Score: inf
ROOT
ATOM      1  C   UNL     1      40.696 117.128  12.608  1.00  0.00     0.180 A 
ATOM      2  C   UNL     1      41.338 116.368  13.602  1.00  0.00     0.208 A 
ATOM      3  C   UNL     1      42.541 115.715  13.289  1.00  0.00     0.238 A 
ATOM      4  O   UNL     1      43.138 115.082  14.197  1.00  0.00    -0.285 OA
ATOM      5  C   UNL     1      43.080 115.817  11.984  1.00  0.00     0.111 A 
ATOM      6  C   UNL     1      44.271 115.166  11.545  1.00  0.00     0.134 A 
ATOM      7  C   UNL     1      44.780 115.442  10.270  1.00  0.00     0.093 A 
ATOM      8  C   UNL     1      44.106 116.297   9.395  1.00  0.00     0.123 A 
ATOM      9  C   UNL     1      42.911 116.892   9.793  1.00  0.00     0.094 A 
ATOM     10  C   UNL     1      42.396 116.663  11.072  1.00  0.00     0.146 A 
ATOM     11  O   UNL     1      41.260 117.258  11.413  1.00  0.00    -0.452 OA
ENDROOT
BRANCH   1  12
ATOM     12  C   UNL     1      39.413 117.824  12.854  1.00  0.00     0.021 A 
ATOM     13  C   UNL     1      39.377 119.139  13.353  1.00  0.00     0.016 A 
ATOM     14  C   UNL     1      38.153 119.768  13.601  1.00  0.00     0.047 A 
ATOM     15  C   UNL     1      36.951 119.087  13.367  1.00  0.00     0.115 A 
ATOM     16  C   UNL     1      38.203 117.141  12.642  1.00  0.00     0.016 A 
ATOM     17  C   UNL     1      36.980 117.773  12.889  1.00  0.00     0.047 A 
BRANCH  15  18
ATOM     18  O   UNL     1      35.725 119.704  13.608  1.00  0.00    -0.508 OA
ATOM     19  H   UNL     1      35.648 120.507  14.220  1.00  0.00     0.293 HD
ENDBRANCH  15  18
ENDBRANCH   1  12
BRANCH   2  20
ATOM     20  O   UNL     1      40.800 116.298  14.890  1.00  0.00    -0.502 OA
ATOM     21  H   UNL     1      41.351 116.485  15.720  1.00  0.00     0.293 HD
ENDBRANCH   2  20
BRANCH   6  22
ATOM     22  O   UNL     1      44.971 114.224  12.306  1.00  0.00    -0.507 OA
ATOM     23  H   UNL     1      44.772 114.002  13.269  1.00  0.00     0.293 HD
ENDBRANCH   6  22
BRANCH   8  24
ATOM     24  O   UNL     1      44.612 116.554   8.123  1.00  0.00    -0.508 OA
ATOM     25  H   UNL     1      44.395 117.411   7.629  1.00  0.00     0.293 HD
ENDBRANCH   8  24
TORSDOF 5
ENDMDL
MODEL 4
REMARK VINA RESULT:    -7.138      3.527      6.886
REMARK INTER + INTRA:          -8.159
REMARK INTER:                  -7.885
REMARK INTRA:                  -0.274
REMARK UNBOUND:                 0.232
REMARK SMILES O=c1c(O)c(-c2ccc(O)cc2)oc2cc(O)cc(O)c12
REMARK SMILES IDX 5 1 3 2 2 3 1 4 21 5 19 6 18 7 16 8 15 9 14 10 13 11 6 12
REMARK SMILES IDX 7 13 8 14 9 15 12 16 11 17 10 18 4 20 20 22 17 24
REMARK H PARENT 10 19 4 21 20 23 17 25
REMARK Flexibility Score: inf
ROOT
ATOM      1  C   UNL     1      44.534 114.582  11.508  1.00  0.00     0.180 A 
ATOM      2  C   UNL     1      44.886 114.851  10.174  1.00  0.00     0.208 A 
ATOM      3  C   UNL     1      44.119 115.769   9.439  1.00  0.00     0.238 A 
ATOM      4  O   UNL     1      44.471 116.046   8.263  1.00  0.00    -0.285 OA
ATOM      5  C   UNL     1      43.001 116.395  10.041  1.00  0.00     0.111 A 
ATOM      6  C   UNL     1      42.130 117.311   9.378  1.00  0.00     0.134 A 
ATOM      7  C   UNL     1      41.132 117.968  10.109  1.00  0.00     0.093 A 
ATOM      8  C   UNL     1      40.934 117.694  11.465  1.00  0.00     0.123 A 
ATOM      9  C   UNL     1      41.741 116.758  12.107  1.00  0.00     0.094 A 
ATOM     10  C   UNL     1      42.768 116.112  11.412  1.00  0.00     0.146 A 
ATOM     11  O   UNL     1      43.520 115.235  12.065  1.00  0.00    -0.452 OA
ENDROOT
BRANCH   1  12
ATOM     12  C   UNL     1      45.279 113.609  12.339  1.00  0.00     0.021 A 
ATOM     13  C   UNL     1      45.062 112.224  12.216  1.00  0.00     0.016 A 
ATOM     14  C   UNL     1      45.759 111.325  13.029  1.00  0.00     0.047 A 
ATOM     15  C   UNL     1      46.671 111.798  13.983  1.00  0.00     0.115 A 
ATOM     16  C   UNL     1      46.179 114.076  13.312  1.00  0.00     0.016 A 
ATOM     17  C   UNL     1      46.876 113.174  14.122  1.00  0.00     0.047 A 
BRANCH  15  18
ATOM     18  O   UNL     1      47.372 110.911  14.796  1.00  0.00    -0.508 OA
ATOM     19  H   UNL     1      46.916 110.404  15.545  1.00  0.00     0.293 HD
ENDBRANCH  15  18
ENDBRANCH   1  12
BRANCH   2  20
ATOM     20  O   UNL     1      46.006 114.238   9.606  1.00  0.00    -0.502 OA
ATOM     21  H   UNL     1      46.068 113.236   9.470  1.00  0.00     0.293 HD
ENDBRANCH   2  20
BRANCH   6  22
ATOM     22  O   UNL     1      42.182 117.585   8.008  1.00  0.00    -0.507 OA
ATOM     23  H   UNL     1      42.416 116.911   7.295  1.00  0.00     0.293 HD
ENDBRANCH   6  22
BRANCH   8  24
ATOM     24  O   UNL     1      39.930 118.341  12.180  1.00  0.00    -0.508 OA
ATOM     25  H   UNL     1      38.950 118.150  12.010  1.00  0.00     0.293 HD
ENDBRANCH   8  24
TORSDOF 5
ENDMDL
MODEL 5
REMARK VINA RESULT:    -7.089      5.274      7.882
REMARK INTER + INTRA:          -8.100
REMARK INTER:                  -7.897
REMARK INTRA:                  -0.203
REMARK UNBOUND:                 0.232
REMARK SMILES O=c1c(O)c(-c2ccc(O)cc2)oc2cc(O)cc(O)c12
REMARK SMILES IDX 5 1 3 2 2 3 1 4 21 5 19 6 18 7 16 8 15 9 14 10 13 11 6 12
REMARK SMILES IDX 7 13 8 14 9 15 12 16 11 17 10 18 4 20 20 22 17 24
REMARK H PARENT 10 19 4 21 20 23 17 25
REMARK Flexibility Score: inf
ROOT
ATOM      1  C   UNL     1      44.680 115.441  11.926  1.00  0.00     0.180 A 
ATOM      2  C   UNL     1      45.454 116.240  12.784  1.00  0.00     0.208 A 
ATOM      3  C   UNL     1      46.185 115.625  13.814  1.00  0.00     0.238 A 
ATOM      4  O   UNL     1      46.919 116.339  14.545  1.00  0.00    -0.285 OA
ATOM      5  C   UNL     1      46.120 114.220  13.981  1.00  0.00     0.111 A 
ATOM      6  C   UNL     1      46.787 113.494  15.013  1.00  0.00     0.134 A 
ATOM      7  C   UNL     1      46.756 112.095  15.004  1.00  0.00     0.093 A 
ATOM      8  C   UNL     1      46.029 111.396  14.037  1.00  0.00     0.123 A 
ATOM      9  C   UNL     1      45.327 112.097  13.060  1.00  0.00     0.094 A 
ATOM     10  C   UNL     1      45.367 113.493  13.022  1.00  0.00     0.146 A 
ATOM     11  O   UNL     1      44.691 114.121  12.067  1.00  0.00    -0.452 OA
ENDROOT
BRANCH   1  12
ATOM     12  C   UNL     1      43.863 116.019  10.834  1.00  0.00     0.021 A 
ATOM     13  C   UNL     1      42.715 116.787  11.106  1.00  0.00     0.016 A 
ATOM     14  C   UNL     1      41.945 117.303  10.059  1.00  0.00     0.047 A 
ATOM     15  C   UNL     1      42.304 117.047   8.728  1.00  0.00     0.115 A 
ATOM     16  C   UNL     1      44.204 115.751   9.498  1.00  0.00     0.016 A 
ATOM     17  C   UNL     1      43.433 116.269   8.452  1.00  0.00     0.047 A 
BRANCH  15  18
ATOM     18  O   UNL     1      41.546 117.557   7.677  1.00  0.00    -0.508 OA
ATOM     19  H   UNL     1      40.636 117.972   7.834  1.00  0.00     0.293 HD
ENDBRANCH  15  18
ENDBRANCH   1  12
BRANCH   2  20
ATOM     20  O   UNL     1      45.522 117.622  12.589  1.00  0.00    -0.502 OA
ATOM     21  H   UNL     1      45.092 118.081  11.793  1.00  0.00     0.293 HD
ENDBRANCH   2  20
BRANCH   6  22
ATOM     22  O   UNL     1      47.463 114.097  16.078  1.00  0.00    -0.507 OA
ATOM     23  H   UNL     1      47.169 114.056  17.042  1.00  0.00     0.293 HD
ENDBRANCH   6  22
BRANCH   8  24
ATOM     24  O   UNL     1      45.992 110.003  14.045  1.00  0.00    -0.508 OA
ATOM     25  H   UNL     1      46.838 109.451  14.121  1.00  0.00     0.293 HD
ENDBRANCH   8  24
TORSDOF 5
ENDMDL
MODEL 6
REMARK VINA RESULT:    -7.029      5.455      7.926
REMARK INTER + INTRA:          -8.030
REMARK INTER:                  -7.900
REMARK INTRA:                  -0.129
REMARK UNBOUND:                 0.232
REMARK SMILES O=c1c(O)c(-c2ccc(O)cc2)oc2cc(O)cc(O)c12
REMARK SMILES IDX 5 1 3 2 2 3 1 4 21 5 19 6 18 7 16 8 15 9 14 10 13 11 6 12
REMARK SMILES IDX 7 13 8 14 9 15 12 16 11 17 10 18 4 20 20 22 17 24
REMARK H PARENT 10 19 4 21 20 23 17 25
REMARK Flexibility Score: inf
ROOT
ATOM      1  C   UNL     1      44.573 115.275  11.642  1.00  0.00     0.180 A 
ATOM      2  C   UNL     1      44.573 113.900  11.933  1.00  0.00     0.208 A 
ATOM      3  C   UNL     1      45.360 113.429  12.996  1.00  0.00     0.238 A 
ATOM      4  O   UNL     1      45.315 112.206  13.286  1.00  0.00    -0.285 OA
ATOM      5  C   UNL     1      46.149 114.336  13.745  1.00  0.00     0.111 A 
ATOM      6  C   UNL     1      47.014 113.965  14.817  1.00  0.00     0.134 A 
ATOM      7  C   UNL     1      47.646 114.961  15.571  1.00  0.00     0.093 A 
ATOM      8  C   UNL     1      47.495 116.313  15.251  1.00  0.00     0.123 A 
ATOM      9  C   UNL     1      46.699 116.682  14.169  1.00  0.00     0.094 A 
ATOM     10  C   UNL     1      46.027 115.713  13.420  1.00  0.00     0.146 A 
ATOM     11  O   UNL     1      45.271 116.109  12.403  1.00  0.00    -0.452 OA
ENDROOT
BRANCH   1  12
ATOM     12  C   UNL     1      43.789 115.843  10.521  1.00  0.00     0.021 A 
ATOM     13  C   UNL     1      44.037 115.466   9.188  1.00  0.00     0.016 A 
ATOM     14  C   UNL     1      43.301 116.034   8.144  1.00  0.00     0.047 A 
ATOM     15  C   UNL     1      42.317 116.994   8.417  1.00  0.00     0.115 A 
ATOM     16  C   UNL     1      42.815 116.821  10.784  1.00  0.00     0.016 A 
ATOM     17  C   UNL     1      42.078 117.386   9.738  1.00  0.00     0.047 A 
BRANCH  15  18
ATOM     18  O   UNL     1      41.575 117.565   7.385  1.00  0.00    -0.508 OA
ATOM     19  H   UNL     1      40.575 117.423   7.310  1.00  0.00     0.293 HD
ENDBRANCH  15  18
ENDBRANCH   1  12
BRANCH   2  20
ATOM     20  O   UNL     1      43.771 113.025  11.195  1.00  0.00    -0.502 OA
ATOM     21  H   UNL     1      42.973 113.341  10.657  1.00  0.00     0.293 HD
ENDBRANCH   2  20
BRANCH   6  22
ATOM     22  O   UNL     1      47.307 112.642  15.162  1.00  0.00    -0.507 OA
ATOM     23  H   UNL     1      46.669 112.016  15.629  1.00  0.00     0.293 HD
ENDBRANCH   6  22
BRANCH   8  24
ATOM     24  O   UNL     1      48.140 117.296  15.997  1.00  0.00    -0.508 OA
ATOM     25  H   UNL     1      48.134 117.282  17.010  1.00  0.00     0.293 HD
ENDBRANCH   8  24
TORSDOF 5
ENDMDL
MODEL 7
REMARK VINA RESULT:    -6.941      2.163      7.264
REMARK INTER + INTRA:          -7.927
REMARK INTER:                  -7.632
REMARK INTRA:                  -0.295
REMARK UNBOUND:                 0.232
REMARK SMILES O=c1c(O)c(-c2ccc(O)cc2)oc2cc(O)cc(O)c12
REMARK SMILES IDX 5 1 3 2 2 3 1 4 21 5 19 6 18 7 16 8 15 9 14 10 13 11 6 12
REMARK SMILES IDX 7 13 8 14 9 15 12 16 11 17 10 18 4 20 20 22 17 24
REMARK H PARENT 10 19 4 21 20 23 17 25
REMARK Flexibility Score: inf
ROOT
ATOM      1  C   UNL     1      41.181 116.939  11.989  1.00  0.00     0.180 A 
ATOM      2  C   UNL     1      41.790 117.294  10.773  1.00  0.00     0.208 A 
ATOM      3  C   UNL     1      42.980 116.651  10.394  1.00  0.00     0.238 A 
ATOM      4  O   UNL     1      43.491 116.934   9.280  1.00  0.00    -0.285 OA
ATOM      5  C   UNL     1      43.554 115.674  11.243  1.00  0.00     0.111 A 
ATOM      6  C   UNL     1      44.777 114.988  10.979  1.00  0.00     0.134 A 
ATOM      7  C   UNL     1      45.182 113.948  11.824  1.00  0.00     0.093 A 
ATOM      8  C   UNL     1      44.442 113.613  12.960  1.00  0.00     0.123 A 
ATOM      9  C   UNL     1      43.277 114.316  13.259  1.00  0.00     0.094 A 
ATOM     10  C   UNL     1      42.828 115.335  12.415  1.00  0.00     0.146 A 
ATOM     11  O   UNL     1      41.708 115.973  12.732  1.00  0.00    -0.452 OA
ENDROOT
BRANCH   1  12
ATOM     12  C   UNL     1      39.940 117.590  12.468  1.00  0.00     0.021 A 
ATOM     13  C   UNL     1      39.977 118.798  13.190  1.00  0.00     0.016 A 
ATOM     14  C   UNL     1      38.794 119.381  13.654  1.00  0.00     0.047 A 
ATOM     15  C   UNL     1      37.561 118.759  13.414  1.00  0.00     0.115 A 
ATOM     16  C   UNL     1      38.701 116.962  12.251  1.00  0.00     0.016 A 
ATOM     17  C   UNL     1      37.519 117.549  12.714  1.00  0.00     0.047 A 
BRANCH  15  18
ATOM     18  O   UNL     1      36.376 119.332  13.869  1.00  0.00    -0.508 OA
ATOM     19  H   UNL     1      36.344 119.876  14.723  1.00  0.00     0.293 HD
ENDBRANCH  15  18
ENDBRANCH   1  12
BRANCH   2  20
ATOM     20  O   UNL     1      41.195 118.246   9.940  1.00  0.00    -0.502 OA
ATOM     21  H   UNL     1      41.425 119.231   9.990  1.00  0.00     0.293 HD
ENDBRANCH   2  20
BRANCH   6  22
ATOM     22  O   UNL     1      45.637 115.306   9.924  1.00  0.00    -0.507 OA
ATOM     23  H   UNL     1      45.794 116.238   9.571  1.00  0.00     0.293 HD
ENDBRANCH   6  22
BRANCH   8  24
ATOM     24  O   UNL     1      44.861 112.587  13.804  1.00  0.00    -0.508 OA
ATOM     25  H   UNL     1      45.664 112.696  14.412  1.00  0.00     0.293 HD
ENDBRANCH   8  24
TORSDOF 5
ENDMDL
MODEL 8
REMARK VINA RESULT:    -6.864      1.715      2.095
REMARK INTER + INTRA:          -7.836
REMARK INTER:                  -7.906
REMARK INTRA:                   0.070
REMARK UNBOUND:                 0.232
REMARK SMILES O=c1c(O)c(-c2ccc(O)cc2)oc2cc(O)cc(O)c12
REMARK SMILES IDX 5 1 3 2 2 3 1 4 21 5 19 6 18 7 16 8 15 9 14 10 13 11 6 12
REMARK SMILES IDX 7 13 8 14 9 15 12 16 11 17 10 18 4 20 20 22 17 24
REMARK H PARENT 10 19 4 21 20 23 17 25
REMARK Flexibility Score: inf
ROOT
ATOM      1  C   UNL     1      41.575 116.909  12.067  1.00  0.00     0.180 A 
ATOM      2  C   UNL     1      41.440 116.029  13.155  1.00  0.00     0.208 A 
ATOM      3  C   UNL     1      40.500 116.322  14.155  1.00  0.00     0.238 A 
ATOM      4  O   UNL     1      40.346 115.503  15.099  1.00  0.00    -0.285 OA
ATOM      5  C   UNL     1      39.716 117.498  14.064  1.00  0.00     0.111 A 
ATOM      6  C   UNL     1      38.761 117.914  15.039  1.00  0.00     0.134 A 
ATOM      7  C   UNL     1      37.950 119.026  14.781  1.00  0.00     0.093 A 
ATOM      8  C   UNL     1      38.105 119.775  13.612  1.00  0.00     0.123 A 
ATOM      9  C   UNL     1      39.075 119.411  12.681  1.00  0.00     0.094 A 
ATOM     10  C   UNL     1      39.875 118.285  12.894  1.00  0.00     0.146 A 
ATOM     11  O   UNL     1      40.780 117.968  11.976  1.00  0.00    -0.452 OA
ENDROOT
BRANCH   1  12
ATOM     12  C   UNL     1      42.561 116.681  10.987  1.00  0.00     0.021 A 
ATOM     13  C   UNL     1      43.890 116.318  11.273  1.00  0.00     0.016 A 
ATOM     14  C   UNL     1      44.812 116.132  10.237  1.00  0.00     0.047 A 
ATOM     15  C   UNL     1      44.420 116.320   8.905  1.00  0.00     0.115 A 
ATOM     16  C   UNL     1      42.183 116.888   9.649  1.00  0.00     0.016 A 
ATOM     17  C   UNL     1      43.106 116.700   8.615  1.00  0.00     0.047 A 
BRANCH  15  18
ATOM     18  O   UNL     1      45.328 116.135   7.865  1.00  0.00    -0.508 OA
ATOM     19  H   UNL     1      46.328 116.156   8.025  1.00  0.00     0.293 HD
ENDBRANCH  15  18
ENDBRANCH   1  12
BRANCH   2  20
ATOM     20  O   UNL     1      42.208 114.863  13.215  1.00  0.00    -0.502 OA
ATOM     21  H   UNL     1      42.010 114.051  12.643  1.00  0.00     0.293 HD
ENDBRANCH   2  20
BRANCH   6  22
ATOM     22  O   UNL     1      38.590 117.292  16.279  1.00  0.00    -0.507 OA
ATOM     23  H   UNL     1      38.783 117.724  17.170  1.00  0.00     0.293 HD
ENDBRANCH   6  22
BRANCH   8  24
ATOM     24  O   UNL     1      37.304 120.889  13.371  1.00  0.00    -0.508 OA
ATOM     25  H   UNL     1      36.828 121.372  14.124  1.00  0.00     0.293 HD
ENDBRANCH   8  24
TORSDOF 5
ENDMDL
MODEL 9
REMARK VINA RESULT:    -6.816      4.364      9.434
REMARK INTER + INTRA:          -7.780
REMARK INTER:                  -8.256
REMARK INTRA:                   0.476
REMARK UNBOUND:                 0.232
REMARK SMILES O=c1c(O)c(-c2ccc(O)cc2)oc2cc(O)cc(O)c12
REMARK SMILES IDX 5 1 3 2 2 3 1 4 21 5 19 6 18 7 16 8 15 9 14 10 13 11 6 12
REMARK SMILES IDX 7 13 8 14 9 15 12 16 11 17 10 18 4 20 20 22 17 24
REMARK H PARENT 10 19 4 21 20 23 17 25
REMARK Flexibility Score: inf
ROOT
ATOM      1  C   UNL     1      44.387 114.345  10.181  1.00  0.00     0.180 A 
ATOM      2  C   UNL     1      44.797 113.464  11.196  1.00  0.00     0.208 A 
ATOM      3  C   UNL     1      45.628 112.382  10.864  1.00  0.00     0.238 A 
ATOM      4  O   UNL     1      46.036 111.628  11.786  1.00  0.00    -0.285 OA
ATOM      5  C   UNL     1      46.026 112.185   9.520  1.00  0.00     0.111 A 
ATOM      6  C   UNL     1      46.833 111.100   9.063  1.00  0.00     0.134 A 
ATOM      7  C   UNL     1      47.271 111.078   7.733  1.00  0.00     0.093 A 
ATOM      8  C   UNL     1      46.879 112.067   6.828  1.00  0.00     0.123 A 
ATOM      9  C   UNL     1      46.043 113.098   7.250  1.00  0.00     0.094 A 
ATOM     10  C   UNL     1      45.617 113.167   8.579  1.00  0.00     0.146 A 
ATOM     11  O   UNL     1      44.830 114.172   8.941  1.00  0.00    -0.452 OA
ENDROOT
BRANCH   1  12
ATOM     12  C   UNL     1      43.491 115.493  10.449  1.00  0.00     0.021 A 
ATOM     13  C   UNL     1      42.846 115.645  11.690  1.00  0.00     0.016 A 
ATOM     14  C   UNL     1      41.985 116.725  11.912  1.00  0.00     0.047 A 
ATOM     15  C   UNL     1      41.748 117.658  10.893  1.00  0.00     0.115 A 
ATOM     16  C   UNL     1      43.232 116.422   9.426  1.00  0.00     0.016 A 
ATOM     17  C   UNL     1      42.372 117.502   9.651  1.00  0.00     0.047 A 
BRANCH  15  18
ATOM     18  O   UNL     1      40.895 118.738  11.103  1.00  0.00    -0.508 OA
ATOM     19  H   UNL     1      40.600 119.007  12.034  1.00  0.00     0.293 HD
ENDBRANCH  15  18
ENDBRANCH   1  12
BRANCH   2  20
ATOM     20  O   UNL     1      44.411 113.689  12.521  1.00  0.00    -0.502 OA
ATOM     21  H   UNL     1      43.799 113.057  13.023  1.00  0.00     0.293 HD
ENDBRANCH   2  20
BRANCH   6  22
ATOM     22  O   UNL     1      47.204 110.014   9.861  1.00  0.00    -0.507 OA
ATOM     23  H   UNL     1      47.224 109.054   9.552  1.00  0.00     0.293 HD
ENDBRANCH   6  22
BRANCH   8  24
ATOM     24  O   UNL     1      47.308 112.028   5.503  1.00  0.00    -0.508 OA
ATOM     25  H   UNL     1      46.726 111.644   4.769  1.00  0.00     0.293 HD
ENDBRANCH   8  24
TORSDOF 5
ENDMDL
