MODEL 1
REMARK VINA RESULT:    -4.022      0.000      0.000
REMARK INTER + INTRA:         -12.295
REMARK INTER:                  -8.725
REMARK INTRA:                  -3.570
REMARK UNBOUND:                -3.570
REMARK SMILES CCCCCCCCCCCCCCCCCCCCCC(=O)[O-]
REMARK SMILES IDX 12 1 11 2 10 3 9 4 8 5 7 6 6 7 5 8 4 9 3 10 2 11 1 12 13 13
REMARK SMILES IDX 14 14 15 15 16 16 17 17 18 18 19 19 20 20 21 21 22 22 23 23
REMARK SMILES IDX 24 24
REMARK H PARENT
REMARK Flexibility Score: inf
ROOT
ATOM      1  C   UNL     1     -10.979   0.168 -35.653  1.00  0.00     0.000 C 
ENDROOT
BRANCH   1   2
ATOM      2  C   UNL     1      -9.760  -0.760 -35.844  1.00  0.00     0.000 C 
BRANCH   2   3
ATOM      3  C   UNL     1      -9.648  -1.293 -37.284  1.00  0.00     0.000 C 
BRANCH   3   4
ATOM      4  C   UNL     1      -8.196  -1.577 -37.710  1.00  0.00    -0.000 C 
BRANCH   4   5
ATOM      5  C   UNL     1      -8.042  -2.209 -39.107  1.00  0.00    -0.000 C 
BRANCH   5   6
ATOM      6  C   UNL     1      -7.485  -1.227 -40.153  1.00  0.00    -0.000 C 
BRANCH   6   7
ATOM      7  C   UNL     1      -8.223  -1.316 -41.506  1.00  0.00    -0.000 C 
BRANCH   7   8
ATOM      8  C   UNL     1      -9.734  -1.598 -41.376  1.00  0.00    -0.000 C 
BRANCH   8   9
ATOM      9  C   UNL     1     -10.641  -0.360 -41.499  1.00  0.00    -0.000 C 
BRANCH   9  10
ATOM     10  C   UNL     1     -11.925  -0.403 -40.645  1.00  0.00    -0.000 C 
BRANCH  10  11
ATOM     11  C   UNL     1     -12.116  -1.689 -39.822  1.00  0.00    -0.003 C 
ATOM     12  C   UNL     1     -13.585  -2.052 -39.612  1.00  0.00     0.004 C 
ENDBRANCH  10  11
ENDBRANCH   9  10
ENDBRANCH   8   9
ENDBRANCH   7   8
ENDBRANCH   6   7
ENDBRANCH   5   6
ENDBRANCH   4   5
ENDBRANCH   3   4
ENDBRANCH   2   3
ENDBRANCH   1   2
BRANCH   1  13
ATOM     13  C   UNL     1     -10.609   1.603 -35.228  1.00  0.00     0.000 C 
BRANCH  13  14
ATOM     14  C   UNL     1      -9.147   2.008 -35.496  1.00  0.00     0.000 C 
BRANCH  14  15
ATOM     15  C   UNL     1      -8.949   2.967 -36.685  1.00  0.00     0.000 C 
BRANCH  15  16
ATOM     16  C   UNL     1      -8.202   2.315 -37.860  1.00  0.00     0.000 C 
BRANCH  16  17
ATOM     17  C   UNL     1      -9.151   1.864 -38.982  1.00  0.00     0.000 C 
BRANCH  17  18
ATOM     18  C   UNL     1     -10.524   2.556 -38.908  1.00  0.00     0.000 C 
BRANCH  18  19
ATOM     19  C   UNL     1     -10.743   3.574 -40.041  1.00  0.00     0.000 C 
BRANCH  19  20
ATOM     20  C   UNL     1     -11.967   3.297 -40.933  1.00  0.00     0.006 C 
BRANCH  20  21
ATOM     21  C   UNL     1     -11.667   3.457 -42.429  1.00  0.00     0.053 C 
BRANCH  21  22
ATOM     22  C   UNL     1     -12.423   4.618 -42.996  1.00  0.00     0.041 C 
ATOM     23  O   UNL     1     -13.002   4.515 -44.110  1.00  0.00    -0.550 OA
ATOM     24  O   UNL     1     -12.477   5.819 -42.300  1.00  0.00    -0.550 OA
ENDBRANCH  21  22
ENDBRANCH  20  21
ENDBRANCH  19  20
ENDBRANCH  18  19
ENDBRANCH  17  18
ENDBRANCH  16  17
ENDBRANCH  15  16
ENDBRANCH  14  15
ENDBRANCH  13  14
ENDBRANCH   1  13
TORSDOF 20
ENDMDL
MODEL 2
REMARK VINA RESULT:    -4.020      1.484      2.062
REMARK INTER + INTRA:         -12.289
REMARK INTER:                  -8.829
REMARK INTRA:                  -3.461
REMARK UNBOUND:                -3.570
REMARK SMILES CCCCCCCCCCCCCCCCCCCCCC(=O)[O-]
REMARK SMILES IDX 12 1 11 2 10 3 9 4 8 5 7 6 6 7 5 8 4 9 3 10 2 11 1 12 13 13
REMARK SMILES IDX 14 14 15 15 16 16 17 17 18 18 19 19 20 20 21 21 22 22 23 23
REMARK SMILES IDX 24 24
REMARK H PARENT
REMARK Flexibility Score: inf
ROOT
ATOM      1  C   UNL     1     -10.633   1.523 -35.269  1.00  0.00     0.000 C 
ENDROOT
BRANCH   1   2
ATOM      2  C   UNL     1     -10.881   0.136 -35.899  1.00  0.00     0.000 C 
BRANCH   2   3
ATOM      3  C   UNL     1      -9.728  -0.847 -35.627  1.00  0.00     0.000 C 
BRANCH   3   4
ATOM      4  C   UNL     1      -8.858  -1.114 -36.869  1.00  0.00    -0.000 C 
BRANCH   4   5
ATOM      5  C   UNL     1      -8.737  -2.597 -37.269  1.00  0.00    -0.000 C 
BRANCH   5   6
ATOM      6  C   UNL     1      -9.657  -2.980 -38.441  1.00  0.00    -0.000 C 
BRANCH   6   7
ATOM      7  C   UNL     1      -9.149  -2.448 -39.798  1.00  0.00    -0.000 C 
BRANCH   7   8
ATOM      8  C   UNL     1     -10.229  -1.728 -40.630  1.00  0.00    -0.000 C 
BRANCH   8   9
ATOM      9  C   UNL     1     -11.276  -0.953 -39.809  1.00  0.00    -0.000 C 
BRANCH   9  10
ATOM     10  C   UNL     1     -12.691  -0.913 -40.423  1.00  0.00    -0.000 C 
BRANCH  10  11
ATOM     11  C   UNL     1     -13.760  -1.698 -39.643  1.00  0.00    -0.003 C 
ATOM     12  C   UNL     1     -13.338  -3.133 -39.329  1.00  0.00     0.004 C 
ENDBRANCH  10  11
ENDBRANCH   9  10
ENDBRANCH   8   9
ENDBRANCH   7   8
ENDBRANCH   6   7
ENDBRANCH   5   6
ENDBRANCH   4   5
ENDBRANCH   3   4
ENDBRANCH   2   3
ENDBRANCH   1   2
BRANCH   1  13
ATOM     13  C   UNL     1     -10.263   2.616 -36.291  1.00  0.00     0.000 C 
BRANCH  13  14
ATOM     14  C   UNL     1     -10.274   2.164 -37.764  1.00  0.00     0.000 C 
BRANCH  14  15
ATOM     15  C   UNL     1      -9.053   2.616 -38.588  1.00  0.00     0.000 C 
BRANCH  15  16
ATOM     16  C   UNL     1      -8.432   1.475 -39.410  1.00  0.00     0.000 C 
BRANCH  16  17
ATOM     17  C   UNL     1      -8.830   1.537 -40.894  1.00  0.00     0.000 C 
BRANCH  17  18
ATOM     18  C   UNL     1      -9.687   2.771 -41.225  1.00  0.00     0.000 C 
BRANCH  18  19
ATOM     19  C   UNL     1     -11.060   2.404 -41.818  1.00  0.00     0.000 C 
BRANCH  19  20
ATOM     20  C   UNL     1     -12.260   2.692 -40.897  1.00  0.00     0.006 C 
BRANCH  20  21
ATOM     21  C   UNL     1     -12.171   4.059 -40.206  1.00  0.00     0.053 C 
BRANCH  21  22
ATOM     22  C   UNL     1     -13.275   4.956 -40.673  1.00  0.00     0.041 C 
ATOM     23  O   UNL     1     -13.091   6.200 -40.751  1.00  0.00    -0.550 OA
ATOM     24  O   UNL     1     -14.511   4.421 -41.010  1.00  0.00    -0.550 OA
ENDBRANCH  21  22
ENDBRANCH  20  21
ENDBRANCH  19  20
ENDBRANCH  18  19
ENDBRANCH  17  18
ENDBRANCH  16  17
ENDBRANCH  15  16
ENDBRANCH  14  15
ENDBRANCH  13  14
ENDBRANCH   1  13
TORSDOF 20
ENDMDL
MODEL 3
REMARK VINA RESULT:    -4.003      4.458      9.203
REMARK INTER + INTRA:         -12.253
REMARK INTER:                  -7.956
REMARK INTRA:                  -4.297
REMARK UNBOUND:                -3.570
REMARK SMILES CCCCCCCCCCCCCCCCCCCCCC(=O)[O-]
REMARK SMILES IDX 12 1 11 2 10 3 9 4 8 5 7 6 6 7 5 8 4 9 3 10 2 11 1 12 13 13
REMARK SMILES IDX 14 14 15 15 16 16 17 17 18 18 19 19 20 20 21 21 22 22 23 23
REMARK SMILES IDX 24 24
REMARK H PARENT
REMARK Flexibility Score: inf
ROOT
ATOM      1  C   UNL     1     -16.222   9.147 -41.672  1.00  0.00     0.000 C 
ENDROOT
BRANCH   1   2
ATOM      2  C   UNL     1     -16.605   8.765 -43.117  1.00  0.00     0.000 C 
BRANCH   2   3
ATOM      3  C   UNL     1     -17.825   7.826 -43.172  1.00  0.00     0.000 C 
BRANCH   3   4
ATOM      4  C   UNL     1     -18.285   7.354 -41.781  1.00  0.00    -0.000 C 
BRANCH   4   5
ATOM      5  C   UNL     1     -18.787   5.899 -41.724  1.00  0.00    -0.000 C 
BRANCH   5   6
ATOM      6  C   UNL     1     -17.703   4.907 -41.264  1.00  0.00    -0.000 C 
BRANCH   6   7
ATOM      7  C   UNL     1     -16.650   5.560 -40.344  1.00  0.00    -0.000 C 
BRANCH   7   8
ATOM      8  C   UNL     1     -15.241   5.639 -40.967  1.00  0.00    -0.000 C 
BRANCH   8   9
ATOM      9  C   UNL     1     -15.080   4.907 -42.311  1.00  0.00    -0.000 C 
BRANCH   9  10
ATOM     10  C   UNL     1     -14.407   5.731 -43.429  1.00  0.00    -0.000 C 
BRANCH  10  11
ATOM     11  C   UNL     1     -15.137   5.707 -44.783  1.00  0.00    -0.003 C 
ATOM     12  C   UNL     1     -16.370   4.804 -44.783  1.00  0.00     0.004 C 
ENDBRANCH  10  11
ENDBRANCH   9  10
ENDBRANCH   8   9
ENDBRANCH   7   8
ENDBRANCH   6   7
ENDBRANCH   5   6
ENDBRANCH   4   5
ENDBRANCH   3   4
ENDBRANCH   2   3
ENDBRANCH   1   2
BRANCH   1  13
ATOM     13  C   UNL     1     -14.758   9.602 -41.515  1.00  0.00     0.000 C 
BRANCH  13  14
ATOM     14  C   UNL     1     -13.873   9.399 -42.759  1.00  0.00     0.000 C 
BRANCH  14  15
ATOM     15  C   UNL     1     -12.538   8.677 -42.493  1.00  0.00     0.000 C 
BRANCH  15  16
ATOM     16  C   UNL     1     -12.424   8.144 -41.055  1.00  0.00     0.000 C 
BRANCH  16  17
ATOM     17  C   UNL     1     -11.678   6.801 -40.985  1.00  0.00     0.000 C 
BRANCH  17  18
ATOM     18  C   UNL     1     -11.956   6.039 -39.677  1.00  0.00     0.000 C 
BRANCH  18  19
ATOM     19  C   UNL     1     -11.688   4.528 -39.797  1.00  0.00     0.000 C 
BRANCH  19  20
ATOM     20  C   UNL     1     -11.168   4.070 -41.171  1.00  0.00     0.006 C 
BRANCH  20  21
ATOM     21  C   UNL     1     -12.008   2.943 -41.785  1.00  0.00     0.053 C 
BRANCH  21  22
ATOM     22  C   UNL     1     -11.515   1.608 -41.320  1.00  0.00     0.041 C 
ATOM     23  O   UNL     1     -10.286   1.334 -41.366  1.00  0.00    -0.550 OA
ATOM     24  O   UNL     1     -12.415   0.660 -40.848  1.00  0.00    -0.550 OA
ENDBRANCH  21  22
ENDBRANCH  20  21
ENDBRANCH  19  20
ENDBRANCH  18  19
ENDBRANCH  17  18
ENDBRANCH  16  17
ENDBRANCH  15  16
ENDBRANCH  14  15
ENDBRANCH  13  14
ENDBRANCH   1  13
TORSDOF 20
ENDMDL
MODEL 4
REMARK VINA RESULT:    -3.984      2.366      4.353
REMARK INTER + INTRA:         -12.212
REMARK INTER:                  -9.299
REMARK INTRA:                  -2.913
REMARK UNBOUND:                -3.570
REMARK SMILES CCCCCCCCCCCCCCCCCCCCCC(=O)[O-]
REMARK SMILES IDX 12 1 11 2 10 3 9 4 8 5 7 6 6 7 5 8 4 9 3 10 2 11 1 12 13 13
REMARK SMILES IDX 14 14 15 15 16 16 17 17 18 18 19 19 20 20 21 21 22 22 23 23
REMARK SMILES IDX 24 24
REMARK H PARENT
REMARK Flexibility Score: inf
ROOT
ATOM      1  C   UNL     1     -11.373  -1.447 -38.838  1.00  0.00     0.000 C 
ENDROOT
BRANCH   1   2
ATOM      2  C   UNL     1     -10.141  -2.376 -38.785  1.00  0.00     0.000 C 
BRANCH   2   3
ATOM      3  C   UNL     1      -9.355  -2.386 -40.109  1.00  0.00     0.000 C 
BRANCH   3   4
ATOM      4  C   UNL     1      -8.048  -1.574 -40.040  1.00  0.00    -0.000 C 
BRANCH   4   5
ATOM      5  C   UNL     1      -7.836  -0.588 -41.204  1.00  0.00    -0.000 C 
BRANCH   5   6
ATOM      6  C   UNL     1      -7.318   0.785 -40.741  1.00  0.00    -0.000 C 
BRANCH   6   7
ATOM      7  C   UNL     1      -7.363   0.954 -39.208  1.00  0.00    -0.000 C 
BRANCH   7   8
ATOM      8  C   UNL     1      -8.439   1.946 -38.721  1.00  0.00    -0.000 C 
BRANCH   8   9
ATOM      9  C   UNL     1      -9.529   1.336 -37.821  1.00  0.00    -0.000 C 
BRANCH   9  10
ATOM     10  C   UNL     1     -10.260   2.340 -36.905  1.00  0.00    -0.000 C 
BRANCH  10  11
ATOM     11  C   UNL     1     -10.659   1.790 -35.525  1.00  0.00    -0.003 C 
ATOM     12  C   UNL     1     -10.965   0.293 -35.543  1.00  0.00     0.004 C 
ENDBRANCH  10  11
ENDBRANCH   9  10
ENDBRANCH   8   9
ENDBRANCH   7   8
ENDBRANCH   6   7
ENDBRANCH   5   6
ENDBRANCH   4   5
ENDBRANCH   3   4
ENDBRANCH   2   3
ENDBRANCH   1   2
BRANCH   1  13
ATOM     13  C   UNL     1     -12.093  -1.444 -40.200  1.00  0.00     0.000 C 
BRANCH  13  14
ATOM     14  C   UNL     1     -12.443  -0.049 -40.752  1.00  0.00     0.000 C 
BRANCH  14  15
ATOM     15  C   UNL     1     -11.251   0.922 -40.857  1.00  0.00     0.000 C 
BRANCH  15  16
ATOM     16  C   UNL     1     -11.628   2.260 -41.514  1.00  0.00     0.000 C 
BRANCH  16  17
ATOM     17  C   UNL     1     -11.234   3.470 -40.650  1.00  0.00     0.000 C 
BRANCH  17  18
ATOM     18  C   UNL     1     -12.448   4.136 -39.978  1.00  0.00     0.000 C 
BRANCH  18  19
ATOM     19  C   UNL     1     -13.773   3.833 -40.702  1.00  0.00     0.000 C 
BRANCH  19  20
ATOM     20  C   UNL     1     -14.674   5.058 -40.940  1.00  0.00     0.006 C 
BRANCH  20  21
ATOM     21  C   UNL     1     -16.124   4.831 -40.492  1.00  0.00     0.053 C 
BRANCH  21  22
ATOM     22  C   UNL     1     -17.014   4.621 -41.678  1.00  0.00     0.041 C 
ATOM     23  O   UNL     1     -16.578   4.827 -42.842  1.00  0.00    -0.550 OA
ATOM     24  O   UNL     1     -18.329   4.212 -41.498  1.00  0.00    -0.550 OA
ENDBRANCH  21  22
ENDBRANCH  20  21
ENDBRANCH  19  20
ENDBRANCH  18  19
ENDBRANCH  17  18
ENDBRANCH  16  17
ENDBRANCH  15  16
ENDBRANCH  14  15
ENDBRANCH  13  14
ENDBRANCH   1  13
TORSDOF 20
ENDMDL
MODEL 5
REMARK VINA RESULT:    -3.966      4.146      8.635
REMARK INTER + INTRA:         -12.173
REMARK INTER:                  -9.234
REMARK INTRA:                  -2.939
REMARK UNBOUND:                -3.570
REMARK SMILES CCCCCCCCCCCCCCCCCCCCCC(=O)[O-]
REMARK SMILES IDX 12 1 11 2 10 3 9 4 8 5 7 6 6 7 5 8 4 9 3 10 2 11 1 12 13 13
REMARK SMILES IDX 14 14 15 15 16 16 17 17 18 18 19 19 20 20 21 21 22 22 23 23
REMARK SMILES IDX 24 24
REMARK H PARENT
REMARK Flexibility Score: inf
ROOT
ATOM      1  C   UNL     1     -13.497   4.891 -43.123  1.00  0.00     0.000 C 
ENDROOT
BRANCH   1   2
ATOM      2  C   UNL     1     -13.624   5.360 -44.588  1.00  0.00     0.000 C 
BRANCH   2   3
ATOM      3  C   UNL     1     -14.905   4.838 -45.263  1.00  0.00     0.000 C 
BRANCH   3   4
ATOM      4  C   UNL     1     -16.161   5.013 -44.389  1.00  0.00    -0.000 C 
BRANCH   4   5
ATOM      5  C   UNL     1     -17.082   6.175 -44.805  1.00  0.00    -0.000 C 
BRANCH   5   6
ATOM      6  C   UNL     1     -17.711   6.903 -43.604  1.00  0.00    -0.000 C 
BRANCH   6   7
ATOM      7  C   UNL     1     -16.696   7.176 -42.473  1.00  0.00    -0.000 C 
BRANCH   7   8
ATOM      8  C   UNL     1     -17.345   7.397 -41.092  1.00  0.00    -0.000 C 
BRANCH   8   9
ATOM      9  C   UNL     1     -17.339   6.168 -40.164  1.00  0.00    -0.000 C 
BRANCH   9  10
ATOM     10  C   UNL     1     -16.467   4.989 -40.646  1.00  0.00    -0.000 C 
BRANCH  10  11
ATOM     11  C   UNL     1     -17.196   3.638 -40.741  1.00  0.00    -0.003 C 
ATOM     12  C   UNL     1     -18.437   3.689 -41.632  1.00  0.00     0.004 C 
ENDBRANCH  10  11
ENDBRANCH   9  10
ENDBRANCH   8   9
ENDBRANCH   7   8
ENDBRANCH   6   7
ENDBRANCH   5   6
ENDBRANCH   4   5
ENDBRANCH   3   4
ENDBRANCH   2   3
ENDBRANCH   1   2
BRANCH   1  13
ATOM     13  C   UNL     1     -13.328   6.042 -42.112  1.00  0.00     0.000 C 
BRANCH  13  14
ATOM     14  C   UNL     1     -12.059   5.968 -41.242  1.00  0.00     0.000 C 
BRANCH  14  15
ATOM     15  C   UNL     1     -12.277   5.395 -39.829  1.00  0.00     0.000 C 
BRANCH  15  16
ATOM     16  C   UNL     1     -11.662   3.997 -39.650  1.00  0.00     0.000 C 
BRANCH  16  17
ATOM     17  C   UNL     1     -10.546   3.712 -40.669  1.00  0.00     0.000 C 
BRANCH  17  18
ATOM     18  C   UNL     1     -10.899   2.557 -41.623  1.00  0.00     0.000 C 
BRANCH  18  19
ATOM     19  C   UNL     1     -12.019   1.653 -41.079  1.00  0.00     0.000 C 
BRANCH  19  20
ATOM     20  C   UNL     1     -11.651   0.163 -40.967  1.00  0.00     0.006 C 
BRANCH  20  21
ATOM     21  C   UNL     1     -10.322  -0.073 -40.237  1.00  0.00     0.053 C 
BRANCH  21  22
ATOM     22  C   UNL     1      -9.334  -0.735 -41.147  1.00  0.00     0.041 C 
ATOM     23  O   UNL     1      -8.158  -0.290 -41.238  1.00  0.00    -0.550 OA
ATOM     24  O   UNL     1      -9.714  -1.835 -41.904  1.00  0.00    -0.550 OA
ENDBRANCH  21  22
ENDBRANCH  20  21
ENDBRANCH  19  20
ENDBRANCH  18  19
ENDBRANCH  17  18
ENDBRANCH  16  17
ENDBRANCH  15  16
ENDBRANCH  14  15
ENDBRANCH  13  14
ENDBRANCH   1  13
TORSDOF 20
ENDMDL
MODEL 6
REMARK VINA RESULT:    -3.893      3.025      4.916
REMARK INTER + INTRA:         -12.015
REMARK INTER:                  -9.148
REMARK INTRA:                  -2.867
REMARK UNBOUND:                -3.570
REMARK SMILES CCCCCCCCCCCCCCCCCCCCCC(=O)[O-]
REMARK SMILES IDX 12 1 11 2 10 3 9 4 8 5 7 6 6 7 5 8 4 9 3 10 2 11 1 12 13 13
REMARK SMILES IDX 14 14 15 15 16 16 17 17 18 18 19 19 20 20 21 21 22 22 23 23
REMARK SMILES IDX 24 24
REMARK H PARENT
REMARK Flexibility Score: inf
ROOT
ATOM      1  C   UNL     1      -8.248   1.893 -39.068  1.00  0.00     0.000 C 
ENDROOT
BRANCH   1   2
ATOM      2  C   UNL     1      -7.445   0.668 -39.554  1.00  0.00     0.000 C 
BRANCH   2   3
ATOM      3  C   UNL     1      -7.847   0.229 -40.975  1.00  0.00     0.000 C 
BRANCH   3   4
ATOM      4  C   UNL     1      -8.137  -1.280 -41.079  1.00  0.00    -0.000 C 
BRANCH   4   5
ATOM      5  C   UNL     1      -9.507  -1.635 -41.687  1.00  0.00    -0.000 C 
BRANCH   5   6
ATOM      6  C   UNL     1     -10.501  -0.460 -41.656  1.00  0.00    -0.000 C 
BRANCH   6   7
ATOM      7  C   UNL     1     -11.738  -0.749 -40.779  1.00  0.00    -0.000 C 
BRANCH   7   8
ATOM      8  C   UNL     1     -11.419  -1.524 -39.485  1.00  0.00    -0.000 C 
BRANCH   8   9
ATOM      9  C   UNL     1     -10.940  -0.656 -38.307  1.00  0.00    -0.000 C 
BRANCH   9  10
ATOM     10  C   UNL     1      -9.745  -1.227 -37.516  1.00  0.00    -0.000 C 
BRANCH  10  11
ATOM     11  C   UNL     1      -9.319  -0.397 -36.292  1.00  0.00    -0.003 C 
ATOM     12  C   UNL     1     -10.504   0.197 -35.531  1.00  0.00     0.004 C 
ENDBRANCH  10  11
ENDBRANCH   9  10
ENDBRANCH   8   9
ENDBRANCH   7   8
ENDBRANCH   6   7
ENDBRANCH   5   6
ENDBRANCH   4   5
ENDBRANCH   3   4
ENDBRANCH   2   3
ENDBRANCH   1   2
BRANCH   1  13
ATOM     13  C   UNL     1      -9.126   2.537 -40.159  1.00  0.00     0.000 C 
BRANCH  13  14
ATOM     14  C   UNL     1     -10.590   2.790 -39.754  1.00  0.00     0.000 C 
BRANCH  14  15
ATOM     15  C   UNL     1     -11.549   3.058 -40.930  1.00  0.00     0.000 C 
BRANCH  15  16
ATOM     16  C   UNL     1     -12.913   3.604 -40.476  1.00  0.00     0.000 C 
BRANCH  16  17
ATOM     17  C   UNL     1     -13.517   4.591 -41.488  1.00  0.00     0.000 C 
BRANCH  17  18
ATOM     18  C   UNL     1     -14.827   5.224 -40.986  1.00  0.00     0.000 C 
BRANCH  18  19
ATOM     19  C   UNL     1     -15.886   4.178 -40.598  1.00  0.00     0.000 C 
BRANCH  19  20
ATOM     20  C   UNL     1     -17.327   4.534 -41.006  1.00  0.00     0.006 C 
BRANCH  20  21
ATOM     21  C   UNL     1     -17.391   5.539 -42.164  1.00  0.00     0.053 C 
BRANCH  21  22
ATOM     22  C   UNL     1     -18.145   6.766 -41.754  1.00  0.00     0.041 C 
ATOM     23  O   UNL     1     -18.806   6.775 -40.681  1.00  0.00    -0.550 OA
ATOM     24  O   UNL     1     -18.130   7.894 -42.563  1.00  0.00    -0.550 OA
ENDBRANCH  21  22
ENDBRANCH  20  21
ENDBRANCH  19  20
ENDBRANCH  18  19
ENDBRANCH  17  18
ENDBRANCH  16  17
ENDBRANCH  15  16
ENDBRANCH  14  15
ENDBRANCH  13  14
ENDBRANCH   1  13
TORSDOF 20
ENDMDL
MODEL 7
REMARK VINA RESULT:    -3.864      2.248      3.142
REMARK INTER + INTRA:         -11.952
REMARK INTER:                  -8.973
REMARK INTRA:                  -2.979
REMARK UNBOUND:                -3.570
REMARK SMILES CCCCCCCCCCCCCCCCCCCCCC(=O)[O-]
REMARK SMILES IDX 12 1 11 2 10 3 9 4 8 5 7 6 6 7 5 8 4 9 3 10 2 11 1 12 13 13
REMARK SMILES IDX 14 14 15 15 16 16 17 17 18 18 19 19 20 20 21 21 22 22 23 23
REMARK SMILES IDX 24 24
REMARK H PARENT
REMARK Flexibility Score: inf
ROOT
ATOM      1  C   UNL     1     -10.249   1.661 -36.739  1.00  0.00     0.000 C 
ENDROOT
BRANCH   1   2
ATOM      2  C   UNL     1      -9.872   0.803 -37.965  1.00  0.00     0.000 C 
BRANCH   2   3
ATOM      3  C   UNL     1      -8.355   0.787 -38.227  1.00  0.00     0.000 C 
BRANCH   3   4
ATOM      4  C   UNL     1      -7.981   1.281 -39.637  1.00  0.00    -0.000 C 
BRANCH   4   5
ATOM      5  C   UNL     1      -8.767   0.620 -40.784  1.00  0.00    -0.000 C 
BRANCH   5   6
ATOM      6  C   UNL     1      -8.271  -0.799 -41.113  1.00  0.00    -0.000 C 
BRANCH   6   7
ATOM      7  C   UNL     1      -9.424  -1.776 -41.428  1.00  0.00    -0.000 C 
BRANCH   7   8
ATOM      8  C   UNL     1     -10.771  -1.377 -40.792  1.00  0.00    -0.000 C 
BRANCH   8   9
ATOM      9  C   UNL     1     -11.186  -2.211 -39.566  1.00  0.00    -0.000 C 
BRANCH   9  10
ATOM     10  C   UNL     1     -12.545  -1.829 -38.944  1.00  0.00    -0.000 C 
BRANCH  10  11
ATOM     11  C   UNL     1     -13.778  -2.303 -39.734  1.00  0.00    -0.003 C 
ATOM     12  C   UNL     1     -14.553  -1.156 -40.379  1.00  0.00     0.004 C 
ENDBRANCH  10  11
ENDBRANCH   9  10
ENDBRANCH   8   9
ENDBRANCH   7   8
ENDBRANCH   6   7
ENDBRANCH   5   6
ENDBRANCH   4   5
ENDBRANCH   3   4
ENDBRANCH   2   3
ENDBRANCH   1   2
BRANCH   1  13
ATOM     13  C   UNL     1     -10.058   3.175 -36.955  1.00  0.00     0.000 C 
BRANCH  13  14
ATOM     14  C   UNL     1     -10.975   3.804 -38.021  1.00  0.00     0.000 C 
BRANCH  14  15
ATOM     15  C   UNL     1     -10.240   4.582 -39.129  1.00  0.00     0.000 C 
BRANCH  15  16
ATOM     16  C   UNL     1     -10.420   3.952 -40.521  1.00  0.00     0.000 C 
BRANCH  16  17
ATOM     17  C   UNL     1     -11.465   2.824 -40.524  1.00  0.00     0.000 C 
BRANCH  17  18
ATOM     18  C   UNL     1     -12.640   3.109 -41.475  1.00  0.00     0.000 C 
BRANCH  18  19
ATOM     19  C   UNL     1     -12.905   4.614 -41.663  1.00  0.00     0.000 C 
BRANCH  19  20
ATOM     20  C   UNL     1     -13.901   5.225 -40.661  1.00  0.00     0.006 C 
BRANCH  20  21
ATOM     21  C   UNL     1     -15.213   5.673 -41.318  1.00  0.00     0.053 C 
BRANCH  21  22
ATOM     22  C   UNL     1     -16.361   4.859 -40.806  1.00  0.00     0.041 C 
ATOM     23  O   UNL     1     -16.160   3.717 -40.315  1.00  0.00    -0.550 OA
ATOM     24  O   UNL     1     -17.656   5.356 -40.884  1.00  0.00    -0.550 OA
ENDBRANCH  21  22
ENDBRANCH  20  21
ENDBRANCH  19  20
ENDBRANCH  18  19
ENDBRANCH  17  18
ENDBRANCH  16  17
ENDBRANCH  15  16
ENDBRANCH  14  15
ENDBRANCH  13  14
ENDBRANCH   1  13
TORSDOF 20
ENDMDL
MODEL 8
REMARK VINA RESULT:    -3.849      3.318      6.798
REMARK INTER + INTRA:         -11.920
REMARK INTER:                  -9.071
REMARK INTRA:                  -2.849
REMARK UNBOUND:                -3.570
REMARK SMILES CCCCCCCCCCCCCCCCCCCCCC(=O)[O-]
REMARK SMILES IDX 12 1 11 2 10 3 9 4 8 5 7 6 6 7 5 8 4 9 3 10 2 11 1 12 13 13
REMARK SMILES IDX 14 14 15 15 16 16 17 17 18 18 19 19 20 20 21 21 22 22 23 23
REMARK SMILES IDX 24 24
REMARK H PARENT
REMARK Flexibility Score: inf
ROOT
ATOM      1  C   UNL     1     -12.382   3.621 -40.088  1.00  0.00     0.000 C 
ENDROOT
BRANCH   1   2
ATOM      2  C   UNL     1     -12.174   2.954 -41.465  1.00  0.00     0.000 C 
BRANCH   2   3
ATOM      3  C   UNL     1     -11.071   3.642 -42.290  1.00  0.00     0.000 C 
BRANCH   3   4
ATOM      4  C   UNL     1     -11.514   3.978 -43.726  1.00  0.00    -0.000 C 
BRANCH   4   5
ATOM      5  C   UNL     1     -12.790   4.836 -43.826  1.00  0.00    -0.000 C 
BRANCH   5   6
ATOM      6  C   UNL     1     -12.661   6.192 -43.110  1.00  0.00    -0.000 C 
BRANCH   6   7
ATOM      7  C   UNL     1     -14.003   6.692 -42.535  1.00  0.00    -0.000 C 
BRANCH   7   8
ATOM      8  C   UNL     1     -15.010   5.565 -42.229  1.00  0.00    -0.000 C 
BRANCH   8   9
ATOM      9  C   UNL     1     -15.237   5.283 -40.732  1.00  0.00    -0.000 C 
BRANCH   9  10
ATOM     10  C   UNL     1     -16.715   5.136 -40.311  1.00  0.00    -0.000 C 
BRANCH  10  11
ATOM     11  C   UNL     1     -17.326   3.746 -40.559  1.00  0.00    -0.003 C 
ATOM     12  C   UNL     1     -18.058   3.644 -41.896  1.00  0.00     0.004 C 
ENDBRANCH  10  11
ENDBRANCH   9  10
ENDBRANCH   8   9
ENDBRANCH   7   8
ENDBRANCH   6   7
ENDBRANCH   5   6
ENDBRANCH   4   5
ENDBRANCH   3   4
ENDBRANCH   2   3
ENDBRANCH   1   2
BRANCH   1  13
ATOM     13  C   UNL     1     -11.378   4.750 -39.784  1.00  0.00     0.000 C 
BRANCH  13  14
ATOM     14  C   UNL     1     -10.241   4.371 -38.817  1.00  0.00     0.000 C 
BRANCH  14  15
ATOM     15  C   UNL     1     -10.660   3.448 -37.656  1.00  0.00     0.000 C 
BRANCH  15  16
ATOM     16  C   UNL     1     -10.101   2.023 -37.796  1.00  0.00     0.000 C 
BRANCH  16  17
ATOM     17  C   UNL     1      -9.261   1.843 -39.071  1.00  0.00     0.000 C 
BRANCH  17  18
ATOM     18  C   UNL     1      -9.732   0.653 -39.926  1.00  0.00     0.000 C 
BRANCH  18  19
ATOM     19  C   UNL     1     -10.196  -0.545 -39.079  1.00  0.00     0.000 C 
BRANCH  19  20
ATOM     20  C   UNL     1     -11.142  -1.522 -39.802  1.00  0.00     0.006 C 
BRANCH  20  21
ATOM     21  C   UNL     1     -12.378  -0.832 -40.392  1.00  0.00     0.053 C 
BRANCH  21  22
ATOM     22  C   UNL     1     -13.618  -1.603 -40.061  1.00  0.00     0.041 C 
ATOM     23  O   UNL     1     -13.549  -2.642 -39.352  1.00  0.00    -0.550 OA
ATOM     24  O   UNL     1     -14.850  -1.181 -40.546  1.00  0.00    -0.550 OA
ENDBRANCH  21  22
ENDBRANCH  20  21
ENDBRANCH  19  20
ENDBRANCH  18  19
ENDBRANCH  17  18
ENDBRANCH  16  17
ENDBRANCH  15  16
ENDBRANCH  14  15
ENDBRANCH  13  14
ENDBRANCH   1  13
TORSDOF 20
ENDMDL
MODEL 9
REMARK VINA RESULT:    -3.838      2.901      5.259
REMARK INTER + INTRA:         -11.896
REMARK INTER:                  -9.154
REMARK INTRA:                  -2.742
REMARK UNBOUND:                -3.570
REMARK SMILES CCCCCCCCCCCCCCCCCCCCCC(=O)[O-]
REMARK SMILES IDX 12 1 11 2 10 3 9 4 8 5 7 6 6 7 5 8 4 9 3 10 2 11 1 12 13 13
REMARK SMILES IDX 14 14 15 15 16 16 17 17 18 18 19 19 20 20 21 21 22 22 23 23
REMARK SMILES IDX 24 24
REMARK H PARENT
REMARK Flexibility Score: inf
ROOT
ATOM      1  C   UNL     1     -10.960   2.084 -40.200  1.00  0.00     0.000 C 
ENDROOT
BRANCH   1   2
ATOM      2  C   UNL     1      -9.586   2.145 -40.901  1.00  0.00     0.000 C 
BRANCH   2   3
ATOM      3  C   UNL     1      -8.509   1.338 -40.154  1.00  0.00     0.000 C 
BRANCH   3   4
ATOM      4  C   UNL     1      -7.547   0.597 -41.101  1.00  0.00    -0.000 C 
BRANCH   4   5
ATOM      5  C   UNL     1      -7.687  -0.937 -41.096  1.00  0.00    -0.000 C 
BRANCH   5   6
ATOM      6  C   UNL     1      -8.918  -1.431 -41.878  1.00  0.00    -0.000 C 
BRANCH   6   7
ATOM      7  C   UNL     1      -9.868  -2.288 -41.015  1.00  0.00    -0.000 C 
BRANCH   7   8
ATOM      8  C   UNL     1     -11.062  -1.503 -40.434  1.00  0.00    -0.000 C 
BRANCH   8   9
ATOM      9  C   UNL     1     -11.095  -1.410 -38.898  1.00  0.00    -0.000 C 
BRANCH   9  10
ATOM     10  C   UNL     1      -9.732  -1.602 -38.201  1.00  0.00    -0.000 C 
BRANCH  10  11
ATOM     11  C   UNL     1      -9.593  -0.898 -36.840  1.00  0.00    -0.003 C 
ATOM     12  C   UNL     1     -10.242   0.486 -36.813  1.00  0.00     0.004 C 
ENDBRANCH  10  11
ENDBRANCH   9  10
ENDBRANCH   8   9
ENDBRANCH   7   8
ENDBRANCH   6   7
ENDBRANCH   5   6
ENDBRANCH   4   5
ENDBRANCH   3   4
ENDBRANCH   2   3
ENDBRANCH   1   2
BRANCH   1  13
ATOM     13  C   UNL     1     -12.142   2.472 -41.109  1.00  0.00     0.000 C 
BRANCH  13  14
ATOM     14  C   UNL     1     -12.940   3.708 -40.653  1.00  0.00     0.000 C 
BRANCH  14  15
ATOM     15  C   UNL     1     -12.696   4.980 -41.486  1.00  0.00     0.000 C 
BRANCH  15  16
ATOM     16  C   UNL     1     -12.821   4.735 -42.999  1.00  0.00     0.000 C 
BRANCH  16  17
ATOM     17  C   UNL     1     -14.162   5.232 -43.565  1.00  0.00     0.000 C 
BRANCH  17  18
ATOM     18  C   UNL     1     -14.553   6.619 -43.025  1.00  0.00     0.000 C 
BRANCH  18  19
ATOM     19  C   UNL     1     -15.936   6.628 -42.348  1.00  0.00     0.000 C 
BRANCH  19  20
ATOM     20  C   UNL     1     -16.619   5.252 -42.253  1.00  0.00     0.006 C 
BRANCH  20  21
ATOM     21  C   UNL     1     -16.553   4.645 -40.846  1.00  0.00     0.053 C 
BRANCH  21  22
ATOM     22  C   UNL     1     -17.426   3.433 -40.754  1.00  0.00     0.041 C 
ATOM     23  O   UNL     1     -17.070   2.446 -40.057  1.00  0.00    -0.550 OA
ATOM     24  O   UNL     1     -18.628   3.387 -41.450  1.00  0.00    -0.550 OA
ENDBRANCH  21  22
ENDBRANCH  20  21
ENDBRANCH  19  20
ENDBRANCH  18  19
ENDBRANCH  17  18
ENDBRANCH  16  17
ENDBRANCH  15  16
ENDBRANCH  14  15
ENDBRANCH  13  14
ENDBRANCH   1  13
TORSDOF 20
ENDMDL
