MODEL 1
REMARK VINA RESULT:     5.519      0.000      0.000
REMARK INTER + INTRA:           9.796
REMARK INTER:                  10.681
REMARK INTRA:                  -0.885
REMARK UNBOUND:                -0.885
REMARK SMILES CCCCCCCCCCCCCCCCCC(=O)[O-]
REMARK SMILES IDX 10 1 11 2 12 3 13 4 14 5 15 6 16 7 17 8 18 9 19 10 20 11
REMARK SMILES IDX 9 12 8 13 7 14 6 15 5 16 4 17 3 18 2 19 1 20
REMARK H PARENT
REMARK Flexibility Score: inf
ROOT
ATOM      1  C   UNL     1     -30.629   7.366   1.379  1.00  0.00     0.000 C 
ENDROOT
BRANCH   1   2
ATOM      2  C   UNL     1     -29.158   7.462   0.941  1.00  0.00     0.000 C 
BRANCH   2   3
ATOM      3  C   UNL     1     -28.991   7.360  -0.586  1.00  0.00     0.000 C 
BRANCH   3   4
ATOM      4  C   UNL     1     -27.857   8.251  -1.115  1.00  0.00     0.000 C 
BRANCH   4   5
ATOM      5  C   UNL     1     -27.435   7.889  -2.550  1.00  0.00     0.000 C 
BRANCH   5   6
ATOM      6  C   UNL     1     -28.521   8.212  -3.592  1.00  0.00     0.000 C 
BRANCH   6   7
ATOM      7  C   UNL     1     -27.986   8.622  -4.977  1.00  0.00     0.006 C 
BRANCH   7   8
ATOM      8  C   UNL     1     -26.678   7.911  -5.348  1.00  0.00     0.053 C 
BRANCH   8   9
ATOM      9  C   UNL     1     -26.040   8.577  -6.526  1.00  0.00     0.041 C 
ATOM     10  O   UNL     1     -24.989   8.101  -7.029  1.00  0.00    -0.550 OA
ATOM     11  O   UNL     1     -26.639   9.690  -7.105  1.00  0.00    -0.550 OA
ENDBRANCH   8   9
ENDBRANCH   7   8
ENDBRANCH   6   7
ENDBRANCH   5   6
ENDBRANCH   4   5
ENDBRANCH   3   4
ENDBRANCH   2   3
ENDBRANCH   1   2
BRANCH   1  12
ATOM     12  C   UNL     1     -31.536   6.788   0.281  1.00  0.00     0.000 C 
BRANCH  12  13
ATOM     13  C   UNL     1     -32.261   7.908  -0.477  1.00  0.00    -0.000 C 
BRANCH  13  14
ATOM     14  C   UNL     1     -32.432   7.549  -1.960  1.00  0.00    -0.000 C 
BRANCH  14  15
ATOM     15  C   UNL     1     -33.390   8.499  -2.703  1.00  0.00    -0.000 C 
BRANCH  15  16
ATOM     16  C   UNL     1     -33.827   8.029  -4.103  1.00  0.00    -0.000 C 
BRANCH  16  17
ATOM     17  C   UNL     1     -32.640   7.760  -5.042  1.00  0.00    -0.000 C 
BRANCH  17  18
ATOM     18  C   UNL     1     -33.028   7.823  -6.532  1.00  0.00    -0.000 C 
BRANCH  18  19
ATOM     19  C   UNL     1     -33.922   6.670  -7.023  1.00  0.00    -0.003 C 
ATOM     20  C   UNL     1     -33.202   5.322  -7.051  1.00  0.00     0.004 C 
ENDBRANCH  18  19
ENDBRANCH  17  18
ENDBRANCH  16  17
ENDBRANCH  15  16
ENDBRANCH  14  15
ENDBRANCH  13  14
ENDBRANCH  12  13
ENDBRANCH   1  12
TORSDOF 16
ENDMDL
MODEL 2
REMARK VINA RESULT:     6.845      0.703      1.124
REMARK INTER + INTRA:          12.363
REMARK INTER:                  12.692
REMARK INTRA:                  -0.329
REMARK UNBOUND:                -0.885
REMARK SMILES CCCCCCCCCCCCCCCCCC(=O)[O-]
REMARK SMILES IDX 10 1 11 2 12 3 13 4 14 5 15 6 16 7 17 8 18 9 19 10 20 11
REMARK SMILES IDX 9 12 8 13 7 14 6 15 5 16 4 17 3 18 2 19 1 20
REMARK H PARENT
REMARK Flexibility Score: inf
ROOT
ATOM      1  C   UNL     1     -30.916   6.326  -0.333  1.00  0.00     0.000 C 
ENDROOT
BRANCH   1   2
ATOM      2  C   UNL     1     -29.790   7.003  -1.130  1.00  0.00     0.000 C 
BRANCH   2   3
ATOM      3  C   UNL     1     -28.608   7.423  -0.238  1.00  0.00     0.000 C 
BRANCH   3   4
ATOM      4  C   UNL     1     -27.633   8.368  -0.957  1.00  0.00     0.000 C 
BRANCH   4   5
ATOM      5  C   UNL     1     -27.360   7.949  -2.412  1.00  0.00     0.000 C 
BRANCH   5   6
ATOM      6  C   UNL     1     -28.352   8.572  -3.410  1.00  0.00     0.000 C 
BRANCH   6   7
ATOM      7  C   UNL     1     -28.124   8.177  -4.881  1.00  0.00     0.006 C 
BRANCH   7   8
ATOM      8  C   UNL     1     -26.654   7.868  -5.196  1.00  0.00     0.053 C 
BRANCH   8   9
ATOM      9  C   UNL     1     -26.217   8.611  -6.419  1.00  0.00     0.041 C 
ATOM     10  O   UNL     1     -27.055   9.264  -7.094  1.00  0.00    -0.550 OA
ATOM     11  O   UNL     1     -24.875   8.630  -6.780  1.00  0.00    -0.550 OA
ENDBRANCH   8   9
ENDBRANCH   7   8
ENDBRANCH   6   7
ENDBRANCH   5   6
ENDBRANCH   4   5
ENDBRANCH   3   4
ENDBRANCH   2   3
ENDBRANCH   1   2
BRANCH   1  12
ATOM     12  C   UNL     1     -31.616   7.291   0.637  1.00  0.00     0.000 C 
BRANCH  12  13
ATOM     13  C   UNL     1     -32.535   8.259  -0.119  1.00  0.00    -0.000 C 
BRANCH  13  14
ATOM     14  C   UNL     1     -32.632   7.880  -1.604  1.00  0.00    -0.000 C 
BRANCH  14  15
ATOM     15  C   UNL     1     -33.975   8.281  -2.242  1.00  0.00    -0.000 C 
BRANCH  15  16
ATOM     16  C   UNL     1     -33.921   8.591  -3.749  1.00  0.00    -0.000 C 
BRANCH  16  17
ATOM     17  C   UNL     1     -33.160   7.524  -4.553  1.00  0.00    -0.000 C 
BRANCH  17  18
ATOM     18  C   UNL     1     -32.702   8.027  -5.935  1.00  0.00    -0.000 C 
BRANCH  18  19
ATOM     19  C   UNL     1     -33.130   7.149  -7.124  1.00  0.00    -0.003 C 
ATOM     20  C   UNL     1     -34.117   6.049  -6.734  1.00  0.00     0.004 C 
ENDBRANCH  18  19
ENDBRANCH  17  18
ENDBRANCH  16  17
ENDBRANCH  15  16
ENDBRANCH  14  15
ENDBRANCH  13  14
ENDBRANCH  12  13
ENDBRANCH   1  12
TORSDOF 16
ENDMDL
MODEL 3
REMARK VINA RESULT:     8.037      2.735      5.968
REMARK INTER + INTRA:          14.670
REMARK INTER:                  15.494
REMARK INTRA:                  -0.824
REMARK UNBOUND:                -0.885
REMARK SMILES CCCCCCCCCCCCCCCCCC(=O)[O-]
REMARK SMILES IDX 10 1 11 2 12 3 13 4 14 5 15 6 16 7 17 8 18 9 19 10 20 11
REMARK SMILES IDX 9 12 8 13 7 14 6 15 5 16 4 17 3 18 2 19 1 20
REMARK H PARENT
REMARK Flexibility Score: inf
ROOT
ATOM      1  C   UNL     1     -30.940   7.522   1.157  1.00  0.00     0.000 C 
ENDROOT
BRANCH   1   2
ATOM      2  C   UNL     1     -31.342   7.079  -0.259  1.00  0.00     0.000 C 
BRANCH   2   3
ATOM      3  C   UNL     1     -32.543   7.872  -0.806  1.00  0.00     0.000 C 
BRANCH   3   4
ATOM      4  C   UNL     1     -32.592   7.884  -2.341  1.00  0.00     0.000 C 
BRANCH   4   5
ATOM      5  C   UNL     1     -33.845   8.589  -2.891  1.00  0.00     0.000 C 
BRANCH   5   6
ATOM      6  C   UNL     1     -34.103   8.276  -4.376  1.00  0.00     0.000 C 
BRANCH   6   7
ATOM      7  C   UNL     1     -32.944   7.565  -5.098  1.00  0.00     0.006 C 
BRANCH   7   8
ATOM      8  C   UNL     1     -33.193   7.391  -6.602  1.00  0.00     0.053 C 
BRANCH   8   9
ATOM      9  C   UNL     1     -33.552   5.971  -6.908  1.00  0.00     0.041 C 
ATOM     10  O   UNL     1     -32.661   5.081  -6.919  1.00  0.00    -0.550 OA
ATOM     11  O   UNL     1     -34.879   5.619  -7.125  1.00  0.00    -0.550 OA
ENDBRANCH   8   9
ENDBRANCH   7   8
ENDBRANCH   6   7
ENDBRANCH   5   6
ENDBRANCH   4   5
ENDBRANCH   3   4
ENDBRANCH   2   3
ENDBRANCH   1   2
BRANCH   1  12
ATOM     12  C   UNL     1     -29.419   7.494   1.375  1.00  0.00     0.000 C 
BRANCH  12  13
ATOM     13  C   UNL     1     -28.701   6.904   0.155  1.00  0.00    -0.000 C 
BRANCH  13  14
ATOM     14  C   UNL     1     -28.150   8.015  -0.751  1.00  0.00    -0.000 C 
BRANCH  14  15
ATOM     15  C   UNL     1     -28.420   7.763  -2.246  1.00  0.00    -0.000 C 
BRANCH  15  16
ATOM     16  C   UNL     1     -27.306   8.226  -3.202  1.00  0.00    -0.000 C 
BRANCH  16  17
ATOM     17  C   UNL     1     -27.834   8.616  -4.593  1.00  0.00    -0.000 C 
BRANCH  17  18
ATOM     18  C   UNL     1     -27.106   7.884  -5.737  1.00  0.00    -0.000 C 
BRANCH  18  19
ATOM     19  C   UNL     1     -26.496   8.800  -6.813  1.00  0.00    -0.003 C 
ATOM     20  C   UNL     1     -24.983   8.966  -6.672  1.00  0.00     0.004 C 
ENDBRANCH  18  19
ENDBRANCH  17  18
ENDBRANCH  16  17
ENDBRANCH  15  16
ENDBRANCH  14  15
ENDBRANCH  13  14
ENDBRANCH  12  13
ENDBRANCH   1  12
TORSDOF 16
ENDMDL
MODEL 4
REMARK VINA RESULT:     8.198      2.875      4.033
REMARK INTER + INTRA:          14.981
REMARK INTER:                  16.001
REMARK INTRA:                  -1.020
REMARK UNBOUND:                -0.885
REMARK SMILES CCCCCCCCCCCCCCCCCC(=O)[O-]
REMARK SMILES IDX 10 1 11 2 12 3 13 4 14 5 15 6 16 7 17 8 18 9 19 10 20 11
REMARK SMILES IDX 9 12 8 13 7 14 6 15 5 16 4 17 3 18 2 19 1 20
REMARK H PARENT
REMARK Flexibility Score: inf
ROOT
ATOM      1  C   UNL     1     -30.200   7.071   1.866  1.00  0.00     0.000 C 
ENDROOT
BRANCH   1   2
ATOM      2  C   UNL     1     -29.297   7.931   0.968  1.00  0.00     0.000 C 
BRANCH   2   3
ATOM      3  C   UNL     1     -27.891   7.331   0.798  1.00  0.00     0.000 C 
BRANCH   3   4
ATOM      4  C   UNL     1     -27.162   7.875  -0.440  1.00  0.00     0.000 C 
BRANCH   4   5
ATOM      5  C   UNL     1     -28.098   8.068  -1.646  1.00  0.00     0.000 C 
BRANCH   5   6
ATOM      6  C   UNL     1     -27.361   7.987  -2.995  1.00  0.00     0.000 C 
BRANCH   6   7
ATOM      7  C   UNL     1     -28.086   8.669  -4.170  1.00  0.00     0.006 C 
BRANCH   7   8
ATOM      8  C   UNL     1     -27.775   8.018  -5.523  1.00  0.00     0.053 C 
BRANCH   8   9
ATOM      9  C   UNL     1     -26.603   8.690  -6.166  1.00  0.00     0.041 C 
ATOM     10  O   UNL     1     -26.634   9.926  -6.403  1.00  0.00    -0.550 OA
ATOM     11  O   UNL     1     -25.453   7.962  -6.450  1.00  0.00    -0.550 OA
ENDBRANCH   8   9
ENDBRANCH   7   8
ENDBRANCH   6   7
ENDBRANCH   5   6
ENDBRANCH   4   5
ENDBRANCH   3   4
ENDBRANCH   2   3
ENDBRANCH   1   2
BRANCH   1  12
ATOM     12  C   UNL     1     -31.504   6.653   1.167  1.00  0.00     0.000 C 
BRANCH  12  13
ATOM     13  C   UNL     1     -31.580   7.241  -0.248  1.00  0.00    -0.000 C 
BRANCH  13  14
ATOM     14  C   UNL     1     -32.703   8.284  -0.351  1.00  0.00    -0.000 C 
BRANCH  14  15
ATOM     15  C   UNL     1     -33.009   8.975   0.990  1.00  0.00    -0.000 C 
BRANCH  15  16
ATOM     16  C   UNL     1     -33.851  10.261   0.890  1.00  0.00    -0.000 C 
BRANCH  16  17
ATOM     17  C   UNL     1     -33.048  11.463   0.365  1.00  0.00    -0.000 C 
BRANCH  17  18
ATOM     18  C   UNL     1     -33.945  12.598  -0.162  1.00  0.00    -0.000 C 
BRANCH  18  19
ATOM     19  C   UNL     1     -33.739  12.959  -1.644  1.00  0.00    -0.003 C 
ATOM     20  C   UNL     1     -34.990  12.740  -2.495  1.00  0.00     0.004 C 
ENDBRANCH  18  19
ENDBRANCH  17  18
ENDBRANCH  16  17
ENDBRANCH  15  16
ENDBRANCH  14  15
ENDBRANCH  13  14
ENDBRANCH  12  13
ENDBRANCH   1  12
TORSDOF 16
ENDMDL
