MODEL 1
REMARK VINA RESULT:    -6.735      0.000      0.000
REMARK INTER + INTRA:          -8.531
REMARK INTER:                  -8.113
REMARK INTRA:                  -0.418
REMARK UNBOUND:                -0.418
REMARK SMILES O=c1c(O)c(-c2ccc(O)cc2O)oc2cc(O)cc(O)c12
REMARK SMILES IDX 5 1 3 2 2 3 1 4 22 5 20 6 19 7 17 8 16 9 15 10 14 11 6 12
REMARK SMILES IDX 8 13 7 14 9 15 11 16 12 17 10 18 13 20 4 22 21 24 18 26
REMARK H PARENT 10 19 13 21 4 23 21 25 18 27
REMARK Flexibility Score: inf
ROOT
ATOM      1  C   UNL     1      21.353   5.353  31.753  1.00  0.00     0.184 A 
ATOM      2  C   UNL     1      20.031   5.790  31.925  1.00  0.00     0.208 A 
ATOM      3  C   UNL     1      19.512   6.753  31.046  1.00  0.00     0.238 A 
ATOM      4  O   UNL     1      18.309   7.102  31.171  1.00  0.00    -0.285 OA
ATOM      5  C   UNL     1      20.330   7.278  30.015  1.00  0.00     0.111 A 
ATOM      6  C   UNL     1      19.923   8.287  29.091  1.00  0.00     0.134 A 
ATOM      7  C   UNL     1      20.772   8.637  28.034  1.00  0.00     0.093 A 
ATOM      8  C   UNL     1      22.037   8.062  27.904  1.00  0.00     0.123 A 
ATOM      9  C   UNL     1      22.467   7.119  28.835  1.00  0.00     0.094 A 
ATOM     10  C   UNL     1      21.630   6.723  29.880  1.00  0.00     0.146 A 
ATOM     11  O   UNL     1      22.075   5.813  30.740  1.00  0.00    -0.451 OA
ENDROOT
BRANCH   1  12
ATOM     12  C   UNL     1      21.964   4.354  32.655  1.00  0.00     0.063 A 
ATOM     13  C   UNL     1      22.495   2.027  33.121  1.00  0.00     0.047 A 
ATOM     14  C   UNL     1      21.922   2.998  32.295  1.00  0.00     0.020 A 
ATOM     15  C   UNL     1      23.129   2.401  34.309  1.00  0.00     0.119 A 
ATOM     16  C   UNL     1      23.196   3.753  34.665  1.00  0.00     0.093 A 
ATOM     17  C   UNL     1      22.629   4.735  33.839  1.00  0.00     0.130 A 
BRANCH  15  18
ATOM     18  O   UNL     1      23.692   1.422  35.125  1.00  0.00    -0.508 OA
ATOM     19  H   UNL     1      23.179   1.021  35.902  1.00  0.00     0.293 HD
ENDBRANCH  15  18
BRANCH  17  20
ATOM     20  O   UNL     1      22.746   6.083  34.180  1.00  0.00    -0.507 OA
ATOM     21  H   UNL     1      23.569   6.622  33.938  1.00  0.00     0.293 HD
ENDBRANCH  17  20
ENDBRANCH   1  12
BRANCH   2  22
ATOM     22  O   UNL     1      19.239   5.242  32.938  1.00  0.00    -0.502 OA
ATOM     23  H   UNL     1      18.368   4.761  32.748  1.00  0.00     0.293 HD
ENDBRANCH   2  22
BRANCH   6  24
ATOM     24  O   UNL     1      18.719   8.990  29.184  1.00  0.00    -0.507 OA
ATOM     25  H   UNL     1      17.977   8.953  28.500  1.00  0.00     0.293 HD
ENDBRANCH   6  24
BRANCH   8  26
ATOM     26  O   UNL     1      22.881   8.427  26.857  1.00  0.00    -0.508 OA
ATOM     27  H   UNL     1      23.695   7.873  26.614  1.00  0.00     0.293 HD
ENDBRANCH   8  26
TORSDOF 6
ENDMDL
MODEL 2
REMARK VINA RESULT:    -6.589     10.337     12.712
REMARK INTER + INTRA:          -8.355
REMARK INTER:                  -7.938
REMARK INTRA:                  -0.417
REMARK UNBOUND:                -0.418
REMARK SMILES O=c1c(O)c(-c2ccc(O)cc2O)oc2cc(O)cc(O)c12
REMARK SMILES IDX 5 1 3 2 2 3 1 4 22 5 20 6 19 7 17 8 16 9 15 10 14 11 6 12
REMARK SMILES IDX 8 13 7 14 9 15 11 16 12 17 10 18 13 20 4 22 21 24 18 26
REMARK H PARENT 10 19 13 21 4 23 21 25 18 27
REMARK Flexibility Score: inf
ROOT
ATOM      1  C   UNL     1      27.155   1.466  23.119  1.00  0.00     0.184 A 
ATOM      2  C   UNL     1      26.566   1.105  21.898  1.00  0.00     0.208 A 
ATOM      3  C   UNL     1      27.043  -0.029  21.221  1.00  0.00     0.238 A 
ATOM      4  O   UNL     1      26.477  -0.380  20.153  1.00  0.00    -0.285 OA
ATOM      5  C   UNL     1      28.113  -0.778  21.770  1.00  0.00     0.111 A 
ATOM      6  C   UNL     1      28.704  -1.921  21.152  1.00  0.00     0.134 A 
ATOM      7  C   UNL     1      29.670  -2.658  21.846  1.00  0.00     0.093 A 
ATOM      8  C   UNL     1      30.113  -2.258  23.108  1.00  0.00     0.123 A 
ATOM      9  C   UNL     1      29.586  -1.109  23.694  1.00  0.00     0.094 A 
ATOM     10  C   UNL     1      28.595  -0.373  23.043  1.00  0.00     0.146 A 
ATOM     11  O   UNL     1      28.111   0.709  23.642  1.00  0.00    -0.451 OA
ENDROOT
BRANCH   1  12
ATOM     12  C   UNL     1      26.710   2.657  23.873  1.00  0.00     0.063 A 
ATOM     13  C   UNL     1      25.041   3.715  25.289  1.00  0.00     0.047 A 
ATOM     14  C   UNL     1      25.489   2.609  24.563  1.00  0.00     0.020 A 
ATOM     15  C   UNL     1      25.816   4.878  25.348  1.00  0.00     0.119 A 
ATOM     16  C   UNL     1      27.046   4.927  24.682  1.00  0.00     0.093 A 
ATOM     17  C   UNL     1      27.506   3.819  23.955  1.00  0.00     0.130 A 
BRANCH  15  18
ATOM     18  O   UNL     1      25.354   5.974  26.073  1.00  0.00    -0.508 OA
ATOM     19  H   UNL     1      24.455   6.398  25.877  1.00  0.00     0.293 HD
ENDBRANCH  15  18
BRANCH  17  20
ATOM     20  O   UNL     1      28.756   3.863  23.337  1.00  0.00    -0.507 OA
ATOM     21  H   UNL     1      29.313   3.027  23.205  1.00  0.00     0.293 HD
ENDBRANCH  17  20
ENDBRANCH   1  12
BRANCH   2  22
ATOM     22  O   UNL     1      25.499   1.850  21.387  1.00  0.00    -0.502 OA
ATOM     23  H   UNL     1      24.743   2.187  21.971  1.00  0.00     0.293 HD
ENDBRANCH   2  22
BRANCH   6  24
ATOM     24  O   UNL     1      28.400  -2.353  19.858  1.00  0.00    -0.507 OA
ATOM     25  H   UNL     1      28.729  -3.214  19.447  1.00  0.00     0.293 HD
ENDBRANCH   6  24
BRANCH   8  26
ATOM     26  O   UNL     1      31.086  -2.990  23.786  1.00  0.00    -0.508 OA
ATOM     27  H   UNL     1      31.916  -2.546  24.163  1.00  0.00     0.293 HD
ENDBRANCH   8  26
TORSDOF 6
ENDMDL
MODEL 3
REMARK VINA RESULT:    -6.120      1.744      6.877
REMARK INTER + INTRA:          -7.790
REMARK INTER:                  -7.433
REMARK INTRA:                  -0.357
REMARK UNBOUND:                -0.418
REMARK SMILES O=c1c(O)c(-c2ccc(O)cc2O)oc2cc(O)cc(O)c12
REMARK SMILES IDX 5 1 3 2 2 3 1 4 22 5 20 6 19 7 17 8 16 9 15 10 14 11 6 12
REMARK SMILES IDX 8 13 7 14 9 15 11 16 12 17 10 18 13 20 4 22 21 24 18 26
REMARK H PARENT 10 19 13 21 4 23 21 25 18 27
REMARK Flexibility Score: inf
ROOT
ATOM      1  C   UNL     1      21.770   7.271  30.683  1.00  0.00     0.184 A 
ATOM      2  C   UNL     1      22.556   8.051  31.544  1.00  0.00     0.208 A 
ATOM      3  C   UNL     1      23.177   7.436  32.643  1.00  0.00     0.238 A 
ATOM      4  O   UNL     1      23.925   8.129  33.381  1.00  0.00    -0.285 OA
ATOM      5  C   UNL     1      22.988   6.051  32.874  1.00  0.00     0.111 A 
ATOM      6  C   UNL     1      23.536   5.332  33.978  1.00  0.00     0.134 A 
ATOM      7  C   UNL     1      23.390   3.940  34.035  1.00  0.00     0.093 A 
ATOM      8  C   UNL     1      22.663   3.251  33.062  1.00  0.00     0.123 A 
ATOM      9  C   UNL     1      22.074   3.952  32.012  1.00  0.00     0.094 A 
ATOM     10  C   UNL     1      22.232   5.336  31.908  1.00  0.00     0.146 A 
ATOM     11  O   UNL     1      21.664   5.964  30.885  1.00  0.00    -0.451 OA
ENDROOT
BRANCH   1  12
ATOM     12  C   UNL     1      21.077   7.860  29.518  1.00  0.00     0.063 A 
ATOM     13  C   UNL     1      19.037   8.773  28.558  1.00  0.00     0.047 A 
ATOM     14  C   UNL     1      19.722   8.208  29.637  1.00  0.00     0.020 A 
ATOM     15  C   UNL     1      19.701   9.009  27.351  1.00  0.00     0.119 A 
ATOM     16  C   UNL     1      21.058   8.687  27.229  1.00  0.00     0.093 A 
ATOM     17  C   UNL     1      21.755   8.126  28.310  1.00  0.00     0.130 A 
BRANCH  15  18
ATOM     18  O   UNL     1      19.005   9.568  26.282  1.00  0.00    -0.508 OA
ATOM     19  H   UNL     1      18.438   8.999  25.663  1.00  0.00     0.293 HD
ENDBRANCH  15  18
BRANCH  17  20
ATOM     20  O   UNL     1      23.118   7.855  28.192  1.00  0.00    -0.507 OA
ATOM     21  H   UNL     1      23.799   8.597  28.078  1.00  0.00     0.293 HD
ENDBRANCH  17  20
ENDBRANCH   1  12
BRANCH   2  22
ATOM     22  O   UNL     1      22.742   9.412  31.283  1.00  0.00    -0.502 OA
ATOM     23  H   UNL     1      23.661   9.832  31.211  1.00  0.00     0.293 HD
ENDBRANCH   2  22
BRANCH   6  24
ATOM     24  O   UNL     1      24.200   5.934  35.050  1.00  0.00    -0.507 OA
ATOM     25  H   UNL     1      24.942   5.503  35.582  1.00  0.00     0.293 HD
ENDBRANCH   6  24
BRANCH   8  26
ATOM     26  O   UNL     1      22.511   1.868  33.135  1.00  0.00    -0.508 OA
ATOM     27  H   UNL     1      23.148   1.239  32.658  1.00  0.00     0.293 HD
ENDBRANCH   8  26
TORSDOF 6
ENDMDL
MODEL 4
REMARK VINA RESULT:    -6.101      9.180     11.346
REMARK INTER + INTRA:          -7.767
REMARK INTER:                  -7.349
REMARK INTRA:                  -0.418
REMARK UNBOUND:                -0.418
REMARK SMILES O=c1c(O)c(-c2ccc(O)cc2O)oc2cc(O)cc(O)c12
REMARK SMILES IDX 5 1 3 2 2 3 1 4 22 5 20 6 19 7 17 8 16 9 15 10 14 11 6 12
REMARK SMILES IDX 8 13 7 14 9 15 11 16 12 17 10 18 13 20 4 22 21 24 18 26
REMARK H PARENT 10 19 13 21 4 23 21 25 18 27
REMARK Flexibility Score: inf
ROOT
ATOM      1  C   UNL     1      27.389   1.591  23.398  1.00  0.00     0.184 A 
ATOM      2  C   UNL     1      27.940   2.873  23.255  1.00  0.00     0.208 A 
ATOM      3  C   UNL     1      27.345   3.949  23.933  1.00  0.00     0.238 A 
ATOM      4  O   UNL     1      27.874   5.087  23.845  1.00  0.00    -0.285 OA
ATOM      5  C   UNL     1      26.196   3.728  24.733  1.00  0.00     0.111 A 
ATOM      6  C   UNL     1      25.487   4.750  25.433  1.00  0.00     0.134 A 
ATOM      7  C   UNL     1      24.442   4.397  26.296  1.00  0.00     0.093 A 
ATOM      8  C   UNL     1      24.040   3.067  26.434  1.00  0.00     0.123 A 
ATOM      9  C   UNL     1      24.687   2.069  25.710  1.00  0.00     0.094 A 
ATOM     10  C   UNL     1      25.756   2.385  24.869  1.00  0.00     0.146 A 
ATOM     11  O   UNL     1      26.353   1.402  24.205  1.00  0.00    -0.451 OA
ENDROOT
BRANCH   1  12
ATOM     12  C   UNL     1      27.958   0.420  22.698  1.00  0.00     0.063 A 
ATOM     13  C   UNL     1      29.444  -1.505  22.739  1.00  0.00     0.047 A 
ATOM     14  C   UNL     1      28.891  -0.387  23.369  1.00  0.00     0.020 A 
ATOM     15  C   UNL     1      29.061  -1.839  21.437  1.00  0.00     0.119 A 
ATOM     16  C   UNL     1      28.114  -1.054  20.768  1.00  0.00     0.093 A 
ATOM     17  C   UNL     1      27.549   0.066  21.395  1.00  0.00     0.130 A 
BRANCH  15  18
ATOM     18  O   UNL     1      29.624  -2.954  20.820  1.00  0.00    -0.508 OA
ATOM     19  H   UNL     1      29.103  -3.509  20.151  1.00  0.00     0.293 HD
ENDBRANCH  15  18
BRANCH  17  20
ATOM     20  O   UNL     1      26.571   0.812  20.736  1.00  0.00    -0.507 OA
ATOM     21  H   UNL     1      25.804   0.365  20.246  1.00  0.00     0.293 HD
ENDBRANCH  17  20
ENDBRANCH   1  12
BRANCH   2  22
ATOM     22  O   UNL     1      29.085   3.061  22.476  1.00  0.00    -0.502 OA
ATOM     23  H   UNL     1      29.999   2.733  22.764  1.00  0.00     0.293 HD
ENDBRANCH   2  22
BRANCH   6  24
ATOM     24  O   UNL     1      25.748   6.116  25.294  1.00  0.00    -0.507 OA
ATOM     25  H   UNL     1      25.464   6.678  24.505  1.00  0.00     0.293 HD
ENDBRANCH   6  24
BRANCH   8  26
ATOM     26  O   UNL     1      22.989   2.727  27.284  1.00  0.00    -0.508 OA
ATOM     27  H   UNL     1      23.122   2.090  28.062  1.00  0.00     0.293 HD
ENDBRANCH   8  26
TORSDOF 6
ENDMDL
MODEL 5
REMARK VINA RESULT:    -6.023      3.170      6.981
REMARK INTER + INTRA:          -7.674
REMARK INTER:                  -7.260
REMARK INTRA:                  -0.413
REMARK UNBOUND:                -0.418
REMARK SMILES O=c1c(O)c(-c2ccc(O)cc2O)oc2cc(O)cc(O)c12
REMARK SMILES IDX 5 1 3 2 2 3 1 4 22 5 20 6 19 7 17 8 16 9 15 10 14 11 6 12
REMARK SMILES IDX 8 13 7 14 9 15 11 16 12 17 10 18 13 20 4 22 21 24 18 26
REMARK H PARENT 10 19 13 21 4 23 21 25 18 27
REMARK Flexibility Score: inf
ROOT
ATOM      1  C   UNL     1      22.493   8.126  29.887  1.00  0.00     0.184 A 
ATOM      2  C   UNL     1      22.349   6.965  30.661  1.00  0.00     0.208 A 
ATOM      3  C   UNL     1      23.379   6.604  31.544  1.00  0.00     0.238 A 
ATOM      4  O   UNL     1      23.222   5.592  32.275  1.00  0.00    -0.285 OA
ATOM      5  C   UNL     1      24.547   7.401  31.627  1.00  0.00     0.111 A 
ATOM      6  C   UNL     1      25.671   7.109  32.456  1.00  0.00     0.134 A 
ATOM      7  C   UNL     1      26.716   8.036  32.554  1.00  0.00     0.093 A 
ATOM      8  C   UNL     1      26.707   9.214  31.804  1.00  0.00     0.123 A 
ATOM      9  C   UNL     1      25.642   9.480  30.946  1.00  0.00     0.094 A 
ATOM     10  C   UNL     1      24.568   8.592  30.854  1.00  0.00     0.146 A 
ATOM     11  O   UNL     1      23.567   8.890  30.033  1.00  0.00    -0.451 OA
ENDROOT
BRANCH   1  12
ATOM     12  C   UNL     1      21.452   8.553  28.927  1.00  0.00     0.063 A 
ATOM     13  C   UNL     1      19.261   9.532  28.539  1.00  0.00     0.047 A 
ATOM     14  C   UNL     1      20.263   9.113  29.418  1.00  0.00     0.020 A 
ATOM     15  C   UNL     1      19.441   9.411  27.158  1.00  0.00     0.119 A 
ATOM     16  C   UNL     1      20.634   8.875  26.658  1.00  0.00     0.093 A 
ATOM     17  C   UNL     1      21.647   8.457  27.534  1.00  0.00     0.130 A 
BRANCH  15  18
ATOM     18  O   UNL     1      18.432   9.829  26.294  1.00  0.00    -0.508 OA
ATOM     19  H   UNL     1      17.826  10.608  26.526  1.00  0.00     0.293 HD
ENDBRANCH  15  18
BRANCH  17  20
ATOM     20  O   UNL     1      22.851   7.970  27.022  1.00  0.00    -0.507 OA
ATOM     21  H   UNL     1      23.163   7.024  27.209  1.00  0.00     0.293 HD
ENDBRANCH  17  20
ENDBRANCH   1  12
BRANCH   2  22
ATOM     22  O   UNL     1      21.178   6.206  30.574  1.00  0.00    -0.502 OA
ATOM     23  H   UNL     1      20.472   6.374  29.867  1.00  0.00     0.293 HD
ENDBRANCH   2  22
BRANCH   6  24
ATOM     24  O   UNL     1      25.822   5.920  33.175  1.00  0.00    -0.507 OA
ATOM     25  H   UNL     1      25.062   5.387  33.570  1.00  0.00     0.293 HD
ENDBRANCH   6  24
BRANCH   8  26
ATOM     26  O   UNL     1      27.758  10.124  31.896  1.00  0.00    -0.508 OA
ATOM     27  H   UNL     1      28.463  10.194  31.171  1.00  0.00     0.293 HD
ENDBRANCH   8  26
TORSDOF 6
ENDMDL
MODEL 6
REMARK VINA RESULT:    -5.966      8.541     10.947
REMARK INTER + INTRA:          -7.604
REMARK INTER:                  -7.327
REMARK INTRA:                  -0.277
REMARK UNBOUND:                -0.418
REMARK SMILES O=c1c(O)c(-c2ccc(O)cc2O)oc2cc(O)cc(O)c12
REMARK SMILES IDX 5 1 3 2 2 3 1 4 22 5 20 6 19 7 17 8 16 9 15 10 14 11 6 12
REMARK SMILES IDX 8 13 7 14 9 15 11 16 12 17 10 18 13 20 4 22 21 24 18 26
REMARK H PARENT 10 19 13 21 4 23 21 25 18 27
REMARK Flexibility Score: inf
ROOT
ATOM      1  C   UNL     1      27.506   3.232  23.718  1.00  0.00     0.184 A 
ATOM      2  C   UNL     1      26.290   3.583  24.323  1.00  0.00     0.208 A 
ATOM      3  C   UNL     1      26.270   4.641  25.246  1.00  0.00     0.238 A 
ATOM      4  O   UNL     1      25.168   4.988  25.746  1.00  0.00    -0.285 OA
ATOM      5  C   UNL     1      27.471   5.322  25.562  1.00  0.00     0.111 A 
ATOM      6  C   UNL     1      27.576   6.382  26.512  1.00  0.00     0.134 A 
ATOM      7  C   UNL     1      28.789   7.068  26.649  1.00  0.00     0.093 A 
ATOM      8  C   UNL     1      29.917   6.691  25.918  1.00  0.00     0.123 A 
ATOM      9  C   UNL     1      29.841   5.619  25.032  1.00  0.00     0.094 A 
ATOM     10  C   UNL     1      28.636   4.938  24.846  1.00  0.00     0.146 A 
ATOM     11  O   UNL     1      28.603   3.929  23.983  1.00  0.00    -0.451 OA
ENDROOT
BRANCH   1  12
ATOM     12  C   UNL     1      27.598   2.117  22.751  1.00  0.00     0.063 A 
ATOM     13  C   UNL     1      27.203  -0.227  22.240  1.00  0.00     0.047 A 
ATOM     14  C   UNL     1      27.136   0.847  23.131  1.00  0.00     0.020 A 
ATOM     15  C   UNL     1      27.718  -0.042  20.954  1.00  0.00     0.119 A 
ATOM     16  C   UNL     1      28.159   1.227  20.558  1.00  0.00     0.093 A 
ATOM     17  C   UNL     1      28.090   2.312  21.444  1.00  0.00     0.130 A 
BRANCH  15  18
ATOM     18  O   UNL     1      27.782  -1.123  20.078  1.00  0.00    -0.508 OA
ATOM     19  H   UNL     1      28.148  -2.021  20.372  1.00  0.00     0.293 HD
ENDBRANCH  15  18
BRANCH  17  20
ATOM     20  O   UNL     1      28.487   3.581  21.021  1.00  0.00    -0.507 OA
ATOM     21  H   UNL     1      27.842   4.212  20.560  1.00  0.00     0.293 HD
ENDBRANCH  17  20
ENDBRANCH   1  12
BRANCH   2  22
ATOM     22  O   UNL     1      25.116   2.908  23.980  1.00  0.00    -0.502 OA
ATOM     23  H   UNL     1      24.241   3.389  23.809  1.00  0.00     0.293 HD
ENDBRANCH   2  22
BRANCH   6  24
ATOM     24  O   UNL     1      26.536   6.778  27.359  1.00  0.00    -0.507 OA
ATOM     25  H   UNL     1      25.617   6.360  27.374  1.00  0.00     0.293 HD
ENDBRANCH   6  24
BRANCH   8  26
ATOM     26  O   UNL     1      31.124   7.369  26.072  1.00  0.00    -0.508 OA
ATOM     27  H   UNL     1      31.977   7.040  25.632  1.00  0.00     0.293 HD
ENDBRANCH   8  26
TORSDOF 6
ENDMDL
MODEL 7
REMARK VINA RESULT:    -5.785     10.691     12.868
REMARK INTER + INTRA:          -7.387
REMARK INTER:                  -6.977
REMARK INTRA:                  -0.410
REMARK UNBOUND:                -0.418
REMARK SMILES O=c1c(O)c(-c2ccc(O)cc2O)oc2cc(O)cc(O)c12
REMARK SMILES IDX 5 1 3 2 2 3 1 4 22 5 20 6 19 7 17 8 16 9 15 10 14 11 6 12
REMARK SMILES IDX 8 13 7 14 9 15 11 16 12 17 10 18 13 20 4 22 21 24 18 26
REMARK H PARENT 10 19 13 21 4 23 21 25 18 27
REMARK Flexibility Score: inf
ROOT
ATOM      1  C   UNL     1      28.256   1.007  22.059  1.00  0.00     0.184 A 
ATOM      2  C   UNL     1      29.228   2.018  22.023  1.00  0.00     0.208 A 
ATOM      3  C   UNL     1      29.011   3.198  22.753  1.00  0.00     0.238 A 
ATOM      4  O   UNL     1      29.909   4.079  22.761  1.00  0.00    -0.285 OA
ATOM      5  C   UNL     1      27.815   3.354  23.497  1.00  0.00     0.111 A 
ATOM      6  C   UNL     1      27.472   4.522  24.242  1.00  0.00     0.134 A 
ATOM      7  C   UNL     1      26.324   4.516  25.044  1.00  0.00     0.093 A 
ATOM      8  C   UNL     1      25.474   3.409  25.078  1.00  0.00     0.123 A 
ATOM      9  C   UNL     1      25.770   2.286  24.308  1.00  0.00     0.094 A 
ATOM     10  C   UNL     1      26.926   2.247  23.526  1.00  0.00     0.146 A 
ATOM     11  O   UNL     1      27.177   1.154  22.817  1.00  0.00    -0.451 OA
ENDROOT
BRANCH   1  12
ATOM     12  C   UNL     1      28.416  -0.251  21.299  1.00  0.00     0.063 A 
ATOM     13  C   UNL     1      28.072  -1.489  19.235  1.00  0.00     0.047 A 
ATOM     14  C   UNL     1      27.932  -0.317  19.983  1.00  0.00     0.020 A 
ATOM     15  C   UNL     1      28.710  -2.603  19.787  1.00  0.00     0.119 A 
ATOM     16  C   UNL     1      29.217  -2.539  21.090  1.00  0.00     0.093 A 
ATOM     17  C   UNL     1      29.086  -1.365  21.847  1.00  0.00     0.130 A 
BRANCH  15  18
ATOM     18  O   UNL     1      28.838  -3.766  19.030  1.00  0.00    -0.508 OA
ATOM     19  H   UNL     1      28.046  -4.372  18.853  1.00  0.00     0.293 HD
ENDBRANCH  15  18
BRANCH  17  20
ATOM     20  O   UNL     1      29.639  -1.297  23.126  1.00  0.00    -0.507 OA
ATOM     21  H   UNL     1      30.345  -0.610  23.364  1.00  0.00     0.293 HD
ENDBRANCH  17  20
ENDBRANCH   1  12
BRANCH   2  22
ATOM     22  O   UNL     1      30.407   1.831  21.296  1.00  0.00    -0.502 OA
ATOM     23  H   UNL     1      31.322   1.851  21.729  1.00  0.00     0.293 HD
ENDBRANCH   2  22
BRANCH   6  24
ATOM     24  O   UNL     1      28.201   5.714  24.206  1.00  0.00    -0.507 OA
ATOM     25  H   UNL     1      29.097   5.853  24.651  1.00  0.00     0.293 HD
ENDBRANCH   6  24
BRANCH   8  26
ATOM     26  O   UNL     1      24.326   3.417  25.868  1.00  0.00    -0.508 OA
ATOM     27  H   UNL     1      23.633   2.679  25.803  1.00  0.00     0.293 HD
ENDBRANCH   8  26
TORSDOF 6
ENDMDL
MODEL 8
REMARK VINA RESULT:    -5.644     11.329     13.568
REMARK INTER + INTRA:          -7.217
REMARK INTER:                  -6.791
REMARK INTRA:                  -0.425
REMARK UNBOUND:                -0.418
REMARK SMILES O=c1c(O)c(-c2ccc(O)cc2O)oc2cc(O)cc(O)c12
REMARK SMILES IDX 5 1 3 2 2 3 1 4 22 5 20 6 19 7 17 8 16 9 15 10 14 11 6 12
REMARK SMILES IDX 8 13 7 14 9 15 11 16 12 17 10 18 13 20 4 22 21 24 18 26
REMARK H PARENT 10 19 13 21 4 23 21 25 18 27
REMARK Flexibility Score: inf
ROOT
ATOM      1  C   UNL     1      27.517   1.242  21.819  1.00  0.00     0.184 A 
ATOM      2  C   UNL     1      28.032  -0.024  22.132  1.00  0.00     0.208 A 
ATOM      3  C   UNL     1      28.129  -0.990  21.118  1.00  0.00     0.238 A 
ATOM      4  O   UNL     1      28.641  -2.107  21.391  1.00  0.00    -0.285 OA
ATOM      5  C   UNL     1      27.693  -0.678  19.806  1.00  0.00     0.111 A 
ATOM      6  C   UNL     1      27.706  -1.591  18.709  1.00  0.00     0.134 A 
ATOM      7  C   UNL     1      27.372  -1.135  17.428  1.00  0.00     0.093 A 
ATOM      8  C   UNL     1      26.964   0.183  17.216  1.00  0.00     0.123 A 
ATOM      9  C   UNL     1      26.890   1.066  18.291  1.00  0.00     0.094 A 
ATOM     10  C   UNL     1      27.251   0.651  19.574  1.00  0.00     0.146 A 
ATOM     11  O   UNL     1      27.178   1.528  20.569  1.00  0.00    -0.451 OA
ENDROOT
BRANCH   1  12
ATOM     12  C   UNL     1      27.374   2.297  22.845  1.00  0.00     0.063 A 
ATOM     13  C   UNL     1      26.149   3.195  24.744  1.00  0.00     0.047 A 
ATOM     14  C   UNL     1      26.311   2.218  23.758  1.00  0.00     0.020 A 
ATOM     15  C   UNL     1      27.056   4.255  24.839  1.00  0.00     0.119 A 
ATOM     16  C   UNL     1      28.133   4.329  23.947  1.00  0.00     0.093 A 
ATOM     17  C   UNL     1      28.306   3.350  22.958  1.00  0.00     0.130 A 
BRANCH  15  18
ATOM     18  O   UNL     1      26.880   5.224  25.824  1.00  0.00    -0.508 OA
ATOM     19  H   UNL     1      26.068   5.220  26.430  1.00  0.00     0.293 HD
ENDBRANCH  15  18
BRANCH  17  20
ATOM     20  O   UNL     1      29.410   3.409  22.108  1.00  0.00    -0.507 OA
ATOM     21  H   UNL     1      30.293   3.803  22.410  1.00  0.00     0.293 HD
ENDBRANCH  17  20
ENDBRANCH   1  12
BRANCH   2  22
ATOM     22  O   UNL     1      28.473  -0.300  23.430  1.00  0.00    -0.502 OA
ATOM     23  H   UNL     1      28.494   0.404  24.159  1.00  0.00     0.293 HD
ENDBRANCH   2  22
BRANCH   6  24
ATOM     24  O   UNL     1      28.009  -2.951  18.829  1.00  0.00    -0.507 OA
ATOM     25  H   UNL     1      27.430  -3.701  18.482  1.00  0.00     0.293 HD
ENDBRANCH   6  24
BRANCH   8  26
ATOM     26  O   UNL     1      26.619   0.624  15.940  1.00  0.00    -0.508 OA
ATOM     27  H   UNL     1      27.227   1.238  15.409  1.00  0.00     0.293 HD
ENDBRANCH   8  26
TORSDOF 6
ENDMDL
MODEL 9
REMARK VINA RESULT:    -5.551      3.284      5.632
REMARK INTER + INTRA:          -7.105
REMARK INTER:                  -6.678
REMARK INTRA:                  -0.426
REMARK UNBOUND:                -0.418
REMARK SMILES O=c1c(O)c(-c2ccc(O)cc2O)oc2cc(O)cc(O)c12
REMARK SMILES IDX 5 1 3 2 2 3 1 4 22 5 20 6 19 7 17 8 16 9 15 10 14 11 6 12
REMARK SMILES IDX 8 13 7 14 9 15 11 16 12 17 10 18 13 20 4 22 21 24 18 26
REMARK H PARENT 10 19 13 21 4 23 21 25 18 27
REMARK Flexibility Score: inf
ROOT
ATOM      1  C   UNL     1      23.306   8.538  29.823  1.00  0.00     0.184 A 
ATOM      2  C   UNL     1      22.710   9.280  28.792  1.00  0.00     0.208 A 
ATOM      3  C   UNL     1      21.323   9.186  28.600  1.00  0.00     0.238 A 
ATOM      4  O   UNL     1      20.785   9.894  27.709  1.00  0.00    -0.285 OA
ATOM      5  C   UNL     1      20.553   8.337  29.434  1.00  0.00     0.111 A 
ATOM      6  C   UNL     1      19.146   8.133  29.304  1.00  0.00     0.134 A 
ATOM      7  C   UNL     1      18.469   7.372  30.265  1.00  0.00     0.093 A 
ATOM      8  C   UNL     1      19.156   6.755  31.312  1.00  0.00     0.123 A 
ATOM      9  C   UNL     1      20.538   6.900  31.412  1.00  0.00     0.094 A 
ATOM     10  C   UNL     1      21.237   7.682  30.491  1.00  0.00     0.146 A 
ATOM     11  O   UNL     1      22.552   7.803  30.630  1.00  0.00    -0.451 OA
ENDROOT
BRANCH   1  12
ATOM     12  C   UNL     1      24.763   8.581  30.067  1.00  0.00     0.063 A 
ATOM     13  C   UNL     1      27.001   7.905  29.400  1.00  0.00     0.047 A 
ATOM     14  C   UNL     1      25.619   7.882  29.201  1.00  0.00     0.020 A 
ATOM     15  C   UNL     1      27.548   8.638  30.457  1.00  0.00     0.119 A 
ATOM     16  C   UNL     1      26.705   9.357  31.312  1.00  0.00     0.093 A 
ATOM     17  C   UNL     1      25.315   9.344  31.117  1.00  0.00     0.130 A 
BRANCH  15  18
ATOM     18  O   UNL     1      28.928   8.648  30.644  1.00  0.00    -0.508 OA
ATOM     19  H   UNL     1      29.349   9.094  31.451  1.00  0.00     0.293 HD
ENDBRANCH  15  18
BRANCH  17  20
ATOM     20  O   UNL     1      24.490  10.105  31.946  1.00  0.00    -0.507 OA
ATOM     21  H   UNL     1      24.625  10.130  32.950  1.00  0.00     0.293 HD
ENDBRANCH  17  20
ENDBRANCH   1  12
BRANCH   2  22
ATOM     22  O   UNL     1      23.490  10.125  27.996  1.00  0.00    -0.502 OA
ATOM     23  H   UNL     1      23.751  11.059  28.288  1.00  0.00     0.293 HD
ENDBRANCH   2  22
BRANCH   6  24
ATOM     24  O   UNL     1      18.380   8.628  28.245  1.00  0.00    -0.507 OA
ATOM     25  H   UNL     1      18.443   9.566  27.879  1.00  0.00     0.293 HD
ENDBRANCH   6  24
BRANCH   8  26
ATOM     26  O   UNL     1      18.475   5.987  32.254  1.00  0.00    -0.508 OA
ATOM     27  H   UNL     1      17.487   5.783  32.157  1.00  0.00     0.293 HD
ENDBRANCH   8  26
TORSDOF 6
ENDMDL
