MODEL 1
REMARK VINA RESULT:    -4.761      0.000      0.000
REMARK INTER + INTRA:          -5.223
REMARK INTER:                  -5.179
REMARK INTRA:                  -0.044
REMARK UNBOUND:                -0.044
REMARK SMILES COc1cc2ccc(=O)oc2cc1O
REMARK SMILES IDX 3 1 13 2 12 3 11 4 5 5 4 6 6 7 7 8 8 9 9 10 10 11 2 12 1 13
REMARK SMILES IDX 14 14
REMARK H PARENT 14 15
REMARK Flexibility Score: inf
ROOT
ATOM      1  C   UNL     1      46.888 -29.129 -30.673  1.00  0.00     0.161 A 
ATOM      2  C   UNL     1      46.942 -28.368 -31.857  1.00  0.00     0.161 A 
ATOM      3  C   UNL     1      48.178 -28.012 -32.410  1.00  0.00     0.098 A 
ATOM      4  C   UNL     1      49.367 -28.406 -31.795  1.00  0.00     0.142 A 
ATOM      5  C   UNL     1      49.324 -29.168 -30.608  1.00  0.00     0.022 A 
ATOM      6  C   UNL     1      48.089 -29.528 -30.052  1.00  0.00     0.062 A 
ATOM      7  C   UNL     1      50.532 -29.548 -30.016  1.00  0.00     0.019 A 
ATOM      8  C   UNL     1      51.736 -29.166 -30.608  1.00  0.00     0.094 A 
ATOM      9  C   UNL     1      51.702 -28.409 -31.784  1.00  0.00     0.336 A 
ATOM     10  O   UNL     1      52.776 -28.054 -32.334  1.00  0.00    -0.246 OA
ATOM     11  O   UNL     1      50.537 -28.062 -32.327  1.00  0.00    -0.423 OA
ENDROOT
BRANCH   1  12
ATOM     12  O   UNL     1      45.632 -29.471 -30.146  1.00  0.00    -0.493 OA
ATOM     13  C   UNL     1      45.397 -30.554 -29.252  1.00  0.00     0.278 C 
ENDBRANCH   1  12
BRANCH   2  14
ATOM     14  O   UNL     1      45.776 -27.956 -32.501  1.00  0.00    -0.504 OA
ATOM     15  H   UNL     1      44.855 -28.151 -32.128  1.00  0.00     0.293 HD
ENDBRANCH   2  14
TORSDOF 2
ENDMDL
MODEL 2
REMARK VINA RESULT:    -4.713      1.475      2.078
REMARK INTER + INTRA:          -5.170
REMARK INTER:                  -5.127
REMARK INTRA:                  -0.043
REMARK UNBOUND:                -0.044
REMARK SMILES COc1cc2ccc(=O)oc2cc1O
REMARK SMILES IDX 3 1 13 2 12 3 11 4 5 5 4 6 6 7 7 8 8 9 9 10 10 11 2 12 1 13
REMARK SMILES IDX 14 14
REMARK H PARENT 14 15
REMARK Flexibility Score: inf
ROOT
ATOM      1  C   UNL     1      48.787 -28.796 -31.287  1.00  0.00     0.161 A 
ATOM      2  C   UNL     1      49.107 -27.956 -32.372  1.00  0.00     0.161 A 
ATOM      3  C   UNL     1      50.437 -27.591 -32.612  1.00  0.00     0.098 A 
ATOM      4  C   UNL     1      51.458 -28.055 -31.781  1.00  0.00     0.142 A 
ATOM      5  C   UNL     1      51.148 -28.896 -30.692  1.00  0.00     0.022 A 
ATOM      6  C   UNL     1      49.818 -29.265 -30.448  1.00  0.00     0.062 A 
ATOM      7  C   UNL     1      52.193 -29.345 -29.878  1.00  0.00     0.019 A 
ATOM      8  C   UNL     1      53.501 -28.951 -30.162  1.00  0.00     0.094 A 
ATOM      9  C   UNL     1      53.732 -28.114 -31.258  1.00  0.00     0.336 A 
ATOM     10  O   UNL     1      54.905 -27.747 -31.531  1.00  0.00    -0.246 OA
ATOM     11  O   UNL     1      52.720 -27.703 -32.017  1.00  0.00    -0.423 OA
ENDROOT
BRANCH   1  12
ATOM     12  O   UNL     1      47.443 -29.144 -31.075  1.00  0.00    -0.493 OA
ATOM     13  C   UNL     1      46.979 -29.968 -30.012  1.00  0.00     0.278 C 
ENDBRANCH   1  12
BRANCH   2  14
ATOM     14  O   UNL     1      48.115 -27.473 -33.224  1.00  0.00    -0.504 OA
ATOM     15  H   UNL     1      48.193 -27.531 -34.232  1.00  0.00     0.293 HD
ENDBRANCH   2  14
TORSDOF 2
ENDMDL
MODEL 3
REMARK VINA RESULT:    -4.612      1.087      4.835
REMARK INTER + INTRA:          -5.061
REMARK INTER:                  -5.001
REMARK INTRA:                  -0.060
REMARK UNBOUND:                -0.044
REMARK SMILES COc1cc2ccc(=O)oc2cc1O
REMARK SMILES IDX 3 1 13 2 12 3 11 4 5 5 4 6 6 7 7 8 8 9 9 10 10 11 2 12 1 13
REMARK SMILES IDX 14 14
REMARK H PARENT 14 15
REMARK Flexibility Score: inf
ROOT
ATOM      1  C   UNL     1      49.738 -28.518 -31.600  1.00  0.00     0.161 A 
ATOM      2  C   UNL     1      48.652 -28.213 -32.445  1.00  0.00     0.161 A 
ATOM      3  C   UNL     1      47.352 -28.587 -32.083  1.00  0.00     0.098 A 
ATOM      4  C   UNL     1      47.118 -29.263 -30.885  1.00  0.00     0.142 A 
ATOM      5  C   UNL     1      48.199 -29.574 -30.033  1.00  0.00     0.022 A 
ATOM      6  C   UNL     1      49.502 -29.202 -30.390  1.00  0.00     0.062 A 
ATOM      7  C   UNL     1      47.932 -30.252 -28.839  1.00  0.00     0.019 A 
ATOM      8  C   UNL     1      46.618 -30.600 -28.527  1.00  0.00     0.094 A 
ATOM      9  C   UNL     1      45.598 -30.261 -29.421  1.00  0.00     0.336 A 
ATOM     10  O   UNL     1      44.405 -30.566 -29.158  1.00  0.00    -0.246 OA
ATOM     11  O   UNL     1      45.879 -29.614 -30.550  1.00  0.00    -0.423 OA
ENDROOT
BRANCH   1  12
ATOM     12  O   UNL     1      51.029 -28.129 -31.993  1.00  0.00    -0.493 OA
ATOM     13  C   UNL     1      52.088 -29.030 -32.298  1.00  0.00     0.278 C 
ENDBRANCH   1  12
BRANCH   2  14
ATOM     14  O   UNL     1      48.845 -27.538 -33.649  1.00  0.00    -0.504 OA
ATOM     15  H   UNL     1      48.180 -27.590 -34.411  1.00  0.00     0.293 HD
ENDBRANCH   2  14
TORSDOF 2
ENDMDL
MODEL 4
REMARK VINA RESULT:    -4.593     14.540     14.760
REMARK INTER + INTRA:          -5.040
REMARK INTER:                  -4.976
REMARK INTRA:                  -0.064
REMARK UNBOUND:                -0.044
REMARK SMILES COc1cc2ccc(=O)oc2cc1O
REMARK SMILES IDX 3 1 13 2 12 3 11 4 5 5 4 6 6 7 7 8 8 9 9 10 10 11 2 12 1 13
REMARK SMILES IDX 14 14
REMARK H PARENT 14 15
REMARK Flexibility Score: inf
ROOT
ATOM      1  C   UNL     1      52.348 -38.208 -20.777  1.00  0.00     0.161 A 
ATOM      2  C   UNL     1      53.422 -37.357 -20.449  1.00  0.00     0.161 A 
ATOM      3  C   UNL     1      54.659 -37.506 -21.087  1.00  0.00     0.098 A 
ATOM      4  C   UNL     1      54.841 -38.496 -22.053  1.00  0.00     0.142 A 
ATOM      5  C   UNL     1      53.772 -39.354 -22.389  1.00  0.00     0.022 A 
ATOM      6  C   UNL     1      52.532 -39.208 -21.753  1.00  0.00     0.062 A 
ATOM      7  C   UNL     1      53.986 -40.336 -23.361  1.00  0.00     0.019 A 
ATOM      8  C   UNL     1      55.239 -40.441 -23.966  1.00  0.00     0.094 A 
ATOM      9  C   UNL     1      56.252 -39.557 -23.581  1.00  0.00     0.336 A 
ATOM     10  O   UNL     1      57.389 -39.634 -24.115  1.00  0.00    -0.246 OA
ATOM     11  O   UNL     1      56.021 -38.630 -22.654  1.00  0.00    -0.423 OA
ENDROOT
BRANCH   1  12
ATOM     12  O   UNL     1      51.120 -38.031 -20.119  1.00  0.00    -0.493 OA
ATOM     13  C   UNL     1      50.607 -38.902 -19.117  1.00  0.00     0.278 C 
ENDBRANCH   1  12
BRANCH   2  14
ATOM     14  O   UNL     1      53.279 -36.356 -19.489  1.00  0.00    -0.504 OA
ATOM     15  H   UNL     1      53.669 -35.430 -19.612  1.00  0.00     0.293 HD
ENDBRANCH   2  14
TORSDOF 2
ENDMDL
MODEL 5
REMARK VINA RESULT:    -4.530      1.954      5.677
REMARK INTER + INTRA:          -4.971
REMARK INTER:                  -4.925
REMARK INTRA:                  -0.047
REMARK UNBOUND:                -0.044
REMARK SMILES COc1cc2ccc(=O)oc2cc1O
REMARK SMILES IDX 3 1 13 2 12 3 11 4 5 5 4 6 6 7 7 8 8 9 9 10 10 11 2 12 1 13
REMARK SMILES IDX 14 14
REMARK H PARENT 14 15
REMARK Flexibility Score: inf
ROOT
ATOM      1  C   UNL     1      52.952 -28.850 -30.712  1.00  0.00     0.161 A 
ATOM      2  C   UNL     1      52.231 -29.517 -29.703  1.00  0.00     0.161 A 
ATOM      3  C   UNL     1      50.837 -29.623 -29.786  1.00  0.00     0.098 A 
ATOM      4  C   UNL     1      50.149 -29.070 -30.868  1.00  0.00     0.142 A 
ATOM      5  C   UNL     1      50.863 -28.399 -31.883  1.00  0.00     0.022 A 
ATOM      6  C   UNL     1      52.257 -28.291 -31.804  1.00  0.00     0.062 A 
ATOM      7  C   UNL     1      50.145 -27.855 -32.953  1.00  0.00     0.019 A 
ATOM      8  C   UNL     1      48.757 -27.989 -32.987  1.00  0.00     0.094 A 
ATOM      9  C   UNL     1      48.118 -28.667 -31.944  1.00  0.00     0.336 A 
ATOM     10  O   UNL     1      46.866 -28.799 -31.956  1.00  0.00    -0.246 OA
ATOM     11  O   UNL     1      48.824 -29.175 -30.938  1.00  0.00    -0.423 OA
ENDROOT
BRANCH   1  12
ATOM     12  O   UNL     1      54.349 -28.762 -30.598  1.00  0.00    -0.493 OA
ATOM     13  C   UNL     1      55.127 -27.650 -31.029  1.00  0.00     0.278 C 
ENDBRANCH   1  12
BRANCH   2  14
ATOM     14  O   UNL     1      52.882 -30.083 -28.608  1.00  0.00    -0.504 OA
ATOM     15  H   UNL     1      53.769 -29.735 -28.267  1.00  0.00     0.293 HD
ENDBRANCH   2  14
TORSDOF 2
ENDMDL
MODEL 6
REMARK VINA RESULT:    -4.506      1.184      4.889
REMARK INTER + INTRA:          -4.945
REMARK INTER:                  -4.901
REMARK INTRA:                  -0.044
REMARK UNBOUND:                -0.044
REMARK SMILES COc1cc2ccc(=O)oc2cc1O
REMARK SMILES IDX 3 1 13 2 12 3 11 4 5 5 4 6 6 7 7 8 8 9 9 10 10 11 2 12 1 13
REMARK SMILES IDX 14 14
REMARK H PARENT 14 15
REMARK Flexibility Score: inf
ROOT
ATOM      1  C   UNL     1      51.804 -28.767 -30.855  1.00  0.00     0.161 A 
ATOM      2  C   UNL     1      51.610 -27.969 -31.998  1.00  0.00     0.161 A 
ATOM      3  C   UNL     1      50.316 -27.726 -32.476  1.00  0.00     0.098 A 
ATOM      4  C   UNL     1      49.208 -28.271 -31.826  1.00  0.00     0.142 A 
ATOM      5  C   UNL     1      49.392 -29.072 -30.679  1.00  0.00     0.022 A 
ATOM      6  C   UNL     1      50.685 -29.318 -30.197  1.00  0.00     0.062 A 
ATOM      7  C   UNL     1      48.263 -29.604 -30.050  1.00  0.00     0.019 A 
ATOM      8  C   UNL     1      46.996 -29.330 -30.568  1.00  0.00     0.094 A 
ATOM      9  C   UNL     1      46.891 -28.529 -31.708  1.00  0.00     0.336 A 
ATOM     10  O   UNL     1      45.758 -28.270 -32.192  1.00  0.00    -0.246 OA
ATOM     11  O   UNL     1      47.982 -28.034 -32.288  1.00  0.00    -0.423 OA
ENDROOT
BRANCH   1  12
ATOM     12  O   UNL     1      53.114 -28.991 -30.401  1.00  0.00    -0.493 OA
ATOM     13  C   UNL     1      53.478 -29.961 -29.425  1.00  0.00     0.278 C 
ENDBRANCH   1  12
BRANCH   2  14
ATOM     14  O   UNL     1      52.691 -27.406 -32.675  1.00  0.00    -0.504 OA
ATOM     15  H   UNL     1      53.341 -26.774 -32.225  1.00  0.00     0.293 HD
ENDBRANCH   2  14
TORSDOF 2
ENDMDL
MODEL 7
REMARK VINA RESULT:    -4.413     13.696     15.177
REMARK INTER + INTRA:          -4.845
REMARK INTER:                  -4.790
REMARK INTRA:                  -0.055
REMARK UNBOUND:                -0.044
REMARK SMILES COc1cc2ccc(=O)oc2cc1O
REMARK SMILES IDX 3 1 13 2 12 3 11 4 5 5 4 6 6 7 7 8 8 9 9 10 10 11 2 12 1 13
REMARK SMILES IDX 14 14
REMARK H PARENT 14 15
REMARK Flexibility Score: inf
ROOT
ATOM      1  C   UNL     1      55.388 -41.371 -31.026  1.00  0.00     0.161 A 
ATOM      2  C   UNL     1      56.126 -40.330 -30.430  1.00  0.00     0.161 A 
ATOM      3  C   UNL     1      56.427 -40.374 -29.063  1.00  0.00     0.098 A 
ATOM      4  C   UNL     1      56.001 -41.447 -28.279  1.00  0.00     0.142 A 
ATOM      5  C   UNL     1      55.260 -42.494 -28.867  1.00  0.00     0.022 A 
ATOM      6  C   UNL     1      54.957 -42.455 -30.234  1.00  0.00     0.062 A 
ATOM      7  C   UNL     1      54.847 -43.555 -28.055  1.00  0.00     0.019 A 
ATOM      8  C   UNL     1      55.174 -43.548 -26.699  1.00  0.00     0.094 A 
ATOM      9  C   UNL     1      55.910 -42.476 -26.186  1.00  0.00     0.336 A 
ATOM     10  O   UNL     1      56.216 -42.450 -24.965  1.00  0.00    -0.246 OA
ATOM     11  O   UNL     1      56.292 -41.479 -26.981  1.00  0.00    -0.423 OA
ENDROOT
BRANCH   1  12
ATOM     12  O   UNL     1      55.104 -41.297 -32.400  1.00  0.00    -0.493 OA
ATOM     13  C   UNL     1      53.934 -40.703 -32.952  1.00  0.00     0.278 C 
ENDBRANCH   1  12
BRANCH   2  14
ATOM     14  O   UNL     1      56.571 -39.242 -31.180  1.00  0.00    -0.504 OA
ATOM     15  H   UNL     1      57.258 -39.339 -31.917  1.00  0.00     0.293 HD
ENDBRANCH   2  14
TORSDOF 2
ENDMDL
MODEL 8
REMARK VINA RESULT:    -4.386     14.593     15.491
REMARK INTER + INTRA:          -4.815
REMARK INTER:                  -4.771
REMARK INTRA:                  -0.044
REMARK UNBOUND:                -0.044
REMARK SMILES COc1cc2ccc(=O)oc2cc1O
REMARK SMILES IDX 3 1 13 2 12 3 11 4 5 5 4 6 6 7 7 8 8 9 9 10 10 11 2 12 1 13
REMARK SMILES IDX 14 14
REMARK H PARENT 14 15
REMARK Flexibility Score: inf
ROOT
ATOM      1  C   UNL     1      55.712 -40.496 -24.255  1.00  0.00     0.161 A 
ATOM      2  C   UNL     1      56.415 -39.390 -23.739  1.00  0.00     0.161 A 
ATOM      3  C   UNL     1      55.826 -38.572 -22.767  1.00  0.00     0.098 A 
ATOM      4  C   UNL     1      54.540 -38.845 -22.299  1.00  0.00     0.142 A 
ATOM      5  C   UNL     1      53.827 -39.951 -22.809  1.00  0.00     0.022 A 
ATOM      6  C   UNL     1      54.413 -40.772 -23.782  1.00  0.00     0.062 A 
ATOM      7  C   UNL     1      52.541 -40.198 -22.320  1.00  0.00     0.019 A 
ATOM      8  C   UNL     1      52.002 -39.351 -21.350  1.00  0.00     0.094 A 
ATOM      9  C   UNL     1      52.766 -38.274 -20.893  1.00  0.00     0.336 A 
ATOM     10  O   UNL     1      52.298 -37.499 -20.018  1.00  0.00    -0.246 OA
ATOM     11  O   UNL     1      53.988 -38.062 -21.374  1.00  0.00    -0.423 OA
ENDROOT
BRANCH   1  12
ATOM     12  O   UNL     1      56.332 -41.296 -25.229  1.00  0.00    -0.493 OA
ATOM     13  C   UNL     1      55.980 -42.647 -25.509  1.00  0.00     0.278 C 
ENDBRANCH   1  12
BRANCH   2  14
ATOM     14  O   UNL     1      57.702 -39.086 -24.181  1.00  0.00    -0.504 OA
ATOM     15  H   UNL     1      58.436 -38.796 -23.548  1.00  0.00     0.293 HD
ENDBRANCH   2  14
TORSDOF 2
ENDMDL
MODEL 9
REMARK VINA RESULT:    -4.386     12.879     14.438
REMARK INTER + INTRA:          -4.815
REMARK INTER:                  -4.763
REMARK INTRA:                  -0.052
REMARK UNBOUND:                -0.044
REMARK SMILES COc1cc2ccc(=O)oc2cc1O
REMARK SMILES IDX 3 1 13 2 12 3 11 4 5 5 4 6 6 7 7 8 8 9 9 10 10 11 2 12 1 13
REMARK SMILES IDX 14 14
REMARK H PARENT 14 15
REMARK Flexibility Score: inf
ROOT
ATOM      1  C   UNL     1      54.218 -41.169 -31.567  1.00  0.00     0.161 A 
ATOM      2  C   UNL     1      54.816 -41.933 -30.546  1.00  0.00     0.161 A 
ATOM      3  C   UNL     1      54.058 -42.360 -29.450  1.00  0.00     0.098 A 
ATOM      4  C   UNL     1      52.704 -42.034 -29.357  1.00  0.00     0.142 A 
ATOM      5  C   UNL     1      52.096 -41.268 -30.374  1.00  0.00     0.022 A 
ATOM      6  C   UNL     1      52.851 -40.840 -31.474  1.00  0.00     0.062 A 
ATOM      7  C   UNL     1      50.738 -40.958 -30.252  1.00  0.00     0.019 A 
ATOM      8  C   UNL     1      50.028 -41.408 -29.139  1.00  0.00     0.094 A 
ATOM      9  C   UNL     1      50.698 -42.161 -28.170  1.00  0.00     0.336 A 
ATOM     10  O   UNL     1      50.076 -42.578 -27.157  1.00  0.00    -0.246 OA
ATOM     11  O   UNL     1      51.991 -42.444 -28.310  1.00  0.00    -0.423 OA
ENDROOT
BRANCH   1  12
ATOM     12  O   UNL     1      55.007 -40.758 -32.654  1.00  0.00    -0.493 OA
ATOM     13  C   UNL     1      54.644 -40.912 -34.022  1.00  0.00     0.278 C 
ENDBRANCH   1  12
BRANCH   2  14
ATOM     14  O   UNL     1      56.166 -42.280 -30.604  1.00  0.00    -0.504 OA
ATOM     15  H   UNL     1      56.851 -41.890 -29.970  1.00  0.00     0.293 HD
ENDBRANCH   2  14
TORSDOF 2
ENDMDL
