MODEL 1
REMARK VINA RESULT:    -4.171      0.000      0.000
REMARK INTER + INTRA:          -7.171
REMARK INTER:                  -6.609
REMARK INTRA:                  -0.562
REMARK UNBOUND:                -0.562
REMARK SMILES CCCCCCCCCCCC(=O)[O-]
REMARK SMILES IDX 7 1 8 2 9 3 10 4 11 5 12 6 13 7 14 8 6 9 5 10 4 11 3 12 2 13
REMARK SMILES IDX 1 14
REMARK H PARENT
REMARK Flexibility Score: inf
ROOT
ATOM      1  C   UNL     1       1.125   1.985   8.450  1.00  0.00     0.000 C 
ENDROOT
BRANCH   1   2
ATOM      2  C   UNL     1       0.496   3.371   8.193  1.00  0.00     0.000 C 
BRANCH   2   3
ATOM      3  C   UNL     1       1.358   4.287   7.303  1.00  0.00     0.000 C 
BRANCH   3   4
ATOM      4  C   UNL     1       0.770   5.687   7.058  1.00  0.00     0.006 C 
BRANCH   4   5
ATOM      5  C   UNL     1      -0.633   5.641   6.441  1.00  0.00     0.053 C 
BRANCH   5   6
ATOM      6  C   UNL     1      -0.574   5.993   4.988  1.00  0.00     0.041 C 
ATOM      7  O   UNL     1      -0.067   5.190   4.162  1.00  0.00    -0.550 OA
ATOM      8  O   UNL     1      -1.033   7.230   4.553  1.00  0.00    -0.550 OA
ENDBRANCH   5   6
ENDBRANCH   4   5
ENDBRANCH   3   4
ENDBRANCH   2   3
ENDBRANCH   1   2
BRANCH   1   9
ATOM      9  C   UNL     1       2.205   1.635   7.411  1.00  0.00     0.000 C 
BRANCH   9  10
ATOM     10  C   UNL     1       2.206   0.143   7.039  1.00  0.00    -0.000 C 
BRANCH  10  11
ATOM     11  C   UNL     1       1.132  -0.197   5.990  1.00  0.00    -0.000 C 
BRANCH  11  12
ATOM     12  C   UNL     1       1.368  -1.564   5.328  1.00  0.00    -0.000 C 
BRANCH  12  13
ATOM     13  C   UNL     1       2.663  -2.237   5.802  1.00  0.00    -0.003 C 
ATOM     14  C   UNL     1       3.641  -2.423   4.645  1.00  0.00     0.004 C 
ENDBRANCH  12  13
ENDBRANCH  11  12
ENDBRANCH  10  11
ENDBRANCH   9  10
ENDBRANCH   1   9
TORSDOF 10
ENDMDL
MODEL 2
REMARK VINA RESULT:    -4.145      5.648      7.890
REMARK INTER + INTRA:          -7.130
REMARK INTER:                  -6.252
REMARK INTRA:                  -0.878
REMARK UNBOUND:                -0.562
REMARK SMILES CCCCCCCCCCCC(=O)[O-]
REMARK SMILES IDX 7 1 8 2 9 3 10 4 11 5 12 6 13 7 14 8 6 9 5 10 4 11 3 12 2 13
REMARK SMILES IDX 1 14
REMARK H PARENT
REMARK Flexibility Score: inf
ROOT
ATOM      1  C   UNL     1      -2.029  -3.711   5.168  1.00  0.00     0.000 C 
ENDROOT
BRANCH   1   2
ATOM      2  C   UNL     1      -1.597  -2.635   6.187  1.00  0.00     0.000 C 
BRANCH   2   3
ATOM      3  C   UNL     1      -0.070  -2.515   6.351  1.00  0.00     0.000 C 
BRANCH   3   4
ATOM      4  C   UNL     1       0.634  -1.692   5.258  1.00  0.00     0.006 C 
BRANCH   4   5
ATOM      5  C   UNL     1       2.013  -1.184   5.695  1.00  0.00     0.053 C 
BRANCH   5   6
ATOM      6  C   UNL     1       3.051  -2.238   5.470  1.00  0.00     0.041 C 
ATOM      7  O   UNL     1       3.358  -3.032   6.396  1.00  0.00    -0.550 OA
ATOM      8  O   UNL     1       3.715  -2.311   4.252  1.00  0.00    -0.550 OA
ENDBRANCH   5   6
ENDBRANCH   4   5
ENDBRANCH   3   4
ENDBRANCH   2   3
ENDBRANCH   1   2
BRANCH   1   9
ATOM      9  C   UNL     1      -2.811  -3.110   3.986  1.00  0.00     0.000 C 
BRANCH   9  10
ATOM     10  C   UNL     1      -2.835  -1.573   4.014  1.00  0.00    -0.000 C 
BRANCH  10  11
ATOM     11  C   UNL     1      -4.268  -1.013   4.068  1.00  0.00    -0.000 C 
BRANCH  11  12
ATOM     12  C   UNL     1      -5.233  -1.937   4.828  1.00  0.00    -0.000 C 
BRANCH  12  13
ATOM     13  C   UNL     1      -5.364  -1.565   6.312  1.00  0.00    -0.003 C 
ATOM     14  C   UNL     1      -5.587  -0.065   6.485  1.00  0.00     0.004 C 
ENDBRANCH  12  13
ENDBRANCH  11  12
ENDBRANCH  10  11
ENDBRANCH   9  10
ENDBRANCH   1   9
TORSDOF 10
ENDMDL
MODEL 3
REMARK VINA RESULT:    -4.124      1.284      2.282
REMARK INTER + INTRA:          -7.096
REMARK INTER:                  -6.325
REMARK INTRA:                  -0.771
REMARK UNBOUND:                -0.562
REMARK SMILES CCCCCCCCCCCC(=O)[O-]
REMARK SMILES IDX 7 1 8 2 9 3 10 4 11 5 12 6 13 7 14 8 6 9 5 10 4 11 3 12 2 13
REMARK SMILES IDX 1 14
REMARK H PARENT
REMARK Flexibility Score: inf
ROOT
ATOM      1  C   UNL     1       1.732   0.254   7.214  1.00  0.00     0.000 C 
ENDROOT
BRANCH   1   2
ATOM      2  C   UNL     1       1.463   1.697   7.692  1.00  0.00     0.000 C 
BRANCH   2   3
ATOM      3  C   UNL     1       1.505   2.743   6.561  1.00  0.00     0.000 C 
BRANCH   3   4
ATOM      4  C   UNL     1       0.747   4.047   6.860  1.00  0.00     0.006 C 
BRANCH   4   5
ATOM      5  C   UNL     1       1.339   5.258   6.127  1.00  0.00     0.053 C 
BRANCH   5   6
ATOM      6  C   UNL     1       1.203   5.087   4.647  1.00  0.00     0.041 C 
ATOM      7  O   UNL     1       0.065   5.106   4.109  1.00  0.00    -0.550 OA
ATOM      8  O   UNL     1       2.330   4.858   3.867  1.00  0.00    -0.550 OA
ENDBRANCH   5   6
ENDBRANCH   4   5
ENDBRANCH   3   4
ENDBRANCH   2   3
ENDBRANCH   1   2
BRANCH   1   9
ATOM      9  C   UNL     1       1.236   0.016   5.777  1.00  0.00     0.000 C 
BRANCH   9  10
ATOM     10  C   UNL     1       0.952  -1.467   5.488  1.00  0.00    -0.000 C 
BRANCH  10  11
ATOM     11  C   UNL     1       2.100  -2.381   5.953  1.00  0.00    -0.000 C 
BRANCH  11  12
ATOM     12  C   UNL     1       3.181  -2.562   4.876  1.00  0.00    -0.000 C 
BRANCH  12  13
ATOM     13  C   UNL     1       4.471  -1.793   5.195  1.00  0.00    -0.003 C 
ATOM     14  C   UNL     1       4.747  -1.782   6.696  1.00  0.00     0.004 C 
ENDBRANCH  12  13
ENDBRANCH  11  12
ENDBRANCH  10  11
ENDBRANCH   9  10
ENDBRANCH   1   9
TORSDOF 10
ENDMDL
MODEL 4
REMARK VINA RESULT:    -4.075      1.740      2.560
REMARK INTER + INTRA:          -7.020
REMARK INTER:                  -6.624
REMARK INTRA:                  -0.396
REMARK UNBOUND:                -0.562
REMARK SMILES CCCCCCCCCCCC(=O)[O-]
REMARK SMILES IDX 7 1 8 2 9 3 10 4 11 5 12 6 13 7 14 8 6 9 5 10 4 11 3 12 2 13
REMARK SMILES IDX 1 14
REMARK H PARENT
REMARK Flexibility Score: inf
ROOT
ATOM      1  C   UNL     1       1.702   0.862   7.707  1.00  0.00     0.000 C 
ENDROOT
BRANCH   1   2
ATOM      2  C   UNL     1       1.552   2.069   6.757  1.00  0.00     0.000 C 
BRANCH   2   3
ATOM      3  C   UNL     1       0.951   3.317   7.431  1.00  0.00     0.000 C 
BRANCH   3   4
ATOM      4  C   UNL     1       1.089   4.617   6.621  1.00  0.00     0.006 C 
BRANCH   4   5
ATOM      5  C   UNL     1      -0.216   5.420   6.562  1.00  0.00     0.053 C 
BRANCH   5   6
ATOM      6  C   UNL     1      -0.550   5.767   5.145  1.00  0.00     0.041 C 
ATOM      7  O   UNL     1       0.036   5.183   4.196  1.00  0.00    -0.550 OA
ATOM      8  O   UNL     1      -1.472   6.769   4.873  1.00  0.00    -0.550 OA
ENDBRANCH   5   6
ENDBRANCH   4   5
ENDBRANCH   3   4
ENDBRANCH   2   3
ENDBRANCH   1   2
BRANCH   1   9
ATOM      9  C   UNL     1       1.959  -0.450   6.944  1.00  0.00     0.000 C 
BRANCH   9  10
ATOM     10  C   UNL     1       1.216  -0.506   5.600  1.00  0.00    -0.000 C 
BRANCH  10  11
ATOM     11  C   UNL     1       0.625  -1.899   5.318  1.00  0.00    -0.000 C 
BRANCH  11  12
ATOM     12  C   UNL     1      -0.909  -1.920   5.420  1.00  0.00    -0.000 C 
BRANCH  12  13
ATOM     13  C   UNL     1      -1.574  -2.596   4.212  1.00  0.00    -0.003 C 
ATOM     14  C   UNL     1      -2.908  -1.933   3.878  1.00  0.00     0.004 C 
ENDBRANCH  12  13
ENDBRANCH  11  12
ENDBRANCH  10  11
ENDBRANCH   9  10
ENDBRANCH   1   9
TORSDOF 10
ENDMDL
MODEL 5
REMARK VINA RESULT:    -3.976      8.119     10.844
REMARK INTER + INTRA:          -6.862
REMARK INTER:                  -6.330
REMARK INTRA:                  -0.532
REMARK UNBOUND:                -0.562
REMARK SMILES CCCCCCCCCCCC(=O)[O-]
REMARK SMILES IDX 7 1 8 2 9 3 10 4 11 5 12 6 13 7 14 8 6 9 5 10 4 11 3 12 2 13
REMARK SMILES IDX 1 14
REMARK H PARENT
REMARK Flexibility Score: inf
ROOT
ATOM      1  C   UNL     1      -3.560  -5.040   1.552  1.00  0.00     0.000 C 
ENDROOT
BRANCH   1   2
ATOM      2  C   UNL     1      -2.792  -5.631   0.350  1.00  0.00     0.000 C 
BRANCH   2   3
ATOM      3  C   UNL     1      -1.847  -4.627  -0.336  1.00  0.00     0.000 C 
BRANCH   3   4
ATOM      4  C   UNL     1      -1.842  -4.691  -1.873  1.00  0.00     0.006 C 
BRANCH   4   5
ATOM      5  C   UNL     1      -0.680  -3.908  -2.495  1.00  0.00     0.053 C 
BRANCH   5   6
ATOM      6  C   UNL     1       0.436  -4.835  -2.860  1.00  0.00     0.041 C 
ATOM      7  O   UNL     1       0.504  -5.318  -4.021  1.00  0.00    -0.550 OA
ATOM      8  O   UNL     1       1.373  -5.205  -1.904  1.00  0.00    -0.550 OA
ENDBRANCH   5   6
ENDBRANCH   4   5
ENDBRANCH   3   4
ENDBRANCH   2   3
ENDBRANCH   1   2
BRANCH   1   9
ATOM      9  C   UNL     1      -2.729  -3.993   2.314  1.00  0.00     0.000 C 
BRANCH   9  10
ATOM     10  C   UNL     1      -2.699  -4.252   3.829  1.00  0.00    -0.000 C 
BRANCH  10  11
ATOM     11  C   UNL     1      -2.572  -2.950   4.641  1.00  0.00    -0.000 C 
BRANCH  11  12
ATOM     12  C   UNL     1      -2.826  -1.697   3.787  1.00  0.00    -0.000 C 
BRANCH  12  13
ATOM     13  C   UNL     1      -4.215  -1.088   4.027  1.00  0.00    -0.003 C 
ATOM     14  C   UNL     1      -4.622  -1.209   5.493  1.00  0.00     0.004 C 
ENDBRANCH  12  13
ENDBRANCH  11  12
ENDBRANCH  10  11
ENDBRANCH   9  10
ENDBRANCH   1   9
TORSDOF 10
ENDMDL
MODEL 6
REMARK VINA RESULT:    -3.927      5.354      7.342
REMARK INTER + INTRA:          -6.785
REMARK INTER:                  -5.652
REMARK INTRA:                  -1.133
REMARK UNBOUND:                -0.562
REMARK SMILES CCCCCCCCCCCC(=O)[O-]
REMARK SMILES IDX 7 1 8 2 9 3 10 4 11 5 12 6 13 7 14 8 6 9 5 10 4 11 3 12 2 13
REMARK SMILES IDX 1 14
REMARK H PARENT
REMARK Flexibility Score: inf
ROOT
ATOM      1  C   UNL     1      -3.802  -3.097   7.185  1.00  0.00     0.000 C 
ENDROOT
BRANCH   1   2
ATOM      2  C   UNL     1      -2.365  -2.791   7.658  1.00  0.00     0.000 C 
BRANCH   2   3
ATOM      3  C   UNL     1      -1.273  -3.359   6.731  1.00  0.00     0.000 C 
BRANCH   3   4
ATOM      4  C   UNL     1       0.071  -2.612   6.784  1.00  0.00     0.006 C 
BRANCH   4   5
ATOM      5  C   UNL     1       0.383  -1.860   5.485  1.00  0.00     0.053 C 
BRANCH   5   6
ATOM      6  C   UNL     1       1.809  -1.408   5.474  1.00  0.00     0.041 C 
ATOM      7  O   UNL     1       2.637  -1.944   4.693  1.00  0.00    -0.550 OA
ATOM      8  O   UNL     1       2.235  -0.429   6.363  1.00  0.00    -0.550 OA
ENDBRANCH   5   6
ENDBRANCH   4   5
ENDBRANCH   3   4
ENDBRANCH   2   3
ENDBRANCH   1   2
BRANCH   1   9
ATOM      9  C   UNL     1      -4.770  -1.938   7.482  1.00  0.00     0.000 C 
BRANCH   9  10
ATOM     10  C   UNL     1      -5.548  -1.485   6.236  1.00  0.00    -0.000 C 
BRANCH  10  11
ATOM     11  C   UNL     1      -4.702  -0.587   5.315  1.00  0.00    -0.000 C 
BRANCH  11  12
ATOM     12  C   UNL     1      -4.364  -1.266   3.978  1.00  0.00    -0.000 C 
BRANCH  12  13
ATOM     13  C   UNL     1      -2.877  -1.628   3.855  1.00  0.00    -0.003 C 
ATOM     14  C   UNL     1      -2.699  -3.049   3.329  1.00  0.00     0.004 C 
ENDBRANCH  12  13
ENDBRANCH  11  12
ENDBRANCH  10  11
ENDBRANCH   9  10
ENDBRANCH   1   9
TORSDOF 10
ENDMDL
MODEL 7
REMARK VINA RESULT:    -3.913      5.315      7.234
REMARK INTER + INTRA:          -6.762
REMARK INTER:                  -5.693
REMARK INTRA:                  -1.069
REMARK UNBOUND:                -0.562
REMARK SMILES CCCCCCCCCCCC(=O)[O-]
REMARK SMILES IDX 7 1 8 2 9 3 10 4 11 5 12 6 13 7 14 8 6 9 5 10 4 11 3 12 2 13
REMARK SMILES IDX 1 14
REMARK H PARENT
REMARK Flexibility Score: inf
ROOT
ATOM      1  C   UNL     1      -0.616  -2.565   6.606  1.00  0.00     0.000 C 
ENDROOT
BRANCH   1   2
ATOM      2  C   UNL     1      -0.359  -1.936   5.221  1.00  0.00     0.000 C 
BRANCH   2   3
ATOM      3  C   UNL     1       0.788  -0.907   5.211  1.00  0.00     0.000 C 
BRANCH   3   4
ATOM      4  C   UNL     1       1.580  -0.810   6.525  1.00  0.00     0.006 C 
BRANCH   4   5
ATOM      5  C   UNL     1       3.075  -1.098   6.339  1.00  0.00     0.053 C 
BRANCH   5   6
ATOM      6  C   UNL     1       3.269  -2.359   5.559  1.00  0.00     0.041 C 
ATOM      7  O   UNL     1       3.029  -3.475   6.090  1.00  0.00    -0.550 OA
ATOM      8  O   UNL     1       3.762  -2.306   4.262  1.00  0.00    -0.550 OA
ENDBRANCH   5   6
ENDBRANCH   4   5
ENDBRANCH   3   4
ENDBRANCH   2   3
ENDBRANCH   1   2
BRANCH   1   9
ATOM      9  C   UNL     1      -1.881  -3.442   6.620  1.00  0.00     0.000 C 
BRANCH   9  10
ATOM     10  C   UNL     1      -3.120  -2.682   7.122  1.00  0.00    -0.000 C 
BRANCH  10  11
ATOM     11  C   UNL     1      -4.229  -2.608   6.056  1.00  0.00    -0.000 C 
BRANCH  11  12
ATOM     12  C   UNL     1      -4.244  -1.261   5.315  1.00  0.00    -0.000 C 
BRANCH  12  13
ATOM     13  C   UNL     1      -3.700  -1.367   3.884  1.00  0.00    -0.003 C 
ATOM     14  C   UNL     1      -3.728  -2.811   3.390  1.00  0.00     0.004 C 
ENDBRANCH  12  13
ENDBRANCH  11  12
ENDBRANCH  10  11
ENDBRANCH   9  10
ENDBRANCH   1   9
TORSDOF 10
ENDMDL
MODEL 8
REMARK VINA RESULT:    -3.877      5.559      6.900
REMARK INTER + INTRA:          -6.706
REMARK INTER:                  -5.857
REMARK INTRA:                  -0.849
REMARK UNBOUND:                -0.562
REMARK SMILES CCCCCCCCCCCC(=O)[O-]
REMARK SMILES IDX 7 1 8 2 9 3 10 4 11 5 12 6 13 7 14 8 6 9 5 10 4 11 3 12 2 13
REMARK SMILES IDX 1 14
REMARK H PARENT
REMARK Flexibility Score: inf
ROOT
ATOM      1  C   UNL     1      -2.216  -3.929   4.804  1.00  0.00     0.000 C 
ENDROOT
BRANCH   1   2
ATOM      2  C   UNL     1      -2.431  -2.882   3.691  1.00  0.00     0.000 C 
BRANCH   2   3
ATOM      3  C   UNL     1      -2.771  -1.475   4.220  1.00  0.00     0.000 C 
BRANCH   3   4
ATOM      4  C   UNL     1      -4.221  -1.025   3.971  1.00  0.00     0.006 C 
BRANCH   4   5
ATOM      5  C   UNL     1      -5.248  -1.919   4.676  1.00  0.00     0.053 C 
BRANCH   5   6
ATOM      6  C   UNL     1      -5.595  -1.356   6.018  1.00  0.00     0.041 C 
ATOM      7  O   UNL     1      -6.140  -2.084   6.888  1.00  0.00    -0.550 OA
ATOM      8  O   UNL     1      -5.361  -0.015   6.290  1.00  0.00    -0.550 OA
ENDBRANCH   5   6
ENDBRANCH   4   5
ENDBRANCH   3   4
ENDBRANCH   2   3
ENDBRANCH   1   2
BRANCH   1   9
ATOM      9  C   UNL     1      -1.927  -3.276   6.168  1.00  0.00     0.000 C 
BRANCH   9  10
ATOM     10  C   UNL     1      -0.439  -3.340   6.549  1.00  0.00    -0.000 C 
BRANCH  10  11
ATOM     11  C   UNL     1       0.268  -1.984   6.365  1.00  0.00    -0.000 C 
BRANCH  11  12
ATOM     12  C   UNL     1       1.230  -1.980   5.166  1.00  0.00    -0.000 C 
BRANCH  12  13
ATOM     13  C   UNL     1       2.688  -1.729   5.577  1.00  0.00    -0.003 C 
ATOM     14  C   UNL     1       3.654  -2.452   4.642  1.00  0.00     0.004 C 
ENDBRANCH  12  13
ENDBRANCH  11  12
ENDBRANCH  10  11
ENDBRANCH   9  10
ENDBRANCH   1   9
TORSDOF 10
ENDMDL
MODEL 9
REMARK VINA RESULT:    -3.826      4.538      6.895
REMARK INTER + INTRA:          -6.624
REMARK INTER:                  -6.065
REMARK INTRA:                  -0.559
REMARK UNBOUND:                -0.562
REMARK SMILES CCCCCCCCCCCC(=O)[O-]
REMARK SMILES IDX 7 1 8 2 9 3 10 4 11 5 12 6 13 7 14 8 6 9 5 10 4 11 3 12 2 13
REMARK SMILES IDX 1 14
REMARK H PARENT
REMARK Flexibility Score: inf
ROOT
ATOM      1  C   UNL     1      -1.599  -2.883   5.048  1.00  0.00     0.000 C 
ENDROOT
BRANCH   1   2
ATOM      2  C   UNL     1      -0.514  -2.358   6.012  1.00  0.00     0.000 C 
BRANCH   2   3
ATOM      3  C   UNL     1       0.773  -1.895   5.302  1.00  0.00     0.000 C 
BRANCH   3   4
ATOM      4  C   UNL     1       1.141  -0.420   5.530  1.00  0.00     0.006 C 
BRANCH   4   5
ATOM      5  C   UNL     1       1.990  -0.208   6.790  1.00  0.00     0.053 C 
BRANCH   5   6
ATOM      6  C   UNL     1       1.613   1.074   7.462  1.00  0.00     0.041 C 
ATOM      7  O   UNL     1       1.675   2.162   6.832  1.00  0.00    -0.550 OA
ATOM      8  O   UNL     1       1.240   1.073   8.800  1.00  0.00    -0.550 OA
ENDBRANCH   5   6
ENDBRANCH   4   5
ENDBRANCH   3   4
ENDBRANCH   2   3
ENDBRANCH   1   2
BRANCH   1   9
ATOM      9  C   UNL     1      -2.260  -1.750   4.244  1.00  0.00     0.000 C 
BRANCH   9  10
ATOM     10  C   UNL     1      -3.519  -2.214   3.495  1.00  0.00    -0.000 C 
BRANCH  10  11
ATOM     11  C   UNL     1      -4.812  -1.854   4.249  1.00  0.00    -0.000 C 
BRANCH  11  12
ATOM     12  C   UNL     1      -4.630  -0.653   5.190  1.00  0.00    -0.000 C 
BRANCH  12  13
ATOM     13  C   UNL     1      -5.336  -0.845   6.540  1.00  0.00    -0.003 C 
ATOM     14  C   UNL     1      -6.121   0.404   6.931  1.00  0.00     0.004 C 
ENDBRANCH  12  13
ENDBRANCH  11  12
ENDBRANCH  10  11
ENDBRANCH   9  10
ENDBRANCH   1   9
TORSDOF 10
ENDMDL
