MODEL 1
REMARK VINA RESULT:    -7.652      0.000      0.000
REMARK INTER + INTRA:          -9.492
REMARK INTER:                  -9.218
REMARK INTRA:                  -0.274
REMARK UNBOUND:                -0.274
REMARK SMILES O=c1c(O)c(-c2ccc(O)cc2O)oc2cc(O)cc(O)c12
REMARK SMILES IDX 5 1 3 2 2 3 1 4 22 5 20 6 19 7 17 8 16 9 15 10 14 11 6 12
REMARK SMILES IDX 8 13 7 14 9 15 11 16 12 17 10 18 13 20 4 22 21 24 18 26
REMARK H PARENT 10 19 13 21 4 23 21 25 18 27
REMARK Flexibility Score: inf
ROOT
ATOM      1  C   UNL     1     203.519 207.527 276.740  1.00  0.00     0.184 A 
ATOM      2  C   UNL     1     204.412 208.558 276.409  1.00  0.00     0.208 A 
ATOM      3  C   UNL     1     204.779 209.483 277.399  1.00  0.00     0.238 A 
ATOM      4  O   UNL     1     205.621 210.373 277.113  1.00  0.00    -0.285 OA
ATOM      5  C   UNL     1     204.234 209.372 278.702  1.00  0.00     0.111 A 
ATOM      6  C   UNL     1     204.505 210.276 279.773  1.00  0.00     0.134 A 
ATOM      7  C   UNL     1     204.014 209.996 281.054  1.00  0.00     0.093 A 
ATOM      8  C   UNL     1     203.209 208.879 281.289  1.00  0.00     0.123 A 
ATOM      9  C   UNL     1     202.890 208.023 280.238  1.00  0.00     0.094 A 
ATOM     10  C   UNL     1     203.395 208.256 278.956  1.00  0.00     0.146 A 
ATOM     11  O   UNL     1     203.076 207.408 277.985  1.00  0.00    -0.451 OA
ENDROOT
BRANCH   1  12
ATOM     12  C   UNL     1     203.079 206.532 275.739  1.00  0.00     0.063 A 
ATOM     13  C   UNL     1     201.291 205.611 274.372  1.00  0.00     0.047 A 
ATOM     14  C   UNL     1     201.739 206.534 275.321  1.00  0.00     0.020 A 
ATOM     15  C   UNL     1     202.181 204.683 273.820  1.00  0.00     0.119 A 
ATOM     16  C   UNL     1     203.522 204.689 274.213  1.00  0.00     0.093 A 
ATOM     17  C   UNL     1     203.982 205.616 275.160  1.00  0.00     0.130 A 
BRANCH  15  18
ATOM     18  O   UNL     1     201.745 203.755 272.877  1.00  0.00    -0.508 OA
ATOM     19  H   UNL     1     200.867 203.873 272.384  1.00  0.00     0.293 HD
ENDBRANCH  15  18
BRANCH  17  20
ATOM     20  O   UNL     1     205.333 205.642 275.508  1.00  0.00    -0.507 OA
ATOM     21  H   UNL     1     205.877 206.495 275.459  1.00  0.00     0.293 HD
ENDBRANCH  17  20
ENDBRANCH   1  12
BRANCH   2  22
ATOM     22  O   UNL     1     204.948 208.633 275.121  1.00  0.00    -0.502 OA
ATOM     23  H   UNL     1     204.450 209.061 274.350  1.00  0.00     0.293 HD
ENDBRANCH   2  22
BRANCH   6  24
ATOM     24  O   UNL     1     205.222 211.468 279.626  1.00  0.00    -0.507 OA
ATOM     25  H   UNL     1     204.818 212.351 279.356  1.00  0.00     0.293 HD
ENDBRANCH   6  24
BRANCH   8  26
ATOM     26  O   UNL     1     202.712 208.616 282.563  1.00  0.00    -0.508 OA
ATOM     27  H   UNL     1     202.848 207.716 283.010  1.00  0.00     0.293 HD
ENDBRANCH   8  26
TORSDOF 6
ENDMDL
MODEL 2
REMARK VINA RESULT:    -7.356      2.120      6.779
REMARK INTER + INTRA:          -9.135
REMARK INTER:                  -8.734
REMARK INTRA:                  -0.401
REMARK UNBOUND:                -0.274
REMARK SMILES O=c1c(O)c(-c2ccc(O)cc2O)oc2cc(O)cc(O)c12
REMARK SMILES IDX 5 1 3 2 2 3 1 4 22 5 20 6 19 7 17 8 16 9 15 10 14 11 6 12
REMARK SMILES IDX 8 13 7 14 9 15 11 16 12 17 10 18 13 20 4 22 21 24 18 26
REMARK H PARENT 10 19 13 21 4 23 21 25 18 27
REMARK Flexibility Score: inf
ROOT
ATOM      1  C   UNL     1     202.656 206.586 277.505  1.00  0.00     0.184 A 
ATOM      2  C   UNL     1     203.847 206.109 276.936  1.00  0.00     0.208 A 
ATOM      3  C   UNL     1     203.825 205.624 275.618  1.00  0.00     0.238 A 
ATOM      4  O   UNL     1     204.906 205.249 275.094  1.00  0.00    -0.285 OA
ATOM      5  C   UNL     1     202.607 205.610 274.895  1.00  0.00     0.111 A 
ATOM      6  C   UNL     1     202.460 205.104 273.568  1.00  0.00     0.134 A 
ATOM      7  C   UNL     1     201.237 205.259 272.903  1.00  0.00     0.093 A 
ATOM      8  C   UNL     1     200.138 205.841 273.539  1.00  0.00     0.123 A 
ATOM      9  C   UNL     1     200.256 206.284 274.855  1.00  0.00     0.094 A 
ATOM     10  C   UNL     1     201.473 206.176 275.532  1.00  0.00     0.146 A 
ATOM     11  O   UNL     1     201.544 206.622 276.781  1.00  0.00    -0.451 OA
ENDROOT
BRANCH   1  12
ATOM     12  C   UNL     1     202.608 207.093 278.893  1.00  0.00     0.063 A 
ATOM     13  C   UNL     1     202.842 208.963 280.429  1.00  0.00     0.047 A 
ATOM     14  C   UNL     1     202.884 208.449 279.131  1.00  0.00     0.020 A 
ATOM     15  C   UNL     1     202.509 208.131 281.504  1.00  0.00     0.119 A 
ATOM     16  C   UNL     1     202.210 206.785 281.274  1.00  0.00     0.093 A 
ATOM     17  C   UNL     1     202.244 206.262 279.972  1.00  0.00     0.130 A 
BRANCH  15  18
ATOM     18  O   UNL     1     202.468 208.631 282.804  1.00  0.00    -0.508 OA
ATOM     19  H   UNL     1     202.354 209.621 282.987  1.00  0.00     0.293 HD
ENDBRANCH  15  18
BRANCH  17  20
ATOM     20  O   UNL     1     201.896 204.929 279.750  1.00  0.00    -0.507 OA
ATOM     21  H   UNL     1     202.418 204.344 279.109  1.00  0.00     0.293 HD
ENDBRANCH  17  20
ENDBRANCH   1  12
BRANCH   2  22
ATOM     22  O   UNL     1     205.038 206.152 277.666  1.00  0.00    -0.502 OA
ATOM     23  H   UNL     1     205.308 206.959 278.216  1.00  0.00     0.293 HD
ENDBRANCH   2  22
BRANCH   6  24
ATOM     24  O   UNL     1     203.466 204.425 272.875  1.00  0.00    -0.507 OA
ATOM     25  H   UNL     1     203.798 204.674 271.956  1.00  0.00     0.293 HD
ENDBRANCH   6  24
BRANCH   8  26
ATOM     26  O   UNL     1     198.922 205.977 272.875  1.00  0.00    -0.508 OA
ATOM     27  H   UNL     1     198.516 205.211 272.350  1.00  0.00     0.293 HD
ENDBRANCH   8  26
TORSDOF 6
ENDMDL
MODEL 3
REMARK VINA RESULT:    -7.323      1.519      2.259
REMARK INTER + INTRA:          -9.095
REMARK INTER:                  -8.682
REMARK INTRA:                  -0.413
REMARK UNBOUND:                -0.274
REMARK SMILES O=c1c(O)c(-c2ccc(O)cc2O)oc2cc(O)cc(O)c12
REMARK SMILES IDX 5 1 3 2 2 3 1 4 22 5 20 6 19 7 17 8 16 9 15 10 14 11 6 12
REMARK SMILES IDX 8 13 7 14 9 15 11 16 12 17 10 18 13 20 4 22 21 24 18 26
REMARK H PARENT 10 19 13 21 4 23 21 25 18 27
REMARK Flexibility Score: inf
ROOT
ATOM      1  C   UNL     1     202.340 208.113 276.707  1.00  0.00     0.184 A 
ATOM      2  C   UNL     1     203.459 208.874 276.334  1.00  0.00     0.208 A 
ATOM      3  C   UNL     1     204.216 209.506 277.334  1.00  0.00     0.238 A 
ATOM      4  O   UNL     1     205.248 210.142 276.999  1.00  0.00    -0.285 OA
ATOM      5  C   UNL     1     203.833 209.379 278.691  1.00  0.00     0.111 A 
ATOM      6  C   UNL     1     204.503 210.007 279.784  1.00  0.00     0.134 A 
ATOM      7  C   UNL     1     204.116 209.707 281.096  1.00  0.00     0.093 A 
ATOM      8  C   UNL     1     203.041 208.852 281.353  1.00  0.00     0.123 A 
ATOM      9  C   UNL     1     202.344 208.280 280.291  1.00  0.00     0.094 A 
ATOM     10  C   UNL     1     202.729 208.532 278.972  1.00  0.00     0.146 A 
ATOM     11  O   UNL     1     202.044 207.957 277.991  1.00  0.00    -0.451 OA
ENDROOT
BRANCH   1  12
ATOM     12  C   UNL     1     201.491 207.438 275.702  1.00  0.00     0.063 A 
ATOM     13  C   UNL     1     201.003 205.444 274.400  1.00  0.00     0.047 A 
ATOM     14  C   UNL     1     201.788 206.114 275.342  1.00  0.00     0.020 A 
ATOM     15  C   UNL     1     199.903 206.084 273.818  1.00  0.00     0.119 A 
ATOM     16  C   UNL     1     199.586 207.394 274.189  1.00  0.00     0.093 A 
ATOM     17  C   UNL     1     200.365 208.073 275.138  1.00  0.00     0.130 A 
BRANCH  15  18
ATOM     18  O   UNL     1     199.115 205.427 272.875  1.00  0.00    -0.508 OA
ATOM     19  H   UNL     1     199.009 205.784 271.933  1.00  0.00     0.293 HD
ENDBRANCH  15  18
BRANCH  17  20
ATOM     20  O   UNL     1     200.010 209.362 275.535  1.00  0.00    -0.507 OA
ATOM     21  H   UNL     1     200.284 209.735 276.437  1.00  0.00     0.293 HD
ENDBRANCH  17  20
ENDBRANCH   1  12
BRANCH   2  22
ATOM     22  O   UNL     1     203.824 208.968 274.989  1.00  0.00    -0.502 OA
ATOM     23  H   UNL     1     203.147 209.120 274.251  1.00  0.00     0.293 HD
ENDBRANCH   2  22
BRANCH   6  24
ATOM     24  O   UNL     1     205.528 210.946 279.635  1.00  0.00    -0.507 OA
ATOM     25  H   UNL     1     206.333 211.018 280.239  1.00  0.00     0.293 HD
ENDBRANCH   6  24
BRANCH   8  26
ATOM     26  O   UNL     1     202.653 208.571 282.660  1.00  0.00    -0.508 OA
ATOM     27  H   UNL     1     203.281 208.713 283.442  1.00  0.00     0.293 HD
ENDBRANCH   8  26
TORSDOF 6
ENDMDL
MODEL 4
REMARK VINA RESULT:    -7.224      1.521      6.767
REMARK INTER + INTRA:          -8.976
REMARK INTER:                  -8.570
REMARK INTRA:                  -0.406
REMARK UNBOUND:                -0.274
REMARK SMILES O=c1c(O)c(-c2ccc(O)cc2O)oc2cc(O)cc(O)c12
REMARK SMILES IDX 5 1 3 2 2 3 1 4 22 5 20 6 19 7 17 8 16 9 15 10 14 11 6 12
REMARK SMILES IDX 8 13 7 14 9 15 11 16 12 17 10 18 13 20 4 22 21 24 18 26
REMARK H PARENT 10 19 13 21 4 23 21 25 18 27
REMARK Flexibility Score: inf
ROOT
ATOM      1  C   UNL     1     202.996 207.161 276.895  1.00  0.00     0.184 A 
ATOM      2  C   UNL     1     203.962 206.330 276.309  1.00  0.00     0.208 A 
ATOM      3  C   UNL     1     203.620 205.589 275.166  1.00  0.00     0.238 A 
ATOM      4  O   UNL     1     204.505 204.887 274.613  1.00  0.00    -0.285 OA
ATOM      5  C   UNL     1     202.310 205.680 274.636  1.00  0.00     0.111 A 
ATOM      6  C   UNL     1     201.841 204.945 273.506  1.00  0.00     0.134 A 
ATOM      7  C   UNL     1     200.566 205.211 272.990  1.00  0.00     0.093 A 
ATOM      8  C   UNL     1     199.719 206.138 273.603  1.00  0.00     0.123 A 
ATOM      9  C   UNL     1     200.146 206.817 274.742  1.00  0.00     0.094 A 
ATOM     10  C   UNL     1     201.426 206.600 275.258  1.00  0.00     0.146 A 
ATOM     11  O   UNL     1     201.797 207.278 276.338  1.00  0.00    -0.451 OA
ENDROOT
BRANCH   1  12
ATOM     12  C   UNL     1     203.287 207.953 278.109  1.00  0.00     0.063 A 
ATOM     13  C   UNL     1     203.300 208.106 280.536  1.00  0.00     0.047 A 
ATOM     14  C   UNL     1     203.031 207.388 279.368  1.00  0.00     0.020 A 
ATOM     15  C   UNL     1     203.843 209.394 280.459  1.00  0.00     0.119 A 
ATOM     16  C   UNL     1     204.123 209.956 279.210  1.00  0.00     0.093 A 
ATOM     17  C   UNL     1     203.861 209.239 278.033  1.00  0.00     0.130 A 
BRANCH  15  18
ATOM     18  O   UNL     1     204.112 210.121 281.616  1.00  0.00    -0.508 OA
ATOM     19  H   UNL     1     204.112 211.135 281.617  1.00  0.00     0.293 HD
ENDBRANCH  15  18
BRANCH  17  20
ATOM     20  O   UNL     1     204.191 209.792 276.795  1.00  0.00    -0.507 OA
ATOM     21  H   UNL     1     204.948 209.422 276.233  1.00  0.00     0.293 HD
ENDBRANCH  17  20
ENDBRANCH   1  12
BRANCH   2  22
ATOM     22  O   UNL     1     205.252 206.273 276.842  1.00  0.00    -0.502 OA
ATOM     23  H   UNL     1     205.930 207.014 276.706  1.00  0.00     0.293 HD
ENDBRANCH   2  22
BRANCH   6  24
ATOM     24  O   UNL     1     202.570 203.933 272.875  1.00  0.00    -0.507 OA
ATOM     25  H   UNL     1     202.273 203.443 272.045  1.00  0.00     0.293 HD
ENDBRANCH   6  24
BRANCH   8  26
ATOM     26  O   UNL     1     198.447 206.385 273.093  1.00  0.00    -0.508 OA
ATOM     27  H   UNL     1     197.627 206.379 273.687  1.00  0.00     0.293 HD
ENDBRANCH   8  26
TORSDOF 6
ENDMDL
MODEL 5
REMARK VINA RESULT:    -7.216      1.804      6.733
REMARK INTER + INTRA:          -8.966
REMARK INTER:                  -8.622
REMARK INTRA:                  -0.344
REMARK UNBOUND:                -0.274
REMARK SMILES O=c1c(O)c(-c2ccc(O)cc2O)oc2cc(O)cc(O)c12
REMARK SMILES IDX 5 1 3 2 2 3 1 4 22 5 20 6 19 7 17 8 16 9 15 10 14 11 6 12
REMARK SMILES IDX 8 13 7 14 9 15 11 16 12 17 10 18 13 20 4 22 21 24 18 26
REMARK H PARENT 10 19 13 21 4 23 21 25 18 27
REMARK Flexibility Score: inf
ROOT
ATOM      1  C   UNL     1     202.606 206.594 277.562  1.00  0.00     0.184 A 
ATOM      2  C   UNL     1     203.853 206.278 277.002  1.00  0.00     0.208 A 
ATOM      3  C   UNL     1     203.906 205.815 275.677  1.00  0.00     0.238 A 
ATOM      4  O   UNL     1     205.031 205.584 275.162  1.00  0.00    -0.285 OA
ATOM      5  C   UNL     1     202.708 205.661 274.938  1.00  0.00     0.111 A 
ATOM      6  C   UNL     1     202.639 205.163 273.602  1.00  0.00     0.134 A 
ATOM      7  C   UNL     1     201.414 205.176 272.922  1.00  0.00     0.093 A 
ATOM      8  C   UNL     1     200.245 205.608 273.553  1.00  0.00     0.123 A 
ATOM      9  C   UNL     1     200.292 206.040 274.876  1.00  0.00     0.094 A 
ATOM     10  C   UNL     1     201.505 206.073 275.568  1.00  0.00     0.146 A 
ATOM     11  O   UNL     1     201.506 206.504 276.824  1.00  0.00    -0.451 OA
ENDROOT
BRANCH   1  12
ATOM     12  C   UNL     1     202.480 207.070 278.956  1.00  0.00     0.063 A 
ATOM     13  C   UNL     1     201.870 206.601 281.263  1.00  0.00     0.047 A 
ATOM     14  C   UNL     1     201.996 206.187 279.934  1.00  0.00     0.020 A 
ATOM     15  C   UNL     1     202.240 207.900 281.632  1.00  0.00     0.119 A 
ATOM     16  C   UNL     1     202.746 208.778 280.669  1.00  0.00     0.093 A 
ATOM     17  C   UNL     1     202.881 208.368 279.334  1.00  0.00     0.130 A 
BRANCH  15  18
ATOM     18  O   UNL     1     202.115 208.326 282.952  1.00  0.00    -0.508 OA
ATOM     19  H   UNL     1     201.357 208.931 283.244  1.00  0.00     0.293 HD
ENDBRANCH  15  18
BRANCH  17  20
ATOM     20  O   UNL     1     203.432 209.238 278.393  1.00  0.00    -0.507 OA
ATOM     21  H   UNL     1     203.153 210.211 278.342  1.00  0.00     0.293 HD
ENDBRANCH  17  20
ENDBRANCH   1  12
BRANCH   2  22
ATOM     22  O   UNL     1     205.021 206.456 277.748  1.00  0.00    -0.502 OA
ATOM     23  H   UNL     1     205.408 205.726 278.334  1.00  0.00     0.293 HD
ENDBRANCH   2  22
BRANCH   6  24
ATOM     24  O   UNL     1     203.729 204.624 272.912  1.00  0.00    -0.507 OA
ATOM     25  H   UNL     1     204.543 204.219 273.351  1.00  0.00     0.293 HD
ENDBRANCH   6  24
BRANCH   8  26
ATOM     26  O   UNL     1     199.028 205.602 272.875  1.00  0.00    -0.508 OA
ATOM     27  H   UNL     1     198.877 205.017 272.062  1.00  0.00     0.293 HD
ENDBRANCH   8  26
TORSDOF 6
ENDMDL
MODEL 6
REMARK VINA RESULT:    -7.157      1.591      6.730
REMARK INTER + INTRA:          -8.895
REMARK INTER:                  -8.481
REMARK INTRA:                  -0.415
REMARK UNBOUND:                -0.274
REMARK SMILES O=c1c(O)c(-c2ccc(O)cc2O)oc2cc(O)cc(O)c12
REMARK SMILES IDX 5 1 3 2 2 3 1 4 22 5 20 6 19 7 17 8 16 9 15 10 14 11 6 12
REMARK SMILES IDX 8 13 7 14 9 15 11 16 12 17 10 18 13 20 4 22 21 24 18 26
REMARK H PARENT 10 19 13 21 4 23 21 25 18 27
REMARK Flexibility Score: inf
ROOT
ATOM      1  C   UNL     1     203.123 207.168 277.091  1.00  0.00     0.184 A 
ATOM      2  C   UNL     1     204.150 206.490 276.418  1.00  0.00     0.208 A 
ATOM      3  C   UNL     1     203.846 205.791 275.239  1.00  0.00     0.238 A 
ATOM      4  O   UNL     1     204.781 205.230 274.610  1.00  0.00    -0.285 OA
ATOM      5  C   UNL     1     202.514 205.768 274.759  1.00  0.00     0.111 A 
ATOM      6  C   UNL     1     202.083 205.059 273.597  1.00  0.00     0.134 A 
ATOM      7  C   UNL     1     200.768 205.212 273.143  1.00  0.00     0.093 A 
ATOM      8  C   UNL     1     199.849 205.997 273.845  1.00  0.00     0.123 A 
ATOM      9  C   UNL     1     200.244 206.645 275.013  1.00  0.00     0.094 A 
ATOM     10  C   UNL     1     201.560 206.540 275.471  1.00  0.00     0.146 A 
ATOM     11  O   UNL     1     201.897 207.185 276.582  1.00  0.00    -0.451 OA
ENDROOT
BRANCH   1  12
ATOM     12  C   UNL     1     203.373 207.908 278.346  1.00  0.00     0.063 A 
ATOM     13  C   UNL     1     204.286 209.872 279.451  1.00  0.00     0.047 A 
ATOM     14  C   UNL     1     204.037 209.143 278.285  1.00  0.00     0.020 A 
ATOM     15  C   UNL     1     203.859 209.381 280.691  1.00  0.00     0.119 A 
ATOM     16  C   UNL     1     203.176 208.164 280.758  1.00  0.00     0.093 A 
ATOM     17  C   UNL     1     202.918 207.428 279.591  1.00  0.00     0.130 A 
BRANCH  15  18
ATOM     18  O   UNL     1     204.104 210.097 281.860  1.00  0.00    -0.508 OA
ATOM     19  H   UNL     1     205.048 210.269 282.189  1.00  0.00     0.293 HD
ENDBRANCH  15  18
BRANCH  17  20
ATOM     20  O   UNL     1     202.193 206.239 279.667  1.00  0.00    -0.507 OA
ATOM     21  H   UNL     1     201.238 206.176 279.333  1.00  0.00     0.293 HD
ENDBRANCH  17  20
ENDBRANCH   1  12
BRANCH   2  22
ATOM     22  O   UNL     1     205.460 206.544 276.903  1.00  0.00    -0.502 OA
ATOM     23  H   UNL     1     205.678 206.448 277.888  1.00  0.00     0.293 HD
ENDBRANCH   2  22
BRANCH   6  24
ATOM     24  O   UNL     1     202.894 204.178 272.875  1.00  0.00    -0.507 OA
ATOM     25  H   UNL     1     202.574 203.321 272.449  1.00  0.00     0.293 HD
ENDBRANCH   6  24
BRANCH   8  26
ATOM     26  O   UNL     1     198.539 206.132 273.394  1.00  0.00    -0.508 OA
ATOM     27  H   UNL     1     198.277 206.852 272.732  1.00  0.00     0.293 HD
ENDBRANCH   8  26
TORSDOF 6
ENDMDL
MODEL 7
REMARK VINA RESULT:    -6.934      1.264      2.903
REMARK INTER + INTRA:          -8.627
REMARK INTER:                  -8.284
REMARK INTRA:                  -0.343
REMARK UNBOUND:                -0.274
REMARK SMILES O=c1c(O)c(-c2ccc(O)cc2O)oc2cc(O)cc(O)c12
REMARK SMILES IDX 5 1 3 2 2 3 1 4 22 5 20 6 19 7 17 8 16 9 15 10 14 11 6 12
REMARK SMILES IDX 8 13 7 14 9 15 11 16 12 17 10 18 13 20 4 22 21 24 18 26
REMARK H PARENT 10 19 13 21 4 23 21 25 18 27
REMARK Flexibility Score: inf
ROOT
ATOM      1  C   UNL     1     202.681 207.144 277.358  1.00  0.00     0.184 A 
ATOM      2  C   UNL     1     202.371 206.749 278.668  1.00  0.00     0.208 A 
ATOM      3  C   UNL     1     202.752 207.576 279.737  1.00  0.00     0.238 A 
ATOM      4  O   UNL     1     202.424 207.244 280.905  1.00  0.00    -0.285 OA
ATOM      5  C   UNL     1     203.451 208.781 279.478  1.00  0.00     0.111 A 
ATOM      6  C   UNL     1     203.920 209.677 280.486  1.00  0.00     0.134 A 
ATOM      7  C   UNL     1     204.485 210.902 280.111  1.00  0.00     0.093 A 
ATOM      8  C   UNL     1     204.657 211.235 278.765  1.00  0.00     0.123 A 
ATOM      9  C   UNL     1     204.256 210.341 277.775  1.00  0.00     0.094 A 
ATOM     10  C   UNL     1     203.656 209.127 278.118  1.00  0.00     0.146 A 
ATOM     11  O   UNL     1     203.278 208.310 277.141  1.00  0.00    -0.451 OA
ENDROOT
BRANCH   1  12
ATOM     12  C   UNL     1     202.324 206.310 276.191  1.00  0.00     0.063 A 
ATOM     13  C   UNL     1     200.595 205.295 274.815  1.00  0.00     0.047 A 
ATOM     14  C   UNL     1     200.968 206.073 275.914  1.00  0.00     0.020 A 
ATOM     15  C   UNL     1     201.573 204.755 273.972  1.00  0.00     0.119 A 
ATOM     16  C   UNL     1     202.924 205.005 274.226  1.00  0.00     0.093 A 
ATOM     17  C   UNL     1     203.307 205.790 275.324  1.00  0.00     0.130 A 
BRANCH  15  18
ATOM     18  O   UNL     1     201.213 203.974 272.876  1.00  0.00    -0.508 OA
ATOM     19  H   UNL     1     201.788 203.198 272.566  1.00  0.00     0.293 HD
ENDBRANCH  15  18
BRANCH  17  20
ATOM     20  O   UNL     1     204.657 206.073 275.538  1.00  0.00    -0.507 OA
ATOM     21  H   UNL     1     205.264 206.369 274.783  1.00  0.00     0.293 HD
ENDBRANCH  17  20
ENDBRANCH   1  12
BRANCH   2  22
ATOM     22  O   UNL     1     201.665 205.564 278.893  1.00  0.00    -0.502 OA
ATOM     23  H   UNL     1     200.890 205.275 278.308  1.00  0.00     0.293 HD
ENDBRANCH   2  22
BRANCH   6  24
ATOM     24  O   UNL     1     203.880 209.401 281.856  1.00  0.00    -0.507 OA
ATOM     25  H   UNL     1     204.347 208.625 282.299  1.00  0.00     0.293 HD
ENDBRANCH   6  24
BRANCH   8  26
ATOM     26  O   UNL     1     205.234 212.449 278.401  1.00  0.00    -0.508 OA
ATOM     27  H   UNL     1     205.120 213.282 278.968  1.00  0.00     0.293 HD
ENDBRANCH   8  26
TORSDOF 6
ENDMDL
MODEL 8
REMARK VINA RESULT:    -6.398      1.953      6.911
REMARK INTER + INTRA:          -7.981
REMARK INTER:                  -7.683
REMARK INTRA:                  -0.298
REMARK UNBOUND:                -0.274
REMARK SMILES O=c1c(O)c(-c2ccc(O)cc2O)oc2cc(O)cc(O)c12
REMARK SMILES IDX 5 1 3 2 2 3 1 4 22 5 20 6 19 7 17 8 16 9 15 10 14 11 6 12
REMARK SMILES IDX 8 13 7 14 9 15 11 16 12 17 10 18 13 20 4 22 21 24 18 26
REMARK H PARENT 10 19 13 21 4 23 21 25 18 27
REMARK Flexibility Score: inf
ROOT
ATOM      1  C   UNL     1     202.478 208.546 276.644  1.00  0.00     0.184 A 
ATOM      2  C   UNL     1     201.157 208.769 276.226  1.00  0.00     0.208 A 
ATOM      3  C   UNL     1     200.618 207.959 275.214  1.00  0.00     0.238 A 
ATOM      4  O   UNL     1     199.416 208.128 274.880  1.00  0.00    -0.285 OA
ATOM      5  C   UNL     1     201.414 206.947 274.624  1.00  0.00     0.111 A 
ATOM      6  C   UNL     1     200.984 206.093 273.564  1.00  0.00     0.134 A 
ATOM      7  C   UNL     1     201.810 205.042 273.146  1.00  0.00     0.093 A 
ATOM      8  C   UNL     1     203.076 204.853 273.706  1.00  0.00     0.123 A 
ATOM      9  C   UNL     1     203.528 205.718 274.700  1.00  0.00     0.094 A 
ATOM     10  C   UNL     1     202.713 206.754 275.163  1.00  0.00     0.146 A 
ATOM     11  O   UNL     1     203.179 207.547 276.120  1.00  0.00    -0.451 OA
ENDROOT
BRANCH   1  12
ATOM     12  C   UNL     1     203.111 209.374 277.692  1.00  0.00     0.063 A 
ATOM     13  C   UNL     1     203.104 210.183 279.985  1.00  0.00     0.047 A 
ATOM     14  C   UNL     1     202.529 209.415 278.969  1.00  0.00     0.020 A 
ATOM     15  C   UNL     1     204.276 210.908 279.740  1.00  0.00     0.119 A 
ATOM     16  C   UNL     1     204.875 210.854 278.479  1.00  0.00     0.093 A 
ATOM     17  C   UNL     1     204.307 210.081 277.455  1.00  0.00     0.130 A 
BRANCH  15  18
ATOM     18  O   UNL     1     204.856 211.680 280.744  1.00  0.00    -0.508 OA
ATOM     19  H   UNL     1     204.291 212.189 281.414  1.00  0.00     0.293 HD
ENDBRANCH  15  18
BRANCH  17  20
ATOM     20  O   UNL     1     204.942 209.997 276.215  1.00  0.00    -0.507 OA
ATOM     21  H   UNL     1     205.707 209.353 276.052  1.00  0.00     0.293 HD
ENDBRANCH  17  20
ENDBRANCH   1  12
BRANCH   2  22
ATOM     22  O   UNL     1     200.388 209.763 276.837  1.00  0.00    -0.502 OA
ATOM     23  H   UNL     1     200.305 209.842 277.844  1.00  0.00     0.293 HD
ENDBRANCH   2  22
BRANCH   6  24
ATOM     24  O   UNL     1     199.778 206.250 272.875  1.00  0.00    -0.507 OA
ATOM     25  H   UNL     1     199.371 207.139 272.625  1.00  0.00     0.293 HD
ENDBRANCH   6  24
BRANCH   8  26
ATOM     26  O   UNL     1     203.897 203.815 273.274  1.00  0.00    -0.508 OA
ATOM     27  H   UNL     1     204.180 203.731 272.305  1.00  0.00     0.293 HD
ENDBRANCH   8  26
TORSDOF 6
ENDMDL
MODEL 9
REMARK VINA RESULT:    -5.541      3.270      4.970
REMARK INTER + INTRA:          -6.948
REMARK INTER:                  -6.678
REMARK INTRA:                  -0.271
REMARK UNBOUND:                -0.274
REMARK SMILES O=c1c(O)c(-c2ccc(O)cc2O)oc2cc(O)cc(O)c12
REMARK SMILES IDX 5 1 3 2 2 3 1 4 22 5 20 6 19 7 17 8 16 9 15 10 14 11 6 12
REMARK SMILES IDX 8 13 7 14 9 15 11 16 12 17 10 18 13 20 4 22 21 24 18 26
REMARK H PARENT 10 19 13 21 4 23 21 25 18 27
REMARK Flexibility Score: inf
ROOT
ATOM      1  C   UNL     1     200.982 207.234 275.131  1.00  0.00     0.184 A 
ATOM      2  C   UNL     1     202.021 206.882 274.255  1.00  0.00     0.208 A 
ATOM      3  C   UNL     1     203.214 206.369 274.787  1.00  0.00     0.238 A 
ATOM      4  O   UNL     1     204.121 206.004 273.994  1.00  0.00    -0.285 OA
ATOM      5  C   UNL     1     203.357 206.229 276.189  1.00  0.00     0.111 A 
ATOM      6  C   UNL     1     204.537 205.757 276.840  1.00  0.00     0.134 A 
ATOM      7  C   UNL     1     204.521 205.537 278.223  1.00  0.00     0.093 A 
ATOM      8  C   UNL     1     203.389 205.834 278.987  1.00  0.00     0.123 A 
ATOM      9  C   UNL     1     202.253 206.351 278.369  1.00  0.00     0.094 A 
ATOM     10  C   UNL     1     202.227 206.547 276.986  1.00  0.00     0.146 A 
ATOM     11  O   UNL     1     201.119 207.031 276.436  1.00  0.00    -0.451 OA
ENDROOT
BRANCH   1  12
ATOM     12  C   UNL     1     199.707 207.796 274.637  1.00  0.00     0.063 A 
ATOM     13  C   UNL     1     197.744 207.561 273.222  1.00  0.00     0.047 A 
ATOM     14  C   UNL     1     198.957 207.062 273.706  1.00  0.00     0.020 A 
ATOM     15  C   UNL     1     197.260 208.794 273.676  1.00  0.00     0.119 A 
ATOM     16  C   UNL     1     197.990 209.520 274.621  1.00  0.00     0.093 A 
ATOM     17  C   UNL     1     199.205 209.024 275.116  1.00  0.00     0.130 A 
BRANCH  15  18
ATOM     18  O   UNL     1     196.055 209.303 273.198  1.00  0.00    -0.508 OA
ATOM     19  H   UNL     1     195.622 208.938 272.357  1.00  0.00     0.293 HD
ENDBRANCH  15  18
BRANCH  17  20
ATOM     20  O   UNL     1     199.899 209.736 276.095  1.00  0.00    -0.507 OA
ATOM     21  H   UNL     1     200.656 210.366 275.857  1.00  0.00     0.293 HD
ENDBRANCH  17  20
ENDBRANCH   1  12
BRANCH   2  22
ATOM     22  O   UNL     1     201.846 207.013 272.875  1.00  0.00    -0.502 OA
ATOM     23  H   UNL     1     202.557 207.411 272.273  1.00  0.00     0.293 HD
ENDBRANCH   2  22
BRANCH   6  24
ATOM     24  O   UNL     1     205.747 205.517 276.184  1.00  0.00    -0.507 OA
ATOM     25  H   UNL     1     206.608 206.009 276.369  1.00  0.00     0.293 HD
ENDBRANCH   6  24
BRANCH   8  26
ATOM     26  O   UNL     1     203.387 205.627 280.364  1.00  0.00    -0.508 OA
ATOM     27  H   UNL     1     202.563 205.292 280.849  1.00  0.00     0.293 HD
ENDBRANCH   8  26
TORSDOF 6
ENDMDL
