MODEL 1
REMARK VINA RESULT:    -7.718      0.000      0.000
REMARK INTER + INTRA:          -9.605
REMARK INTER:                  -9.297
REMARK INTRA:                  -0.308
REMARK UNBOUND:                -0.308
REMARK SMILES O=c1c(O)c(-c2ccc(O)c(O)c2)oc2cc(O)cc(O)c12
REMARK SMILES IDX 5 1 3 2 2 3 1 4 22 5 20 6 19 7 17 8 16 9 15 10 14 11 6 12
REMARK SMILES IDX 7 13 8 14 9 15 13 16 11 17 10 18 12 20 4 22 21 24 18 26
REMARK H PARENT 10 19 12 21 4 23 21 25 18 27
REMARK Flexibility Score: inf
ROOT
ATOM      1  C   UNL     1      -2.881  67.877 -21.781  1.00  0.00     0.180 A 
ATOM      2  C   UNL     1      -3.390  68.158 -23.060  1.00  0.00     0.208 A 
ATOM      3  C   UNL     1      -4.770  68.367 -23.214  1.00  0.00     0.238 A 
ATOM      4  O   UNL     1      -5.227  68.565 -24.370  1.00  0.00    -0.285 OA
ATOM      5  C   UNL     1      -5.621  68.309 -22.084  1.00  0.00     0.111 A 
ATOM      6  C   UNL     1      -7.029  68.545 -22.117  1.00  0.00     0.134 A 
ATOM      7  C   UNL     1      -7.791  68.333 -20.962  1.00  0.00     0.093 A 
ATOM      8  C   UNL     1      -7.187  67.956 -19.759  1.00  0.00     0.123 A 
ATOM      9  C   UNL     1      -5.807  67.782 -19.702  1.00  0.00     0.094 A 
ATOM     10  C   UNL     1      -5.024  67.951 -20.847  1.00  0.00     0.146 A 
ATOM     11  O   UNL     1      -3.713  67.765 -20.752  1.00  0.00    -0.452 OA
ENDROOT
BRANCH   1  12
ATOM     12  C   UNL     1      -1.436  67.670 -21.537  1.00  0.00     0.025 A 
ATOM     13  C   UNL     1      -0.876  66.382 -21.504  1.00  0.00     0.016 A 
ATOM     14  C   UNL     1       0.495  66.211 -21.295  1.00  0.00     0.051 A 
ATOM     15  C   UNL     1       1.329  67.326 -21.129  1.00  0.00     0.157 A 
ATOM     16  C   UNL     1      -0.593  68.784 -21.389  1.00  0.00     0.062 A 
ATOM     17  C   UNL     1       0.781  68.618 -21.180  1.00  0.00     0.158 A 
BRANCH  15  18
ATOM     18  O   UNL     1       2.695  67.152 -20.917  1.00  0.00    -0.504 OA
ATOM     19  H   UNL     1       3.051  66.702 -20.083  1.00  0.00     0.293 HD
ENDBRANCH  15  18
BRANCH  17  20
ATOM     20  O   UNL     1       1.585  69.747 -21.025  1.00  0.00    -0.504 OA
ATOM     21  H   UNL     1       2.328  69.789 -20.338  1.00  0.00     0.293 HD
ENDBRANCH  17  20
ENDBRANCH   1  12
BRANCH   2  22
ATOM     22  O   UNL     1      -2.536  68.189 -24.166  1.00  0.00    -0.502 OA
ATOM     23  H   UNL     1      -2.267  69.052 -24.623  1.00  0.00     0.293 HD
ENDBRANCH   2  22
BRANCH   6  24
ATOM     24  O   UNL     1      -7.717  69.011 -23.241  1.00  0.00    -0.507 OA
ATOM     25  H   UNL     1      -7.425  68.862 -24.195  1.00  0.00     0.293 HD
ENDBRANCH   6  24
BRANCH   8  26
ATOM     26  O   UNL     1      -7.952  67.763 -18.610  1.00  0.00    -0.508 OA
ATOM     27  H   UNL     1      -8.964  67.806 -18.633  1.00  0.00     0.293 HD
ENDBRANCH   8  26
TORSDOF 6
ENDMDL
MODEL 2
REMARK VINA RESULT:    -7.619      5.031      6.164
REMARK INTER + INTRA:          -9.485
REMARK INTER:                  -9.188
REMARK INTRA:                  -0.297
REMARK UNBOUND:                -0.308
REMARK SMILES O=c1c(O)c(-c2ccc(O)c(O)c2)oc2cc(O)cc(O)c12
REMARK SMILES IDX 5 1 3 2 2 3 1 4 22 5 20 6 19 7 17 8 16 9 15 10 14 11 6 12
REMARK SMILES IDX 7 13 8 14 9 15 13 16 11 17 10 18 12 20 4 22 21 24 18 26
REMARK H PARENT 10 19 12 21 4 23 21 25 18 27
REMARK Flexibility Score: inf
ROOT
ATOM      1  C   UNL     1      -3.085  64.736 -19.419  1.00  0.00     0.180 A 
ATOM      2  C   UNL     1      -4.086  64.013 -20.089  1.00  0.00     0.208 A 
ATOM      3  C   UNL     1      -4.635  62.877 -19.473  1.00  0.00     0.238 A 
ATOM      4  O   UNL     1      -5.493  62.203 -20.101  1.00  0.00    -0.285 OA
ATOM      5  C   UNL     1      -4.187  62.487 -18.188  1.00  0.00     0.111 A 
ATOM      6  C   UNL     1      -4.702  61.377 -17.453  1.00  0.00     0.134 A 
ATOM      7  C   UNL     1      -4.094  61.006 -16.247  1.00  0.00     0.093 A 
ATOM      8  C   UNL     1      -3.033  61.745 -15.718  1.00  0.00     0.123 A 
ATOM      9  C   UNL     1      -2.563  62.866 -16.398  1.00  0.00     0.094 A 
ATOM     10  C   UNL     1      -3.125  63.239 -17.622  1.00  0.00     0.146 A 
ATOM     11  O   UNL     1      -2.641  64.307 -18.242  1.00  0.00    -0.452 OA
ENDROOT
BRANCH   1  12
ATOM     12  C   UNL     1      -2.477  65.957 -19.992  1.00  0.00     0.025 A 
ATOM     13  C   UNL     1      -1.460  65.885 -20.959  1.00  0.00     0.016 A 
ATOM     14  C   UNL     1      -0.917  67.051 -21.504  1.00  0.00     0.051 A 
ATOM     15  C   UNL     1      -1.392  68.307 -21.102  1.00  0.00     0.157 A 
ATOM     16  C   UNL     1      -2.964  67.218 -19.607  1.00  0.00     0.062 A 
ATOM     17  C   UNL     1      -2.422  68.389 -20.151  1.00  0.00     0.158 A 
BRANCH  15  18
ATOM     18  O   UNL     1      -0.846  69.468 -21.645  1.00  0.00    -0.504 OA
ATOM     19  H   UNL     1      -1.256  70.379 -21.472  1.00  0.00     0.293 HD
ENDBRANCH  15  18
BRANCH  17  20
ATOM     20  O   UNL     1      -2.921  69.623 -19.735  1.00  0.00    -0.504 OA
ATOM     21  H   UNL     1      -2.334  70.445 -19.664  1.00  0.00     0.293 HD
ENDBRANCH  17  20
ENDBRANCH   1  12
BRANCH   2  22
ATOM     22  O   UNL     1      -4.498  64.402 -21.367  1.00  0.00    -0.502 OA
ATOM     23  H   UNL     1      -4.213  63.909 -22.205  1.00  0.00     0.293 HD
ENDBRANCH   2  22
BRANCH   6  24
ATOM     24  O   UNL     1      -5.816  60.629 -17.846  1.00  0.00    -0.507 OA
ATOM     25  H   UNL     1      -5.842  60.015 -18.645  1.00  0.00     0.293 HD
ENDBRANCH   6  24
BRANCH   8  26
ATOM     26  O   UNL     1      -2.444  61.379 -14.509  1.00  0.00    -0.508 OA
ATOM     27  H   UNL     1      -1.564  61.779 -14.205  1.00  0.00     0.293 HD
ENDBRANCH   8  26
TORSDOF 6
ENDMDL
MODEL 3
REMARK VINA RESULT:    -7.517      1.219      2.864
REMARK INTER + INTRA:          -9.363
REMARK INTER:                  -9.034
REMARK INTRA:                  -0.329
REMARK UNBOUND:                -0.308
REMARK SMILES O=c1c(O)c(-c2ccc(O)c(O)c2)oc2cc(O)cc(O)c12
REMARK SMILES IDX 5 1 3 2 2 3 1 4 22 5 20 6 19 7 17 8 16 9 15 10 14 11 6 12
REMARK SMILES IDX 7 13 8 14 9 15 13 16 11 17 10 18 12 20 4 22 21 24 18 26
REMARK H PARENT 10 19 12 21 4 23 21 25 18 27
REMARK Flexibility Score: inf
ROOT
ATOM      1  C   UNL     1      -3.062  67.835 -21.298  1.00  0.00     0.180 A 
ATOM      2  C   UNL     1      -3.859  67.878 -20.141  1.00  0.00     0.208 A 
ATOM      3  C   UNL     1      -5.247  68.034 -20.275  1.00  0.00     0.238 A 
ATOM      4  O   UNL     1      -5.949  68.125 -19.233  1.00  0.00    -0.285 OA
ATOM      5  C   UNL     1      -5.825  68.129 -21.564  1.00  0.00     0.111 A 
ATOM      6  C   UNL     1      -7.224  68.248 -21.818  1.00  0.00     0.134 A 
ATOM      7  C   UNL     1      -7.671  68.467 -23.127  1.00  0.00     0.093 A 
ATOM      8  C   UNL     1      -6.775  68.505 -24.198  1.00  0.00     0.123 A 
ATOM      9  C   UNL     1      -5.413  68.329 -23.967  1.00  0.00     0.094 A 
ATOM     10  C   UNL     1      -4.933  68.146 -22.668  1.00  0.00     0.146 A 
ATOM     11  O   UNL     1      -3.626  67.993 -22.490  1.00  0.00    -0.452 OA
ENDROOT
BRANCH   1  12
ATOM     12  C   UNL     1      -1.595  67.648 -21.238  1.00  0.00     0.025 A 
ATOM     13  C   UNL     1      -1.017  66.369 -21.303  1.00  0.00     0.016 A 
ATOM     14  C   UNL     1       0.371  66.218 -21.269  1.00  0.00     0.051 A 
ATOM     15  C   UNL     1       1.204  67.342 -21.184  1.00  0.00     0.157 A 
ATOM     16  C   UNL     1      -0.757  68.773 -21.173  1.00  0.00     0.062 A 
ATOM     17  C   UNL     1       0.635  68.627 -21.139  1.00  0.00     0.158 A 
BRANCH  15  18
ATOM     18  O   UNL     1       2.588  67.188 -21.147  1.00  0.00    -0.504 OA
ATOM     19  H   UNL     1       3.054  66.755 -20.359  1.00  0.00     0.293 HD
ENDBRANCH  15  18
BRANCH  17  20
ATOM     20  O   UNL     1       1.436  69.766 -21.061  1.00  0.00    -0.504 OA
ATOM     21  H   UNL     1       1.050  70.683 -20.878  1.00  0.00     0.293 HD
ENDBRANCH  17  20
ENDBRANCH   1  12
BRANCH   2  22
ATOM     22  O   UNL     1      -3.266  67.804 -18.877  1.00  0.00    -0.502 OA
ATOM     23  H   UNL     1      -2.285  67.586 -18.747  1.00  0.00     0.293 HD
ENDBRANCH   2  22
BRANCH   6  24
ATOM     24  O   UNL     1      -8.210  68.133 -20.833  1.00  0.00    -0.507 OA
ATOM     25  H   UNL     1      -8.071  68.338 -19.855  1.00  0.00     0.293 HD
ENDBRANCH   6  24
BRANCH   8  26
ATOM     26  O   UNL     1      -7.230  68.706 -25.499  1.00  0.00    -0.508 OA
ATOM     27  H   UNL     1      -7.688  69.568 -25.773  1.00  0.00     0.293 HD
ENDBRANCH   8  26
TORSDOF 6
ENDMDL
MODEL 4
REMARK VINA RESULT:    -7.502      3.716      5.823
REMARK INTER + INTRA:          -9.345
REMARK INTER:                  -9.052
REMARK INTRA:                  -0.292
REMARK UNBOUND:                -0.308
REMARK SMILES O=c1c(O)c(-c2ccc(O)c(O)c2)oc2cc(O)cc(O)c12
REMARK SMILES IDX 5 1 3 2 2 3 1 4 22 5 20 6 19 7 17 8 16 9 15 10 14 11 6 12
REMARK SMILES IDX 7 13 8 14 9 15 13 16 11 17 10 18 12 20 4 22 21 24 18 26
REMARK H PARENT 10 19 12 21 4 23 21 25 18 27
REMARK Flexibility Score: inf
ROOT
ATOM      1  C   UNL     1      -5.675  65.176 -21.279  1.00  0.00     0.180 A 
ATOM      2  C   UNL     1      -6.976  65.708 -21.308  1.00  0.00     0.208 A 
ATOM      3  C   UNL     1      -7.245  66.806 -22.140  1.00  0.00     0.238 A 
ATOM      4  O   UNL     1      -8.398  67.311 -22.121  1.00  0.00    -0.285 OA
ATOM      5  C   UNL     1      -6.215  67.350 -22.944  1.00  0.00     0.111 A 
ATOM      6  C   UNL     1      -6.386  68.436 -23.854  1.00  0.00     0.134 A 
ATOM      7  C   UNL     1      -5.268  68.976 -24.502  1.00  0.00     0.093 A 
ATOM      8  C   UNL     1      -3.996  68.426 -24.323  1.00  0.00     0.123 A 
ATOM      9  C   UNL     1      -3.829  67.327 -23.483  1.00  0.00     0.094 A 
ATOM     10  C   UNL     1      -4.919  66.790 -22.795  1.00  0.00     0.146 A 
ATOM     11  O   UNL     1      -4.715  65.749 -21.997  1.00  0.00    -0.452 OA
ENDROOT
BRANCH   1  12
ATOM     12  C   UNL     1      -5.321  64.004 -20.448  1.00  0.00     0.025 A 
ATOM     13  C   UNL     1      -5.671  62.699 -20.834  1.00  0.00     0.016 A 
ATOM     14  C   UNL     1      -5.304  61.606 -20.046  1.00  0.00     0.051 A 
ATOM     15  C   UNL     1      -4.573  61.798 -18.866  1.00  0.00     0.157 A 
ATOM     16  C   UNL     1      -4.570  64.190 -19.275  1.00  0.00     0.062 A 
ATOM     17  C   UNL     1      -4.201  63.097 -18.481  1.00  0.00     0.158 A 
BRANCH  15  18
ATOM     18  O   UNL     1      -4.212  60.706 -18.080  1.00  0.00    -0.504 OA
ATOM     19  H   UNL     1      -3.485  60.062 -18.367  1.00  0.00     0.293 HD
ENDBRANCH  15  18
BRANCH  17  20
ATOM     20  O   UNL     1      -3.467  63.322 -17.317  1.00  0.00    -0.504 OA
ATOM     21  H   UNL     1      -3.261  64.254 -16.983  1.00  0.00     0.293 HD
ENDBRANCH  17  20
ENDBRANCH   1  12
BRANCH   2  22
ATOM     22  O   UNL     1      -7.973  65.169 -20.489  1.00  0.00    -0.502 OA
ATOM     23  H   UNL     1      -8.571  64.409 -20.788  1.00  0.00     0.293 HD
ENDBRANCH   2  22
BRANCH   6  24
ATOM     24  O   UNL     1      -7.625  68.999 -24.175  1.00  0.00    -0.507 OA
ATOM     25  H   UNL     1      -8.265  69.397 -23.506  1.00  0.00     0.293 HD
ENDBRANCH   6  24
BRANCH   8  26
ATOM     26  O   UNL     1      -2.891  68.959 -24.984  1.00  0.00    -0.508 OA
ATOM     27  H   UNL     1      -2.619  68.638 -25.905  1.00  0.00     0.293 HD
ENDBRANCH   8  26
TORSDOF 6
ENDMDL
MODEL 5
REMARK VINA RESULT:    -7.479      1.855      3.133
REMARK INTER + INTRA:          -9.318
REMARK INTER:                  -9.271
REMARK INTRA:                  -0.047
REMARK UNBOUND:                -0.308
REMARK SMILES O=c1c(O)c(-c2ccc(O)c(O)c2)oc2cc(O)cc(O)c12
REMARK SMILES IDX 5 1 3 2 2 3 1 4 22 5 20 6 19 7 17 8 16 9 15 10 14 11 6 12
REMARK SMILES IDX 7 13 8 14 9 15 13 16 11 17 10 18 12 20 4 22 21 24 18 26
REMARK H PARENT 10 19 12 21 4 23 21 25 18 27
REMARK Flexibility Score: inf
ROOT
ATOM      1  C   UNL     1      -2.877  67.248 -21.145  1.00  0.00     0.180 A 
ATOM      2  C   UNL     1      -3.239  66.033 -20.540  1.00  0.00     0.208 A 
ATOM      3  C   UNL     1      -4.553  65.562 -20.691  1.00  0.00     0.238 A 
ATOM      4  O   UNL     1      -4.886  64.500 -20.103  1.00  0.00    -0.285 OA
ATOM      5  C   UNL     1      -5.484  66.303 -21.458  1.00  0.00     0.111 A 
ATOM      6  C   UNL     1      -6.829  65.900 -21.711  1.00  0.00     0.134 A 
ATOM      7  C   UNL     1      -7.699  66.775 -22.373  1.00  0.00     0.093 A 
ATOM      8  C   UNL     1      -7.254  68.011 -22.849  1.00  0.00     0.123 A 
ATOM      9  C   UNL     1      -5.926  68.387 -22.660  1.00  0.00     0.094 A 
ATOM     10  C   UNL     1      -5.044  67.552 -21.971  1.00  0.00     0.146 A 
ATOM     11  O   UNL     1      -3.790  67.953 -21.804  1.00  0.00    -0.452 OA
ENDROOT
BRANCH   1  12
ATOM     12  C   UNL     1      -1.505  67.797 -21.052  1.00  0.00     0.025 A 
ATOM     13  C   UNL     1      -1.261  69.073 -20.516  1.00  0.00     0.016 A 
ATOM     14  C   UNL     1       0.044  69.560 -20.416  1.00  0.00     0.051 A 
ATOM     15  C   UNL     1       1.127  68.776 -20.838  1.00  0.00     0.157 A 
ATOM     16  C   UNL     1      -0.416  67.006 -21.455  1.00  0.00     0.062 A 
ATOM     17  C   UNL     1       0.894  67.491 -21.357  1.00  0.00     0.158 A 
BRANCH  15  18
ATOM     18  O   UNL     1       2.427  69.266 -20.739  1.00  0.00    -0.504 OA
ATOM     19  H   UNL     1       3.056  69.266 -21.534  1.00  0.00     0.293 HD
ENDBRANCH  15  18
BRANCH  17  20
ATOM     20  O   UNL     1       1.950  66.683 -21.778  1.00  0.00    -0.504 OA
ATOM     21  H   UNL     1       1.979  65.691 -21.583  1.00  0.00     0.293 HD
ENDBRANCH  17  20
ENDBRANCH   1  12
BRANCH   2  22
ATOM     22  O   UNL     1      -2.311  65.328 -19.770  1.00  0.00    -0.502 OA
ATOM     23  H   UNL     1      -1.916  65.702 -18.915  1.00  0.00     0.293 HD
ENDBRANCH   2  22
BRANCH   6  24
ATOM     24  O   UNL     1      -7.349  64.651 -21.359  1.00  0.00    -0.507 OA
ATOM     25  H   UNL     1      -7.012  63.768 -21.712  1.00  0.00     0.293 HD
ENDBRANCH   6  24
BRANCH   8  26
ATOM     26  O   UNL     1      -8.122  68.868 -23.522  1.00  0.00    -0.508 OA
ATOM     27  H   UNL     1      -8.094  69.871 -23.377  1.00  0.00     0.293 HD
ENDBRANCH   8  26
TORSDOF 6
ENDMDL
MODEL 6
REMARK VINA RESULT:    -7.477      2.230      7.107
REMARK INTER + INTRA:          -9.315
REMARK INTER:                  -9.248
REMARK INTRA:                  -0.067
REMARK UNBOUND:                -0.308
REMARK SMILES O=c1c(O)c(-c2ccc(O)c(O)c2)oc2cc(O)cc(O)c12
REMARK SMILES IDX 5 1 3 2 2 3 1 4 22 5 20 6 19 7 17 8 16 9 15 10 14 11 6 12
REMARK SMILES IDX 7 13 8 14 9 15 13 16 11 17 10 18 12 20 4 22 21 24 18 26
REMARK H PARENT 10 19 12 21 4 23 21 25 18 27
REMARK Flexibility Score: inf
ROOT
ATOM      1  C   UNL     1      -4.992  66.997 -21.490  1.00  0.00     0.180 A 
ATOM      2  C   UNL     1      -4.970  65.650 -21.089  1.00  0.00     0.208 A 
ATOM      3  C   UNL     1      -3.733  65.030 -20.851  1.00  0.00     0.238 A 
ATOM      4  O   UNL     1      -3.718  63.809 -20.544  1.00  0.00    -0.285 OA
ATOM      5  C   UNL     1      -2.535  65.767 -21.002  1.00  0.00     0.111 A 
ATOM      6  C   UNL     1      -1.228  65.251 -20.748  1.00  0.00     0.134 A 
ATOM      7  C   UNL     1      -0.106  66.030 -21.056  1.00  0.00     0.093 A 
ATOM      8  C   UNL     1      -0.245  67.331 -21.547  1.00  0.00     0.123 A 
ATOM      9  C   UNL     1      -1.517  67.865 -21.741  1.00  0.00     0.094 A 
ATOM     10  C   UNL     1      -2.655  67.099 -21.478  1.00  0.00     0.146 A 
ATOM     11  O   UNL     1      -3.848  67.643 -21.686  1.00  0.00    -0.452 OA
ENDROOT
BRANCH   1  12
ATOM     12  C   UNL     1      -6.256  67.726 -21.735  1.00  0.00     0.025 A 
ATOM     13  C   UNL     1      -7.202  67.262 -22.665  1.00  0.00     0.016 A 
ATOM     14  C   UNL     1      -8.399  67.953 -22.862  1.00  0.00     0.051 A 
ATOM     15  C   UNL     1      -8.677  69.112 -22.124  1.00  0.00     0.157 A 
ATOM     16  C   UNL     1      -6.547  68.876 -20.983  1.00  0.00     0.062 A 
ATOM     17  C   UNL     1      -7.746  69.573 -21.177  1.00  0.00     0.158 A 
BRANCH  15  18
ATOM     18  O   UNL     1      -9.870  69.802 -22.325  1.00  0.00    -0.504 OA
ATOM     19  H   UNL     1     -10.003  70.745 -21.981  1.00  0.00     0.293 HD
ENDBRANCH  15  18
BRANCH  17  20
ATOM     20  O   UNL     1      -7.995  70.718 -20.422  1.00  0.00    -0.504 OA
ATOM     21  H   UNL     1      -7.747  70.782 -19.443  1.00  0.00     0.293 HD
ENDBRANCH  17  20
ENDBRANCH   1  12
BRANCH   2  22
ATOM     22  O   UNL     1      -6.164  64.934 -20.967  1.00  0.00    -0.502 OA
ATOM     23  H   UNL     1      -6.273  64.164 -20.319  1.00  0.00     0.293 HD
ENDBRANCH   2  22
BRANCH   6  24
ATOM     24  O   UNL     1      -0.981  64.000 -20.174  1.00  0.00    -0.507 OA
ATOM     25  H   UNL     1      -1.436  63.143 -20.447  1.00  0.00     0.293 HD
ENDBRANCH   6  24
BRANCH   8  26
ATOM     26  O   UNL     1       0.876  68.106 -21.836  1.00  0.00    -0.508 OA
ATOM     27  H   UNL     1       0.822  68.908 -22.453  1.00  0.00     0.293 HD
ENDBRANCH   8  26
TORSDOF 6
ENDMDL
MODEL 7
REMARK VINA RESULT:    -7.432      3.179      6.991
REMARK INTER + INTRA:          -9.260
REMARK INTER:                  -8.963
REMARK INTRA:                  -0.297
REMARK UNBOUND:                -0.308
REMARK SMILES O=c1c(O)c(-c2ccc(O)c(O)c2)oc2cc(O)cc(O)c12
REMARK SMILES IDX 5 1 3 2 2 3 1 4 22 5 20 6 19 7 17 8 16 9 15 10 14 11 6 12
REMARK SMILES IDX 7 13 8 14 9 15 13 16 11 17 10 18 12 20 4 22 21 24 18 26
REMARK H PARENT 10 19 12 21 4 23 21 25 18 27
REMARK Flexibility Score: inf
ROOT
ATOM      1  C   UNL     1      -5.022  66.469 -20.785  1.00  0.00     0.180 A 
ATOM      2  C   UNL     1      -3.703  66.853 -21.079  1.00  0.00     0.208 A 
ATOM      3  C   UNL     1      -2.651  65.985 -20.746  1.00  0.00     0.238 A 
ATOM      4  O   UNL     1      -1.468  66.358 -20.963  1.00  0.00    -0.285 OA
ATOM      5  C   UNL     1      -2.931  64.738 -20.138  1.00  0.00     0.111 A 
ATOM      6  C   UNL     1      -1.945  63.764 -19.794  1.00  0.00     0.134 A 
ATOM      7  C   UNL     1      -2.324  62.622 -19.078  1.00  0.00     0.093 A 
ATOM      8  C   UNL     1      -3.662  62.388 -18.751  1.00  0.00     0.123 A 
ATOM      9  C   UNL     1      -4.639  63.303 -19.134  1.00  0.00     0.094 A 
ATOM     10  C   UNL     1      -4.287  64.470 -19.817  1.00  0.00     0.146 A 
ATOM     11  O   UNL     1      -5.248  65.321 -20.155  1.00  0.00    -0.452 OA
ENDROOT
BRANCH   1  12
ATOM     12  C   UNL     1      -6.185  67.317 -21.129  1.00  0.00     0.025 A 
ATOM     13  C   UNL     1      -6.566  68.401 -20.319  1.00  0.00     0.016 A 
ATOM     14  C   UNL     1      -7.653  69.203 -20.675  1.00  0.00     0.051 A 
ATOM     15  C   UNL     1      -8.368  68.943 -21.853  1.00  0.00     0.157 A 
ATOM     16  C   UNL     1      -6.892  67.073 -22.318  1.00  0.00     0.062 A 
ATOM     17  C   UNL     1      -7.982  67.875 -22.679  1.00  0.00     0.158 A 
BRANCH  15  18
ATOM     18  O   UNL     1      -9.453  69.743 -22.204  1.00  0.00    -0.504 OA
ATOM     19  H   UNL     1     -10.317  69.728 -21.676  1.00  0.00     0.293 HD
ENDBRANCH  15  18
BRANCH  17  20
ATOM     20  O   UNL     1      -8.668  67.594 -23.861  1.00  0.00    -0.504 OA
ATOM     21  H   UNL     1      -8.636  68.213 -24.661  1.00  0.00     0.293 HD
ENDBRANCH  17  20
ENDBRANCH   1  12
BRANCH   2  22
ATOM     22  O   UNL     1      -3.447  68.098 -21.660  1.00  0.00    -0.502 OA
ATOM     23  H   UNL     1      -2.526  68.368 -21.984  1.00  0.00     0.293 HD
ENDBRANCH   2  22
BRANCH   6  24
ATOM     24  O   UNL     1      -0.598  63.857 -20.154  1.00  0.00    -0.507 OA
ATOM     25  H   UNL     1      -0.089  63.150 -20.663  1.00  0.00     0.293 HD
ENDBRANCH   6  24
BRANCH   8  26
ATOM     26  O   UNL     1      -4.033  61.241 -18.052  1.00  0.00    -0.508 OA
ATOM     27  H   UNL     1      -4.619  60.530 -18.472  1.00  0.00     0.293 HD
ENDBRANCH   8  26
TORSDOF 6
ENDMDL
MODEL 8
REMARK VINA RESULT:    -7.394      3.648      5.454
REMARK INTER + INTRA:          -9.215
REMARK INTER:                  -9.311
REMARK INTRA:                   0.096
REMARK UNBOUND:                -0.308
REMARK SMILES O=c1c(O)c(-c2ccc(O)c(O)c2)oc2cc(O)cc(O)c12
REMARK SMILES IDX 5 1 3 2 2 3 1 4 22 5 20 6 19 7 17 8 16 9 15 10 14 11 6 12
REMARK SMILES IDX 7 13 8 14 9 15 13 16 11 17 10 18 12 20 4 22 21 24 18 26
REMARK H PARENT 10 19 12 21 4 23 21 25 18 27
REMARK Flexibility Score: inf
ROOT
ATOM      1  C   UNL     1      -3.809  65.412 -20.962  1.00  0.00     0.180 A 
ATOM      2  C   UNL     1      -2.609  65.926 -21.483  1.00  0.00     0.208 A 
ATOM      3  C   UNL     1      -2.664  66.984 -22.403  1.00  0.00     0.238 A 
ATOM      4  O   UNL     1      -1.589  67.404 -22.907  1.00  0.00    -0.285 OA
ATOM      5  C   UNL     1      -3.916  67.527 -22.779  1.00  0.00     0.111 A 
ATOM      6  C   UNL     1      -4.087  68.627 -23.673  1.00  0.00     0.134 A 
ATOM      7  C   UNL     1      -5.377  68.996 -24.074  1.00  0.00     0.093 A 
ATOM      8  C   UNL     1      -6.504  68.347 -23.564  1.00  0.00     0.123 A 
ATOM      9  C   UNL     1      -6.349  67.311 -22.645  1.00  0.00     0.094 A 
ATOM     10  C   UNL     1      -5.074  66.897 -22.254  1.00  0.00     0.146 A 
ATOM     11  O   UNL     1      -4.971  65.899 -21.384  1.00  0.00    -0.452 OA
ENDROOT
BRANCH   1  12
ATOM     12  C   UNL     1      -3.831  64.315 -19.969  1.00  0.00     0.025 A 
ATOM     13  C   UNL     1      -2.910  64.267 -18.909  1.00  0.00     0.016 A 
ATOM     14  C   UNL     1      -2.965  63.235 -17.970  1.00  0.00     0.051 A 
ATOM     15  C   UNL     1      -3.949  62.241 -18.067  1.00  0.00     0.157 A 
ATOM     16  C   UNL     1      -4.828  63.328 -20.051  1.00  0.00     0.062 A 
ATOM     17  C   UNL     1      -4.887  62.291 -19.112  1.00  0.00     0.158 A 
BRANCH  15  18
ATOM     18  O   UNL     1      -3.999  61.211 -17.131  1.00  0.00    -0.504 OA
ATOM     19  H   UNL     1      -4.216  60.258 -17.400  1.00  0.00     0.293 HD
ENDBRANCH  15  18
BRANCH  17  20
ATOM     20  O   UNL     1      -5.882  61.322 -19.233  1.00  0.00    -0.504 OA
ATOM     21  H   UNL     1      -5.690  60.396 -19.593  1.00  0.00     0.293 HD
ENDBRANCH  17  20
ENDBRANCH   1  12
BRANCH   2  22
ATOM     22  O   UNL     1      -1.385  65.360 -21.115  1.00  0.00    -0.502 OA
ATOM     23  H   UNL     1      -0.775  65.784 -20.425  1.00  0.00     0.293 HD
ENDBRANCH   2  22
BRANCH   6  24
ATOM     24  O   UNL     1      -3.034  69.402 -24.169  1.00  0.00    -0.507 OA
ATOM     25  H   UNL     1      -2.164  69.565 -23.685  1.00  0.00     0.293 HD
ENDBRANCH   6  24
BRANCH   8  26
ATOM     26  O   UNL     1      -7.784  68.731 -23.957  1.00  0.00    -0.508 OA
ATOM     27  H   UNL     1      -8.605  68.453 -23.432  1.00  0.00     0.293 HD
ENDBRANCH   8  26
TORSDOF 6
ENDMDL
MODEL 9
REMARK VINA RESULT:    -7.347      3.300      4.072
REMARK INTER + INTRA:          -9.158
REMARK INTER:                  -9.039
REMARK INTRA:                  -0.119
REMARK UNBOUND:                -0.308
REMARK SMILES O=c1c(O)c(-c2ccc(O)c(O)c2)oc2cc(O)cc(O)c12
REMARK SMILES IDX 5 1 3 2 2 3 1 4 22 5 20 6 19 7 17 8 16 9 15 10 14 11 6 12
REMARK SMILES IDX 7 13 8 14 9 15 13 16 11 17 10 18 12 20 4 22 21 24 18 26
REMARK H PARENT 10 19 12 21 4 23 21 25 18 27
REMARK Flexibility Score: inf
ROOT
ATOM      1  C   UNL     1      -2.388  66.259 -20.958  1.00  0.00     0.180 A 
ATOM      2  C   UNL     1      -3.567  66.535 -21.670  1.00  0.00     0.208 A 
ATOM      3  C   UNL     1      -4.639  65.632 -21.590  1.00  0.00     0.238 A 
ATOM      4  O   UNL     1      -5.673  65.859 -22.273  1.00  0.00    -0.285 OA
ATOM      5  C   UNL     1      -4.526  64.473 -20.786  1.00  0.00     0.111 A 
ATOM      6  C   UNL     1      -5.564  63.511 -20.600  1.00  0.00     0.134 A 
ATOM      7  C   UNL     1      -5.295  62.335 -19.887  1.00  0.00     0.093 A 
ATOM      8  C   UNL     1      -4.046  62.118 -19.299  1.00  0.00     0.123 A 
ATOM      9  C   UNL     1      -3.046  63.079 -19.425  1.00  0.00     0.094 A 
ATOM     10  C   UNL     1      -3.272  64.245 -20.161  1.00  0.00     0.146 A 
ATOM     11  O   UNL     1      -2.288  65.130 -20.264  1.00  0.00    -0.452 OA
ENDROOT
BRANCH   1  12
ATOM     12  C   UNL     1      -1.225  67.174 -20.972  1.00  0.00     0.025 A 
ATOM     13  C   UNL     1      -1.341  68.512 -20.557  1.00  0.00     0.016 A 
ATOM     14  C   UNL     1      -0.225  69.352 -20.556  1.00  0.00     0.051 A 
ATOM     15  C   UNL     1       1.027  68.865 -20.958  1.00  0.00     0.157 A 
ATOM     16  C   UNL     1       0.035  66.686 -21.354  1.00  0.00     0.062 A 
ATOM     17  C   UNL     1       1.157  67.524 -21.356  1.00  0.00     0.158 A 
BRANCH  15  18
ATOM     18  O   UNL     1       2.138  69.706 -20.959  1.00  0.00    -0.504 OA
ATOM     19  H   UNL     1       2.315  70.353 -20.200  1.00  0.00     0.293 HD
ENDBRANCH  15  18
BRANCH  17  20
ATOM     20  O   UNL     1       2.389  67.007 -21.754  1.00  0.00    -0.504 OA
ATOM     21  H   UNL     1       3.189  66.987 -21.135  1.00  0.00     0.293 HD
ENDBRANCH  17  20
ENDBRANCH   1  12
BRANCH   2  22
ATOM     22  O   UNL     1      -3.651  67.675 -22.475  1.00  0.00    -0.502 OA
ATOM     23  H   UNL     1      -4.010  68.558 -22.132  1.00  0.00     0.293 HD
ENDBRANCH   2  22
BRANCH   6  24
ATOM     24  O   UNL     1      -6.872  63.673 -21.066  1.00  0.00    -0.507 OA
ATOM     25  H   UNL     1      -7.151  63.590 -22.032  1.00  0.00     0.293 HD
ENDBRANCH   6  24
BRANCH   8  26
ATOM     26  O   UNL     1      -3.793  60.953 -18.579  1.00  0.00    -0.508 OA
ATOM     27  H   UNL     1      -3.507  60.982 -17.607  1.00  0.00     0.293 HD
ENDBRANCH   8  26
TORSDOF 6
ENDMDL
