MODEL 1
REMARK VINA RESULT:    -6.162      0.000      0.000
REMARK INTER + INTRA:          -7.534
REMARK INTER:                  -7.243
REMARK INTRA:                  -0.291
REMARK UNBOUND:                -0.291
REMARK SMILES O=c1cc(-c2ccc(O)c(O)c2)oc2cc(O)cc(O)c12
REMARK SMILES IDX 4 1 3 2 2 3 1 4 21 5 19 6 18 7 16 8 15 9 14 10 13 11 5 12
REMARK SMILES IDX 6 13 7 14 8 15 12 16 10 17 9 18 11 20 20 22 17 24
REMARK H PARENT 9 19 11 21 20 23 17 25
REMARK Flexibility Score: inf
ROOT
ATOM      1  C   UNL     1      41.922   8.233  34.232  1.00  0.00     0.138 A 
ATOM      2  C   UNL     1      42.077   8.751  32.939  1.00  0.00     0.100 A 
ATOM      3  C   UNL     1      42.322  10.114  32.766  1.00  0.00     0.197 A 
ATOM      4  O   UNL     1      42.512  10.538  31.598  1.00  0.00    -0.289 OA
ATOM      5  C   UNL     1      42.377  10.968  33.895  1.00  0.00     0.107 A 
ATOM      6  C   UNL     1      42.588  12.379  33.838  1.00  0.00     0.134 A 
ATOM      7  C   UNL     1      42.721  13.105  35.028  1.00  0.00     0.093 A 
ATOM      8  C   UNL     1      42.594  12.481  36.271  1.00  0.00     0.123 A 
ATOM      9  C   UNL     1      42.339  11.114  36.337  1.00  0.00     0.094 A 
ATOM     10  C   UNL     1      42.234  10.355  35.168  1.00  0.00     0.146 A 
ATOM     11  O   UNL     1      42.009   9.050  35.276  1.00  0.00    -0.456 OA
ENDROOT
BRANCH   1  12
ATOM     12  C   UNL     1      41.655   6.792  34.474  1.00  0.00     0.021 A 
ATOM     13  C   UNL     1      41.125   6.331  35.694  1.00  0.00     0.016 A 
ATOM     14  C   UNL     1      40.875   4.971  35.888  1.00  0.00     0.051 A 
ATOM     15  C   UNL     1      41.139   4.049  34.872  1.00  0.00     0.157 A 
ATOM     16  C   UNL     1      41.906   5.861  33.450  1.00  0.00     0.062 A 
ATOM     17  C   UNL     1      41.656   4.494  33.645  1.00  0.00     0.158 A 
BRANCH  15  18
ATOM     18  O   UNL     1      40.881   2.698  35.098  1.00  0.00    -0.504 OA
ATOM     19  H   UNL     1      40.650   2.341  36.018  1.00  0.00     0.293 HD
ENDBRANCH  15  18
BRANCH  17  20
ATOM     20  O   UNL     1      41.918   3.581  32.625  1.00  0.00    -0.504 OA
ATOM     21  H   UNL     1      41.217   3.341  31.934  1.00  0.00     0.293 HD
ENDBRANCH  17  20
ENDBRANCH   1  12
BRANCH   6  22
ATOM     22  O   UNL     1      42.650  13.115  32.650  1.00  0.00    -0.507 OA
ATOM     23  H   UNL     1      42.094  12.939  31.829  1.00  0.00     0.293 HD
ENDBRANCH   6  22
BRANCH   8  24
ATOM     24  O   UNL     1      42.713  13.214  37.450  1.00  0.00    -0.508 OA
ATOM     25  H   UNL     1      42.304  12.892  38.319  1.00  0.00     0.293 HD
ENDBRANCH   8  24
TORSDOF 5
ENDMDL
MODEL 2
REMARK VINA RESULT:    -5.866      3.191      5.445
REMARK INTER + INTRA:          -7.186
REMARK INTER:                  -6.876
REMARK INTRA:                  -0.310
REMARK UNBOUND:                -0.291
REMARK SMILES O=c1cc(-c2ccc(O)c(O)c2)oc2cc(O)cc(O)c12
REMARK SMILES IDX 4 1 3 2 2 3 1 4 21 5 19 6 18 7 16 8 15 9 14 10 13 11 5 12
REMARK SMILES IDX 6 13 7 14 8 15 12 16 10 17 9 18 11 20 20 22 17 24
REMARK H PARENT 9 19 11 21 20 23 17 25
REMARK Flexibility Score: inf
ROOT
ATOM      1  C   UNL     1      42.130   9.328  37.170  1.00  0.00     0.138 A 
ATOM      2  C   UNL     1      41.926   8.247  36.301  1.00  0.00     0.100 A 
ATOM      3  C   UNL     1      41.970   8.453  34.921  1.00  0.00     0.197 A 
ATOM      4  O   UNL     1      41.839   7.454  34.169  1.00  0.00    -0.289 OA
ATOM      5  C   UNL     1      42.187   9.756  34.410  1.00  0.00     0.107 A 
ATOM      6  C   UNL     1      42.219  10.091  33.023  1.00  0.00     0.134 A 
ATOM      7  C   UNL     1      42.539  11.399  32.636  1.00  0.00     0.093 A 
ATOM      8  C   UNL     1      42.772  12.395  33.587  1.00  0.00     0.123 A 
ATOM      9  C   UNL     1      42.694  12.090  34.943  1.00  0.00     0.094 A 
ATOM     10  C   UNL     1      42.410  10.787  35.362  1.00  0.00     0.146 A 
ATOM     11  O   UNL     1      42.362  10.535  36.665  1.00  0.00    -0.456 OA
ENDROOT
BRANCH   1  12
ATOM     12  C   UNL     1      42.090   9.167  38.645  1.00  0.00     0.021 A 
ATOM     13  C   UNL     1      41.398   8.104  39.256  1.00  0.00     0.016 A 
ATOM     14  C   UNL     1      41.386   7.972  40.647  1.00  0.00     0.051 A 
ATOM     15  C   UNL     1      42.067   8.889  41.452  1.00  0.00     0.157 A 
ATOM     16  C   UNL     1      42.784  10.079  39.460  1.00  0.00     0.062 A 
ATOM     17  C   UNL     1      42.772   9.948  40.857  1.00  0.00     0.158 A 
BRANCH  15  18
ATOM     18  O   UNL     1      42.034   8.732  42.836  1.00  0.00    -0.504 OA
ATOM     19  H   UNL     1      41.223   8.358  43.316  1.00  0.00     0.293 HD
ENDBRANCH  15  18
BRANCH  17  20
ATOM     20  O   UNL     1      43.457  10.865  41.653  1.00  0.00    -0.504 OA
ATOM     21  H   UNL     1      43.045  11.246  42.497  1.00  0.00     0.293 HD
ENDBRANCH  17  20
ENDBRANCH   1  12
BRANCH   6  22
ATOM     22  O   UNL     1      41.924   9.193  31.992  1.00  0.00    -0.507 OA
ATOM     23  H   UNL     1      42.353   9.196  31.080  1.00  0.00     0.293 HD
ENDBRANCH   6  22
BRANCH   8  24
ATOM     24  O   UNL     1      43.075  13.697  33.192  1.00  0.00    -0.508 OA
ATOM     25  H   UNL     1      43.405  14.388  33.855  1.00  0.00     0.293 HD
ENDBRANCH   8  24
TORSDOF 5
ENDMDL
MODEL 3
REMARK VINA RESULT:    -5.535      2.888      6.456
REMARK INTER + INTRA:          -6.797
REMARK INTER:                  -6.490
REMARK INTRA:                  -0.307
REMARK UNBOUND:                -0.291
REMARK SMILES O=c1cc(-c2ccc(O)c(O)c2)oc2cc(O)cc(O)c12
REMARK SMILES IDX 4 1 3 2 2 3 1 4 21 5 19 6 18 7 16 8 15 9 14 10 13 11 5 12
REMARK SMILES IDX 6 13 7 14 8 15 12 16 10 17 9 18 11 20 20 22 17 24
REMARK H PARENT 9 19 11 21 20 23 17 25
REMARK Flexibility Score: inf
ROOT
ATOM      1  C   UNL     1      42.361  10.899  37.161  1.00  0.00     0.138 A 
ATOM      2  C   UNL     1      42.532  11.941  36.239  1.00  0.00     0.100 A 
ATOM      3  C   UNL     1      42.534  11.659  34.871  1.00  0.00     0.197 A 
ATOM      4  O   UNL     1      42.633  12.621  34.068  1.00  0.00    -0.289 OA
ATOM      5  C   UNL     1      42.399  10.320  34.428  1.00  0.00     0.107 A 
ATOM      6  C   UNL     1      42.419   9.910  33.062  1.00  0.00     0.134 A 
ATOM      7  C   UNL     1      42.177   8.567  32.741  1.00  0.00     0.093 A 
ATOM      8  C   UNL     1      41.972   7.613  33.740  1.00  0.00     0.123 A 
ATOM      9  C   UNL     1      41.999   7.995  35.078  1.00  0.00     0.094 A 
ATOM     10  C   UNL     1      42.205   9.331  35.430  1.00  0.00     0.146 A 
ATOM     11  O   UNL     1      42.205   9.656  36.719  1.00  0.00    -0.456 OA
ENDROOT
BRANCH   1  12
ATOM     12  C   UNL     1      42.355  11.142  38.626  1.00  0.00     0.021 A 
ATOM     13  C   UNL     1      41.919  12.363  39.174  1.00  0.00     0.016 A 
ATOM     14  C   UNL     1      41.915  12.558  40.557  1.00  0.00     0.051 A 
ATOM     15  C   UNL     1      42.336  11.541  41.417  1.00  0.00     0.157 A 
ATOM     16  C   UNL     1      42.765  10.117  39.498  1.00  0.00     0.062 A 
ATOM     17  C   UNL     1      42.763  10.313  40.887  1.00  0.00     0.158 A 
BRANCH  15  18
ATOM     18  O   UNL     1      42.323  11.768  42.793  1.00  0.00    -0.504 OA
ATOM     19  H   UNL     1      42.551  11.040  43.460  1.00  0.00     0.293 HD
ENDBRANCH  15  18
BRANCH  17  20
ATOM     20  O   UNL     1      43.181   9.293  41.740  1.00  0.00    -0.504 OA
ATOM     21  H   UNL     1      42.519   8.744  42.276  1.00  0.00     0.293 HD
ENDBRANCH  17  20
ENDBRANCH   1  12
BRANCH   6  22
ATOM     22  O   UNL     1      42.694  10.765  31.990  1.00  0.00    -0.507 OA
ATOM     23  H   UNL     1      42.058  10.971  31.235  1.00  0.00     0.293 HD
ENDBRANCH   6  22
BRANCH   8  24
ATOM     24  O   UNL     1      41.747   6.278  33.411  1.00  0.00    -0.508 OA
ATOM     25  H   UNL     1      42.265   5.528  33.855  1.00  0.00     0.293 HD
ENDBRANCH   8  24
TORSDOF 5
ENDMDL
MODEL 4
REMARK VINA RESULT:    -5.489      3.611      7.111
REMARK INTER + INTRA:          -6.743
REMARK INTER:                  -6.458
REMARK INTRA:                  -0.285
REMARK UNBOUND:                -0.291
REMARK SMILES O=c1cc(-c2ccc(O)c(O)c2)oc2cc(O)cc(O)c12
REMARK SMILES IDX 4 1 3 2 2 3 1 4 21 5 19 6 18 7 16 8 15 9 14 10 13 11 5 12
REMARK SMILES IDX 6 13 7 14 8 15 12 16 10 17 9 18 11 20 20 22 17 24
REMARK H PARENT 9 19 11 21 20 23 17 25
REMARK Flexibility Score: inf
ROOT
ATOM      1  C   UNL     1      42.232  10.913  37.152  1.00  0.00     0.138 A 
ATOM      2  C   UNL     1      41.628   9.655  37.013  1.00  0.00     0.100 A 
ATOM      3  C   UNL     1      41.518   8.816  38.124  1.00  0.00     0.197 A 
ATOM      4  O   UNL     1      40.922   7.719  37.981  1.00  0.00    -0.289 OA
ATOM      5  C   UNL     1      42.048   9.227  39.372  1.00  0.00     0.107 A 
ATOM      6  C   UNL     1      42.024   8.442  40.563  1.00  0.00     0.134 A 
ATOM      7  C   UNL     1      42.492   8.995  41.763  1.00  0.00     0.093 A 
ATOM      8  C   UNL     1      43.036  10.280  41.800  1.00  0.00     0.123 A 
ATOM      9  C   UNL     1      43.110  11.036  40.633  1.00  0.00     0.094 A 
ATOM     10  C   UNL     1      42.620  10.526  39.427  1.00  0.00     0.146 A 
ATOM     11  O   UNL     1      42.694  11.287  38.340  1.00  0.00    -0.456 OA
ENDROOT
BRANCH   1  12
ATOM     12  C   UNL     1      42.379  11.843  36.004  1.00  0.00     0.021 A 
ATOM     13  C   UNL     1      42.378  13.240  36.177  1.00  0.00     0.016 A 
ATOM     14  C   UNL     1      42.529  14.090  35.079  1.00  0.00     0.051 A 
ATOM     15  C   UNL     1      42.691  13.567  33.794  1.00  0.00     0.157 A 
ATOM     16  C   UNL     1      42.556  11.322  34.709  1.00  0.00     0.062 A 
ATOM     17  C   UNL     1      42.706  12.175  33.606  1.00  0.00     0.158 A 
BRANCH  15  18
ATOM     18  O   UNL     1      42.836  14.442  32.718  1.00  0.00    -0.504 OA
ATOM     19  H   UNL     1      43.407  14.213  31.913  1.00  0.00     0.293 HD
ENDBRANCH  15  18
BRANCH  17  20
ATOM     20  O   UNL     1      42.870  11.645  32.327  1.00  0.00    -0.504 OA
ATOM     21  H   UNL     1      42.647  12.183  31.497  1.00  0.00     0.293 HD
ENDBRANCH  17  20
ENDBRANCH   1  12
BRANCH   6  22
ATOM     22  O   UNL     1      41.577   7.118  40.622  1.00  0.00    -0.507 OA
ATOM     23  H   UNL     1      40.928   6.697  39.976  1.00  0.00     0.293 HD
ENDBRANCH   6  22
BRANCH   8  24
ATOM     24  O   UNL     1      43.513  10.816  42.995  1.00  0.00    -0.508 OA
ATOM     25  H   UNL     1      43.094  10.581  43.886  1.00  0.00     0.293 HD
ENDBRANCH   8  24
TORSDOF 5
ENDMDL
MODEL 5
REMARK VINA RESULT:    -5.425      4.056      6.325
REMARK INTER + INTRA:          -6.667
REMARK INTER:                  -6.384
REMARK INTRA:                  -0.283
REMARK UNBOUND:                -0.291
REMARK SMILES O=c1cc(-c2ccc(O)c(O)c2)oc2cc(O)cc(O)c12
REMARK SMILES IDX 4 1 3 2 2 3 1 4 21 5 19 6 18 7 16 8 15 9 14 10 13 11 5 12
REMARK SMILES IDX 6 13 7 14 8 15 12 16 10 17 9 18 11 20 20 22 17 24
REMARK H PARENT 9 19 11 21 20 23 17 25
REMARK Flexibility Score: inf
ROOT
ATOM      1  C   UNL     1      42.054   9.460  37.945  1.00  0.00     0.138 A 
ATOM      2  C   UNL     1      41.423   8.431  38.658  1.00  0.00     0.100 A 
ATOM      3  C   UNL     1      41.498   8.409  40.052  1.00  0.00     0.197 A 
ATOM      4  O   UNL     1      40.875   7.505  40.664  1.00  0.00    -0.289 OA
ATOM      5  C   UNL     1      42.238   9.407  40.733  1.00  0.00     0.107 A 
ATOM      6  C   UNL     1      42.411   9.467  42.148  1.00  0.00     0.134 A 
ATOM      7  C   UNL     1      43.083  10.558  42.715  1.00  0.00     0.093 A 
ATOM      8  C   UNL     1      43.637  11.559  41.913  1.00  0.00     0.123 A 
ATOM      9  C   UNL     1      43.517  11.483  40.528  1.00  0.00     0.094 A 
ATOM     10  C   UNL     1      42.823  10.426  39.934  1.00  0.00     0.146 A 
ATOM     11  O   UNL     1      42.716  10.401  38.610  1.00  0.00    -0.456 OA
ENDROOT
BRANCH   1  12
ATOM     12  C   UNL     1      42.010   9.529  36.463  1.00  0.00     0.021 A 
ATOM     13  C   UNL     1      41.998  10.759  35.778  1.00  0.00     0.016 A 
ATOM     14  C   UNL     1      41.968  10.793  34.382  1.00  0.00     0.051 A 
ATOM     15  C   UNL     1      41.957   9.606  33.644  1.00  0.00     0.157 A 
ATOM     16  C   UNL     1      42.013   8.338  35.714  1.00  0.00     0.062 A 
ATOM     17  C   UNL     1      41.981   8.371  34.312  1.00  0.00     0.158 A 
BRANCH  15  18
ATOM     18  O   UNL     1      41.925   9.673  32.252  1.00  0.00    -0.504 OA
ATOM     19  H   UNL     1      42.761   9.831  31.702  1.00  0.00     0.293 HD
ENDBRANCH  15  18
BRANCH  17  20
ATOM     20  O   UNL     1      41.974   7.183  33.583  1.00  0.00    -0.504 OA
ATOM     21  H   UNL     1      41.255   6.482  33.718  1.00  0.00     0.293 HD
ENDBRANCH  17  20
ENDBRANCH   1  12
BRANCH   6  22
ATOM     22  O   UNL     1      41.968   8.481  43.035  1.00  0.00    -0.507 OA
ATOM     23  H   UNL     1      41.029   8.404  43.395  1.00  0.00     0.293 HD
ENDBRANCH   6  22
BRANCH   8  24
ATOM     24  O   UNL     1      44.317  12.632  42.485  1.00  0.00    -0.508 OA
ATOM     25  H   UNL     1      44.193  12.880  43.460  1.00  0.00     0.293 HD
ENDBRANCH   8  24
TORSDOF 5
ENDMDL
MODEL 6
REMARK VINA RESULT:    -5.358      3.244      5.543
REMARK INTER + INTRA:          -6.589
REMARK INTER:                  -6.271
REMARK INTRA:                  -0.317
REMARK UNBOUND:                -0.291
REMARK SMILES O=c1cc(-c2ccc(O)c(O)c2)oc2cc(O)cc(O)c12
REMARK SMILES IDX 4 1 3 2 2 3 1 4 21 5 19 6 18 7 16 8 15 9 14 10 13 11 5 12
REMARK SMILES IDX 6 13 7 14 8 15 12 16 10 17 9 18 11 20 20 22 17 24
REMARK H PARENT 9 19 11 21 20 23 17 25
REMARK Flexibility Score: inf
ROOT
ATOM      1  C   UNL     1      42.032  10.668  37.557  1.00  0.00     0.138 A 
ATOM      2  C   UNL     1      42.087  12.050  37.335  1.00  0.00     0.100 A 
ATOM      3  C   UNL     1      42.248  12.535  36.036  1.00  0.00     0.197 A 
ATOM      4  O   UNL     1      42.236  13.780  35.863  1.00  0.00    -0.289 OA
ATOM      5  C   UNL     1      42.390  11.627  34.958  1.00  0.00     0.107 A 
ATOM      6  C   UNL     1      42.593  12.006  33.597  1.00  0.00     0.134 A 
ATOM      7  C   UNL     1      42.621  11.019  32.603  1.00  0.00     0.093 A 
ATOM      8  C   UNL     1      42.511   9.665  32.929  1.00  0.00     0.123 A 
ATOM      9  C   UNL     1      42.363   9.282  34.259  1.00  0.00     0.094 A 
ATOM     10  C   UNL     1      42.297  10.244  35.270  1.00  0.00     0.146 A 
ATOM     11  O   UNL     1      42.137   9.837  36.525  1.00  0.00    -0.456 OA
ENDROOT
BRANCH   1  12
ATOM     12  C   UNL     1      41.867  10.097  38.918  1.00  0.00     0.021 A 
ATOM     13  C   UNL     1      41.866  10.910  40.067  1.00  0.00     0.016 A 
ATOM     14  C   UNL     1      41.697  10.346  41.334  1.00  0.00     0.051 A 
ATOM     15  C   UNL     1      41.519   8.968  41.478  1.00  0.00     0.157 A 
ATOM     16  C   UNL     1      41.673   8.712  39.069  1.00  0.00     0.062 A 
ATOM     17  C   UNL     1      41.505   8.145  40.340  1.00  0.00     0.158 A 
BRANCH  15  18
ATOM     18  O   UNL     1      41.356   8.435  42.756  1.00  0.00    -0.504 OA
ATOM     19  H   UNL     1      40.611   7.784  42.976  1.00  0.00     0.293 HD
ENDBRANCH  15  18
BRANCH  17  20
ATOM     20  O   UNL     1      41.325   6.769  40.476  1.00  0.00    -0.504 OA
ATOM     21  H   UNL     1      41.774   6.246  41.219  1.00  0.00     0.293 HD
ENDBRANCH  17  20
ENDBRANCH   1  12
BRANCH   6  22
ATOM     22  O   UNL     1      42.794  13.323  33.171  1.00  0.00    -0.507 OA
ATOM     23  H   UNL     1      42.364  14.137  33.581  1.00  0.00     0.293 HD
ENDBRANCH   6  22
BRANCH   8  24
ATOM     24  O   UNL     1      42.556   8.689  31.935  1.00  0.00    -0.508 OA
ATOM     25  H   UNL     1      43.381   8.552  31.364  1.00  0.00     0.293 HD
ENDBRANCH   8  24
TORSDOF 5
ENDMDL
MODEL 7
REMARK VINA RESULT:    -5.336      2.776      4.845
REMARK INTER + INTRA:          -6.563
REMARK INTER:                  -6.245
REMARK INTRA:                  -0.318
REMARK UNBOUND:                -0.291
REMARK SMILES O=c1cc(-c2ccc(O)c(O)c2)oc2cc(O)cc(O)c12
REMARK SMILES IDX 4 1 3 2 2 3 1 4 21 5 19 6 18 7 16 8 15 9 14 10 13 11 5 12
REMARK SMILES IDX 6 13 7 14 8 15 12 16 10 17 9 18 11 20 20 22 17 24
REMARK H PARENT 9 19 11 21 20 23 17 25
REMARK Flexibility Score: inf
ROOT
ATOM      1  C   UNL     1      42.414  12.830  34.251  1.00  0.00     0.138 A 
ATOM      2  C   UNL     1      42.490  13.767  33.212  1.00  0.00     0.100 A 
ATOM      3  C   UNL     1      42.458  15.132  33.508  1.00  0.00     0.197 A 
ATOM      4  O   UNL     1      42.584  15.947  32.560  1.00  0.00    -0.289 OA
ATOM      5  C   UNL     1      42.316  15.557  34.852  1.00  0.00     0.107 A 
ATOM      6  C   UNL     1      42.239  16.919  35.270  1.00  0.00     0.134 A 
ATOM      7  C   UNL     1      42.197  17.220  36.637  1.00  0.00     0.093 A 
ATOM      8  C   UNL     1      42.172  16.206  37.598  1.00  0.00     0.123 A 
ATOM      9  C   UNL     1      42.196  14.873  37.198  1.00  0.00     0.094 A 
ATOM     10  C   UNL     1      42.272  14.540  35.843  1.00  0.00     0.146 A 
ATOM     11  O   UNL     1      42.312  13.256  35.506  1.00  0.00    -0.456 OA
ENDROOT
BRANCH   1  12
ATOM     12  C   UNL     1      42.439  11.368  33.993  1.00  0.00     0.021 A 
ATOM     13  C   UNL     1      42.539  10.848  32.689  1.00  0.00     0.016 A 
ATOM     14  C   UNL     1      42.571   9.467  32.478  1.00  0.00     0.051 A 
ATOM     15  C   UNL     1      42.511   8.583  33.558  1.00  0.00     0.157 A 
ATOM     16  C   UNL     1      42.393  10.473  35.077  1.00  0.00     0.062 A 
ATOM     17  C   UNL     1      42.423   9.087  34.866  1.00  0.00     0.158 A 
BRANCH  15  18
ATOM     18  O   UNL     1      42.542   7.211  33.314  1.00  0.00    -0.504 OA
ATOM     19  H   UNL     1      43.384   6.661  33.439  1.00  0.00     0.293 HD
ENDBRANCH  15  18
BRANCH  17  20
ATOM     20  O   UNL     1      42.366   8.211  35.949  1.00  0.00    -0.504 OA
ATOM     21  H   UNL     1      42.387   8.547  36.905  1.00  0.00     0.293 HD
ENDBRANCH  17  20
ENDBRANCH   1  12
BRANCH   6  22
ATOM     22  O   UNL     1      42.177  18.007  34.392  1.00  0.00    -0.507 OA
ATOM     23  H   UNL     1      42.972  18.529  34.059  1.00  0.00     0.293 HD
ENDBRANCH   6  22
BRANCH   8  24
ATOM     24  O   UNL     1      42.114  16.515  38.956  1.00  0.00    -0.508 OA
ATOM     25  H   UNL     1      42.666  17.267  39.352  1.00  0.00     0.293 HD
ENDBRANCH   8  24
TORSDOF 5
ENDMDL
MODEL 8
REMARK VINA RESULT:    -5.291      3.356      6.295
REMARK INTER + INTRA:          -6.510
REMARK INTER:                  -6.192
REMARK INTRA:                  -0.318
REMARK UNBOUND:                -0.291
REMARK SMILES O=c1cc(-c2ccc(O)c(O)c2)oc2cc(O)cc(O)c12
REMARK SMILES IDX 4 1 3 2 2 3 1 4 21 5 19 6 18 7 16 8 15 9 14 10 13 11 5 12
REMARK SMILES IDX 6 13 7 14 8 15 12 16 10 17 9 18 11 20 20 22 17 24
REMARK H PARENT 9 19 11 21 20 23 17 25
REMARK Flexibility Score: inf
ROOT
ATOM      1  C   UNL     1      42.327   9.828  37.041  1.00  0.00     0.138 A 
ATOM      2  C   UNL     1      42.217   8.564  37.636  1.00  0.00     0.100 A 
ATOM      3  C   UNL     1      42.207   8.454  39.028  1.00  0.00     0.197 A 
ATOM      4  O   UNL     1      42.050   7.312  39.531  1.00  0.00    -0.289 OA
ATOM      5  C   UNL     1      42.343   9.615  39.827  1.00  0.00     0.107 A 
ATOM      6  C   UNL     1      42.379   9.622  41.253  1.00  0.00     0.134 A 
ATOM      7  C   UNL     1      42.418  10.844  41.937  1.00  0.00     0.093 A 
ATOM      8  C   UNL     1      42.480  12.055  41.245  1.00  0.00     0.123 A 
ATOM      9  C   UNL     1      42.495  12.058  39.853  1.00  0.00     0.094 A 
ATOM     10  C   UNL     1      42.423  10.857  39.141  1.00  0.00     0.146 A 
ATOM     11  O   UNL     1      42.423  10.906  37.813  1.00  0.00    -0.456 OA
ENDROOT
BRANCH   1  12
ATOM     12  C   UNL     1      42.348  10.002  35.567  1.00  0.00     0.021 A 
ATOM     13  C   UNL     1      42.102   8.929  34.690  1.00  0.00     0.016 A 
ATOM     14  C   UNL     1      42.117   9.126  33.307  1.00  0.00     0.051 A 
ATOM     15  C   UNL     1      42.369  10.392  32.774  1.00  0.00     0.157 A 
ATOM     16  C   UNL     1      42.587  11.278  35.024  1.00  0.00     0.062 A 
ATOM     17  C   UNL     1      42.604  11.476  33.636  1.00  0.00     0.158 A 
BRANCH  15  18
ATOM     18  O   UNL     1      42.380  10.556  31.389  1.00  0.00    -0.504 OA
ATOM     19  H   UNL     1      41.586  10.304  30.812  1.00  0.00     0.293 HD
ENDBRANCH  15  18
BRANCH  17  20
ATOM     20  O   UNL     1      42.852  12.743  33.111  1.00  0.00    -0.504 OA
ATOM     21  H   UNL     1      43.283  12.867  32.202  1.00  0.00     0.293 HD
ENDBRANCH  17  20
ENDBRANCH   1  12
BRANCH   6  22
ATOM     22  O   UNL     1      42.402   8.467  42.043  1.00  0.00    -0.507 OA
ATOM     23  H   UNL     1      41.936   7.603  41.818  1.00  0.00     0.293 HD
ENDBRANCH   6  22
BRANCH   8  24
ATOM     24  O   UNL     1      42.534  13.266  41.934  1.00  0.00    -0.508 OA
ATOM     25  H   UNL     1      41.732  13.626  42.437  1.00  0.00     0.293 HD
ENDBRANCH   8  24
TORSDOF 5
ENDMDL
MODEL 9
REMARK VINA RESULT:    -5.214      2.427      7.051
REMARK INTER + INTRA:          -6.419
REMARK INTER:                  -6.127
REMARK INTRA:                  -0.292
REMARK UNBOUND:                -0.291
REMARK SMILES O=c1cc(-c2ccc(O)c(O)c2)oc2cc(O)cc(O)c12
REMARK SMILES IDX 4 1 3 2 2 3 1 4 21 5 19 6 18 7 16 8 15 9 14 10 13 11 5 12
REMARK SMILES IDX 6 13 7 14 8 15 12 16 10 17 9 18 11 20 20 22 17 24
REMARK H PARENT 9 19 11 21 20 23 17 25
REMARK Flexibility Score: inf
ROOT
ATOM      1  C   UNL     1      42.174  11.433  36.745  1.00  0.00     0.138 A 
ATOM      2  C   UNL     1      42.750  12.125  35.671  1.00  0.00     0.100 A 
ATOM      3  C   UNL     1      42.964  11.465  34.459  1.00  0.00     0.197 A 
ATOM      4  O   UNL     1      43.431  12.128  33.498  1.00  0.00    -0.289 OA
ATOM      5  C   UNL     1      42.631  10.094  34.336  1.00  0.00     0.107 A 
ATOM      6  C   UNL     1      42.836   9.310  33.161  1.00  0.00     0.134 A 
ATOM      7  C   UNL     1      42.375   7.987  33.125  1.00  0.00     0.093 A 
ATOM      8  C   UNL     1      41.770   7.405  34.241  1.00  0.00     0.123 A 
ATOM      9  C   UNL     1      41.611   8.146  35.409  1.00  0.00     0.094 A 
ATOM     10  C   UNL     1      42.029   9.478  35.465  1.00  0.00     0.146 A 
ATOM     11  O   UNL     1      41.841  10.155  36.593  1.00  0.00    -0.456 OA
ENDROOT
BRANCH   1  12
ATOM     12  C   UNL     1      41.927  12.083  38.056  1.00  0.00     0.021 A 
ATOM     13  C   UNL     1      41.652  11.333  39.216  1.00  0.00     0.016 A 
ATOM     14  C   UNL     1      41.434  11.973  40.438  1.00  0.00     0.051 A 
ATOM     15  C   UNL     1      41.495  13.366  40.530  1.00  0.00     0.157 A 
ATOM     16  C   UNL     1      42.000  13.484  38.158  1.00  0.00     0.062 A 
ATOM     17  C   UNL     1      41.781  14.128  39.385  1.00  0.00     0.158 A 
BRANCH  15  18
ATOM     18  O   UNL     1      41.271  13.975  41.764  1.00  0.00    -0.504 OA
ATOM     19  H   UNL     1      41.002  13.444  42.585  1.00  0.00     0.293 HD
ENDBRANCH  15  18
BRANCH  17  20
ATOM     20  O   UNL     1      41.846  15.517  39.470  1.00  0.00    -0.504 OA
ATOM     21  H   UNL     1      41.999  15.989  40.354  1.00  0.00     0.293 HD
ENDBRANCH  17  20
ENDBRANCH   1  12
BRANCH   6  22
ATOM     22  O   UNL     1      43.500   9.768  32.018  1.00  0.00    -0.507 OA
ATOM     23  H   UNL     1      43.558  10.731  31.728  1.00  0.00     0.293 HD
ENDBRANCH   6  22
BRANCH   8  24
ATOM     24  O   UNL     1      41.329   6.083  34.201  1.00  0.00    -0.508 OA
ATOM     25  H   UNL     1      41.980   5.307  34.194  1.00  0.00     0.293 HD
ENDBRANCH   8  24
TORSDOF 5
ENDMDL
