MODEL 1
REMARK VINA RESULT:    -5.571      0.000      0.000
REMARK INTER + INTRA:          -6.682
REMARK INTER:                  -6.548
REMARK INTRA:                  -0.134
REMARK UNBOUND:                -0.134
REMARK SMILES O=C([O-])C=Cc1ccc(O)c(O)c1
REMARK SMILES IDX 6 1 13 2 7 3 11 4 8 5 9 6 5 7 4 8 2 9 1 10 3 11 12 12 10 14
REMARK H PARENT 12 13 10 15
REMARK Flexibility Score: inf
ROOT
ATOM      1  C   UNL     1     -24.263  17.236  19.402  1.00  0.00    -0.022 A 
ATOM      2  C   UNL     1     -24.602  17.547  20.730  1.00  0.00     0.058 A 
ATOM      3  C   UNL     1     -23.091  17.793  18.852  1.00  0.00     0.012 A 
ATOM      4  C   UNL     1     -23.804  18.417  21.488  1.00  0.00     0.157 A 
ATOM      5  C   UNL     1     -22.296  18.658  19.608  1.00  0.00     0.051 A 
ATOM      6  C   UNL     1     -22.650  18.975  20.925  1.00  0.00     0.157 A 
ENDROOT
BRANCH   1   7
ATOM      7  C   UNL     1     -25.135  16.304  18.647  1.00  0.00     0.010 C 
ATOM      8  C   UNL     1     -26.187  15.668  19.182  1.00  0.00     0.025 C 
BRANCH   8   9
ATOM      9  C   UNL     1     -27.025  14.741  18.404  1.00  0.00     0.064 C 
ATOM     10  O   UNL     1     -26.509  13.876  17.645  1.00  0.00    -0.545 OA
ATOM     11  O   UNL     1     -28.407  14.821  18.505  1.00  0.00    -0.545 OA
ENDBRANCH   8   9
ENDBRANCH   1   7
BRANCH   4  12
ATOM     12  O   UNL     1     -24.152  18.729  22.801  1.00  0.00    -0.504 OA
ATOM     13  H   UNL     1     -25.113  18.909  23.066  1.00  0.00     0.293 HD
ENDBRANCH   4  12
BRANCH   6  14
ATOM     14  O   UNL     1     -21.861  19.839  21.681  1.00  0.00    -0.504 OA
ATOM     15  H   UNL     1     -22.010  20.842  21.667  1.00  0.00     0.293 HD
ENDBRANCH   6  14
TORSDOF 4
ENDMDL
MODEL 2
REMARK VINA RESULT:    -5.006      0.866      2.118
REMARK INTER + INTRA:          -6.018
REMARK INTER:                  -5.880
REMARK INTRA:                  -0.138
REMARK UNBOUND:                -0.134
REMARK SMILES O=C([O-])C=Cc1ccc(O)c(O)c1
REMARK SMILES IDX 6 1 13 2 7 3 11 4 8 5 9 6 5 7 4 8 2 9 1 10 3 11 12 12 10 14
REMARK H PARENT 12 13 10 15
REMARK Flexibility Score: inf
ROOT
ATOM      1  C   UNL     1     -24.340  17.154  19.585  1.00  0.00    -0.022 A 
ATOM      2  C   UNL     1     -23.342  17.827  18.861  1.00  0.00     0.058 A 
ATOM      3  C   UNL     1     -24.577  17.528  20.922  1.00  0.00     0.012 A 
ATOM      4  C   UNL     1     -22.575  18.836  19.463  1.00  0.00     0.157 A 
ATOM      5  C   UNL     1     -23.816  18.534  21.522  1.00  0.00     0.051 A 
ATOM      6  C   UNL     1     -22.812  19.189  20.797  1.00  0.00     0.157 A 
ENDROOT
BRANCH   1   7
ATOM      7  C   UNL     1     -25.127  16.101  18.898  1.00  0.00     0.010 C 
ATOM      8  C   UNL     1     -26.443  15.918  19.076  1.00  0.00     0.025 C 
BRANCH   8   9
ATOM      9  C   UNL     1     -27.191  14.855  18.385  1.00  0.00     0.064 C 
ATOM     10  O   UNL     1     -28.450  14.815  18.418  1.00  0.00    -0.545 OA
ATOM     11  O   UNL     1     -26.496  13.875  17.687  1.00  0.00    -0.545 OA
ENDBRANCH   8   9
ENDBRANCH   1   7
BRANCH   4  12
ATOM     12  O   UNL     1     -21.580  19.492  18.742  1.00  0.00    -0.504 OA
ATOM     13  H   UNL     1     -21.230  20.399  19.027  1.00  0.00     0.293 HD
ENDBRANCH   4  12
BRANCH   6  14
ATOM     14  O   UNL     1     -22.049  20.191  21.392  1.00  0.00    -0.504 OA
ATOM     15  H   UNL     1     -22.315  20.603  22.280  1.00  0.00     0.293 HD
ENDBRANCH   6  14
TORSDOF 4
ENDMDL
MODEL 3
REMARK VINA RESULT:    -4.996      1.315      5.757
REMARK INTER + INTRA:          -6.006
REMARK INTER:                  -5.874
REMARK INTRA:                  -0.132
REMARK UNBOUND:                -0.134
REMARK SMILES O=C([O-])C=Cc1ccc(O)c(O)c1
REMARK SMILES IDX 6 1 13 2 7 3 11 4 8 5 9 6 5 7 4 8 2 9 1 10 3 11 12 12 10 14
REMARK H PARENT 12 13 10 15
REMARK Flexibility Score: inf
ROOT
ATOM      1  C   UNL     1     -23.967  16.641  18.710  1.00  0.00    -0.022 A 
ATOM      2  C   UNL     1     -25.315  16.832  19.058  1.00  0.00     0.058 A 
ATOM      3  C   UNL     1     -23.618  15.518  17.933  1.00  0.00     0.012 A 
ATOM      4  C   UNL     1     -26.295  15.909  18.663  1.00  0.00     0.157 A 
ATOM      5  C   UNL     1     -24.595  14.600  17.539  1.00  0.00     0.051 A 
ATOM      6  C   UNL     1     -25.934  14.790  17.903  1.00  0.00     0.157 A 
ENDROOT
BRANCH   1   7
ATOM      7  C   UNL     1     -22.971  17.651  19.145  1.00  0.00     0.010 C 
ATOM      8  C   UNL     1     -23.235  18.626  20.027  1.00  0.00     0.025 C 
BRANCH   8   9
ATOM      9  C   UNL     1     -22.224  19.618  20.428  1.00  0.00     0.064 C 
ATOM     10  O   UNL     1     -21.910  20.573  19.667  1.00  0.00    -0.545 OA
ATOM     11  O   UNL     1     -21.604  19.500  21.665  1.00  0.00    -0.545 OA
ENDBRANCH   8   9
ENDBRANCH   1   7
BRANCH   4  12
ATOM     12  O   UNL     1     -27.628  16.100  19.020  1.00  0.00    -0.504 OA
ATOM     13  H   UNL     1     -28.106  15.461  19.645  1.00  0.00     0.293 HD
ENDBRANCH   4  12
BRANCH   6  14
ATOM     14  O   UNL     1     -26.909  13.876  17.513  1.00  0.00    -0.504 OA
ATOM     15  H   UNL     1     -26.800  12.881  17.678  1.00  0.00     0.293 HD
ENDBRANCH   6  14
TORSDOF 4
ENDMDL
MODEL 4
REMARK VINA RESULT:    -4.789      1.328      6.059
REMARK INTER + INTRA:          -5.763
REMARK INTER:                  -5.632
REMARK INTRA:                  -0.131
REMARK UNBOUND:                -0.134
REMARK SMILES O=C([O-])C=Cc1ccc(O)c(O)c1
REMARK SMILES IDX 6 1 13 2 7 3 11 4 8 5 9 6 5 7 4 8 2 9 1 10 3 11 12 12 10 14
REMARK H PARENT 12 13 10 15
REMARK Flexibility Score: inf
ROOT
ATOM      1  C   UNL     1     -24.376  16.559  19.089  1.00  0.00    -0.022 A 
ATOM      2  C   UNL     1     -24.234  15.674  18.007  1.00  0.00     0.058 A 
ATOM      3  C   UNL     1     -25.562  16.518  19.849  1.00  0.00     0.012 A 
ATOM      4  C   UNL     1     -25.264  14.783  17.671  1.00  0.00     0.157 A 
ATOM      5  C   UNL     1     -26.587  15.630  19.515  1.00  0.00     0.051 A 
ATOM      6  C   UNL     1     -26.443  14.762  18.425  1.00  0.00     0.157 A 
ENDROOT
BRANCH   1   7
ATOM      7  C   UNL     1     -23.254  17.475  19.409  1.00  0.00     0.010 C 
ATOM      8  C   UNL     1     -23.416  18.759  19.761  1.00  0.00     0.025 C 
BRANCH   8   9
ATOM      9  C   UNL     1     -22.277  19.642  20.060  1.00  0.00     0.064 C 
ATOM     10  O   UNL     1     -21.906  19.849  21.247  1.00  0.00    -0.545 OA
ATOM     11  O   UNL     1     -21.601  20.261  19.017  1.00  0.00    -0.545 OA
ENDBRANCH   8   9
ENDBRANCH   1   7
BRANCH   4  12
ATOM     12  O   UNL     1     -25.121  13.915  16.590  1.00  0.00    -0.504 OA
ATOM     13  H   UNL     1     -25.586  13.015  16.567  1.00  0.00     0.293 HD
ENDBRANCH   4  12
BRANCH   6  14
ATOM     14  O   UNL     1     -27.464  13.876  18.088  1.00  0.00    -0.504 OA
ATOM     15  H   UNL     1     -28.066  14.041  17.289  1.00  0.00     0.293 HD
ENDBRANCH   6  14
TORSDOF 4
ENDMDL
MODEL 5
REMARK VINA RESULT:    -4.612      2.303      3.266
REMARK INTER + INTRA:          -5.554
REMARK INTER:                  -5.425
REMARK INTRA:                  -0.129
REMARK UNBOUND:                -0.134
REMARK SMILES O=C([O-])C=Cc1ccc(O)c(O)c1
REMARK SMILES IDX 6 1 13 2 7 3 11 4 8 5 9 6 5 7 4 8 2 9 1 10 3 11 12 12 10 14
REMARK H PARENT 12 13 10 15
REMARK Flexibility Score: inf
ROOT
ATOM      1  C   UNL     1     -25.406  15.564  19.331  1.00  0.00    -0.022 A 
ATOM      2  C   UNL     1     -24.455  14.980  18.478  1.00  0.00     0.058 A 
ATOM      3  C   UNL     1     -25.045  16.709  20.069  1.00  0.00     0.012 A 
ATOM      4  C   UNL     1     -23.159  15.509  18.380  1.00  0.00     0.157 A 
ATOM      5  C   UNL     1     -23.755  17.236  19.971  1.00  0.00     0.051 A 
ATOM      6  C   UNL     1     -22.808  16.639  19.129  1.00  0.00     0.157 A 
ENDROOT
BRANCH   1   7
ATOM      7  C   UNL     1     -26.765  14.971  19.390  1.00  0.00     0.010 C 
ATOM      8  C   UNL     1     -27.516  14.717  18.309  1.00  0.00     0.025 C 
BRANCH   8   9
ATOM      9  C   UNL     1     -28.865  14.137  18.407  1.00  0.00     0.064 C 
ATOM     10  O   UNL     1     -29.540  13.875  17.375  1.00  0.00    -0.545 OA
ATOM     11  O   UNL     1     -29.407  13.876  19.659  1.00  0.00    -0.545 OA
ENDBRANCH   8   9
ENDBRANCH   1   7
BRANCH   4  12
ATOM     12  O   UNL     1     -22.217  14.919  17.540  1.00  0.00    -0.504 OA
ATOM     13  H   UNL     1     -21.247  14.822  17.816  1.00  0.00     0.293 HD
ENDBRANCH   4  12
BRANCH   6  14
ATOM     14  O   UNL     1     -21.521  17.161  19.030  1.00  0.00    -0.504 OA
ATOM     15  H   UNL     1     -20.813  16.719  18.454  1.00  0.00     0.293 HD
ENDBRANCH   6  14
TORSDOF 4
ENDMDL
MODEL 6
REMARK VINA RESULT:    -4.528      2.009      2.798
REMARK INTER + INTRA:          -5.456
REMARK INTER:                  -5.328
REMARK INTRA:                  -0.128
REMARK UNBOUND:                -0.134
REMARK SMILES O=C([O-])C=Cc1ccc(O)c(O)c1
REMARK SMILES IDX 6 1 13 2 7 3 11 4 8 5 9 6 5 7 4 8 2 9 1 10 3 11 12 12 10 14
REMARK H PARENT 12 13 10 15
REMARK Flexibility Score: inf
ROOT
ATOM      1  C   UNL     1     -25.159  15.509  18.268  1.00  0.00    -0.022 A 
ATOM      2  C   UNL     1     -24.953  16.724  18.943  1.00  0.00     0.058 A 
ATOM      3  C   UNL     1     -24.039  14.731  17.914  1.00  0.00     0.012 A 
ATOM      4  C   UNL     1     -23.656  17.170  19.237  1.00  0.00     0.157 A 
ATOM      5  C   UNL     1     -22.747  15.174  18.208  1.00  0.00     0.051 A 
ATOM      6  C   UNL     1     -22.551  16.394  18.867  1.00  0.00     0.157 A 
ENDROOT
BRANCH   1   7
ATOM      7  C   UNL     1     -26.551  15.079  17.989  1.00  0.00     0.010 C 
ATOM      8  C   UNL     1     -27.444  14.779  18.943  1.00  0.00     0.025 C 
BRANCH   8   9
ATOM      9  C   UNL     1     -28.815  14.344  18.628  1.00  0.00     0.064 C 
ATOM     10  O   UNL     1     -29.572  13.876  19.520  1.00  0.00    -0.545 OA
ATOM     11  O   UNL     1     -29.282  14.450  17.324  1.00  0.00    -0.545 OA
ENDBRANCH   8   9
ENDBRANCH   1   7
BRANCH   4  12
ATOM     12  O   UNL     1     -23.459  18.381  19.897  1.00  0.00    -0.504 OA
ATOM     13  H   UNL     1     -23.345  18.424  20.903  1.00  0.00     0.293 HD
ENDBRANCH   4  12
BRANCH   6  14
ATOM     14  O   UNL     1     -21.264  16.841  19.161  1.00  0.00    -0.504 OA
ATOM     15  H   UNL     1     -20.951  17.766  18.892  1.00  0.00     0.293 HD
ENDBRANCH   6  14
TORSDOF 4
ENDMDL
MODEL 7
REMARK VINA RESULT:    -4.431     11.990     13.235
REMARK INTER + INTRA:          -5.342
REMARK INTER:                  -5.209
REMARK INTRA:                  -0.132
REMARK UNBOUND:                -0.134
REMARK SMILES O=C([O-])C=Cc1ccc(O)c(O)c1
REMARK SMILES IDX 6 1 13 2 7 3 11 4 8 5 9 6 5 7 4 8 2 9 1 10 3 11 12 12 10 14
REMARK H PARENT 12 13 10 15
REMARK Flexibility Score: inf
ROOT
ATOM      1  C   UNL     1     -15.420  15.247  10.719  1.00  0.00    -0.022 A 
ATOM      2  C   UNL     1     -16.627  15.650  11.315  1.00  0.00     0.058 A 
ATOM      3  C   UNL     1     -14.425  14.663  11.527  1.00  0.00     0.012 A 
ATOM      4  C   UNL     1     -16.830  15.498  12.695  1.00  0.00     0.157 A 
ATOM      5  C   UNL     1     -14.628  14.511  12.901  1.00  0.00     0.051 A 
ATOM      6  C   UNL     1     -15.828  14.929  13.489  1.00  0.00     0.157 A 
ENDROOT
BRANCH   1   7
ATOM      7  C   UNL     1     -15.259  15.421   9.254  1.00  0.00     0.010 C 
ATOM      8  C   UNL     1     -16.137  16.076   8.480  1.00  0.00     0.025 C 
BRANCH   8   9
ATOM      9  C   UNL     1     -15.950  16.220   7.027  1.00  0.00     0.064 C 
ATOM     10  O   UNL     1     -15.171  17.090   6.552  1.00  0.00    -0.545 OA
ATOM     11  O   UNL     1     -16.644  15.383   6.164  1.00  0.00    -0.545 OA
ENDBRANCH   8   9
ENDBRANCH   1   7
BRANCH   4  12
ATOM     12  O   UNL     1     -18.025  15.909  13.281  1.00  0.00    -0.504 OA
ATOM     13  H   UNL     1     -18.886  15.390  13.151  1.00  0.00     0.293 HD
ENDBRANCH   4  12
BRANCH   6  14
ATOM     14  O   UNL     1     -16.033  14.781  14.859  1.00  0.00    -0.504 OA
ATOM     15  H   UNL     1     -15.490  15.305  15.536  1.00  0.00     0.293 HD
ENDBRANCH   6  14
TORSDOF 4
ENDMDL
MODEL 8
REMARK VINA RESULT:    -3.965     12.001     13.261
REMARK INTER + INTRA:          -4.794
REMARK INTER:                  -4.657
REMARK INTRA:                  -0.137
REMARK UNBOUND:                -0.134
REMARK SMILES O=C([O-])C=Cc1ccc(O)c(O)c1
REMARK SMILES IDX 6 1 13 2 7 3 11 4 8 5 9 6 5 7 4 8 2 9 1 10 3 11 12 12 10 14
REMARK H PARENT 12 13 10 15
REMARK Flexibility Score: inf
ROOT
ATOM      1  C   UNL     1     -15.638  15.454  10.880  1.00  0.00    -0.022 A 
ATOM      2  C   UNL     1     -14.464  15.017  11.516  1.00  0.00     0.058 A 
ATOM      3  C   UNL     1     -16.589  16.174  11.630  1.00  0.00     0.012 A 
ATOM      4  C   UNL     1     -14.252  15.269  12.880  1.00  0.00     0.157 A 
ATOM      5  C   UNL     1     -16.377  16.426  12.988  1.00  0.00     0.051 A 
ATOM      6  C   UNL     1     -15.211  15.973  13.617  1.00  0.00     0.157 A 
ENDROOT
BRANCH   1   7
ATOM      7  C   UNL     1     -15.810  15.170   9.434  1.00  0.00     0.010 C 
ATOM      8  C   UNL     1     -16.263  16.067   8.547  1.00  0.00     0.025 C 
BRANCH   8   9
ATOM      9  C   UNL     1     -16.431  15.746   7.120  1.00  0.00     0.064 C 
ATOM     10  O   UNL     1     -15.853  16.420   6.227  1.00  0.00    -0.545 OA
ATOM     11  O   UNL     1     -17.244  14.682   6.751  1.00  0.00    -0.545 OA
ENDBRANCH   8   9
ENDBRANCH   1   7
BRANCH   4  12
ATOM     12  O   UNL     1     -13.089  14.824  13.507  1.00  0.00    -0.504 OA
ATOM     13  H   UNL     1     -12.189  15.245  13.315  1.00  0.00     0.293 HD
ENDBRANCH   4  12
BRANCH   6  14
ATOM     14  O   UNL     1     -14.996  16.221  14.972  1.00  0.00    -0.504 OA
ATOM     15  H   UNL     1     -15.767  16.285  15.627  1.00  0.00     0.293 HD
ENDBRANCH   6  14
TORSDOF 4
ENDMDL
MODEL 9
REMARK VINA RESULT:    -3.764     12.544     14.408
REMARK INTER + INTRA:          -4.558
REMARK INTER:                  -4.418
REMARK INTRA:                  -0.139
REMARK UNBOUND:                -0.134
REMARK SMILES O=C([O-])C=Cc1ccc(O)c(O)c1
REMARK SMILES IDX 6 1 13 2 7 3 11 4 8 5 9 6 5 7 4 8 2 9 1 10 3 11 12 12 10 14
REMARK H PARENT 12 13 10 15
REMARK Flexibility Score: inf
ROOT
ATOM      1  C   UNL     1     -15.662  15.335   9.861  1.00  0.00    -0.022 A 
ATOM      2  C   UNL     1     -15.312  14.457   8.822  1.00  0.00     0.058 A 
ATOM      3  C   UNL     1     -16.387  16.502   9.549  1.00  0.00     0.012 A 
ATOM      4  C   UNL     1     -15.654  14.747   7.493  1.00  0.00     0.157 A 
ATOM      5  C   UNL     1     -16.729  16.790   8.226  1.00  0.00     0.051 A 
ATOM      6  C   UNL     1     -16.363  15.916   7.194  1.00  0.00     0.157 A 
ENDROOT
BRANCH   1   7
ATOM      7  C   UNL     1     -15.283  14.978  11.251  1.00  0.00     0.010 C 
ATOM      8  C   UNL     1     -15.567  15.735  12.320  1.00  0.00     0.025 C 
BRANCH   8   9
ATOM      9  C   UNL     1     -15.166  15.354  13.683  1.00  0.00     0.064 C 
ATOM     10  O   UNL     1     -15.380  14.193  14.126  1.00  0.00    -0.545 OA
ATOM     11  O   UNL     1     -14.543  16.289  14.499  1.00  0.00    -0.545 OA
ENDBRANCH   8   9
ENDBRANCH   1   7
BRANCH   4  12
ATOM     12  O   UNL     1     -15.295  13.876   6.466  1.00  0.00    -0.504 OA
ATOM     13  H   UNL     1     -15.081  14.213   5.535  1.00  0.00     0.293 HD
ENDBRANCH   4  12
BRANCH   6  14
ATOM     14  O   UNL     1     -16.701  16.201   5.873  1.00  0.00    -0.504 OA
ATOM     15  H   UNL     1     -15.991  16.348   5.165  1.00  0.00     0.293 HD
ENDBRANCH   6  14
TORSDOF 4
ENDMDL
