MODEL 1
REMARK VINA RESULT:    -3.848      0.000      0.000
REMARK INTER + INTRA:          -6.819
REMARK INTER:                  -6.098
REMARK INTRA:                  -0.722
REMARK UNBOUND:                -0.722
REMARK SMILES CCCCCCCCCCCC(=O)[O-]
REMARK SMILES IDX 7 1 8 2 9 3 10 4 11 5 12 6 13 7 14 8 6 9 5 10 4 11 3 12 2 13
REMARK SMILES IDX 1 14
REMARK H PARENT
REMARK Flexibility Score: inf
ROOT
ATOM      1  C   UNL     1      -2.083  -9.296 -42.649  1.00  0.00     0.000 C 
ENDROOT
BRANCH   1   2
ATOM      2  C   UNL     1      -0.563  -9.086 -42.731  1.00  0.00     0.000 C 
BRANCH   2   3
ATOM      3  C   UNL     1       0.231 -10.320 -42.275  1.00  0.00     0.000 C 
BRANCH   3   4
ATOM      4  C   UNL     1       1.667  -9.974 -41.846  1.00  0.00     0.006 C 
BRANCH   4   5
ATOM      5  C   UNL     1       2.703 -10.913 -42.481  1.00  0.00     0.053 C 
BRANCH   5   6
ATOM      6  C   UNL     1       2.371 -11.227 -43.907  1.00  0.00     0.041 C 
ATOM      7  O   UNL     1       2.324 -10.306 -44.764  1.00  0.00    -0.550 OA
ATOM      8  O   UNL     1       2.084 -12.534 -44.284  1.00  0.00    -0.550 OA
ENDBRANCH   5   6
ENDBRANCH   4   5
ENDBRANCH   3   4
ENDBRANCH   2   3
ENDBRANCH   1   2
BRANCH   1   9
ATOM      9  C   UNL     1      -2.708  -8.377 -41.592  1.00  0.00     0.000 C 
BRANCH   9  10
ATOM     10  C   UNL     1      -2.517  -8.952 -40.181  1.00  0.00    -0.000 C 
BRANCH  10  11
ATOM     11  C   UNL     1      -1.545  -8.122 -39.323  1.00  0.00    -0.000 C 
BRANCH  11  12
ATOM     12  C   UNL     1      -0.438  -8.934 -38.620  1.00  0.00    -0.000 C 
BRANCH  12  13
ATOM     13  C   UNL     1      -0.642  -9.136 -37.108  1.00  0.00    -0.003 C 
ATOM     14  C   UNL     1      -0.422  -7.857 -36.301  1.00  0.00     0.004 C 
ENDBRANCH  12  13
ENDBRANCH  11  12
ENDBRANCH  10  11
ENDBRANCH   9  10
ENDBRANCH   1   9
TORSDOF 10
ENDMDL
MODEL 2
REMARK VINA RESULT:    -3.734      3.730      5.722
REMARK INTER + INTRA:          -6.638
REMARK INTER:                  -5.548
REMARK INTRA:                  -1.090
REMARK UNBOUND:                -0.722
REMARK SMILES CCCCCCCCCCCC(=O)[O-]
REMARK SMILES IDX 7 1 8 2 9 3 10 4 11 5 12 6 13 7 14 8 6 9 5 10 4 11 3 12 2 13
REMARK SMILES IDX 1 14
REMARK H PARENT
REMARK Flexibility Score: inf
ROOT
ATOM      1  C   UNL     1      -2.897  -8.282 -41.601  1.00  0.00     0.000 C 
ENDROOT
BRANCH   1   2
ATOM      2  C   UNL     1      -2.526  -8.623 -40.149  1.00  0.00     0.000 C 
BRANCH   2   3
ATOM      3  C   UNL     1      -1.161  -8.050 -39.736  1.00  0.00     0.000 C 
BRANCH   3   4
ATOM      4  C   UNL     1      -0.909  -8.155 -38.222  1.00  0.00     0.006 C 
BRANCH   4   5
ATOM      5  C   UNL     1      -1.112  -9.584 -37.698  1.00  0.00     0.053 C 
BRANCH   5   6
ATOM      6  C   UNL     1      -0.626  -9.735 -36.289  1.00  0.00     0.041 C 
ATOM      7  O   UNL     1      -0.767 -10.831 -35.685  1.00  0.00    -0.550 OA
ATOM      8  O   UNL     1      -0.047  -8.656 -35.633  1.00  0.00    -0.550 OA
ENDBRANCH   5   6
ENDBRANCH   4   5
ENDBRANCH   3   4
ENDBRANCH   2   3
ENDBRANCH   1   2
BRANCH   1   9
ATOM      9  C   UNL     1      -2.017  -9.057 -42.589  1.00  0.00     0.000 C 
BRANCH   9  10
ATOM     10  C   UNL     1      -2.142 -10.570 -42.368  1.00  0.00    -0.000 C 
BRANCH  10  11
ATOM     11  C   UNL     1      -0.782 -11.292 -42.384  1.00  0.00    -0.000 C 
BRANCH  11  12
ATOM     12  C   UNL     1       0.139 -10.980 -41.188  1.00  0.00    -0.000 C 
BRANCH  12  13
ATOM     13  C   UNL     1       1.543 -10.475 -41.564  1.00  0.00    -0.003 C 
ATOM     14  C   UNL     1       1.517  -9.382 -42.632  1.00  0.00     0.004 C 
ENDBRANCH  12  13
ENDBRANCH  11  12
ENDBRANCH  10  11
ENDBRANCH   9  10
ENDBRANCH   1   9
TORSDOF 10
ENDMDL
MODEL 3
REMARK VINA RESULT:    -3.730      1.233      1.774
REMARK INTER + INTRA:          -6.632
REMARK INTER:                  -5.553
REMARK INTRA:                  -1.079
REMARK UNBOUND:                -0.722
REMARK SMILES CCCCCCCCCCCC(=O)[O-]
REMARK SMILES IDX 7 1 8 2 9 3 10 4 11 5 12 6 13 7 14 8 6 9 5 10 4 11 3 12 2 13
REMARK SMILES IDX 1 14
REMARK H PARENT
REMARK Flexibility Score: inf
ROOT
ATOM      1  C   UNL     1      -1.763  -8.880 -41.937  1.00  0.00     0.000 C 
ENDROOT
BRANCH   1   2
ATOM      2  C   UNL     1      -2.159 -10.305 -42.353  1.00  0.00     0.000 C 
BRANCH   2   3
ATOM      3  C   UNL     1      -0.972 -11.280 -42.332  1.00  0.00     0.000 C 
BRANCH   3   4
ATOM      4  C   UNL     1       0.383 -10.567 -42.486  1.00  0.00     0.006 C 
BRANCH   4   5
ATOM      5  C   UNL     1       1.549 -11.558 -42.603  1.00  0.00     0.053 C 
BRANCH   5   6
ATOM      6  C   UNL     1       2.071 -11.641 -44.006  1.00  0.00     0.041 C 
ATOM      7  O   UNL     1       2.306 -10.591 -44.657  1.00  0.00    -0.550 OA
ATOM      8  O   UNL     1       2.268 -12.881 -44.602  1.00  0.00    -0.550 OA
ENDBRANCH   5   6
ENDBRANCH   4   5
ENDBRANCH   3   4
ENDBRANCH   2   3
ENDBRANCH   1   2
BRANCH   1   9
ATOM      9  C   UNL     1      -2.566  -8.423 -40.712  1.00  0.00     0.000 C 
BRANCH   9  10
ATOM     10  C   UNL     1      -1.634  -7.969 -39.581  1.00  0.00    -0.000 C 
BRANCH  10  11
ATOM     11  C   UNL     1      -0.697  -9.088 -39.092  1.00  0.00    -0.000 C 
BRANCH  11  12
ATOM     12  C   UNL     1      -0.889  -9.506 -37.620  1.00  0.00    -0.000 C 
BRANCH  12  13
ATOM     13  C   UNL     1      -1.503 -10.902 -37.417  1.00  0.00    -0.003 C 
ATOM     14  C   UNL     1      -1.983 -11.538 -38.721  1.00  0.00     0.004 C 
ENDBRANCH  12  13
ENDBRANCH  11  12
ENDBRANCH  10  11
ENDBRANCH   9  10
ENDBRANCH   1   9
TORSDOF 10
ENDMDL
MODEL 4
REMARK VINA RESULT:    -3.723      1.536      1.930
REMARK INTER + INTRA:          -6.622
REMARK INTER:                  -5.574
REMARK INTRA:                  -1.048
REMARK UNBOUND:                -0.722
REMARK SMILES CCCCCCCCCCCC(=O)[O-]
REMARK SMILES IDX 7 1 8 2 9 3 10 4 11 5 12 6 13 7 14 8 6 9 5 10 4 11 3 12 2 13
REMARK SMILES IDX 1 14
REMARK H PARENT
REMARK Flexibility Score: inf
ROOT
ATOM      1  C   UNL     1      -2.282  -9.282 -42.642  1.00  0.00     0.000 C 
ENDROOT
BRANCH   1   2
ATOM      2  C   UNL     1      -2.830 -10.659 -42.239  1.00  0.00     0.000 C 
BRANCH   2   3
ATOM      3  C   UNL     1      -1.719 -11.661 -41.888  1.00  0.00     0.000 C 
BRANCH   3   4
ATOM      4  C   UNL     1      -0.354 -11.261 -42.476  1.00  0.00     0.006 C 
BRANCH   4   5
ATOM      5  C   UNL     1       0.689 -10.985 -41.384  1.00  0.00     0.053 C 
BRANCH   5   6
ATOM      6  C   UNL     1       1.851 -10.198 -41.909  1.00  0.00     0.041 C 
ATOM      7  O   UNL     1       1.656  -9.203 -42.655  1.00  0.00    -0.550 OA
ATOM      8  O   UNL     1       3.149 -10.584 -41.599  1.00  0.00    -0.550 OA
ENDBRANCH   5   6
ENDBRANCH   4   5
ENDBRANCH   3   4
ENDBRANCH   2   3
ENDBRANCH   1   2
BRANCH   1   9
ATOM      9  C   UNL     1      -3.085  -8.156 -41.981  1.00  0.00     0.000 C 
BRANCH   9  10
ATOM     10  C   UNL     1      -3.038  -8.271 -40.451  1.00  0.00    -0.000 C 
BRANCH  10  11
ATOM     11  C   UNL     1      -1.605  -8.229 -39.891  1.00  0.00    -0.000 C 
BRANCH  11  12
ATOM     12  C   UNL     1      -1.334  -9.190 -38.716  1.00  0.00    -0.000 C 
BRANCH  12  13
ATOM     13  C   UNL     1      -0.356  -8.657 -37.654  1.00  0.00    -0.003 C 
ATOM     14  C   UNL     1      -1.000  -7.652 -36.700  1.00  0.00     0.004 C 
ENDBRANCH  12  13
ENDBRANCH  11  12
ENDBRANCH  10  11
ENDBRANCH   9  10
ENDBRANCH   1   9
TORSDOF 10
ENDMDL
MODEL 5
REMARK VINA RESULT:    -3.714      4.590      7.120
REMARK INTER + INTRA:          -6.607
REMARK INTER:                  -5.865
REMARK INTRA:                  -0.742
REMARK UNBOUND:                -0.722
REMARK SMILES CCCCCCCCCCCC(=O)[O-]
REMARK SMILES IDX 7 1 8 2 9 3 10 4 11 5 12 6 13 7 14 8 6 9 5 10 4 11 3 12 2 13
REMARK SMILES IDX 1 14
REMARK H PARENT
REMARK Flexibility Score: inf
ROOT
ATOM      1  C   UNL     1      -0.300  -7.626 -37.618  1.00  0.00     0.000 C 
ENDROOT
BRANCH   1   2
ATOM      2  C   UNL     1      -0.772  -7.308 -36.192  1.00  0.00     0.000 C 
BRANCH   2   3
ATOM      3  C   UNL     1      -1.369  -8.530 -35.477  1.00  0.00     0.000 C 
BRANCH   3   4
ATOM      4  C   UNL     1      -0.783  -9.858 -35.986  1.00  0.00     0.006 C 
BRANCH   4   5
ATOM      5  C   UNL     1      -0.016 -10.611 -34.890  1.00  0.00     0.053 C 
BRANCH   5   6
ATOM      6  C   UNL     1      -0.942 -11.268 -33.913  1.00  0.00     0.041 C 
ATOM      7  O   UNL     1      -0.872 -10.987 -32.688  1.00  0.00    -0.550 OA
ATOM      8  O   UNL     1      -1.861 -12.213 -34.352  1.00  0.00    -0.550 OA
ENDBRANCH   5   6
ENDBRANCH   4   5
ENDBRANCH   3   4
ENDBRANCH   2   3
ENDBRANCH   1   2
BRANCH   1   9
ATOM      9  C   UNL     1      -1.398  -7.315 -38.643  1.00  0.00     0.000 C 
BRANCH   9  10
ATOM     10  C   UNL     1      -1.650  -8.519 -39.562  1.00  0.00    -0.000 C 
BRANCH  10  11
ATOM     11  C   UNL     1      -0.397  -9.388 -39.768  1.00  0.00    -0.000 C 
BRANCH  11  12
ATOM     12  C   UNL     1       0.081  -9.510 -41.229  1.00  0.00    -0.000 C 
BRANCH  12  13
ATOM     13  C   UNL     1       0.936 -10.754 -41.531  1.00  0.00    -0.003 C 
ATOM     14  C   UNL     1       2.389 -10.413 -41.860  1.00  0.00     0.004 C 
ENDBRANCH  12  13
ENDBRANCH  11  12
ENDBRANCH  10  11
ENDBRANCH   9  10
ENDBRANCH   1   9
TORSDOF 10
ENDMDL
MODEL 6
REMARK VINA RESULT:    -3.708      2.097      3.796
REMARK INTER + INTRA:          -6.597
REMARK INTER:                  -4.971
REMARK INTRA:                  -1.626
REMARK UNBOUND:                -0.722
REMARK SMILES CCCCCCCCCCCC(=O)[O-]
REMARK SMILES IDX 7 1 8 2 9 3 10 4 11 5 12 6 13 7 14 8 6 9 5 10 4 11 3 12 2 13
REMARK SMILES IDX 1 14
REMARK H PARENT
REMARK Flexibility Score: inf
ROOT
ATOM      1  C   UNL     1      -3.152  -8.432 -40.487  1.00  0.00     0.000 C 
ENDROOT
BRANCH   1   2
ATOM      2  C   UNL     1      -1.675  -8.373 -40.069  1.00  0.00     0.000 C 
BRANCH   2   3
ATOM      3  C   UNL     1      -1.225  -9.626 -39.302  1.00  0.00     0.000 C 
BRANCH   3   4
ATOM      4  C   UNL     1      -0.208 -10.470 -40.090  1.00  0.00     0.006 C 
BRANCH   4   5
ATOM      5  C   UNL     1       0.533  -9.643 -41.150  1.00  0.00     0.053 C 
BRANCH   5   6
ATOM      6  C   UNL     1       1.426 -10.497 -41.998  1.00  0.00     0.041 C 
ATOM      7  O   UNL     1       0.930 -11.341 -42.789  1.00  0.00    -0.550 OA
ATOM      8  O   UNL     1       2.807 -10.381 -41.891  1.00  0.00    -0.550 OA
ENDBRANCH   5   6
ENDBRANCH   4   5
ENDBRANCH   3   4
ENDBRANCH   2   3
ENDBRANCH   1   2
BRANCH   1   9
ATOM      9  C   UNL     1      -3.308  -8.174 -41.990  1.00  0.00     0.000 C 
BRANCH   9  10
ATOM     10  C   UNL     1      -2.698  -9.319 -42.811  1.00  0.00    -0.000 C 
BRANCH  10  11
ATOM     11  C   UNL     1      -3.438 -10.655 -42.617  1.00  0.00    -0.000 C 
BRANCH  11  12
ATOM     12  C   UNL     1      -2.527 -11.885 -42.423  1.00  0.00    -0.000 C 
BRANCH  12  13
ATOM     13  C   UNL     1      -2.958 -12.840 -41.296  1.00  0.00    -0.003 C 
ATOM     14  C   UNL     1      -3.737 -12.137 -40.184  1.00  0.00     0.004 C 
ENDBRANCH  12  13
ENDBRANCH  11  12
ENDBRANCH  10  11
ENDBRANCH   9  10
ENDBRANCH   1   9
TORSDOF 10
ENDMDL
MODEL 7
REMARK VINA RESULT:    -3.676      4.025      6.494
REMARK INTER + INTRA:          -6.546
REMARK INTER:                  -5.720
REMARK INTRA:                  -0.826
REMARK UNBOUND:                -0.722
REMARK SMILES CCCCCCCCCCCC(=O)[O-]
REMARK SMILES IDX 7 1 8 2 9 3 10 4 11 5 12 6 13 7 14 8 6 9 5 10 4 11 3 12 2 13
REMARK SMILES IDX 1 14
REMARK H PARENT
REMARK Flexibility Score: inf
ROOT
ATOM      1  C   UNL     1      -0.996  -9.646 -39.196  1.00  0.00     0.000 C 
ENDROOT
BRANCH   1   2
ATOM      2  C   UNL     1      -1.362  -8.165 -39.381  1.00  0.00     0.000 C 
BRANCH   2   3
ATOM      3  C   UNL     1      -1.091  -7.326 -38.122  1.00  0.00     0.000 C 
BRANCH   3   4
ATOM      4  C   UNL     1      -0.346  -8.116 -37.033  1.00  0.00     0.006 C 
BRANCH   4   5
ATOM      5  C   UNL     1      -1.190  -8.288 -35.762  1.00  0.00     0.053 C 
BRANCH   5   6
ATOM      6  C   UNL     1      -0.968  -9.625 -35.123  1.00  0.00     0.041 C 
ATOM      7  O   UNL     1      -1.896 -10.181 -34.480  1.00  0.00    -0.550 OA
ATOM      8  O   UNL     1       0.275 -10.241 -35.212  1.00  0.00    -0.550 OA
ENDBRANCH   5   6
ENDBRANCH   4   5
ENDBRANCH   3   4
ENDBRANCH   2   3
ENDBRANCH   1   2
BRANCH   1   9
ATOM      9  C   UNL     1      -1.253 -10.439 -40.483  1.00  0.00     0.000 C 
BRANCH   9  10
ATOM     10  C   UNL     1      -1.002  -9.572 -41.724  1.00  0.00    -0.000 C 
BRANCH  10  11
ATOM     11  C   UNL     1       0.076 -10.155 -42.655  1.00  0.00    -0.000 C 
BRANCH  11  12
ATOM     12  C   UNL     1       1.486  -9.556 -42.479  1.00  0.00    -0.000 C 
BRANCH  12  13
ATOM     13  C   UNL     1       2.482 -10.451 -41.720  1.00  0.00    -0.003 C 
ATOM     14  C   UNL     1       2.040 -11.912 -41.655  1.00  0.00     0.004 C 
ENDBRANCH  12  13
ENDBRANCH  11  12
ENDBRANCH  10  11
ENDBRANCH   9  10
ENDBRANCH   1   9
TORSDOF 10
ENDMDL
MODEL 8
REMARK VINA RESULT:    -3.648      2.939      5.548
REMARK INTER + INTRA:          -6.502
REMARK INTER:                  -6.054
REMARK INTRA:                  -0.448
REMARK UNBOUND:                -0.722
REMARK SMILES CCCCCCCCCCCC(=O)[O-]
REMARK SMILES IDX 7 1 8 2 9 3 10 4 11 5 12 6 13 7 14 8 6 9 5 10 4 11 3 12 2 13
REMARK SMILES IDX 1 14
REMARK H PARENT
REMARK Flexibility Score: inf
ROOT
ATOM      1  C   UNL     1      -2.628  -8.792 -41.854  1.00  0.00     0.000 C 
ENDROOT
BRANCH   1   2
ATOM      2  C   UNL     1      -1.358  -9.050 -42.680  1.00  0.00     0.000 C 
BRANCH   2   3
ATOM      3  C   UNL     1      -0.196  -9.586 -41.829  1.00  0.00     0.000 C 
BRANCH   3   4
ATOM      4  C   UNL     1       1.170  -9.405 -42.513  1.00  0.00     0.006 C 
BRANCH   4   5
ATOM      5  C   UNL     1       2.262 -10.265 -41.863  1.00  0.00     0.053 C 
BRANCH   5   6
ATOM      6  C   UNL     1       2.190 -11.692 -42.313  1.00  0.00     0.041 C 
ATOM      7  O   UNL     1       2.054 -11.965 -43.534  1.00  0.00    -0.550 OA
ATOM      8  O   UNL     1       2.242 -12.720 -41.379  1.00  0.00    -0.550 OA
ENDBRANCH   5   6
ENDBRANCH   4   5
ENDBRANCH   3   4
ENDBRANCH   2   3
ENDBRANCH   1   2
BRANCH   1   9
ATOM      9  C   UNL     1      -3.674  -8.032 -42.679  1.00  0.00     0.000 C 
BRANCH   9  10
ATOM     10  C   UNL     1      -3.627  -8.456 -44.153  1.00  0.00    -0.000 C 
BRANCH  10  11
ATOM     11  C   UNL     1      -4.036  -7.326 -45.115  1.00  0.00    -0.000 C 
BRANCH  11  12
ATOM     12  C   UNL     1      -3.164  -7.196 -46.380  1.00  0.00    -0.000 C 
BRANCH  12  13
ATOM     13  C   UNL     1      -3.834  -7.671 -47.681  1.00  0.00    -0.003 C 
ATOM     14  C   UNL     1      -2.944  -8.600 -48.506  1.00  0.00     0.004 C 
ENDBRANCH  12  13
ENDBRANCH  11  12
ENDBRANCH  10  11
ENDBRANCH   9  10
ENDBRANCH   1   9
TORSDOF 10
ENDMDL
MODEL 9
REMARK VINA RESULT:    -3.639      2.731      4.799
REMARK INTER + INTRA:          -6.488
REMARK INTER:                  -5.638
REMARK INTRA:                  -0.849
REMARK UNBOUND:                -0.722
REMARK SMILES CCCCCCCCCCCC(=O)[O-]
REMARK SMILES IDX 7 1 8 2 9 3 10 4 11 5 12 6 13 7 14 8 6 9 5 10 4 11 3 12 2 13
REMARK SMILES IDX 1 14
REMARK H PARENT
REMARK Flexibility Score: inf
ROOT
ATOM      1  C   UNL     1      -2.193  -8.696 -42.549  1.00  0.00     0.000 C 
ENDROOT
BRANCH   1   2
ATOM      2  C   UNL     1      -2.036 -10.218 -42.403  1.00  0.00     0.000 C 
BRANCH   2   3
ATOM      3  C   UNL     1      -0.607 -10.632 -42.016  1.00  0.00     0.000 C 
BRANCH   3   4
ATOM      4  C   UNL     1       0.436  -9.555 -42.362  1.00  0.00     0.006 C 
BRANCH   4   5
ATOM      5  C   UNL     1       1.865 -10.113 -42.371  1.00  0.00     0.053 C 
BRANCH   5   6
ATOM      6  C   UNL     1       2.132 -10.944 -43.588  1.00  0.00     0.041 C 
ATOM      7  O   UNL     1       2.231 -12.195 -43.492  1.00  0.00    -0.550 OA
ATOM      8  O   UNL     1       2.301 -10.333 -44.825  1.00  0.00    -0.550 OA
ENDBRANCH   5   6
ENDBRANCH   4   5
ENDBRANCH   3   4
ENDBRANCH   2   3
ENDBRANCH   1   2
BRANCH   1   9
ATOM      9  C   UNL     1      -3.616  -8.331 -42.988  1.00  0.00     0.000 C 
BRANCH   9  10
ATOM     10  C   UNL     1      -3.669  -8.037 -44.494  1.00  0.00    -0.000 C 
BRANCH  10  11
ATOM     11  C   UNL     1      -4.877  -8.691 -45.189  1.00  0.00    -0.000 C 
BRANCH  11  12
ATOM     12  C   UNL     1      -5.865  -9.408 -44.247  1.00  0.00    -0.000 C 
BRANCH  12  13
ATOM     13  C   UNL     1      -5.957 -10.932 -44.441  1.00  0.00    -0.003 C 
ATOM     14  C   UNL     1      -5.288 -11.717 -43.313  1.00  0.00     0.004 C 
ENDBRANCH  12  13
ENDBRANCH  11  12
ENDBRANCH  10  11
ENDBRANCH   9  10
ENDBRANCH   1   9
TORSDOF 10
ENDMDL
