MODEL 1
REMARK VINA RESULT:    -5.171      0.000      0.000
REMARK INTER + INTRA:          -5.322
REMARK INTER:                  -5.322
REMARK INTRA:                   0.000
REMARK UNBOUND:                 0.000
REMARK SMILES O=c1ccc2ccc(O)cc2o1
REMARK SMILES IDX 6 1 7 2 8 3 10 4 11 5 5 6 4 7 3 8 2 9 1 10 12 11 9 12
REMARK H PARENT 9 13
REMARK Flexibility Score: inf
ROOT
ATOM      1  C   UNL     1      49.007  13.281  18.133  1.00  0.00     0.016 A 
ATOM      2  C   UNL     1      48.854  14.024  19.308  1.00  0.00     0.047 A 
ATOM      3  C   UNL     1      49.272  15.363  19.358  1.00  0.00     0.119 A 
ATOM      4  C   UNL     1      49.844  15.958  18.229  1.00  0.00     0.094 A 
ATOM      5  C   UNL     1      50.001  15.222  17.048  1.00  0.00     0.142 A 
ATOM      6  C   UNL     1      49.579  13.875  17.000  1.00  0.00     0.018 A 
ATOM      7  C   UNL     1      49.749  13.166  15.807  1.00  0.00     0.019 A 
ATOM      8  C   UNL     1      50.324  13.803  14.709  1.00  0.00     0.094 A 
ATOM      9  C   UNL     1      50.718  15.140  14.829  1.00  0.00     0.336 A 
ATOM     10  O   UNL     1      51.238  15.733  13.848  1.00  0.00    -0.246 OA
ATOM     11  O   UNL     1      50.545  15.793  15.976  1.00  0.00    -0.423 OA
ENDROOT
BRANCH   3  12
ATOM     12  O   UNL     1      49.123  16.108  20.526  1.00  0.00    -0.508 OA
ATOM     13  H   UNL     1      49.024  15.662  21.431  1.00  0.00     0.293 HD
ENDBRANCH   3  12
TORSDOF 1
ENDMDL
MODEL 2
REMARK VINA RESULT:    -5.051     17.471     18.252
REMARK INTER + INTRA:          -5.198
REMARK INTER:                  -5.198
REMARK INTRA:                   0.000
REMARK UNBOUND:                 0.000
REMARK SMILES O=c1ccc2ccc(O)cc2o1
REMARK SMILES IDX 6 1 7 2 8 3 10 4 11 5 5 6 4 7 3 8 2 9 1 10 12 11 9 12
REMARK H PARENT 9 13
REMARK Flexibility Score: inf
ROOT
ATOM      1  C   UNL     1      58.480  -3.279  17.470  1.00  0.00     0.016 A 
ATOM      2  C   UNL     1      57.852  -3.248  18.719  1.00  0.00     0.047 A 
ATOM      3  C   UNL     1      57.444  -2.027  19.276  1.00  0.00     0.119 A 
ATOM      4  C   UNL     1      57.668  -0.833  18.581  1.00  0.00     0.094 A 
ATOM      5  C   UNL     1      58.296  -0.854  17.330  1.00  0.00     0.142 A 
ATOM      6  C   UNL     1      58.705  -2.085  16.771  1.00  0.00     0.018 A 
ATOM      7  C   UNL     1      59.331  -2.074  15.521  1.00  0.00     0.019 A 
ATOM      8  C   UNL     1      59.530  -0.859  14.867  1.00  0.00     0.094 A 
ATOM      9  C   UNL     1      59.099   0.322  15.481  1.00  0.00     0.336 A 
ATOM     10  O   UNL     1      59.270   1.428  14.907  1.00  0.00    -0.246 OA
ATOM     11  O   UNL     1      58.506   0.284  16.672  1.00  0.00    -0.423 OA
ENDROOT
BRANCH   3  12
ATOM     12  O   UNL     1      56.818  -1.989  20.520  1.00  0.00    -0.508 OA
ATOM     13  H   UNL     1      56.229  -1.211  20.794  1.00  0.00     0.293 HD
ENDBRANCH   3  12
TORSDOF 1
ENDMDL
MODEL 3
REMARK VINA RESULT:    -4.900      2.895      4.125
REMARK INTER + INTRA:          -5.043
REMARK INTER:                  -5.043
REMARK INTRA:                   0.000
REMARK UNBOUND:                 0.000
REMARK SMILES O=c1ccc2ccc(O)cc2o1
REMARK SMILES IDX 6 1 7 2 8 3 10 4 11 5 5 6 4 7 3 8 2 9 1 10 12 11 9 12
REMARK H PARENT 9 13
REMARK Flexibility Score: inf
ROOT
ATOM      1  C   UNL     1      50.494  16.125  14.766  1.00  0.00     0.016 A 
ATOM      2  C   UNL     1      49.354  15.603  15.386  1.00  0.00     0.047 A 
ATOM      3  C   UNL     1      49.174  14.214  15.481  1.00  0.00     0.119 A 
ATOM      4  C   UNL     1      50.136  13.348  14.952  1.00  0.00     0.094 A 
ATOM      5  C   UNL     1      51.280  13.861  14.329  1.00  0.00     0.142 A 
ATOM      6  C   UNL     1      51.459  15.259  14.236  1.00  0.00     0.018 A 
ATOM      7  C   UNL     1      52.612  15.742  13.607  1.00  0.00     0.019 A 
ATOM      8  C   UNL     1      53.542  14.838  13.096  1.00  0.00     0.094 A 
ATOM      9  C   UNL     1      53.298  13.466  13.225  1.00  0.00     0.336 A 
ATOM     10  O   UNL     1      54.126  12.635  12.771  1.00  0.00    -0.246 OA
ATOM     11  O   UNL     1      52.193  13.032  13.828  1.00  0.00    -0.423 OA
ENDROOT
BRANCH   3  12
ATOM     12  O   UNL     1      48.041  13.688  16.098  1.00  0.00    -0.508 OA
ATOM     13  H   UNL     1      47.979  13.600  17.106  1.00  0.00     0.293 HD
ENDBRANCH   3  12
TORSDOF 1
ENDMDL
MODEL 4
REMARK VINA RESULT:    -4.808      9.473     10.634
REMARK INTER + INTRA:          -4.948
REMARK INTER:                  -4.948
REMARK INTRA:                   0.000
REMARK UNBOUND:                 0.000
REMARK SMILES O=c1ccc2ccc(O)cc2o1
REMARK SMILES IDX 6 1 7 2 8 3 10 4 11 5 5 6 4 7 3 8 2 9 1 10 12 11 9 12
REMARK H PARENT 9 13
REMARK Flexibility Score: inf
ROOT
ATOM      1  C   UNL     1      50.225   3.722  20.906  1.00  0.00     0.016 A 
ATOM      2  C   UNL     1      50.943   2.673  20.323  1.00  0.00     0.047 A 
ATOM      3  C   UNL     1      51.874   2.932  19.306  1.00  0.00     0.119 A 
ATOM      4  C   UNL     1      52.085   4.245  18.871  1.00  0.00     0.094 A 
ATOM      5  C   UNL     1      51.370   5.302  19.448  1.00  0.00     0.142 A 
ATOM      6  C   UNL     1      50.435   5.038  20.473  1.00  0.00     0.018 A 
ATOM      7  C   UNL     1      49.736   6.114  21.029  1.00  0.00     0.019 A 
ATOM      8  C   UNL     1      49.982   7.405  20.562  1.00  0.00     0.094 A 
ATOM      9  C   UNL     1      50.923   7.590  19.544  1.00  0.00     0.336 A 
ATOM     10  O   UNL     1      51.159   8.747  19.110  1.00  0.00    -0.246 OA
ATOM     11  O   UNL     1      51.575   6.550  19.031  1.00  0.00    -0.423 OA
ENDROOT
BRANCH   3  12
ATOM     12  O   UNL     1      52.592   1.892  18.721  1.00  0.00    -0.508 OA
ATOM     13  H   UNL     1      52.533   1.699  17.727  1.00  0.00     0.293 HD
ENDBRANCH   3  12
TORSDOF 1
ENDMDL
MODEL 5
REMARK VINA RESULT:    -4.798     12.770     13.719
REMARK INTER + INTRA:          -4.938
REMARK INTER:                  -4.938
REMARK INTRA:                   0.000
REMARK UNBOUND:                 0.000
REMARK SMILES O=c1ccc2ccc(O)cc2o1
REMARK SMILES IDX 6 1 7 2 8 3 10 4 11 5 5 6 4 7 3 8 2 9 1 10 12 11 9 12
REMARK H PARENT 9 13
REMARK Flexibility Score: inf
ROOT
ATOM      1  C   UNL     1      49.535   2.038  20.538  1.00  0.00     0.016 A 
ATOM      2  C   UNL     1      49.114   1.230  21.599  1.00  0.00     0.047 A 
ATOM      3  C   UNL     1      50.048   0.718  22.512  1.00  0.00     0.119 A 
ATOM      4  C   UNL     1      51.407   1.014  22.361  1.00  0.00     0.094 A 
ATOM      5  C   UNL     1      51.838   1.822  21.302  1.00  0.00     0.142 A 
ATOM      6  C   UNL     1      50.896   2.337  20.385  1.00  0.00     0.018 A 
ATOM      7  C   UNL     1      51.357   3.140  19.337  1.00  0.00     0.019 A 
ATOM      8  C   UNL     1      52.721   3.407  19.229  1.00  0.00     0.094 A 
ATOM      9  C   UNL     1      53.596   2.863  20.175  1.00  0.00     0.336 A 
ATOM     10  O   UNL     1      54.831   3.093  20.095  1.00  0.00    -0.246 OA
ATOM     11  O   UNL     1      53.132   2.101  21.163  1.00  0.00    -0.423 OA
ENDROOT
BRANCH   3  12
ATOM     12  O   UNL     1      49.634  -0.088  23.571  1.00  0.00    -0.508 OA
ATOM     13  H   UNL     1      49.991  -1.029  23.692  1.00  0.00     0.293 HD
ENDBRANCH   3  12
TORSDOF 1
ENDMDL
MODEL 6
REMARK VINA RESULT:    -4.756      6.609      8.149
REMARK INTER + INTRA:          -4.895
REMARK INTER:                  -4.895
REMARK INTRA:                   0.000
REMARK UNBOUND:                 0.000
REMARK SMILES O=c1ccc2ccc(O)cc2o1
REMARK SMILES IDX 6 1 7 2 8 3 10 4 11 5 5 6 4 7 3 8 2 9 1 10 12 11 9 12
REMARK H PARENT 9 13
REMARK Flexibility Score: inf
ROOT
ATOM      1  C   UNL     1      51.008   7.547  19.888  1.00  0.00     0.016 A 
ATOM      2  C   UNL     1      51.258   7.474  18.514  1.00  0.00     0.047 A 
ATOM      3  C   UNL     1      50.326   7.982  17.596  1.00  0.00     0.119 A 
ATOM      4  C   UNL     1      49.140   8.565  18.056  1.00  0.00     0.094 A 
ATOM      5  C   UNL     1      48.881   8.643  19.430  1.00  0.00     0.142 A 
ATOM      6  C   UNL     1      49.821   8.131  20.351  1.00  0.00     0.018 A 
ATOM      7  C   UNL     1      49.533   8.223  21.717  1.00  0.00     0.019 A 
ATOM      8  C   UNL     1      48.338   8.813  22.126  1.00  0.00     0.094 A 
ATOM      9  C   UNL     1      47.454   9.299  21.156  1.00  0.00     0.336 A 
ATOM     10  O   UNL     1      46.371   9.835  21.505  1.00  0.00    -0.246 OA
ATOM     11  O   UNL     1      47.751   9.199  19.863  1.00  0.00    -0.423 OA
ENDROOT
BRANCH   3  12
ATOM     12  O   UNL     1      50.570   7.911  16.226  1.00  0.00    -0.508 OA
ATOM     13  H   UNL     1      50.528   8.735  15.637  1.00  0.00     0.293 HD
ENDBRANCH   3  12
TORSDOF 1
ENDMDL
MODEL 7
REMARK VINA RESULT:    -4.752     12.618     13.964
REMARK INTER + INTRA:          -4.891
REMARK INTER:                  -4.891
REMARK INTRA:                   0.000
REMARK UNBOUND:                 0.000
REMARK SMILES O=c1ccc2ccc(O)cc2o1
REMARK SMILES IDX 6 1 7 2 8 3 10 4 11 5 5 6 4 7 3 8 2 9 1 10 12 11 9 12
REMARK H PARENT 9 13
REMARK Flexibility Score: inf
ROOT
ATOM      1  C   UNL     1      51.282   3.463  19.258  1.00  0.00     0.016 A 
ATOM      2  C   UNL     1      52.660   3.671  19.146  1.00  0.00     0.047 A 
ATOM      3  C   UNL     1      53.552   2.962  19.964  1.00  0.00     0.119 A 
ATOM      4  C   UNL     1      53.062   2.042  20.898  1.00  0.00     0.094 A 
ATOM      5  C   UNL     1      51.684   1.827  21.018  1.00  0.00     0.142 A 
ATOM      6  C   UNL     1      50.788   2.542  20.192  1.00  0.00     0.018 A 
ATOM      7  C   UNL     1      49.417   2.306  20.336  1.00  0.00     0.019 A 
ATOM      8  C   UNL     1      48.978   1.379  21.280  1.00  0.00     0.094 A 
ATOM      9  C   UNL     1      49.923   0.708  22.063  1.00  0.00     0.336 A 
ATOM     10  O   UNL     1      49.546  -0.132  22.921  1.00  0.00    -0.246 OA
ATOM     11  O   UNL     1      51.222   0.951  21.907  1.00  0.00    -0.423 OA
ENDROOT
BRANCH   3  12
ATOM     12  O   UNL     1      54.927   3.165  19.857  1.00  0.00    -0.508 OA
ATOM     13  H   UNL     1      55.592   2.473  20.183  1.00  0.00     0.293 HD
ENDBRANCH   3  12
TORSDOF 1
ENDMDL
MODEL 8
REMARK VINA RESULT:    -4.730      6.714      7.189
REMARK INTER + INTRA:          -4.868
REMARK INTER:                  -4.868
REMARK INTRA:                   0.000
REMARK UNBOUND:                 0.000
REMARK SMILES O=c1ccc2ccc(O)cc2o1
REMARK SMILES IDX 6 1 7 2 8 3 10 4 11 5 5 6 4 7 3 8 2 9 1 10 12 11 9 12
REMARK H PARENT 9 13
REMARK Flexibility Score: inf
ROOT
ATOM      1  C   UNL     1      49.615   8.237  21.883  1.00  0.00     0.016 A 
ATOM      2  C   UNL     1      48.400   8.602  22.472  1.00  0.00     0.047 A 
ATOM      3  C   UNL     1      47.305   8.964  21.671  1.00  0.00     0.119 A 
ATOM      4  C   UNL     1      47.429   8.961  20.278  1.00  0.00     0.094 A 
ATOM      5  C   UNL     1      48.642   8.597  19.679  1.00  0.00     0.142 A 
ATOM      6  C   UNL     1      49.741   8.233  20.488  1.00  0.00     0.018 A 
ATOM      7  C   UNL     1      50.939   7.875  19.861  1.00  0.00     0.019 A 
ATOM      8  C   UNL     1      51.013   7.887  18.469  1.00  0.00     0.094 A 
ATOM      9  C   UNL     1      49.883   8.259  17.732  1.00  0.00     0.336 A 
ATOM     10  O   UNL     1      49.930   8.276  16.475  1.00  0.00    -0.246 OA
ATOM     11  O   UNL     1      48.754   8.595  18.353  1.00  0.00    -0.423 OA
ENDROOT
BRANCH   3  12
ATOM     12  O   UNL     1      46.092   9.329  22.252  1.00  0.00    -0.508 OA
ATOM     13  H   UNL     1      46.034   9.613  23.223  1.00  0.00     0.293 HD
ENDBRANCH   3  12
TORSDOF 1
ENDMDL
MODEL 9
REMARK VINA RESULT:    -4.684      0.860      4.221
REMARK INTER + INTRA:          -4.821
REMARK INTER:                  -4.821
REMARK INTRA:                   0.000
REMARK UNBOUND:                 0.000
REMARK SMILES O=c1ccc2ccc(O)cc2o1
REMARK SMILES IDX 6 1 7 2 8 3 10 4 11 5 5 6 4 7 3 8 2 9 1 10 12 11 9 12
REMARK H PARENT 9 13
REMARK Flexibility Score: inf
ROOT
ATOM      1  C   UNL     1      50.214  13.226  15.686  1.00  0.00     0.016 A 
ATOM      2  C   UNL     1      50.725  13.978  14.624  1.00  0.00     0.047 A 
ATOM      3  C   UNL     1      50.868  15.369  14.746  1.00  0.00     0.119 A 
ATOM      4  C   UNL     1      50.498  16.007  15.935  1.00  0.00     0.094 A 
ATOM      5  C   UNL     1      49.985  15.262  17.004  1.00  0.00     0.142 A 
ATOM      6  C   UNL     1      49.843  13.862  16.878  1.00  0.00     0.018 A 
ATOM      7  C   UNL     1      49.327  13.146  17.962  1.00  0.00     0.019 A 
ATOM      8  C   UNL     1      48.973  13.827  19.126  1.00  0.00     0.094 A 
ATOM      9  C   UNL     1      49.142  15.214  19.179  1.00  0.00     0.336 A 
ATOM     10  O   UNL     1      48.828  15.847  20.221  1.00  0.00    -0.246 OA
ATOM     11  O   UNL     1      49.635  15.873  18.133  1.00  0.00    -0.423 OA
ENDROOT
BRANCH   3  12
ATOM     12  O   UNL     1      51.377  16.124  13.691  1.00  0.00    -0.508 OA
ATOM     13  H   UNL     1      50.769  16.532  12.990  1.00  0.00     0.293 HD
ENDBRANCH   3  12
TORSDOF 1
ENDMDL
