MODEL 1
REMARK VINA RESULT:    -6.723      0.000      0.000
REMARK INTER + INTRA:          -7.611
REMARK INTER:                  -7.312
REMARK INTRA:                  -0.298
REMARK UNBOUND:                -0.298
REMARK SMILES C[C@H]1[C@@H](C)CC[C@@]2(C(=O)[O-])CC[C@@]3(C)C(=CC[C@@H]4[C@]5(C)CC[C@H](O)C(C)(C)[C@@H]5CC[C@@]43C)[C@@H]12
REMARK SMILES IDX 7 1 6 2 11 3 33 4 5 5 12 6 15 7 2 8 3 9 13 10 16 11 1 12
REMARK SMILES IDX 4 13 14 14 31 15 17 16 18 17 30 18 32 19 19 20 29 21 28 22
REMARK SMILES IDX 21 23 20 24 25 25 22 26 23 27 26 28 27 29 8 30 9 31 10 32
REMARK SMILES IDX 24 33
REMARK H PARENT 24 34
REMARK Flexibility Score: inf
ROOT
ATOM      1  C   UNL     1      52.242  40.016  47.187  1.00  0.00     0.017 C 
ATOM      2  C   UNL     1      53.294  38.974  46.675  1.00  0.00     0.014 C 
ATOM      3  C   UNL     1      51.295  39.252  48.179  1.00  0.00     0.014 C 
ATOM      4  C   UNL     1      52.954  41.302  47.812  1.00  0.00     0.030 C 
ATOM      5  C   UNL     1      54.444  39.531  45.809  1.00  0.00     0.004 C 
ATOM      6  C   UNL     1      50.774  40.068  49.372  1.00  0.00     0.013 C 
ATOM      7  C   UNL     1      52.555  41.722  49.242  1.00  0.00    -0.063 C 
ATOM      8  C   UNL     1      54.485  41.443  47.523  1.00  0.00    -0.003 C 
ATOM      9  C   UNL     1      54.771  41.014  46.063  1.00  0.00    -0.011 C 
ATOM     10  C   UNL     1      51.908  40.730  50.219  1.00  0.00    -0.006 C 
ATOM     11  C   UNL     1      52.541  43.051  49.470  1.00  0.00    -0.027 C 
ATOM     12  C   UNL     1      55.408  40.768  48.556  1.00  0.00     0.008 C 
ATOM     13  C   UNL     1      56.202  41.349  45.610  1.00  0.00     0.008 C 
ATOM     14  C   UNL     1      52.957  39.634  50.603  1.00  0.00     0.017 C 
ATOM     15  C   UNL     1      51.332  41.433  51.572  1.00  0.00    -0.020 C 
ATOM     16  C   UNL     1      51.769  43.727  50.553  1.00  0.00     0.032 C 
ATOM     17  C   UNL     1      50.697  42.831  51.232  1.00  0.00     0.006 C 
ATOM     18  C   UNL     1      52.453  41.688  52.634  1.00  0.00     0.008 C 
ATOM     19  C   UNL     1      50.294  40.465  52.225  1.00  0.00     0.012 C 
ATOM     20  C   UNL     1      49.969  43.559  52.470  1.00  0.00    -0.025 C 
ATOM     21  C   UNL     1      52.211  42.832  53.652  1.00  0.00     0.005 C 
ATOM     22  C   UNL     1      50.742  43.315  53.844  1.00  0.00     0.003 C 
ATOM     23  C   UNL     1      49.837  45.096  52.212  1.00  0.00     0.010 C 
ATOM     24  C   UNL     1      48.497  43.003  52.550  1.00  0.00     0.012 C 
ATOM     25  C   UNL     1      50.633  44.486  54.928  1.00  0.00    -0.006 C 
ATOM     26  C   UNL     1      49.167  45.900  53.346  1.00  0.00     0.033 C 
ATOM     27  C   UNL     1      49.294  45.263  54.743  1.00  0.00     0.120 C 
ATOM     28  C   UNL     1      51.826  45.487  54.890  1.00  0.00     0.014 C 
ATOM     29  C   UNL     1      50.624  43.858  56.351  1.00  0.00     0.014 C 
ENDROOT
BRANCH   1  30
ATOM     30  C   UNL     1      51.366  40.464  46.010  1.00  0.00     0.048 C 
ATOM     31  O   UNL     1      51.276  41.677  45.680  1.00  0.00    -0.550 OA
ATOM     32  O   UNL     1      50.594  39.528  45.325  1.00  0.00    -0.550 OA
ENDBRANCH   1  30
BRANCH  27  33
ATOM     33  O   UNL     1      49.158  46.282  55.708  1.00  0.00    -0.393 OA
ATOM     34  H   UNL     1      48.630  45.913  56.465  1.00  0.00     0.210 HD
ENDBRANCH  27  33
TORSDOF 2
ENDMDL
MODEL 2
REMARK VINA RESULT:    -6.523      9.163     11.724
REMARK INTER + INTRA:          -7.393
REMARK INTER:                  -7.105
REMARK INTRA:                  -0.288
REMARK UNBOUND:                -0.298
REMARK SMILES C[C@H]1[C@@H](C)CC[C@@]2(C(=O)[O-])CC[C@@]3(C)C(=CC[C@@H]4[C@]5(C)CC[C@H](O)C(C)(C)[C@@H]5CC[C@@]43C)[C@@H]12
REMARK SMILES IDX 7 1 6 2 11 3 33 4 5 5 12 6 15 7 2 8 3 9 13 10 16 11 1 12
REMARK SMILES IDX 4 13 14 14 31 15 17 16 18 17 30 18 32 19 19 20 29 21 28 22
REMARK SMILES IDX 21 23 20 24 25 25 22 26 23 27 26 28 27 29 8 30 9 31 10 32
REMARK SMILES IDX 24 33
REMARK H PARENT 24 34
REMARK Flexibility Score: inf
ROOT
ATOM      1  C   UNL     1      46.503  36.040  54.942  1.00  0.00     0.017 C 
ATOM      2  C   UNL     1      47.553  35.412  53.964  1.00  0.00     0.014 C 
ATOM      3  C   UNL     1      46.670  37.598  54.846  1.00  0.00     0.014 C 
ATOM      4  C   UNL     1      45.027  35.515  54.629  1.00  0.00     0.030 C 
ATOM      5  C   UNL     1      47.467  33.884  53.756  1.00  0.00     0.004 C 
ATOM      6  C   UNL     1      45.382  38.422  54.987  1.00  0.00     0.013 C 
ATOM      7  C   UNL     1      43.923  36.567  54.393  1.00  0.00    -0.063 C 
ATOM      8  C   UNL     1      44.931  34.282  53.670  1.00  0.00    -0.003 C 
ATOM      9  C   UNL     1      46.070  33.286  54.002  1.00  0.00    -0.011 C 
ATOM     10  C   UNL     1      44.261  38.006  53.980  1.00  0.00    -0.006 C 
ATOM     11  C   UNL     1      42.698  36.228  54.846  1.00  0.00    -0.027 C 
ATOM     12  C   UNL     1      44.832  34.627  52.172  1.00  0.00     0.008 C 
ATOM     13  C   UNL     1      45.914  31.936  53.284  1.00  0.00     0.008 C 
ATOM     14  C   UNL     1      44.858  37.996  52.534  1.00  0.00     0.017 C 
ATOM     15  C   UNL     1      42.982  39.015  54.037  1.00  0.00    -0.020 C 
ATOM     16  C   UNL     1      41.610  37.194  55.173  1.00  0.00     0.032 C 
ATOM     17  C   UNL     1      42.072  38.673  55.273  1.00  0.00     0.006 C 
ATOM     18  C   UNL     1      42.079  38.902  52.762  1.00  0.00     0.008 C 
ATOM     19  C   UNL     1      43.514  40.482  54.093  1.00  0.00     0.012 C 
ATOM     20  C   UNL     1      40.849  39.693  55.512  1.00  0.00    -0.025 C 
ATOM     21  C   UNL     1      40.590  39.306  52.916  1.00  0.00     0.005 C 
ATOM     22  C   UNL     1      40.218  40.200  54.137  1.00  0.00     0.003 C 
ATOM     23  C   UNL     1      39.734  39.030  56.384  1.00  0.00     0.010 C 
ATOM     24  C   UNL     1      41.398  40.905  56.356  1.00  0.00     0.012 C 
ATOM     25  C   UNL     1      38.658  40.554  54.169  1.00  0.00    -0.006 C 
ATOM     26  C   UNL     1      38.500  39.915  56.663  1.00  0.00     0.033 C 
ATOM     27  C   UNL     1      38.241  41.002  55.602  1.00  0.00     0.120 C 
ATOM     28  C   UNL     1      37.743  39.383  53.701  1.00  0.00     0.014 C 
ATOM     29  C   UNL     1      38.389  41.742  53.202  1.00  0.00     0.014 C 
ENDROOT
BRANCH   1  30
ATOM     30  C   UNL     1      46.865  35.654  56.382  1.00  0.00     0.048 C 
ATOM     31  O   UNL     1      47.965  35.990  56.897  1.00  0.00    -0.550 OA
ATOM     32  O   UNL     1      45.998  34.856  57.125  1.00  0.00    -0.550 OA
ENDBRANCH   1  30
BRANCH  27  33
ATOM     33  O   UNL     1      36.875  41.350  55.650  1.00  0.00    -0.393 OA
ATOM     34  H   UNL     1      36.754  42.000  56.391  1.00  0.00     0.210 HD
ENDBRANCH  27  33
TORSDOF 2
ENDMDL
MODEL 3
REMARK VINA RESULT:    -6.508      7.148      9.744
REMARK INTER + INTRA:          -7.377
REMARK INTER:                  -7.133
REMARK INTRA:                  -0.244
REMARK UNBOUND:                -0.298
REMARK SMILES C[C@H]1[C@@H](C)CC[C@@]2(C(=O)[O-])CC[C@@]3(C)C(=CC[C@@H]4[C@]5(C)CC[C@H](O)C(C)(C)[C@@H]5CC[C@@]43C)[C@@H]12
REMARK SMILES IDX 7 1 6 2 11 3 33 4 5 5 12 6 15 7 2 8 3 9 13 10 16 11 1 12
REMARK SMILES IDX 4 13 14 14 31 15 17 16 18 17 30 18 32 19 19 20 29 21 28 22
REMARK SMILES IDX 21 23 20 24 25 25 22 26 23 27 26 28 27 29 8 30 9 31 10 32
REMARK SMILES IDX 24 33
REMARK H PARENT 24 34
REMARK Flexibility Score: inf
ROOT
ATOM      1  C   UNL     1      50.907  29.890  49.118  1.00  0.00     0.017 C 
ATOM      2  C   UNL     1      50.995  28.810  47.986  1.00  0.00     0.014 C 
ATOM      3  C   UNL     1      52.381  30.318  49.449  1.00  0.00     0.014 C 
ATOM      4  C   UNL     1      49.948  31.096  48.699  1.00  0.00     0.030 C 
ATOM      5  C   UNL     1      49.654  28.354  47.370  1.00  0.00     0.004 C 
ATOM      6  C   UNL     1      52.583  31.791  49.834  1.00  0.00     0.013 C 
ATOM      7  C   UNL     1      50.516  32.529  48.781  1.00  0.00    -0.063 C 
ATOM      8  C   UNL     1      49.050  30.850  47.442  1.00  0.00    -0.003 C 
ATOM      9  C   UNL     1      48.523  29.395  47.468  1.00  0.00    -0.011 C 
ATOM     10  C   UNL     1      52.028  32.795  48.772  1.00  0.00    -0.006 C 
ATOM     11  C   UNL     1      49.632  33.480  49.146  1.00  0.00    -0.027 C 
ATOM     12  C   UNL     1      49.688  31.250  46.097  1.00  0.00     0.008 C 
ATOM     13  C   UNL     1      47.438  29.132  46.410  1.00  0.00     0.008 C 
ATOM     14  C   UNL     1      52.605  32.417  47.368  1.00  0.00     0.017 C 
ATOM     15  C   UNL     1      52.418  34.338  49.126  1.00  0.00    -0.020 C 
ATOM     16  C   UNL     1      49.990  34.798  49.745  1.00  0.00     0.032 C 
ATOM     17  C   UNL     1      51.459  34.902  50.237  1.00  0.00     0.006 C 
ATOM     18  C   UNL     1      52.283  35.285  47.885  1.00  0.00     0.008 C 
ATOM     19  C   UNL     1      53.914  34.377  49.572  1.00  0.00     0.012 C 
ATOM     20  C   UNL     1      51.836  36.374  50.769  1.00  0.00    -0.025 C 
ATOM     21  C   UNL     1      52.031  36.787  48.171  1.00  0.00     0.005 C 
ATOM     22  C   UNL     1      52.382  37.309  49.597  1.00  0.00     0.003 C 
ATOM     23  C   UNL     1      50.602  37.054  51.446  1.00  0.00     0.010 C 
ATOM     24  C   UNL     1      52.918  36.209  51.902  1.00  0.00     0.012 C 
ATOM     25  C   UNL     1      52.087  38.874  49.752  1.00  0.00    -0.006 C 
ATOM     26  C   UNL     1      50.845  38.483  51.979  1.00  0.00     0.033 C 
ATOM     27  C   UNL     1      51.972  39.249  51.261  1.00  0.00     0.120 C 
ATOM     28  C   UNL     1      50.807  39.346  48.999  1.00  0.00     0.014 C 
ATOM     29  C   UNL     1      53.277  39.675  49.153  1.00  0.00     0.014 C 
ENDROOT
BRANCH   1  30
ATOM     30  C   UNL     1      50.350  29.239  50.391  1.00  0.00     0.048 C 
ATOM     31  O   UNL     1      49.172  29.458  50.781  1.00  0.00    -0.550 OA
ATOM     32  O   UNL     1      51.174  28.439  51.178  1.00  0.00    -0.550 OA
ENDBRANCH   1  30
BRANCH  27  33
ATOM     33  O   UNL     1      51.743  40.630  51.427  1.00  0.00    -0.393 OA
ATOM     34  H   UNL     1      51.641  41.031  50.524  1.00  0.00     0.210 HD
ENDBRANCH  27  33
TORSDOF 2
ENDMDL
MODEL 4
REMARK VINA RESULT:    -6.507      1.816      3.435
REMARK INTER + INTRA:          -7.376
REMARK INTER:                  -7.075
REMARK INTRA:                  -0.301
REMARK UNBOUND:                -0.298
REMARK SMILES C[C@H]1[C@@H](C)CC[C@@]2(C(=O)[O-])CC[C@@]3(C)C(=CC[C@@H]4[C@]5(C)CC[C@H](O)C(C)(C)[C@@H]5CC[C@@]43C)[C@@H]12
REMARK SMILES IDX 7 1 6 2 11 3 33 4 5 5 12 6 15 7 2 8 3 9 13 10 16 11 1 12
REMARK SMILES IDX 4 13 14 14 31 15 17 16 18 17 30 18 32 19 19 20 29 21 28 22
REMARK SMILES IDX 21 23 20 24 25 25 22 26 23 27 26 28 27 29 8 30 9 31 10 32
REMARK SMILES IDX 24 33
REMARK H PARENT 24 34
REMARK Flexibility Score: inf
ROOT
ATOM      1  C   UNL     1      53.618  41.152  47.385  1.00  0.00     0.017 C 
ATOM      2  C   UNL     1      53.209  40.609  45.973  1.00  0.00     0.014 C 
ATOM      3  C   UNL     1      53.308  42.691  47.384  1.00  0.00     0.014 C 
ATOM      4  C   UNL     1      52.899  40.335  48.554  1.00  0.00     0.030 C 
ATOM      5  C   UNL     1      53.265  39.077  45.787  1.00  0.00     0.004 C 
ATOM      6  C   UNL     1      52.828  43.281  48.719  1.00  0.00     0.013 C 
ATOM      7  C   UNL     1      52.099  41.134  49.604  1.00  0.00    -0.063 C 
ATOM      8  C   UNL     1      52.209  38.997  48.127  1.00  0.00    -0.003 C 
ATOM      9  C   UNL     1      53.100  38.271  47.089  1.00  0.00    -0.011 C 
ATOM     10  C   UNL     1      51.581  42.549  49.312  1.00  0.00    -0.006 C 
ATOM     11  C   UNL     1      52.139  40.638  50.858  1.00  0.00    -0.027 C 
ATOM     12  C   UNL     1      50.738  39.133  47.689  1.00  0.00     0.008 C 
ATOM     13  C   UNL     1      52.630  36.837  46.794  1.00  0.00     0.008 C 
ATOM     14  C   UNL     1      50.470  42.470  48.213  1.00  0.00     0.017 C 
ATOM     15  C   UNL     1      50.994  43.310  50.629  1.00  0.00    -0.020 C 
ATOM     16  C   UNL     1      51.876  41.424  52.098  1.00  0.00     0.032 C 
ATOM     17  C   UNL     1      51.864  42.964  51.892  1.00  0.00     0.006 C 
ATOM     18  C   UNL     1      49.524  42.881  50.958  1.00  0.00     0.008 C 
ATOM     19  C   UNL     1      50.970  44.844  50.341  1.00  0.00     0.012 C 
ATOM     20  C   UNL     1      51.463  43.768  53.228  1.00  0.00    -0.025 C 
ATOM     21  C   UNL     1      49.061  43.026  52.430  1.00  0.00     0.005 C 
ATOM     22  C   UNL     1      49.886  43.981  53.345  1.00  0.00     0.003 C 
ATOM     23  C   UNL     1      51.984  43.027  54.502  1.00  0.00     0.010 C 
ATOM     24  C   UNL     1      52.213  45.153  53.193  1.00  0.00     0.012 C 
ATOM     25  C   UNL     1      49.295  44.049  54.829  1.00  0.00    -0.006 C 
ATOM     26  C   UNL     1      51.639  43.702  55.847  1.00  0.00     0.033 C 
ATOM     27  C   UNL     1      50.378  44.586  55.812  1.00  0.00     0.120 C 
ATOM     28  C   UNL     1      48.751  42.684  55.348  1.00  0.00     0.014 C 
ATOM     29  C   UNL     1      48.098  45.041  54.853  1.00  0.00     0.014 C 
ENDROOT
BRANCH   1  30
ATOM     30  C   UNL     1      55.137  41.017  47.554  1.00  0.00     0.048 C 
ATOM     31  O   UNL     1      55.647  40.642  48.643  1.00  0.00    -0.550 OA
ATOM     32  O   UNL     1      55.985  41.379  46.510  1.00  0.00    -0.550 OA
ENDBRANCH   1  30
BRANCH  27  33
ATOM     33  O   UNL     1      49.872  44.686  57.125  1.00  0.00    -0.393 OA
ATOM     34  H   UNL     1      49.137  44.025  57.217  1.00  0.00     0.210 HD
ENDBRANCH  27  33
TORSDOF 2
ENDMDL
MODEL 5
REMARK VINA RESULT:    -6.343      1.532      2.012
REMARK INTER + INTRA:          -7.198
REMARK INTER:                  -6.896
REMARK INTRA:                  -0.302
REMARK UNBOUND:                -0.298
REMARK SMILES C[C@H]1[C@@H](C)CC[C@@]2(C(=O)[O-])CC[C@@]3(C)C(=CC[C@@H]4[C@]5(C)CC[C@H](O)C(C)(C)[C@@H]5CC[C@@]43C)[C@@H]12
REMARK SMILES IDX 7 1 6 2 11 3 33 4 5 5 12 6 15 7 2 8 3 9 13 10 16 11 1 12
REMARK SMILES IDX 4 13 14 14 31 15 17 16 18 17 30 18 32 19 19 20 29 21 28 22
REMARK SMILES IDX 21 23 20 24 25 25 22 26 23 27 26 28 27 29 8 30 9 31 10 32
REMARK SMILES IDX 24 33
REMARK H PARENT 24 34
REMARK Flexibility Score: inf
ROOT
ATOM      1  C   UNL     1      51.052  38.205  46.957  1.00  0.00     0.017 C 
ATOM      2  C   UNL     1      52.094  37.296  46.220  1.00  0.00     0.014 C 
ATOM      3  C   UNL     1      50.736  37.509  48.329  1.00  0.00     0.014 C 
ATOM      4  C   UNL     1      51.577  39.708  47.085  1.00  0.00     0.030 C 
ATOM      5  C   UNL     1      52.690  37.860  44.912  1.00  0.00     0.004 C 
ATOM      6  C   UNL     1      50.466  38.450  49.512  1.00  0.00     0.013 C 
ATOM      7  C   UNL     1      51.601  40.345  48.490  1.00  0.00    -0.063 C 
ATOM      8  C   UNL     1      52.823  40.072  46.212  1.00  0.00    -0.003 C 
ATOM      9  C   UNL     1      52.690  39.398  44.824  1.00  0.00    -0.011 C 
ATOM     10  C   UNL     1      51.610  39.485  49.762  1.00  0.00    -0.006 C 
ATOM     11  C   UNL     1      51.324  41.665  48.530  1.00  0.00    -0.027 C 
ATOM     12  C   UNL     1      54.187  39.827  46.887  1.00  0.00     0.008 C 
ATOM     13  C   UNL     1      53.738  39.893  43.814  1.00  0.00     0.008 C 
ATOM     14  C   UNL     1      52.972  38.720  49.851  1.00  0.00     0.017 C 
ATOM     15  C   UNL     1      51.374  40.342  51.127  1.00  0.00    -0.020 C 
ATOM     16  C   UNL     1      50.826  42.399  49.728  1.00  0.00     0.032 C 
ATOM     17  C   UNL     1      50.323  41.485  50.879  1.00  0.00     0.006 C 
ATOM     18  C   UNL     1      52.687  41.032  51.631  1.00  0.00     0.008 C 
ATOM     19  C   UNL     1      50.913  39.361  52.251  1.00  0.00     0.012 C 
ATOM     20  C   UNL     1      49.904  42.314  52.195  1.00  0.00    -0.025 C 
ATOM     21  C   UNL     1      52.523  42.303  52.504  1.00  0.00     0.005 C 
ATOM     22  C   UNL     1      51.139  42.527  53.183  1.00  0.00     0.003 C 
ATOM     23  C   UNL     1      49.299  43.703  51.809  1.00  0.00     0.010 C 
ATOM     24  C   UNL     1      48.747  41.518  52.909  1.00  0.00     0.012 C 
ATOM     25  C   UNL     1      51.111  43.863  54.063  1.00  0.00    -0.006 C 
ATOM     26  C   UNL     1      48.878  44.592  52.998  1.00  0.00     0.033 C 
ATOM     27  C   UNL     1      49.638  44.311  54.308  1.00  0.00     0.120 C 
ATOM     28  C   UNL     1      51.917  45.040  53.436  1.00  0.00     0.014 C 
ATOM     29  C   UNL     1      51.755  43.570  55.447  1.00  0.00     0.014 C 
ENDROOT
BRANCH   1  30
ATOM     30  C   UNL     1      49.740  38.210  46.162  1.00  0.00     0.048 C 
ATOM     31  O   UNL     1      49.152  37.138  45.854  1.00  0.00    -0.550 OA
ATOM     32  O   UNL     1      49.211  39.415  45.705  1.00  0.00    -0.550 OA
ENDBRANCH   1  30
BRANCH  27  33
ATOM     33  O   UNL     1      49.585  45.470  55.109  1.00  0.00    -0.393 OA
ATOM     34  H   UNL     1      48.637  45.765  55.151  1.00  0.00     0.210 HD
ENDBRANCH  27  33
TORSDOF 2
ENDMDL
MODEL 6
REMARK VINA RESULT:    -6.139      8.747     12.745
REMARK INTER + INTRA:          -6.975
REMARK INTER:                  -6.673
REMARK INTRA:                  -0.302
REMARK UNBOUND:                -0.298
REMARK SMILES C[C@H]1[C@@H](C)CC[C@@]2(C(=O)[O-])CC[C@@]3(C)C(=CC[C@@H]4[C@]5(C)CC[C@H](O)C(C)(C)[C@@H]5CC[C@@]43C)[C@@H]12
REMARK SMILES IDX 7 1 6 2 11 3 33 4 5 5 12 6 15 7 2 8 3 9 13 10 16 11 1 12
REMARK SMILES IDX 4 13 14 14 31 15 17 16 18 17 30 18 32 19 19 20 29 21 28 22
REMARK SMILES IDX 21 23 20 24 25 25 22 26 23 27 26 28 27 29 8 30 9 31 10 32
REMARK SMILES IDX 24 33
REMARK H PARENT 24 34
REMARK Flexibility Score: inf
ROOT
ATOM      1  C   UNL     1      47.654  36.519  55.769  1.00  0.00     0.017 C 
ATOM      2  C   UNL     1      46.952  37.723  56.484  1.00  0.00     0.014 C 
ATOM      3  C   UNL     1      47.183  35.217  56.510  1.00  0.00     0.014 C 
ATOM      4  C   UNL     1      47.364  36.525  54.198  1.00  0.00     0.030 C 
ATOM      5  C   UNL     1      47.129  39.108  55.825  1.00  0.00     0.004 C 
ATOM      6  C   UNL     1      47.008  33.970  55.630  1.00  0.00     0.013 C 
ATOM      7  C   UNL     1      46.783  35.242  53.568  1.00  0.00    -0.063 C 
ATOM      8  C   UNL     1      46.741  37.841  53.624  1.00  0.00    -0.003 C 
ATOM      9  C   UNL     1      47.404  39.061  54.310  1.00  0.00    -0.011 C 
ATOM     10  C   UNL     1      46.051  34.192  54.415  1.00  0.00    -0.006 C 
ATOM     11  C   UNL     1      47.207  34.973  52.315  1.00  0.00    -0.027 C 
ATOM     12  C   UNL     1      45.201  37.891  53.632  1.00  0.00     0.008 C 
ATOM     13  C   UNL     1      47.037  40.396  53.641  1.00  0.00     0.008 C 
ATOM     14  C   UNL     1      44.707  34.802  54.933  1.00  0.00     0.017 C 
ATOM     15  C   UNL     1      45.749  32.806  53.611  1.00  0.00    -0.020 C 
ATOM     16  C   UNL     1      47.192  33.624  51.678  1.00  0.00     0.032 C 
ATOM     17  C   UNL     1      46.954  32.450  52.666  1.00  0.00     0.006 C 
ATOM     18  C   UNL     1      44.475  32.909  52.707  1.00  0.00     0.008 C 
ATOM     19  C   UNL     1      45.477  31.680  54.659  1.00  0.00     0.012 C 
ATOM     20  C   UNL     1      46.830  31.026  51.923  1.00  0.00    -0.025 C 
ATOM     21  C   UNL     1      44.402  31.959  51.484  1.00  0.00     0.005 C 
ATOM     22  C   UNL     1      45.325  30.704  51.502  1.00  0.00     0.003 C 
ATOM     23  C   UNL     1      47.748  30.977  50.659  1.00  0.00     0.010 C 
ATOM     24  C   UNL     1      47.384  29.927  52.906  1.00  0.00     0.012 C 
ATOM     25  C   UNL     1      45.141  29.804  50.191  1.00  0.00    -0.006 C 
ATOM     26  C   UNL     1      47.695  29.659  49.856  1.00  0.00     0.033 C 
ATOM     27  C   UNL     1      46.378  28.874  50.004  1.00  0.00     0.120 C 
ATOM     28  C   UNL     1      44.911  30.634  48.892  1.00  0.00     0.014 C 
ATOM     29  C   UNL     1      43.889  28.900  50.370  1.00  0.00     0.014 C 
ENDROOT
BRANCH   1  30
ATOM     30  C   UNL     1      49.169  36.618  55.989  1.00  0.00     0.048 C 
ATOM     31  O   UNL     1      49.654  36.871  57.124  1.00  0.00    -0.550 OA
ATOM     32  O   UNL     1      50.035  36.495  54.906  1.00  0.00    -0.550 OA
ENDBRANCH   1  30
BRANCH  27  33
ATOM     33  O   UNL     1      46.226  28.047  48.871  1.00  0.00    -0.393 OA
ATOM     34  H   UNL     1      46.183  27.107  49.187  1.00  0.00     0.210 HD
ENDBRANCH  27  33
TORSDOF 2
ENDMDL
MODEL 7
REMARK VINA RESULT:    -6.039      9.333     11.719
REMARK INTER + INTRA:          -6.866
REMARK INTER:                  -6.566
REMARK INTRA:                  -0.300
REMARK UNBOUND:                -0.298
REMARK SMILES C[C@H]1[C@@H](C)CC[C@@]2(C(=O)[O-])CC[C@@]3(C)C(=CC[C@@H]4[C@]5(C)CC[C@H](O)C(C)(C)[C@@H]5CC[C@@]43C)[C@@H]12
REMARK SMILES IDX 7 1 6 2 11 3 33 4 5 5 12 6 15 7 2 8 3 9 13 10 16 11 1 12
REMARK SMILES IDX 4 13 14 14 31 15 17 16 18 17 30 18 32 19 19 20 29 21 28 22
REMARK SMILES IDX 21 23 20 24 25 25 22 26 23 27 26 28 27 29 8 30 9 31 10 32
REMARK SMILES IDX 24 33
REMARK H PARENT 24 34
REMARK Flexibility Score: inf
ROOT
ATOM      1  C   UNL     1      46.173  30.188  51.648  1.00  0.00     0.017 C 
ATOM      2  C   UNL     1      45.233  29.359  50.707  1.00  0.00     0.014 C 
ATOM      3  C   UNL     1      46.839  31.297  50.759  1.00  0.00     0.014 C 
ATOM      4  C   UNL     1      45.380  30.747  52.916  1.00  0.00     0.030 C 
ATOM      5  C   UNL     1      44.333  28.308  51.391  1.00  0.00     0.004 C 
ATOM      6  C   UNL     1      47.098  32.645  51.448  1.00  0.00     0.013 C 
ATOM      7  C   UNL     1      45.451  32.262  53.200  1.00  0.00    -0.063 C 
ATOM      8  C   UNL     1      43.962  30.132  53.161  1.00  0.00    -0.003 C 
ATOM      9  C   UNL     1      44.006  28.612  52.865  1.00  0.00    -0.011 C 
ATOM     10  C   UNL     1      45.821  33.268  52.100  1.00  0.00    -0.006 C 
ATOM     11  C   UNL     1      45.457  32.605  54.505  1.00  0.00    -0.027 C 
ATOM     12  C   UNL     1      42.803  30.863  52.457  1.00  0.00     0.008 C 
ATOM     13  C   UNL     1      42.731  27.878  53.310  1.00  0.00     0.008 C 
ATOM     14  C   UNL     1      44.675  33.304  51.036  1.00  0.00     0.017 C 
ATOM     15  C   UNL     1      46.093  34.773  52.663  1.00  0.00    -0.020 C 
ATOM     16  C   UNL     1      45.980  33.891  55.050  1.00  0.00     0.032 C 
ATOM     17  C   UNL     1      46.836  34.713  54.047  1.00  0.00     0.006 C 
ATOM     18  C   UNL     1      44.765  35.571  52.892  1.00  0.00     0.008 C 
ATOM     19  C   UNL     1      46.918  35.556  51.593  1.00  0.00     0.012 C 
ATOM     20  C   UNL     1      47.282  36.144  54.636  1.00  0.00    -0.025 C 
ATOM     21  C   UNL     1      44.804  36.715  53.938  1.00  0.00     0.005 C 
ATOM     22  C   UNL     1      46.204  37.278  54.326  1.00  0.00     0.003 C 
ATOM     23  C   UNL     1      47.522  36.060  56.179  1.00  0.00     0.010 C 
ATOM     24  C   UNL     1      48.676  36.507  53.998  1.00  0.00     0.012 C 
ATOM     25  C   UNL     1      46.100  38.459  55.399  1.00  0.00    -0.006 C 
ATOM     26  C   UNL     1      47.938  37.385  56.855  1.00  0.00     0.033 C 
ATOM     27  C   UNL     1      47.470  38.653  56.116  1.00  0.00     0.120 C 
ATOM     28  C   UNL     1      44.982  38.241  56.462  1.00  0.00     0.014 C 
ATOM     29  C   UNL     1      45.759  39.785  54.662  1.00  0.00     0.014 C 
ENDROOT
BRANCH   1  30
ATOM     30  C   UNL     1      47.312  29.285  52.140  1.00  0.00     0.048 C 
ATOM     31  O   UNL     1      47.551  29.138  53.369  1.00  0.00    -0.550 OA
ATOM     32  O   UNL     1      48.150  28.664  51.218  1.00  0.00    -0.550 OA
ENDBRANCH   1  30
BRANCH  27  33
ATOM     33  O   UNL     1      47.414  39.711  57.047  1.00  0.00    -0.393 OA
ATOM     34  H   UNL     1      48.043  40.416  56.741  1.00  0.00     0.210 HD
ENDBRANCH  27  33
TORSDOF 2
ENDMDL
MODEL 8
REMARK VINA RESULT:    -5.949      4.977      7.388
REMARK INTER + INTRA:          -6.769
REMARK INTER:                  -6.800
REMARK INTRA:                   0.031
REMARK UNBOUND:                -0.298
REMARK SMILES C[C@H]1[C@@H](C)CC[C@@]2(C(=O)[O-])CC[C@@]3(C)C(=CC[C@@H]4[C@]5(C)CC[C@H](O)C(C)(C)[C@@H]5CC[C@@]43C)[C@@H]12
REMARK SMILES IDX 7 1 6 2 11 3 33 4 5 5 12 6 15 7 2 8 3 9 13 10 16 11 1 12
REMARK SMILES IDX 4 13 14 14 31 15 17 16 18 17 30 18 32 19 19 20 29 21 28 22
REMARK SMILES IDX 21 23 20 24 25 25 22 26 23 27 26 28 27 29 8 30 9 31 10 32
REMARK SMILES IDX 24 33
REMARK H PARENT 24 34
REMARK Flexibility Score: inf
ROOT
ATOM      1  C   UNL     1      52.596  33.075  48.423  1.00  0.00     0.017 C 
ATOM      2  C   UNL     1      52.156  31.941  47.434  1.00  0.00     0.014 C 
ATOM      3  C   UNL     1      53.353  34.152  47.567  1.00  0.00     0.014 C 
ATOM      4  C   UNL     1      51.352  33.642  49.248  1.00  0.00     0.030 C 
ATOM      5  C   UNL     1      51.242  30.842  48.017  1.00  0.00     0.004 C 
ATOM      6  C   UNL     1      53.167  35.612  48.008  1.00  0.00     0.013 C 
ATOM      7  C   UNL     1      51.104  35.165  49.220  1.00  0.00    -0.063 C 
ATOM      8  C   UNL     1      50.040  32.794  49.175  1.00  0.00    -0.003 C 
ATOM      9  C   UNL     1      50.401  31.289  49.227  1.00  0.00    -0.011 C 
ATOM     10  C   UNL     1      51.670  36.050  48.101  1.00  0.00    -0.006 C 
ATOM     11  C   UNL     1      50.624  35.692  50.366  1.00  0.00    -0.027 C 
ATOM     12  C   UNL     1      49.090  33.161  48.019  1.00  0.00     0.008 C 
ATOM     13  C   UNL     1      49.171  30.384  49.408  1.00  0.00     0.008 C 
ATOM     14  C   UNL     1      50.954  35.693  46.757  1.00  0.00     0.017 C 
ATOM     15  C   UNL     1      51.517  37.646  48.396  1.00  0.00    -0.020 C 
ATOM     16  C   UNL     1      50.742  37.124  50.766  1.00  0.00     0.032 C 
ATOM     17  C   UNL     1      51.754  37.945  49.921  1.00  0.00     0.006 C 
ATOM     18  C   UNL     1      50.088  38.181  48.043  1.00  0.00     0.008 C 
ATOM     19  C   UNL     1      52.529  38.413  47.487  1.00  0.00     0.012 C 
ATOM     20  C   UNL     1      51.765  39.508  50.308  1.00  0.00    -0.025 C 
ATOM     21  C   UNL     1      49.608  39.452  48.792  1.00  0.00     0.005 C 
ATOM     22  C   UNL     1      50.701  40.340  49.459  1.00  0.00     0.003 C 
ATOM     23  C   UNL     1      51.485  39.706  51.833  1.00  0.00     0.010 C 
ATOM     24  C   UNL     1      53.224  40.050  50.060  1.00  0.00     0.012 C 
ATOM     25  C   UNL     1      50.073  41.621  50.183  1.00  0.00    -0.006 C 
ATOM     26  C   UNL     1      51.454  41.173  52.314  1.00  0.00     0.033 C 
ATOM     27  C   UNL     1      51.081  42.195  51.224  1.00  0.00     0.120 C 
ATOM     28  C   UNL     1      48.708  41.339  50.879  1.00  0.00     0.014 C 
ATOM     29  C   UNL     1      49.809  42.724  49.119  1.00  0.00     0.014 C 
ENDROOT
BRANCH   1  30
ATOM     30  C   UNL     1      53.623  32.507  49.411  1.00  0.00     0.048 C 
ATOM     31  O   UNL     1      53.270  31.814  50.403  1.00  0.00    -0.550 OA
ATOM     32  O   UNL     1      54.973  32.815  49.260  1.00  0.00    -0.550 OA
ENDBRANCH   1  30
BRANCH  27  33
ATOM     33  O   UNL     1      50.564  43.345  51.854  1.00  0.00    -0.393 OA
ATOM     34  H   UNL     1      50.259  43.082  52.762  1.00  0.00     0.210 HD
ENDBRANCH  27  33
TORSDOF 2
ENDMDL
MODEL 9
REMARK VINA RESULT:    -5.852      8.673     10.694
REMARK INTER + INTRA:          -6.664
REMARK INTER:                  -6.362
REMARK INTRA:                  -0.302
REMARK UNBOUND:                -0.298
REMARK SMILES C[C@H]1[C@@H](C)CC[C@@]2(C(=O)[O-])CC[C@@]3(C)C(=CC[C@@H]4[C@]5(C)CC[C@H](O)C(C)(C)[C@@H]5CC[C@@]43C)[C@@H]12
REMARK SMILES IDX 7 1 6 2 11 3 33 4 5 5 12 6 15 7 2 8 3 9 13 10 16 11 1 12
REMARK SMILES IDX 4 13 14 14 31 15 17 16 18 17 30 18 32 19 19 20 29 21 28 22
REMARK SMILES IDX 21 23 20 24 25 25 22 26 23 27 26 28 27 29 8 30 9 31 10 32
REMARK SMILES IDX 24 33
REMARK H PARENT 24 34
REMARK Flexibility Score: inf
ROOT
ATOM      1  C   UNL     1      45.552  31.277  53.064  1.00  0.00     0.017 C 
ATOM      2  C   UNL     1      46.660  30.329  52.492  1.00  0.00     0.014 C 
ATOM      3  C   UNL     1      45.866  31.471  54.590  1.00  0.00     0.014 C 
ATOM      4  C   UNL     1      45.463  32.637  52.231  1.00  0.00     0.030 C 
ATOM      5  C   UNL     1      46.662  30.122  50.962  1.00  0.00     0.004 C 
ATOM      6  C   UNL     1      45.537  32.853  55.173  1.00  0.00     0.013 C 
ATOM      7  C   UNL     1      45.567  33.966  53.008  1.00  0.00    -0.063 C 
ATOM      8  C   UNL     1      46.224  32.651  50.864  1.00  0.00    -0.003 C 
ATOM      9  C   UNL     1      46.041  31.283  50.163  1.00  0.00    -0.011 C 
ATOM     10  C   UNL     1      46.210  34.033  54.400  1.00  0.00    -0.006 C 
ATOM     11  C   UNL     1      44.814  34.976  52.526  1.00  0.00    -0.027 C 
ATOM     12  C   UNL     1      47.692  33.114  50.939  1.00  0.00     0.008 C 
ATOM     13  C   UNL     1      46.542  31.282  48.709  1.00  0.00     0.008 C 
ATOM     14  C   UNL     1      47.742  33.743  54.269  1.00  0.00     0.017 C 
ATOM     15  C   UNL     1      45.988  35.463  55.150  1.00  0.00    -0.020 C 
ATOM     16  C   UNL     1      44.366  36.161  53.313  1.00  0.00     0.032 C 
ATOM     17  C   UNL     1      44.547  36.018  54.849  1.00  0.00     0.006 C 
ATOM     18  C   UNL     1      47.005  36.552  54.669  1.00  0.00     0.008 C 
ATOM     19  C   UNL     1      46.225  35.259  56.680  1.00  0.00     0.012 C 
ATOM     20  C   UNL     1      44.161  37.361  55.650  1.00  0.00    -0.025 C 
ATOM     21  C   UNL     1      46.569  38.033  54.810  1.00  0.00     0.005 C 
ATOM     22  C   UNL     1      45.410  38.342  55.804  1.00  0.00     0.003 C 
ATOM     23  C   UNL     1      42.989  38.115  54.941  1.00  0.00     0.010 C 
ATOM     24  C   UNL     1      43.610  36.931  57.062  1.00  0.00     0.012 C 
ATOM     25  C   UNL     1      45.071  39.905  55.863  1.00  0.00    -0.006 C 
ATOM     26  C   UNL     1      42.547  39.431  55.615  1.00  0.00     0.033 C 
ATOM     27  C   UNL     1      43.643  40.120  56.450  1.00  0.00     0.120 C 
ATOM     28  C   UNL     1      45.180  40.620  54.483  1.00  0.00     0.014 C 
ATOM     29  C   UNL     1      46.085  40.607  56.809  1.00  0.00     0.014 C 
ENDROOT
BRANCH   1  30
ATOM     30  C   UNL     1      44.195  30.565  52.988  1.00  0.00     0.048 C 
ATOM     31  O   UNL     1      43.152  31.173  52.627  1.00  0.00    -0.550 OA
ATOM     32  O   UNL     1      44.086  29.236  53.390  1.00  0.00    -0.550 OA
ENDBRANCH   1  30
BRANCH  27  33
ATOM     33  O   UNL     1      43.331  41.492  56.543  1.00  0.00    -0.393 OA
ATOM     34  H   UNL     1      43.572  41.797  57.457  1.00  0.00     0.210 HD
ENDBRANCH  27  33
TORSDOF 2
ENDMDL
