MODEL 1
REMARK VINA RESULT:    -6.367      0.000      0.000
REMARK INTER + INTRA:          -6.558
REMARK INTER:                  -6.925
REMARK INTRA:                   0.367
REMARK UNBOUND:                 0.367
REMARK SMILES CC1(C)CC[C@@]2(C(=O)[O-])CC[C@@]3(C)C(=CC[C@@H]4[C@@]5(C)CC[C@H](O)C(C)(C)[C@H]5CC[C@@]43C)[C@@H]2C1
REMARK SMILES IDX 6 1 5 2 10 3 32 4 4 5 11 6 14 7 33 8 2 9 12 10 15 11 1 12
REMARK SMILES IDX 3 13 13 14 30 15 16 16 17 17 29 18 31 19 18 20 28 21 27 22
REMARK SMILES IDX 20 23 19 24 24 25 21 26 22 27 25 28 26 29 7 30 8 31 9 32
REMARK SMILES IDX 23 33
REMARK H PARENT 23 34
REMARK Flexibility Score: inf
ROOT
ATOM      1  C   UNL     1      57.714  -4.524  -5.229  1.00  0.00     0.017 C 
ATOM      2  C   UNL     1      59.119  -3.866  -5.313  1.00  0.00     0.014 C 
ATOM      3  C   UNL     1      56.712  -3.488  -4.655  1.00  0.00     0.014 C 
ATOM      4  C   UNL     1      57.280  -4.910  -6.680  1.00  0.00     0.028 C 
ATOM      5  C   UNL     1      60.163  -4.791  -5.967  1.00  0.00     0.007 C 
ATOM      6  C   UNL     1      55.230  -3.916  -4.782  1.00  0.00     0.013 C 
ATOM      7  C   UNL     1      55.804  -5.351  -6.698  1.00  0.00    -0.064 C 
ATOM      8  C   UNL     1      58.306  -5.872  -7.341  1.00  0.00     0.015 C 
ATOM      9  C   UNL     1      59.748  -5.289  -7.378  1.00  0.00    -0.035 C 
ATOM     10  C   UNL     1      54.766  -4.319  -6.232  1.00  0.00    -0.006 C 
ATOM     11  C   UNL     1      55.497  -6.648  -6.830  1.00  0.00    -0.027 C 
ATOM     12  C   UNL     1      59.862  -4.148  -8.418  1.00  0.00     0.011 C 
ATOM     13  C   UNL     1      60.719  -6.412  -7.808  1.00  0.00     0.011 C 
ATOM     14  C   UNL     1      54.873  -3.071  -7.173  1.00  0.00     0.017 C 
ATOM     15  C   UNL     1      53.232  -4.868  -6.242  1.00  0.00    -0.020 C 
ATOM     16  C   UNL     1      54.168  -7.241  -6.546  1.00  0.00     0.032 C 
ATOM     17  C   UNL     1      53.152  -6.368  -5.738  1.00  0.00     0.006 C 
ATOM     18  C   UNL     1      52.622  -4.869  -7.675  1.00  0.00     0.008 C 
ATOM     19  C   UNL     1      52.387  -3.894  -5.350  1.00  0.00     0.012 C 
ATOM     20  C   UNL     1      51.705  -7.084  -5.779  1.00  0.00    -0.025 C 
ATOM     21  C   UNL     1      51.210  -5.478  -7.770  1.00  0.00     0.005 C 
ATOM     22  C   UNL     1      51.045  -6.928  -7.215  1.00  0.00     0.003 C 
ATOM     23  C   UNL     1      50.737  -6.547  -4.672  1.00  0.00     0.010 C 
ATOM     24  C   UNL     1      51.938  -8.595  -5.432  1.00  0.00     0.012 C 
ATOM     25  C   UNL     1      49.529  -7.429  -7.315  1.00  0.00    -0.006 C 
ATOM     26  C   UNL     1      49.303  -7.093  -4.760  1.00  0.00     0.033 C 
ATOM     27  C   UNL     1      48.678  -6.846  -6.141  1.00  0.00     0.120 C 
ATOM     28  C   UNL     1      49.445  -8.985  -7.340  1.00  0.00     0.014 C 
ATOM     29  C   UNL     1      48.882  -6.965  -8.654  1.00  0.00     0.014 C 
ENDROOT
BRANCH   1  30
ATOM     30  C   UNL     1      57.774  -5.705  -4.261  1.00  0.00     0.048 C 
ATOM     31  O   UNL     1      57.954  -6.884  -4.666  1.00  0.00    -0.550 OA
ATOM     32  O   UNL     1      57.553  -5.497  -2.904  1.00  0.00    -0.550 OA
ENDBRANCH   1  30
BRANCH  27  33
ATOM     33  O   UNL     1      47.384  -7.400  -6.145  1.00  0.00    -0.393 OA
ATOM     34  H   UNL     1      46.855  -6.926  -5.451  1.00  0.00     0.210 HD
ENDBRANCH  27  33
TORSDOF 2
ENDMDL
MODEL 2
REMARK VINA RESULT:    -6.357      1.858      3.698
REMARK INTER + INTRA:          -6.548
REMARK INTER:                  -7.198
REMARK INTRA:                   0.651
REMARK UNBOUND:                 0.367
REMARK SMILES CC1(C)CC[C@@]2(C(=O)[O-])CC[C@@]3(C)C(=CC[C@@H]4[C@@]5(C)CC[C@H](O)C(C)(C)[C@H]5CC[C@@]43C)[C@@H]2C1
REMARK SMILES IDX 6 1 5 2 10 3 32 4 4 5 11 6 14 7 33 8 2 9 12 10 15 11 1 12
REMARK SMILES IDX 3 13 13 14 30 15 16 16 17 17 29 18 31 19 18 20 28 21 27 22
REMARK SMILES IDX 20 23 19 24 24 25 21 26 22 27 25 28 26 29 7 30 8 31 9 32
REMARK SMILES IDX 23 33
REMARK H PARENT 23 34
REMARK Flexibility Score: inf
ROOT
ATOM      1  C   UNL     1      57.742  -5.001  -5.037  1.00  0.00     0.017 C 
ATOM      2  C   UNL     1      59.145  -4.674  -4.454  1.00  0.00     0.014 C 
ATOM      3  C   UNL     1      57.638  -6.533  -5.256  1.00  0.00     0.014 C 
ATOM      4  C   UNL     1      56.673  -4.557  -3.987  1.00  0.00     0.028 C 
ATOM      5  C   UNL     1      59.305  -3.182  -4.109  1.00  0.00     0.007 C 
ATOM      6  C   UNL     1      56.202  -7.023  -5.566  1.00  0.00     0.013 C 
ATOM      7  C   UNL     1      55.278  -5.064  -4.397  1.00  0.00    -0.064 C 
ATOM      8  C   UNL     1      56.799  -3.044  -3.655  1.00  0.00     0.015 C 
ATOM      9  C   UNL     1      58.214  -2.652  -3.139  1.00  0.00    -0.035 C 
ATOM     10  C   UNL     1      55.102  -6.584  -4.528  1.00  0.00    -0.006 C 
ATOM     11  C   UNL     1      54.376  -4.206  -4.892  1.00  0.00    -0.027 C 
ATOM     12  C   UNL     1      58.451  -3.180  -1.704  1.00  0.00     0.011 C 
ATOM     13  C   UNL     1      58.306  -1.110  -3.091  1.00  0.00     0.011 C 
ATOM     14  C   UNL     1      55.421  -7.227  -3.135  1.00  0.00     0.017 C 
ATOM     15  C   UNL     1      53.612  -7.043  -5.002  1.00  0.00    -0.020 C 
ATOM     16  C   UNL     1      53.138  -4.593  -5.613  1.00  0.00     0.032 C 
ATOM     17  C   UNL     1      53.034  -6.072  -6.112  1.00  0.00     0.006 C 
ATOM     18  C   UNL     1      52.589  -7.003  -3.828  1.00  0.00     0.008 C 
ATOM     19  C   UNL     1      53.723  -8.524  -5.504  1.00  0.00     0.012 C 
ATOM     20  C   UNL     1      51.524  -6.344  -6.617  1.00  0.00    -0.025 C 
ATOM     21  C   UNL     1      51.136  -7.322  -4.233  1.00  0.00     0.005 C 
ATOM     22  C   UNL     1      50.532  -6.452  -5.380  1.00  0.00     0.003 C 
ATOM     23  C   UNL     1      51.412  -7.617  -7.519  1.00  0.00     0.010 C 
ATOM     24  C   UNL     1      51.133  -5.140  -7.543  1.00  0.00     0.012 C 
ATOM     25  C   UNL     1      49.047  -6.913  -5.751  1.00  0.00    -0.006 C 
ATOM     26  C   UNL     1      49.975  -8.000  -7.906  1.00  0.00     0.033 C 
ATOM     27  C   UNL     1      49.075  -8.174  -6.674  1.00  0.00     0.120 C 
ATOM     28  C   UNL     1      48.242  -5.756  -6.417  1.00  0.00     0.014 C 
ATOM     29  C   UNL     1      48.246  -7.277  -4.465  1.00  0.00     0.014 C 
ENDROOT
BRANCH   1  30
ATOM     30  C   UNL     1      57.598  -4.321  -6.398  1.00  0.00     0.048 C 
ATOM     31  O   UNL     1      56.489  -3.889  -6.808  1.00  0.00    -0.550 OA
ATOM     32  O   UNL     1      58.697  -4.236  -7.247  1.00  0.00    -0.550 OA
ENDBRANCH   1  30
BRANCH  27  33
ATOM     33  O   UNL     1      47.777  -8.492  -7.117  1.00  0.00    -0.393 OA
ATOM     34  H   UNL     1      47.153  -7.838  -6.704  1.00  0.00     0.210 HD
ENDBRANCH  27  33
TORSDOF 2
ENDMDL
MODEL 3
REMARK VINA RESULT:    -6.251      1.905      8.179
REMARK INTER + INTRA:          -6.433
REMARK INTER:                  -6.861
REMARK INTRA:                   0.428
REMARK UNBOUND:                 0.367
REMARK SMILES CC1(C)CC[C@@]2(C(=O)[O-])CC[C@@]3(C)C(=CC[C@@H]4[C@@]5(C)CC[C@H](O)C(C)(C)[C@H]5CC[C@@]43C)[C@@H]2C1
REMARK SMILES IDX 6 1 5 2 10 3 32 4 4 5 11 6 14 7 33 8 2 9 12 10 15 11 1 12
REMARK SMILES IDX 3 13 13 14 30 15 16 16 17 17 29 18 31 19 18 20 28 21 27 22
REMARK SMILES IDX 20 23 19 24 24 25 21 26 22 27 25 28 26 29 7 30 8 31 9 32
REMARK SMILES IDX 23 33
REMARK H PARENT 23 34
REMARK Flexibility Score: inf
ROOT
ATOM      1  C   UNL     1      49.789  -7.024  -5.406  1.00  0.00     0.017 C 
ATOM      2  C   UNL     1      48.315  -7.088  -4.920  1.00  0.00     0.014 C 
ATOM      3  C   UNL     1      49.889  -5.996  -6.563  1.00  0.00     0.014 C 
ATOM      4  C   UNL     1      50.667  -6.539  -4.208  1.00  0.00     0.028 C 
ATOM      5  C   UNL     1      48.137  -8.013  -3.702  1.00  0.00     0.007 C 
ATOM      6  C   UNL     1      51.343  -5.630  -6.949  1.00  0.00     0.013 C 
ATOM      7  C   UNL     1      52.098  -6.230  -4.684  1.00  0.00    -0.064 C 
ATOM      8  C   UNL     1      50.525  -7.484  -2.982  1.00  0.00     0.015 C 
ATOM      9  C   UNL     1      49.053  -7.641  -2.505  1.00  0.00    -0.035 C 
ATOM     10  C   UNL     1      52.254  -5.144  -5.759  1.00  0.00    -0.006 C 
ATOM     11  C   UNL     1      53.097  -7.072  -4.385  1.00  0.00    -0.027 C 
ATOM     12  C   UNL     1      48.550  -6.353  -1.809  1.00  0.00     0.011 C 
ATOM     13  C   UNL     1      48.995  -8.785  -1.468  1.00  0.00     0.011 C 
ATOM     14  C   UNL     1      51.676  -3.808  -5.179  1.00  0.00     0.017 C 
ATOM     15  C   UNL     1      53.792  -4.899  -6.240  1.00  0.00    -0.020 C 
ATOM     16  C   UNL     1      54.432  -7.074  -5.032  1.00  0.00     0.032 C 
ATOM     17  C   UNL     1      54.583  -6.266  -6.363  1.00  0.00     0.006 C 
ATOM     18  C   UNL     1      54.591  -4.036  -5.219  1.00  0.00     0.008 C 
ATOM     19  C   UNL     1      53.731  -4.121  -7.599  1.00  0.00     0.012 C 
ATOM     20  C   UNL     1      56.150  -6.179  -6.742  1.00  0.00    -0.025 C 
ATOM     21  C   UNL     1      56.083  -3.857  -5.562  1.00  0.00     0.005 C 
ATOM     22  C   UNL     1      56.904  -5.168  -5.776  1.00  0.00     0.003 C 
ATOM     23  C   UNL     1      56.386  -5.784  -8.238  1.00  0.00     0.010 C 
ATOM     24  C   UNL     1      56.731  -7.629  -6.598  1.00  0.00     0.012 C 
ATOM     25  C   UNL     1      58.419  -4.856  -6.182  1.00  0.00    -0.006 C 
ATOM     26  C   UNL     1      57.858  -5.547  -8.610  1.00  0.00     0.033 C 
ATOM     27  C   UNL     1      58.521  -4.502  -7.701  1.00  0.00     0.120 C 
ATOM     28  C   UNL     1      59.360  -6.046  -5.826  1.00  0.00     0.014 C 
ATOM     29  C   UNL     1      58.969  -3.646  -5.369  1.00  0.00     0.014 C 
ENDROOT
BRANCH   1  30
ATOM     30  C   UNL     1      50.190  -8.392  -5.958  1.00  0.00     0.048 C 
ATOM     31  O   UNL     1      51.028  -9.125  -5.368  1.00  0.00    -0.550 OA
ATOM     32  O   UNL     1      49.680  -8.820  -7.180  1.00  0.00    -0.550 OA
ENDBRANCH   1  30
BRANCH  27  33
ATOM     33  O   UNL     1      59.867  -4.370  -8.089  1.00  0.00    -0.393 OA
ATOM     34  H   UNL     1      59.896  -4.407  -9.081  1.00  0.00     0.210 HD
ENDBRANCH  27  33
TORSDOF 2
ENDMDL
MODEL 4
REMARK VINA RESULT:    -6.034      7.497     11.583
REMARK INTER + INTRA:          -6.197
REMARK INTER:                  -6.586
REMARK INTRA:                   0.389
REMARK UNBOUND:                 0.367
REMARK SMILES CC1(C)CC[C@@]2(C(=O)[O-])CC[C@@]3(C)C(=CC[C@@H]4[C@@]5(C)CC[C@H](O)C(C)(C)[C@H]5CC[C@@]43C)[C@@H]2C1
REMARK SMILES IDX 6 1 5 2 10 3 32 4 4 5 11 6 14 7 33 8 2 9 12 10 15 11 1 12
REMARK SMILES IDX 3 13 13 14 30 15 16 16 17 17 29 18 31 19 18 20 28 21 27 22
REMARK SMILES IDX 20 23 19 24 24 25 21 26 22 27 25 28 26 29 7 30 8 31 9 32
REMARK SMILES IDX 23 33
REMARK H PARENT 23 34
REMARK Flexibility Score: inf
ROOT
ATOM      1  C   UNL     1      59.955  -1.700  -0.994  1.00  0.00     0.017 C 
ATOM      2  C   UNL     1      59.338  -0.810  -2.109  1.00  0.00     0.014 C 
ATOM      3  C   UNL     1      59.705  -1.024   0.379  1.00  0.00     0.014 C 
ATOM      4  C   UNL     1      59.226  -3.082  -1.029  1.00  0.00     0.028 C 
ATOM      5  C   UNL     1      59.451  -1.452  -3.504  1.00  0.00     0.007 C 
ATOM      6  C   UNL     1      60.018  -1.936   1.590  1.00  0.00     0.013 C 
ATOM      7  C   UNL     1      59.624  -3.926   0.196  1.00  0.00    -0.064 C 
ATOM      8  C   UNL     1      59.362  -3.759  -2.421  1.00  0.00     0.015 C 
ATOM      9  C   UNL     1      58.827  -2.872  -3.582  1.00  0.00    -0.035 C 
ATOM     10  C   UNL     1      59.303  -3.340   1.579  1.00  0.00    -0.006 C 
ATOM     11  C   UNL     1      60.461  -4.962   0.048  1.00  0.00    -0.027 C 
ATOM     12  C   UNL     1      57.282  -2.794  -3.559  1.00  0.00     0.011 C 
ATOM     13  C   UNL     1      59.243  -3.519  -4.922  1.00  0.00     0.011 C 
ATOM     14  C   UNL     1      57.752  -3.130   1.663  1.00  0.00     0.017 C 
ATOM     15  C   UNL     1      59.786  -4.271   2.826  1.00  0.00    -0.020 C 
ATOM     16  C   UNL     1      61.170  -5.649   1.156  1.00  0.00     0.032 C 
ATOM     17  C   UNL     1      61.201  -4.926   2.543  1.00  0.00     0.006 C 
ATOM     18  C   UNL     1      58.811  -5.459   3.078  1.00  0.00     0.008 C 
ATOM     19  C   UNL     1      59.794  -3.363   4.104  1.00  0.00     0.012 C 
ATOM     20  C   UNL     1      61.773  -5.952   3.651  1.00  0.00    -0.025 C 
ATOM     21  C   UNL     1      59.269  -6.441   4.175  1.00  0.00     0.005 C 
ATOM     22  C   UNL     1      60.690  -7.061   3.998  1.00  0.00     0.003 C 
ATOM     23  C   UNL     1      62.249  -5.227   4.953  1.00  0.00     0.010 C 
ATOM     24  C   UNL     1      63.064  -6.602   3.041  1.00  0.00     0.012 C 
ATOM     25  C   UNL     1      61.075  -8.014   5.223  1.00  0.00    -0.006 C 
ATOM     26  C   UNL     1      62.667  -6.171   6.092  1.00  0.00     0.033 C 
ATOM     27  C   UNL     1      61.558  -7.170   6.447  1.00  0.00     0.120 C 
ATOM     28  C   UNL     1      62.155  -9.061   4.812  1.00  0.00     0.014 C 
ATOM     29  C   UNL     1      59.844  -8.855   5.674  1.00  0.00     0.014 C 
ENDROOT
BRANCH   1  30
ATOM     30  C   UNL     1      61.467  -1.787  -1.206  1.00  0.00     0.048 C 
ATOM     31  O   UNL     1      62.244  -0.879  -0.809  1.00  0.00    -0.550 OA
ATOM     32  O   UNL     1      62.003  -2.855  -1.917  1.00  0.00    -0.550 OA
ENDBRANCH   1  30
BRANCH  27  33
ATOM     33  O   UNL     1      62.033  -8.011   7.471  1.00  0.00    -0.393 OA
ATOM     34  H   UNL     1      61.825  -7.572   8.337  1.00  0.00     0.210 HD
ENDBRANCH  27  33
TORSDOF 2
ENDMDL
MODEL 5
REMARK VINA RESULT:    -5.900      3.088      5.406
REMARK INTER + INTRA:          -6.051
REMARK INTER:                  -6.438
REMARK INTRA:                   0.387
REMARK UNBOUND:                 0.367
REMARK SMILES CC1(C)CC[C@@]2(C(=O)[O-])CC[C@@]3(C)C(=CC[C@@H]4[C@@]5(C)CC[C@H](O)C(C)(C)[C@H]5CC[C@@]43C)[C@@H]2C1
REMARK SMILES IDX 6 1 5 2 10 3 32 4 4 5 11 6 14 7 33 8 2 9 12 10 15 11 1 12
REMARK SMILES IDX 3 13 13 14 30 15 16 16 17 17 29 18 31 19 18 20 28 21 27 22
REMARK SMILES IDX 20 23 19 24 24 25 21 26 22 27 25 28 26 29 7 30 8 31 9 32
REMARK SMILES IDX 23 33
REMARK H PARENT 23 34
REMARK Flexibility Score: inf
ROOT
ATOM      1  C   UNL     1      59.403  -3.314  -2.259  1.00  0.00     0.017 C 
ATOM      2  C   UNL     1      60.290  -2.925  -1.044  1.00  0.00     0.014 C 
ATOM      3  C   UNL     1      59.559  -4.835  -2.524  1.00  0.00     0.014 C 
ATOM      4  C   UNL     1      57.917  -3.007  -1.883  1.00  0.00     0.028 C 
ATOM      5  C   UNL     1      60.122  -1.448  -0.643  1.00  0.00     0.007 C 
ATOM      6  C   UNL     1      58.521  -5.404  -3.522  1.00  0.00     0.013 C 
ATOM      7  C   UNL     1      56.966  -3.585  -2.947  1.00  0.00    -0.064 C 
ATOM      8  C   UNL     1      57.725  -1.511  -1.509  1.00  0.00     0.015 C 
ATOM      9  C   UNL     1      58.650  -1.052  -0.346  1.00  0.00    -0.035 C 
ATOM     10  C   UNL     1      57.015  -5.104  -3.172  1.00  0.00    -0.006 C 
ATOM     11  C   UNL     1      56.360  -2.765  -3.815  1.00  0.00    -0.027 C 
ATOM     12  C   UNL     1      58.184  -1.645   1.006  1.00  0.00     0.011 C 
ATOM     13  C   UNL     1      58.568   0.487  -0.234  1.00  0.00     0.011 C 
ATOM     14  C   UNL     1      56.651  -5.802  -1.818  1.00  0.00     0.017 C 
ATOM     15  C   UNL     1      56.010  -5.637  -4.339  1.00  0.00    -0.020 C 
ATOM     16  C   UNL     1      55.689  -3.194  -5.067  1.00  0.00     0.032 C 
ATOM     17  C   UNL     1      55.980  -4.645  -5.574  1.00  0.00     0.006 C 
ATOM     18  C   UNL     1      54.538  -5.736  -3.839  1.00  0.00     0.008 C 
ATOM     19  C   UNL     1      56.489  -7.074  -4.740  1.00  0.00     0.012 C 
ATOM     20  C   UNL     1      54.957  -4.992  -6.774  1.00  0.00    -0.025 C 
ATOM     21  C   UNL     1      53.518  -6.131  -4.925  1.00  0.00     0.005 C 
ATOM     22  C   UNL     1      53.494  -5.240  -6.206  1.00  0.00     0.003 C 
ATOM     23  C   UNL     1      55.425  -6.215  -7.629  1.00  0.00     0.010 C 
ATOM     24  C   UNL     1      54.976  -3.766  -7.752  1.00  0.00     0.012 C 
ATOM     25  C   UNL     1      52.441  -5.781  -7.281  1.00  0.00    -0.006 C 
ATOM     26  C   UNL     1      54.415  -6.673  -8.693  1.00  0.00     0.033 C 
ATOM     27  C   UNL     1      53.039  -6.981  -8.084  1.00  0.00     0.120 C 
ATOM     28  C   UNL     1      51.978  -4.646  -8.244  1.00  0.00     0.014 C 
ATOM     29  C   UNL     1      51.140  -6.274  -6.578  1.00  0.00     0.014 C 
ENDROOT
BRANCH   1  30
ATOM     30  C   UNL     1      59.899  -2.568  -3.497  1.00  0.00     0.048 C 
ATOM     31  O   UNL     1      59.458  -1.429  -3.805  1.00  0.00    -0.550 OA
ATOM     32  O   UNL     1      60.808  -3.181  -4.354  1.00  0.00    -0.550 OA
ENDBRANCH   1  30
BRANCH  27  33
ATOM     33  O   UNL     1      52.171  -7.361  -9.125  1.00  0.00    -0.393 OA
ATOM     34  H   UNL     1      51.286  -7.554  -8.718  1.00  0.00     0.210 HD
ENDBRANCH  27  33
TORSDOF 2
ENDMDL
MODEL 6
REMARK VINA RESULT:    -5.758      2.332      8.400
REMARK INTER + INTRA:          -5.896
REMARK INTER:                  -6.262
REMARK INTRA:                   0.366
REMARK UNBOUND:                 0.367
REMARK SMILES CC1(C)CC[C@@]2(C(=O)[O-])CC[C@@]3(C)C(=CC[C@@H]4[C@@]5(C)CC[C@H](O)C(C)(C)[C@H]5CC[C@@]43C)[C@@H]2C1
REMARK SMILES IDX 6 1 5 2 10 3 32 4 4 5 11 6 14 7 33 8 2 9 12 10 15 11 1 12
REMARK SMILES IDX 3 13 13 14 30 15 16 16 17 17 29 18 31 19 18 20 28 21 27 22
REMARK SMILES IDX 20 23 19 24 24 25 21 26 22 27 25 28 26 29 7 30 8 31 9 32
REMARK SMILES IDX 23 33
REMARK H PARENT 23 34
REMARK Flexibility Score: inf
ROOT
ATOM      1  C   UNL     1      52.403  -6.962  -6.208  1.00  0.00     0.017 C 
ATOM      2  C   UNL     1      50.942  -7.133  -6.708  1.00  0.00     0.014 C 
ATOM      3  C   UNL     1      53.261  -6.384  -7.364  1.00  0.00     0.014 C 
ATOM      4  C   UNL     1      52.387  -5.946  -5.021  1.00  0.00     0.028 C 
ATOM      5  C   UNL     1      49.992  -7.609  -5.593  1.00  0.00     0.007 C 
ATOM      6  C   UNL     1      54.665  -5.905  -6.921  1.00  0.00     0.013 C 
ATOM      7  C   UNL     1      53.825  -5.554  -4.634  1.00  0.00    -0.064 C 
ATOM      8  C   UNL     1      51.459  -6.431  -3.873  1.00  0.00     0.015 C 
ATOM      9  C   UNL     1      49.999  -6.691  -4.341  1.00  0.00    -0.035 C 
ATOM     10  C   UNL     1      54.680  -4.885  -5.720  1.00  0.00    -0.006 C 
ATOM     11  C   UNL     1      54.370  -6.043  -3.512  1.00  0.00    -0.027 C 
ATOM     12  C   UNL     1      49.261  -5.362  -4.632  1.00  0.00     0.011 C 
ATOM     13  C   UNL     1      49.240  -7.407  -3.201  1.00  0.00     0.011 C 
ATOM     14  C   UNL     1      53.956  -3.565  -6.156  1.00  0.00     0.017 C 
ATOM     15  C   UNL     1      56.200  -4.534  -5.249  1.00  0.00    -0.020 C 
ATOM     16  C   UNL     1      55.817  -6.014  -3.185  1.00  0.00     0.032 C 
ATOM     17  C   UNL     1      56.807  -5.688  -4.351  1.00  0.00     0.006 C 
ATOM     18  C   UNL     1      56.257  -3.243  -4.379  1.00  0.00     0.008 C 
ATOM     19  C   UNL     1      57.040  -4.285  -6.549  1.00  0.00     0.012 C 
ATOM     20  C   UNL     1      58.278  -5.443  -3.730  1.00  0.00    -0.025 C 
ATOM     21  C   UNL     1      57.651  -2.915  -3.811  1.00  0.00     0.005 C 
ATOM     22  C   UNL     1      58.342  -4.043  -2.981  1.00  0.00     0.003 C 
ATOM     23  C   UNL     1      59.409  -5.538  -4.806  1.00  0.00     0.010 C 
ATOM     24  C   UNL     1      58.550  -6.623  -2.733  1.00  0.00     0.012 C 
ATOM     25  C   UNL     1      59.802  -3.608  -2.496  1.00  0.00    -0.006 C 
ATOM     26  C   UNL     1      60.810  -5.170  -4.293  1.00  0.00     0.033 C 
ATOM     27  C   UNL     1      60.840  -3.776  -3.652  1.00  0.00     0.120 C 
ATOM     28  C   UNL     1      60.244  -4.411  -1.234  1.00  0.00     0.014 C 
ATOM     29  C   UNL     1      59.813  -2.115  -2.052  1.00  0.00     0.014 C 
ENDROOT
BRANCH   1  30
ATOM     30  C   UNL     1      52.968  -8.336  -5.845  1.00  0.00     0.048 C 
ATOM     31  O   UNL     1      52.949  -8.768  -4.662  1.00  0.00    -0.550 OA
ATOM     32  O   UNL     1      53.587  -9.108  -6.823  1.00  0.00    -0.550 OA
ENDBRANCH   1  30
BRANCH  27  33
ATOM     33  O   UNL     1      62.145  -3.533  -3.184  1.00  0.00    -0.393 OA
ATOM     34  H   UNL     1      62.770  -3.727  -3.932  1.00  0.00     0.210 HD
ENDBRANCH  27  33
TORSDOF 2
ENDMDL
MODEL 7
REMARK VINA RESULT:    -5.691      4.987      7.893
REMARK INTER + INTRA:          -5.823
REMARK INTER:                  -6.212
REMARK INTRA:                   0.388
REMARK UNBOUND:                 0.367
REMARK SMILES CC1(C)CC[C@@]2(C(=O)[O-])CC[C@@]3(C)C(=CC[C@@H]4[C@@]5(C)CC[C@H](O)C(C)(C)[C@H]5CC[C@@]43C)[C@@H]2C1
REMARK SMILES IDX 6 1 5 2 10 3 32 4 4 5 11 6 14 7 33 8 2 9 12 10 15 11 1 12
REMARK SMILES IDX 3 13 13 14 30 15 16 16 17 17 29 18 31 19 18 20 28 21 27 22
REMARK SMILES IDX 20 23 19 24 24 25 21 26 22 27 25 28 26 29 7 30 8 31 9 32
REMARK SMILES IDX 23 33
REMARK H PARENT 23 34
REMARK Flexibility Score: inf
ROOT
ATOM      1  C   UNL     1      59.709  -2.376   1.560  1.00  0.00     0.017 C 
ATOM      2  C   UNL     1      60.589  -2.003   2.785  1.00  0.00     0.014 C 
ATOM      3  C   UNL     1      59.465  -1.100   0.714  1.00  0.00     0.014 C 
ATOM      4  C   UNL     1      60.499  -3.419   0.704  1.00  0.00     0.028 C 
ATOM      5  C   UNL     1      60.968  -3.231   3.633  1.00  0.00     0.007 C 
ATOM      6  C   UNL     1      58.842  -1.382  -0.676  1.00  0.00     0.013 C 
ATOM      7  C   UNL     1      59.788  -3.654  -0.641  1.00  0.00    -0.064 C 
ATOM      8  C   UNL     1      60.858  -4.680   1.538  1.00  0.00     0.015 C 
ATOM      9  C   UNL     1      61.675  -4.349   2.819  1.00  0.00    -0.035 C 
ATOM     10  C   UNL     1      59.614  -2.434  -1.559  1.00  0.00    -0.006 C 
ATOM     11  C   UNL     1      59.110  -4.791  -0.847  1.00  0.00    -0.027 C 
ATOM     12  C   UNL     1      63.125  -3.937   2.466  1.00  0.00     0.011 C 
ATOM     13  C   UNL     1      61.750  -5.621   3.693  1.00  0.00     0.011 C 
ATOM     14  C   UNL     1      61.040  -1.879  -1.895  1.00  0.00     0.017 C 
ATOM     15  C   UNL     1      58.820  -2.753  -2.946  1.00  0.00    -0.020 C 
ATOM     16  C   UNL     1      58.132  -5.014  -1.940  1.00  0.00     0.032 C 
ATOM     17  C   UNL     1      57.614  -3.752  -2.705  1.00  0.00     0.006 C 
ATOM     18  C   UNL     1      59.739  -3.441  -3.998  1.00  0.00     0.008 C 
ATOM     19  C   UNL     1      58.347  -1.378  -3.532  1.00  0.00     0.012 C 
ATOM     20  C   UNL     1      56.787  -4.236  -4.005  1.00  0.00    -0.025 C 
ATOM     21  C   UNL     1      59.021  -3.866  -5.294  1.00  0.00     0.005 C 
ATOM     22  C   UNL     1      57.774  -4.788  -5.121  1.00  0.00     0.003 C 
ATOM     23  C   UNL     1      55.876  -3.107  -4.592  1.00  0.00     0.010 C 
ATOM     24  C   UNL     1      55.803  -5.357  -3.523  1.00  0.00     0.012 C 
ATOM     25  C   UNL     1      57.082  -5.114  -6.526  1.00  0.00    -0.006 C 
ATOM     26  C   UNL     1      55.179  -3.473  -5.912  1.00  0.00     0.033 C 
ATOM     27  C   UNL     1      56.181  -3.922  -6.986  1.00  0.00     0.120 C 
ATOM     28  C   UNL     1      56.259  -6.437  -6.462  1.00  0.00     0.014 C 
ATOM     29  C   UNL     1      58.157  -5.357  -7.627  1.00  0.00     0.014 C 
ENDROOT
BRANCH   1  30
ATOM     30  C   UNL     1      58.352  -2.878   2.056  1.00  0.00     0.048 C 
ATOM     31  O   UNL     1      58.154  -4.092   2.327  1.00  0.00    -0.550 OA
ATOM     32  O   UNL     1      57.281  -1.994   2.146  1.00  0.00    -0.550 OA
ENDBRANCH   1  30
BRANCH  27  33
ATOM     33  O   UNL     1      55.460  -4.266  -8.146  1.00  0.00    -0.393 OA
ATOM     34  H   UNL     1      54.616  -3.743  -8.137  1.00  0.00     0.210 HD
ENDBRANCH  27  33
TORSDOF 2
ENDMDL
MODEL 8
REMARK VINA RESULT:    -5.643      6.799      9.326
REMARK INTER + INTRA:          -5.771
REMARK INTER:                  -6.163
REMARK INTRA:                   0.392
REMARK UNBOUND:                 0.367
REMARK SMILES CC1(C)CC[C@@]2(C(=O)[O-])CC[C@@]3(C)C(=CC[C@@H]4[C@@]5(C)CC[C@H](O)C(C)(C)[C@H]5CC[C@@]43C)[C@@H]2C1
REMARK SMILES IDX 6 1 5 2 10 3 32 4 4 5 11 6 14 7 33 8 2 9 12 10 15 11 1 12
REMARK SMILES IDX 3 13 13 14 30 15 16 16 17 17 29 18 31 19 18 20 28 21 27 22
REMARK SMILES IDX 20 23 19 24 24 25 21 26 22 27 25 28 26 29 7 30 8 31 9 32
REMARK SMILES IDX 23 33
REMARK H PARENT 23 34
REMARK Flexibility Score: inf
ROOT
ATOM      1  C   UNL     1      59.802  -1.135  -1.072  1.00  0.00     0.017 C 
ATOM      2  C   UNL     1      59.485  -0.445   0.283  1.00  0.00     0.014 C 
ATOM      3  C   UNL     1      61.316  -1.468  -1.121  1.00  0.00     0.014 C 
ATOM      4  C   UNL     1      58.981  -2.463  -1.137  1.00  0.00     0.028 C 
ATOM      5  C   UNL     1      57.981  -0.167   0.464  1.00  0.00     0.007 C 
ATOM      6  C   UNL     1      61.713  -2.403  -2.289  1.00  0.00     0.013 C 
ATOM      7  C   UNL     1      59.424  -3.308  -2.345  1.00  0.00    -0.064 C 
ATOM      8  C   UNL     1      57.457  -2.194  -0.991  1.00  0.00     0.015 C 
ATOM      9  C   UNL     1      57.097  -1.435   0.318  1.00  0.00    -0.035 C 
ATOM     10  C   UNL     1      60.896  -3.747  -2.384  1.00  0.00    -0.006 C 
ATOM     11  C   UNL     1      58.637  -3.391  -3.426  1.00  0.00    -0.027 C 
ATOM     12  C   UNL     1      57.245  -2.353   1.555  1.00  0.00     0.011 C 
ATOM     13  C   UNL     1      55.617  -0.995   0.237  1.00  0.00     0.011 C 
ATOM     14  C   UNL     1      61.174  -4.610  -1.106  1.00  0.00     0.017 C 
ATOM     15  C   UNL     1      61.300  -4.604  -3.709  1.00  0.00    -0.020 C 
ATOM     16  C   UNL     1      59.066  -3.889  -4.756  1.00  0.00     0.032 C 
ATOM     17  C   UNL     1      60.604  -4.023  -5.008  1.00  0.00     0.006 C 
ATOM     18  C   UNL     1      60.838  -6.088  -3.607  1.00  0.00     0.008 C 
ATOM     19  C   UNL     1      62.865  -4.584  -3.812  1.00  0.00     0.012 C 
ATOM     20  C   UNL     1      60.836  -4.825  -6.390  1.00  0.00    -0.025 C 
ATOM     21  C   UNL     1      61.094  -6.927  -4.874  1.00  0.00     0.005 C 
ATOM     22  C   UNL     1      60.502  -6.367  -6.205  1.00  0.00     0.003 C 
ATOM     23  C   UNL     1      62.284  -4.644  -6.955  1.00  0.00     0.010 C 
ATOM     24  C   UNL     1      59.889  -4.171  -7.456  1.00  0.00     0.012 C 
ATOM     25  C   UNL     1      60.882  -7.290  -7.454  1.00  0.00    -0.006 C 
ATOM     26  C   UNL     1      62.598  -5.502  -8.191  1.00  0.00     0.033 C 
ATOM     27  C   UNL     1      62.338  -6.993  -7.937  1.00  0.00     0.120 C 
ATOM     28  C   UNL     1      59.865  -7.112  -8.622  1.00  0.00     0.014 C 
ATOM     29  C   UNL     1      60.800  -8.798  -7.070  1.00  0.00     0.014 C 
ENDROOT
BRANCH   1  30
ATOM     30  C   UNL     1      59.499  -0.159  -2.210  1.00  0.00     0.048 C 
ATOM     31  O   UNL     1      58.353  -0.081  -2.727  1.00  0.00    -0.550 OA
ATOM     32  O   UNL     1      60.522   0.617  -2.744  1.00  0.00    -0.550 OA
ENDBRANCH   1  30
BRANCH  27  33
ATOM     33  O   UNL     1      62.620  -7.698  -9.122  1.00  0.00    -0.393 OA
ATOM     34  H   UNL     1      62.590  -7.047  -9.870  1.00  0.00     0.210 HD
ENDBRANCH  27  33
TORSDOF 2
ENDMDL
MODEL 9
REMARK VINA RESULT:    -5.616      2.323      4.196
REMARK INTER + INTRA:          -5.742
REMARK INTER:                  -6.439
REMARK INTRA:                   0.697
REMARK UNBOUND:                 0.367
REMARK SMILES CC1(C)CC[C@@]2(C(=O)[O-])CC[C@@]3(C)C(=CC[C@@H]4[C@@]5(C)CC[C@H](O)C(C)(C)[C@H]5CC[C@@]43C)[C@@H]2C1
REMARK SMILES IDX 6 1 5 2 10 3 32 4 4 5 11 6 14 7 33 8 2 9 12 10 15 11 1 12
REMARK SMILES IDX 3 13 13 14 30 15 16 16 17 17 29 18 31 19 18 20 28 21 27 22
REMARK SMILES IDX 20 23 19 24 24 25 21 26 22 27 25 28 26 29 7 30 8 31 9 32
REMARK SMILES IDX 23 33
REMARK H PARENT 23 34
REMARK Flexibility Score: inf
ROOT
ATOM      1  C   UNL     1      59.139  -4.191  -3.799  1.00  0.00     0.017 C 
ATOM      2  C   UNL     1      60.362  -3.563  -3.076  1.00  0.00     0.014 C 
ATOM      3  C   UNL     1      59.130  -5.718  -3.528  1.00  0.00     0.014 C 
ATOM      4  C   UNL     1      57.847  -3.554  -3.195  1.00  0.00     0.028 C 
ATOM      5  C   UNL     1      60.397  -2.029  -3.206  1.00  0.00     0.007 C 
ATOM      6  C   UNL     1      57.818  -6.420  -3.955  1.00  0.00     0.013 C 
ATOM      7  C   UNL     1      56.597  -4.298  -3.700  1.00  0.00    -0.064 C 
ATOM      8  C   UNL     1      57.852  -2.007  -3.351  1.00  0.00     0.015 C 
ATOM      9  C   UNL     1      59.100  -1.337  -2.708  1.00  0.00    -0.035 C 
ATOM     10  C   UNL     1      56.497  -5.794  -3.366  1.00  0.00    -0.006 C 
ATOM     11  C   UNL     1      55.808  -3.729  -4.621  1.00  0.00    -0.027 C 
ATOM     12  C   UNL     1      59.018  -1.370  -1.163  1.00  0.00     0.011 C 
ATOM     13  C   UNL     1      59.136   0.146  -3.142  1.00  0.00     0.011 C 
ATOM     14  C   UNL     1      56.508  -5.941  -1.806  1.00  0.00     0.017 C 
ATOM     15  C   UNL     1      55.168  -6.523  -3.965  1.00  0.00    -0.020 C 
ATOM     16  C   UNL     1      54.779  -4.440  -5.418  1.00  0.00     0.032 C 
ATOM     17  C   UNL     1      54.832  -6.003  -5.424  1.00  0.00     0.006 C 
ATOM     18  C   UNL     1      53.903  -6.224  -3.106  1.00  0.00     0.008 C 
ATOM     19  C   UNL     1      55.432  -8.067  -3.928  1.00  0.00     0.012 C 
ATOM     20  C   UNL     1      53.486  -6.567  -6.115  1.00  0.00    -0.025 C 
ATOM     21  C   UNL     1      52.591  -6.795  -3.679  1.00  0.00     0.005 C 
ATOM     22  C   UNL     1      52.242  -6.386  -5.144  1.00  0.00     0.003 C 
ATOM     23  C   UNL     1      53.618  -8.060  -6.560  1.00  0.00     0.010 C 
ATOM     24  C   UNL     1      53.284  -5.753  -7.440  1.00  0.00     0.012 C 
ATOM     25  C   UNL     1      50.893  -7.084  -5.645  1.00  0.00    -0.006 C 
ATOM     26  C   UNL     1      52.319  -8.685  -7.092  1.00  0.00     0.033 C 
ATOM     27  C   UNL     1      51.166  -8.559  -6.086  1.00  0.00     0.120 C 
ATOM     28  C   UNL     1      50.230  -6.275  -6.801  1.00  0.00     0.014 C 
ATOM     29  C   UNL     1      49.830  -7.111  -4.507  1.00  0.00     0.014 C 
ENDROOT
BRANCH   1  30
ATOM     30  C   UNL     1      59.291  -3.982  -5.306  1.00  0.00     0.048 C 
ATOM     31  O   UNL     1      58.293  -3.946  -6.074  1.00  0.00    -0.550 OA
ATOM     32  O   UNL     1      60.562  -3.900  -5.867  1.00  0.00    -0.550 OA
ENDBRANCH   1  30
BRANCH  27  33
ATOM     33  O   UNL     1      50.013  -9.125  -6.661  1.00  0.00    -0.393 OA
ATOM     34  H   UNL     1      50.312  -9.751  -7.372  1.00  0.00     0.210 HD
ENDBRANCH  27  33
TORSDOF 2
ENDMDL
