MODEL 1
REMARK VINA RESULT:    -0.551      0.000      0.000
REMARK INTER + INTRA:          -4.062
REMARK INTER:                  -1.390
REMARK INTRA:                  -2.673
REMARK UNBOUND:                -2.673
REMARK SMILES CCCCCCCCCCCCCCCCCCCCCCCCCCCC(=O)[O-]
REMARK SMILES IDX 15 1 16 2 17 3 18 4 19 5 20 6 21 7 22 8 23 9 24 10 25 11
REMARK SMILES IDX 26 12 27 13 28 14 29 15 30 16 14 17 13 18 12 19 11 20 10 21
REMARK SMILES IDX 9 22 8 23 7 24 6 25 5 26 4 27 3 28 2 29 1 30
REMARK H PARENT
REMARK Flexibility Score: inf
ROOT
ATOM      1  C   UNL     1       5.071  -5.086  -6.147  1.00  0.00     0.000 C 
ENDROOT
BRANCH   1   2
ATOM      2  C   UNL     1       5.635  -4.906  -7.567  1.00  0.00     0.000 C 
BRANCH   2   3
ATOM      3  C   UNL     1       4.554  -5.015  -8.656  1.00  0.00     0.000 C 
BRANCH   3   4
ATOM      4  C   UNL     1       4.932  -5.989  -9.787  1.00  0.00     0.000 C 
BRANCH   4   5
ATOM      5  C   UNL     1       3.924  -7.124 -10.051  1.00  0.00     0.000 C 
BRANCH   5   6
ATOM      6  C   UNL     1       4.206  -8.388  -9.220  1.00  0.00     0.000 C 
BRANCH   6   7
ATOM      7  C   UNL     1       5.586  -8.359  -8.537  1.00  0.00     0.000 C 
BRANCH   7   8
ATOM      8  C   UNL     1       6.774  -8.731  -9.444  1.00  0.00     0.000 C 
BRANCH   8   9
ATOM      9  C   UNL     1       8.134  -8.349  -8.840  1.00  0.00     0.000 C 
BRANCH   9  10
ATOM     10  C   UNL     1       8.180  -6.854  -8.490  1.00  0.00     0.000 C 
BRANCH  10  11
ATOM     11  C   UNL     1       9.094  -6.045  -9.428  1.00  0.00     0.000 C 
BRANCH  11  12
ATOM     12  C   UNL     1       8.423  -4.837 -10.113  1.00  0.00     0.006 C 
BRANCH  12  13
ATOM     13  C   UNL     1       9.098  -3.487  -9.829  1.00  0.00     0.053 C 
BRANCH  13  14
ATOM     14  C   UNL     1       8.097  -2.415  -9.527  1.00  0.00     0.041 C 
ATOM     15  O   UNL     1       8.430  -1.407  -8.849  1.00  0.00    -0.550 OA
ATOM     16  O   UNL     1       6.786  -2.546  -9.963  1.00  0.00    -0.550 OA
ENDBRANCH  13  14
ENDBRANCH  12  13
ENDBRANCH  11  12
ENDBRANCH  10  11
ENDBRANCH   9  10
ENDBRANCH   8   9
ENDBRANCH   7   8
ENDBRANCH   6   7
ENDBRANCH   5   6
ENDBRANCH   4   5
ENDBRANCH   3   4
ENDBRANCH   2   3
ENDBRANCH   1   2
BRANCH   1  17
ATOM     17  C   UNL     1       4.553  -6.502  -5.820  1.00  0.00     0.000 C 
BRANCH  17  18
ATOM     18  C   UNL     1       5.646  -7.575  -5.648  1.00  0.00     0.000 C 
BRANCH  18  19
ATOM     19  C   UNL     1       6.564  -7.382  -4.427  1.00  0.00     0.000 C 
BRANCH  19  20
ATOM     20  C   UNL     1       7.959  -6.809  -4.741  1.00  0.00     0.000 C 
BRANCH  20  21
ATOM     21  C   UNL     1       9.121  -7.784  -4.450  1.00  0.00     0.000 C 
BRANCH  21  22
ATOM     22  C   UNL     1       8.743  -8.874  -3.429  1.00  0.00    -0.000 C 
BRANCH  22  23
ATOM     23  C   UNL     1       8.786  -8.369  -1.979  1.00  0.00    -0.000 C 
BRANCH  23  24
ATOM     24  C   UNL     1       7.818  -9.125  -1.056  1.00  0.00    -0.000 C 
BRANCH  24  25
ATOM     25  C   UNL     1       8.290  -9.057   0.405  1.00  0.00    -0.000 C 
BRANCH  25  26
ATOM     26  C   UNL     1       7.125  -9.068   1.408  1.00  0.00    -0.000 C 
BRANCH  26  27
ATOM     27  C   UNL     1       5.765  -8.812   0.740  1.00  0.00    -0.000 C 
BRANCH  27  28
ATOM     28  C   UNL     1       4.699  -8.317   1.732  1.00  0.00    -0.000 C 
BRANCH  28  29
ATOM     29  C   UNL     1       5.207  -8.207   3.184  1.00  0.00    -0.003 C 
ATOM     30  C   UNL     1       5.354  -6.756   3.642  1.00  0.00     0.004 C 
ENDBRANCH  28  29
ENDBRANCH  27  28
ENDBRANCH  26  27
ENDBRANCH  25  26
ENDBRANCH  24  25
ENDBRANCH  23  24
ENDBRANCH  22  23
ENDBRANCH  21  22
ENDBRANCH  20  21
ENDBRANCH  19  20
ENDBRANCH  18  19
ENDBRANCH  17  18
ENDBRANCH   1  17
TORSDOF 26
ENDMDL
MODEL 2
REMARK VINA RESULT:     1.653     14.502     19.392
REMARK INTER + INTRA:           1.493
REMARK INTER:                   3.065
REMARK INTRA:                  -1.571
REMARK UNBOUND:                -2.673
REMARK SMILES CCCCCCCCCCCCCCCCCCCCCCCCCCCC(=O)[O-]
REMARK SMILES IDX 15 1 16 2 17 3 18 4 19 5 20 6 21 7 22 8 23 9 24 10 25 11
REMARK SMILES IDX 26 12 27 13 28 14 29 15 30 16 14 17 13 18 12 19 11 20 10 21
REMARK SMILES IDX 9 22 8 23 7 24 6 25 5 26 4 27 3 28 2 29 1 30
REMARK H PARENT
REMARK Flexibility Score: inf
ROOT
ATOM      1  C   UNL     1       5.110   4.574   8.661  1.00  0.00     0.000 C 
ENDROOT
BRANCH   1   2
ATOM      2  C   UNL     1       6.135   4.809   9.784  1.00  0.00     0.000 C 
BRANCH   2   3
ATOM      3  C   UNL     1       6.433   6.300  10.018  1.00  0.00     0.000 C 
BRANCH   3   4
ATOM      4  C   UNL     1       7.932   6.640   9.918  1.00  0.00     0.000 C 
BRANCH   4   5
ATOM      5  C   UNL     1       8.288   8.130  10.084  1.00  0.00     0.000 C 
BRANCH   5   6
ATOM      6  C   UNL     1       7.112   9.071   9.769  1.00  0.00     0.000 C 
BRANCH   6   7
ATOM      7  C   UNL     1       7.543  10.543   9.639  1.00  0.00     0.000 C 
BRANCH   7   8
ATOM      8  C   UNL     1       8.720  10.800   8.679  1.00  0.00     0.000 C 
BRANCH   8   9
ATOM      9  C   UNL     1       8.284  10.910   7.210  1.00  0.00     0.000 C 
BRANCH   9  10
ATOM     10  C   UNL     1       6.765  11.109   7.101  1.00  0.00     0.000 C 
BRANCH  10  11
ATOM     11  C   UNL     1       6.132  10.291   5.961  1.00  0.00     0.000 C 
BRANCH  11  12
ATOM     12  C   UNL     1       7.108   9.379   5.191  1.00  0.00     0.006 C 
BRANCH  12  13
ATOM     13  C   UNL     1       6.579   7.962   4.920  1.00  0.00     0.053 C 
BRANCH  13  14
ATOM     14  C   UNL     1       6.373   7.191   6.186  1.00  0.00     0.041 C 
ATOM     15  O   UNL     1       7.160   6.258   6.497  1.00  0.00    -0.550 OA
ATOM     16  O   UNL     1       5.290   7.477   7.006  1.00  0.00    -0.550 OA
ENDBRANCH  13  14
ENDBRANCH  12  13
ENDBRANCH  11  12
ENDBRANCH  10  11
ENDBRANCH   9  10
ENDBRANCH   8   9
ENDBRANCH   7   8
ENDBRANCH   6   7
ENDBRANCH   5   6
ENDBRANCH   4   5
ENDBRANCH   3   4
ENDBRANCH   2   3
ENDBRANCH   1   2
BRANCH   1  17
ATOM     17  C   UNL     1       4.816   3.096   8.338  1.00  0.00     0.000 C 
BRANCH  17  18
ATOM     18  C   UNL     1       4.320   2.824   6.904  1.00  0.00     0.000 C 
BRANCH  18  19
ATOM     19  C   UNL     1       4.717   3.886   5.864  1.00  0.00     0.000 C 
BRANCH  19  20
ATOM     20  C   UNL     1       4.383   3.530   4.402  1.00  0.00     0.000 C 
BRANCH  20  21
ATOM     21  C   UNL     1       3.474   4.558   3.695  1.00  0.00     0.000 C 
BRANCH  21  22
ATOM     22  C   UNL     1       4.269   5.669   2.985  1.00  0.00    -0.000 C 
BRANCH  22  23
ATOM     23  C   UNL     1       4.351   5.460   1.465  1.00  0.00    -0.000 C 
BRANCH  23  24
ATOM     24  C   UNL     1       3.028   5.771   0.749  1.00  0.00    -0.000 C 
BRANCH  24  25
ATOM     25  C   UNL     1       1.906   4.848   1.249  1.00  0.00    -0.000 C 
BRANCH  25  26
ATOM     26  C   UNL     1       0.542   5.553   1.321  1.00  0.00    -0.000 C 
BRANCH  26  27
ATOM     27  C   UNL     1      -0.258   5.433   0.015  1.00  0.00    -0.000 C 
BRANCH  27  28
ATOM     28  C   UNL     1      -1.566   4.642   0.189  1.00  0.00    -0.000 C 
BRANCH  28  29
ATOM     29  C   UNL     1      -1.502   3.206  -0.372  1.00  0.00    -0.003 C 
ATOM     30  C   UNL     1      -0.191   2.926  -1.107  1.00  0.00     0.004 C 
ENDBRANCH  28  29
ENDBRANCH  27  28
ENDBRANCH  26  27
ENDBRANCH  25  26
ENDBRANCH  24  25
ENDBRANCH  23  24
ENDBRANCH  22  23
ENDBRANCH  21  22
ENDBRANCH  20  21
ENDBRANCH  19  20
ENDBRANCH  18  19
ENDBRANCH  17  18
ENDBRANCH   1  17
TORSDOF 26
ENDMDL
MODEL 3
REMARK VINA RESULT:     2.295     14.616     19.161
REMARK INTER + INTRA:           3.111
REMARK INTER:                   4.256
REMARK INTRA:                  -1.145
REMARK UNBOUND:                -2.673
REMARK SMILES CCCCCCCCCCCCCCCCCCCCCCCCCCCC(=O)[O-]
REMARK SMILES IDX 15 1 16 2 17 3 18 4 19 5 20 6 21 7 22 8 23 9 24 10 25 11
REMARK SMILES IDX 26 12 27 13 28 14 29 15 30 16 14 17 13 18 12 19 11 20 10 21
REMARK SMILES IDX 9 22 8 23 7 24 6 25 5 26 4 27 3 28 2 29 1 30
REMARK H PARENT
REMARK Flexibility Score: inf
ROOT
ATOM      1  C   UNL     1       4.957   3.529   6.629  1.00  0.00     0.000 C 
ENDROOT
BRANCH   1   2
ATOM      2  C   UNL     1       4.499   4.108   7.979  1.00  0.00     0.000 C 
BRANCH   2   3
ATOM      3  C   UNL     1       5.666   4.650   8.822  1.00  0.00     0.000 C 
BRANCH   3   4
ATOM      4  C   UNL     1       6.042   6.101   8.471  1.00  0.00     0.000 C 
BRANCH   4   5
ATOM      5  C   UNL     1       6.899   6.837   9.519  1.00  0.00     0.000 C 
BRANCH   5   6
ATOM      6  C   UNL     1       6.479   8.303   9.722  1.00  0.00     0.000 C 
BRANCH   6   7
ATOM      7  C   UNL     1       7.570   9.302   9.293  1.00  0.00     0.000 C 
BRANCH   7   8
ATOM      8  C   UNL     1       7.114  10.771   9.201  1.00  0.00     0.000 C 
BRANCH   8   9
ATOM      9  C   UNL     1       5.734  10.932   8.547  1.00  0.00     0.000 C 
BRANCH   9  10
ATOM     10  C   UNL     1       5.864  11.125   7.029  1.00  0.00     0.000 C 
BRANCH  10  11
ATOM     11  C   UNL     1       7.320  11.041   6.536  1.00  0.00     0.000 C 
BRANCH  11  12
ATOM     12  C   UNL     1       7.490  10.581   5.074  1.00  0.00     0.006 C 
BRANCH  12  13
ATOM     13  C   UNL     1       6.313   9.763   4.521  1.00  0.00     0.053 C 
BRANCH  13  14
ATOM     14  C   UNL     1       6.419   8.315   4.883  1.00  0.00     0.041 C 
ATOM     15  O   UNL     1       7.246   7.937   5.755  1.00  0.00    -0.550 OA
ATOM     16  O   UNL     1       5.631   7.376   4.232  1.00  0.00    -0.550 OA
ENDBRANCH  13  14
ENDBRANCH  12  13
ENDBRANCH  11  12
ENDBRANCH  10  11
ENDBRANCH   9  10
ENDBRANCH   8   9
ENDBRANCH   7   8
ENDBRANCH   6   7
ENDBRANCH   5   6
ENDBRANCH   4   5
ENDBRANCH   3   4
ENDBRANCH   2   3
ENDBRANCH   1   2
BRANCH   1  17
ATOM     17  C   UNL     1       4.601   4.380   5.394  1.00  0.00     0.000 C 
BRANCH  17  18
ATOM     18  C   UNL     1       3.869   3.627   4.266  1.00  0.00     0.000 C 
BRANCH  18  19
ATOM     19  C   UNL     1       3.769   4.386   2.931  1.00  0.00     0.000 C 
BRANCH  19  20
ATOM     20  C   UNL     1       2.396   5.022   2.640  1.00  0.00     0.000 C 
BRANCH  20  21
ATOM     21  C   UNL     1       2.171   5.383   1.156  1.00  0.00     0.000 C 
BRANCH  21  22
ATOM     22  C   UNL     1       0.680   5.485   0.786  1.00  0.00    -0.000 C 
BRANCH  22  23
ATOM     23  C   UNL     1       0.339   4.740  -0.514  1.00  0.00    -0.000 C 
BRANCH  23  24
ATOM     24  C   UNL     1      -0.301   3.366  -0.262  1.00  0.00    -0.000 C 
BRANCH  24  25
ATOM     25  C   UNL     1      -1.797   3.386  -0.616  1.00  0.00    -0.000 C 
BRANCH  25  26
ATOM     26  C   UNL     1      -2.459   4.743  -0.328  1.00  0.00    -0.000 C 
BRANCH  26  27
ATOM     27  C   UNL     1      -2.744   4.958   1.166  1.00  0.00    -0.000 C 
BRANCH  27  28
ATOM     28  C   UNL     1      -4.118   4.415   1.594  1.00  0.00    -0.000 C 
BRANCH  28  29
ATOM     29  C   UNL     1      -4.057   3.456   2.801  1.00  0.00    -0.003 C 
ATOM     30  C   UNL     1      -5.269   3.602   3.722  1.00  0.00     0.004 C 
ENDBRANCH  28  29
ENDBRANCH  27  28
ENDBRANCH  26  27
ENDBRANCH  25  26
ENDBRANCH  24  25
ENDBRANCH  23  24
ENDBRANCH  22  23
ENDBRANCH  21  22
ENDBRANCH  20  21
ENDBRANCH  19  20
ENDBRANCH  18  19
ENDBRANCH  17  18
ENDBRANCH   1  17
TORSDOF 26
ENDMDL
MODEL 4
REMARK VINA RESULT:     2.325     14.508     19.339
REMARK INTER + INTRA:           3.187
REMARK INTER:                   4.410
REMARK INTRA:                  -1.222
REMARK UNBOUND:                -2.673
REMARK SMILES CCCCCCCCCCCCCCCCCCCCCCCCCCCC(=O)[O-]
REMARK SMILES IDX 15 1 16 2 17 3 18 4 19 5 20 6 21 7 22 8 23 9 24 10 25 11
REMARK SMILES IDX 26 12 27 13 28 14 29 15 30 16 14 17 13 18 12 19 11 20 10 21
REMARK SMILES IDX 9 22 8 23 7 24 6 25 5 26 4 27 3 28 2 29 1 30
REMARK H PARENT
REMARK Flexibility Score: inf
ROOT
ATOM      1  C   UNL     1       6.967   9.142   4.833  1.00  0.00     0.000 C 
ENDROOT
BRANCH   1   2
ATOM      2  C   UNL     1       7.957  10.131   5.473  1.00  0.00     0.000 C 
BRANCH   2   3
ATOM      3  C   UNL     1       7.274  11.124   6.428  1.00  0.00     0.000 C 
BRANCH   3   4
ATOM      4  C   UNL     1       6.016  10.547   7.102  1.00  0.00     0.000 C 
BRANCH   4   5
ATOM      5  C   UNL     1       5.839  10.898   8.592  1.00  0.00     0.000 C 
BRANCH   5   6
ATOM      6  C   UNL     1       5.800   9.661   9.504  1.00  0.00     0.000 C 
BRANCH   6   7
ATOM      7  C   UNL     1       7.196   9.240  10.002  1.00  0.00     0.000 C 
BRANCH   7   8
ATOM      8  C   UNL     1       7.844   8.077   9.228  1.00  0.00     0.000 C 
BRANCH   8   9
ATOM      9  C   UNL     1       7.547   6.703   9.848  1.00  0.00     0.000 C 
BRANCH   9  10
ATOM     10  C   UNL     1       6.229   6.131   9.307  1.00  0.00     0.000 C 
BRANCH  10  11
ATOM     11  C   UNL     1       5.855   4.780   9.944  1.00  0.00     0.000 C 
BRANCH  11  12
ATOM     12  C   UNL     1       4.784   3.972   9.184  1.00  0.00     0.006 C 
BRANCH  12  13
ATOM     13  C   UNL     1       4.763   4.210   7.666  1.00  0.00     0.053 C 
BRANCH  13  14
ATOM     14  C   UNL     1       4.742   2.925   6.899  1.00  0.00     0.041 C 
ATOM     15  O   UNL     1       4.388   2.911   5.691  1.00  0.00    -0.550 OA
ATOM     16  O   UNL     1       5.077   1.734   7.530  1.00  0.00    -0.550 OA
ENDBRANCH  13  14
ENDBRANCH  12  13
ENDBRANCH  11  12
ENDBRANCH  10  11
ENDBRANCH   9  10
ENDBRANCH   8   9
ENDBRANCH   7   8
ENDBRANCH   6   7
ENDBRANCH   5   6
ENDBRANCH   4   5
ENDBRANCH   3   4
ENDBRANCH   2   3
ENDBRANCH   1   2
BRANCH   1  17
ATOM     17  C   UNL     1       6.935   7.739   5.471  1.00  0.00     0.000 C 
BRANCH  17  18
ATOM     18  C   UNL     1       5.533   7.119   5.622  1.00  0.00     0.000 C 
BRANCH  18  19
ATOM     19  C   UNL     1       5.158   6.082   4.547  1.00  0.00     0.000 C 
BRANCH  19  20
ATOM     20  C   UNL     1       4.729   6.671   3.189  1.00  0.00     0.000 C 
BRANCH  20  21
ATOM     21  C   UNL     1       3.804   5.749   2.367  1.00  0.00     0.000 C 
BRANCH  21  22
ATOM     22  C   UNL     1       4.489   5.185   1.108  1.00  0.00    -0.000 C 
BRANCH  22  23
ATOM     23  C   UNL     1       4.156   5.987  -0.158  1.00  0.00    -0.000 C 
BRANCH  23  24
ATOM     24  C   UNL     1       2.687   5.843  -0.586  1.00  0.00    -0.000 C 
BRANCH  24  25
ATOM     25  C   UNL     1       1.813   5.406   0.600  1.00  0.00    -0.000 C 
BRANCH  25  26
ATOM     26  C   UNL     1       0.336   5.225   0.216  1.00  0.00    -0.000 C 
BRANCH  26  27
ATOM     27  C   UNL     1       0.052   3.853  -0.416  1.00  0.00    -0.000 C 
BRANCH  27  28
ATOM     28  C   UNL     1      -1.417   3.423  -0.267  1.00  0.00    -0.000 C 
BRANCH  28  29
ATOM     29  C   UNL     1      -2.409   4.604  -0.228  1.00  0.00    -0.003 C 
ATOM     30  C   UNL     1      -2.858   4.940   1.194  1.00  0.00     0.004 C 
ENDBRANCH  28  29
ENDBRANCH  27  28
ENDBRANCH  26  27
ENDBRANCH  25  26
ENDBRANCH  24  25
ENDBRANCH  23  24
ENDBRANCH  22  23
ENDBRANCH  21  22
ENDBRANCH  20  21
ENDBRANCH  19  20
ENDBRANCH  18  19
ENDBRANCH  17  18
ENDBRANCH   1  17
TORSDOF 26
ENDMDL
