MODEL 1
REMARK VINA RESULT:    -7.088      0.000      0.000
REMARK INTER + INTRA:          -9.087
REMARK INTER:                  -8.745
REMARK INTRA:                  -0.341
REMARK UNBOUND:                -0.341
REMARK SMILES Oc1cc(O)c2cc(O)c(-c3cc(O)c(O)c(O)c3)[o+]c2c1
REMARK SMILES IDX 10 1 20 2 21 3 22 4 2 5 3 6 4 7 6 8 7 9 8 10 11 11 12 12
REMARK SMILES IDX 13 13 19 14 15 15 17 16 14 17 16 19 18 21 9 23 1 25 5 27
REMARK H PARENT 14 18 16 20 18 22 9 24 1 26 5 28
REMARK Flexibility Score: inf
ROOT
ATOM      1  C   UNL     1      -1.744  10.490  26.923  1.00  0.00     0.402 A 
ATOM      2  O   UNL     1      -1.767  11.791  27.204  1.00  0.00    -0.202 OA
ATOM      3  C   UNL     1      -2.493  12.311  28.188  1.00  0.00     0.368 A 
ATOM      4  C   UNL     1      -2.454  13.691  28.405  1.00  0.00     0.162 A 
ATOM      5  C   UNL     1      -3.208  14.267  29.428  1.00  0.00     0.128 A 
ATOM      6  C   UNL     1      -4.009  13.458  30.243  1.00  0.00     0.093 A 
ATOM      7  C   UNL     1      -4.065  12.072  30.046  1.00  0.00     0.136 A 
ATOM      8  C   UNL     1      -3.297  11.484  29.007  1.00  0.00     0.125 A 
ATOM      9  C   UNL     1      -3.282  10.104  28.746  1.00  0.00     0.078 A 
ATOM     10  C   UNL     1      -2.496   9.596  27.706  1.00  0.00     0.223 A 
ENDROOT
BRANCH   1  11
ATOM     11  C   UNL     1      -0.902  10.033  25.794  1.00  0.00     0.091 A 
ATOM     12  C   UNL     1       0.494  10.034  25.929  1.00  0.00     0.068 A 
ATOM     13  C   UNL     1       1.321   9.627  24.875  1.00  0.00     0.162 A 
ATOM     14  C   UNL     1      -1.468   9.652  24.567  1.00  0.00     0.068 A 
ATOM     15  C   UNL     1       0.741   9.222  23.650  1.00  0.00     0.200 A 
ATOM     16  C   UNL     1      -0.653   9.243  23.504  1.00  0.00     0.162 A 
BRANCH  13  17
ATOM     17  O   UNL     1       2.701   9.643  25.089  1.00  0.00    -0.504 OA
ATOM     18  H   UNL     1       3.374   9.212  24.473  1.00  0.00     0.293 HD
ENDBRANCH  13  17
BRANCH  15  19
ATOM     19  O   UNL     1       1.508   8.800  22.560  1.00  0.00    -0.502 OA
ATOM     20  H   UNL     1       2.506   8.933  22.485  1.00  0.00     0.293 HD
ENDBRANCH  15  19
BRANCH  16  21
ATOM     21  O   UNL     1      -1.224   8.859  22.293  1.00  0.00    -0.504 OA
ATOM     22  H   UNL     1      -1.087   9.400  21.446  1.00  0.00     0.293 HD
ENDBRANCH  16  21
ENDBRANCH   1  11
BRANCH  10  23
ATOM     23  O   UNL     1      -2.441   8.222  27.478  1.00  0.00    -0.500 OA
ATOM     24  H   UNL     1      -1.949   7.596  28.106  1.00  0.00     0.294 HD
ENDBRANCH  10  23
BRANCH   5  25
ATOM     25  O   UNL     1      -3.156  15.644  29.629  1.00  0.00    -0.507 OA
ATOM     26  H   UNL     1      -2.414  16.073  30.170  1.00  0.00     0.293 HD
ENDBRANCH   5  25
BRANCH   7  27
ATOM     27  O   UNL     1      -4.890  11.334  30.899  1.00  0.00    -0.507 OA
ATOM     28  H   UNL     1      -5.221  10.400  30.705  1.00  0.00     0.293 HD
ENDBRANCH   7  27
TORSDOF 7
ENDMDL
MODEL 2
REMARK VINA RESULT:    -6.833      1.588      3.530
REMARK INTER + INTRA:          -8.773
REMARK INTER:                  -8.471
REMARK INTRA:                  -0.302
REMARK UNBOUND:                -0.341
REMARK SMILES Oc1cc(O)c2cc(O)c(-c3cc(O)c(O)c(O)c3)[o+]c2c1
REMARK SMILES IDX 10 1 20 2 21 3 22 4 2 5 3 6 4 7 6 8 7 9 8 10 11 11 12 12
REMARK SMILES IDX 13 13 19 14 15 15 17 16 14 17 16 19 18 21 9 23 1 25 5 27
REMARK H PARENT 14 18 16 20 18 22 9 24 1 26 5 28
REMARK Flexibility Score: inf
ROOT
ATOM      1  C   UNL     1      -2.331  11.003  25.798  1.00  0.00     0.402 A 
ATOM      2  O   UNL     1      -2.908  10.419  26.846  1.00  0.00    -0.202 OA
ATOM      3  C   UNL     1      -3.127  11.042  27.999  1.00  0.00     0.368 A 
ATOM      4  C   UNL     1      -3.737  10.343  29.044  1.00  0.00     0.162 A 
ATOM      5  C   UNL     1      -3.975  10.969  30.268  1.00  0.00     0.128 A 
ATOM      6  C   UNL     1      -3.602  12.305  30.450  1.00  0.00     0.093 A 
ATOM      7  C   UNL     1      -2.990  13.028  29.419  1.00  0.00     0.136 A 
ATOM      8  C   UNL     1      -2.747  12.394  28.172  1.00  0.00     0.125 A 
ATOM      9  C   UNL     1      -2.151  13.043  27.079  1.00  0.00     0.078 A 
ATOM     10  C   UNL     1      -1.947  12.354  25.880  1.00  0.00     0.223 A 
ENDROOT
BRANCH   1  11
ATOM     11  C   UNL     1      -2.133  10.200  24.570  1.00  0.00     0.091 A 
ATOM     12  C   UNL     1      -3.250   9.764  23.843  1.00  0.00     0.068 A 
ATOM     13  C   UNL     1      -3.101   8.987  22.688  1.00  0.00     0.162 A 
ATOM     14  C   UNL     1      -0.852   9.814  24.148  1.00  0.00     0.068 A 
ATOM     15  C   UNL     1      -1.804   8.622  22.256  1.00  0.00     0.200 A 
ATOM     16  C   UNL     1      -0.686   9.036  22.995  1.00  0.00     0.162 A 
BRANCH  13  17
ATOM     17  O   UNL     1      -4.259   8.601  22.010  1.00  0.00    -0.504 OA
ATOM     18  H   UNL     1      -5.091   9.168  21.944  1.00  0.00     0.293 HD
ENDBRANCH  13  17
BRANCH  15  19
ATOM     19  O   UNL     1      -1.583   7.852  21.110  1.00  0.00    -0.502 OA
ATOM     20  H   UNL     1      -2.294   7.299  20.654  1.00  0.00     0.293 HD
ENDBRANCH  15  19
BRANCH  16  21
ATOM     21  O   UNL     1       0.590   8.664  22.578  1.00  0.00    -0.504 OA
ATOM     22  H   UNL     1       0.982   7.759  22.811  1.00  0.00     0.293 HD
ENDBRANCH  16  21
ENDBRANCH   1  11
BRANCH  10  23
ATOM     23  O   UNL     1      -1.401  13.012  24.778  1.00  0.00    -0.500 OA
ATOM     24  H   UNL     1      -0.721  12.567  24.174  1.00  0.00     0.294 HD
ENDBRANCH  10  23
BRANCH   5  25
ATOM     25  O   UNL     1      -4.585  10.256  31.297  1.00  0.00    -0.507 OA
ATOM     26  H   UNL     1      -4.052   9.651  31.911  1.00  0.00     0.293 HD
ENDBRANCH   5  25
BRANCH   7  27
ATOM     27  O   UNL     1      -2.644  14.357  29.681  1.00  0.00    -0.507 OA
ATOM     28  H   UNL     1      -1.817  14.813  29.323  1.00  0.00     0.293 HD
ENDBRANCH   7  27
TORSDOF 7
ENDMDL
MODEL 3
REMARK VINA RESULT:    -6.793      6.495      8.612
REMARK INTER + INTRA:          -8.723
REMARK INTER:                  -8.619
REMARK INTRA:                  -0.105
REMARK UNBOUND:                -0.341
REMARK SMILES Oc1cc(O)c2cc(O)c(-c3cc(O)c(O)c(O)c3)[o+]c2c1
REMARK SMILES IDX 10 1 20 2 21 3 22 4 2 5 3 6 4 7 6 8 7 9 8 10 11 11 12 12
REMARK SMILES IDX 13 13 19 14 15 15 17 16 14 17 16 19 18 21 9 23 1 25 5 27
REMARK H PARENT 14 18 16 20 18 22 9 24 1 26 5 28
REMARK Flexibility Score: inf
ROOT
ATOM      1  C   UNL     1       2.792  15.699  24.837  1.00  0.00     0.402 A 
ATOM      2  O   UNL     1       1.583  15.319  25.245  1.00  0.00    -0.202 OA
ATOM      3  C   UNL     1       1.265  14.056  25.504  1.00  0.00     0.368 A 
ATOM      4  C   UNL     1      -0.034  13.755  25.925  1.00  0.00     0.162 A 
ATOM      5  C   UNL     1      -0.398  12.437  26.201  1.00  0.00     0.128 A 
ATOM      6  C   UNL     1       0.540  11.410  26.057  1.00  0.00     0.093 A 
ATOM      7  C   UNL     1       1.848  11.684  25.637  1.00  0.00     0.136 A 
ATOM      8  C   UNL     1       2.223  13.025  25.357  1.00  0.00     0.125 A 
ATOM      9  C   UNL     1       3.513  13.395  24.943  1.00  0.00     0.078 A 
ATOM     10  C   UNL     1       3.809  14.738  24.690  1.00  0.00     0.223 A 
ENDROOT
BRANCH   1  11
ATOM     11  C   UNL     1       3.022  17.137  24.570  1.00  0.00     0.091 A 
ATOM     12  C   UNL     1       2.610  18.088  25.514  1.00  0.00     0.068 A 
ATOM     13  C   UNL     1       2.793  19.458  25.286  1.00  0.00     0.162 A 
ATOM     14  C   UNL     1       3.592  17.575  23.365  1.00  0.00     0.068 A 
ATOM     15  C   UNL     1       3.390  19.889  24.078  1.00  0.00     0.200 A 
ATOM     16  C   UNL     1       3.781  18.941  23.122  1.00  0.00     0.162 A 
BRANCH  13  17
ATOM     17  O   UNL     1       2.368  20.344  26.277  1.00  0.00    -0.504 OA
ATOM     18  H   UNL     1       1.569  20.954  26.186  1.00  0.00     0.293 HD
ENDBRANCH  13  17
BRANCH  15  19
ATOM     19  O   UNL     1       3.607  21.239  23.789  1.00  0.00    -0.502 OA
ATOM     20  H   UNL     1       2.868  21.910  23.632  1.00  0.00     0.293 HD
ENDBRANCH  15  19
BRANCH  16  21
ATOM     21  O   UNL     1       4.355  19.367  21.926  1.00  0.00    -0.504 OA
ATOM     22  H   UNL     1       5.218  19.897  21.910  1.00  0.00     0.293 HD
ENDBRANCH  16  21
ENDBRANCH   1  11
BRANCH  10  23
ATOM     23  O   UNL     1       5.103  15.112  24.328  1.00  0.00    -0.500 OA
ATOM     24  H   UNL     1       5.333  16.068  24.081  1.00  0.00     0.294 HD
ENDBRANCH  10  23
BRANCH   5  25
ATOM     25  O   UNL     1      -1.697  12.157  26.620  1.00  0.00    -0.507 OA
ATOM     26  H   UNL     1      -2.503  12.438  26.072  1.00  0.00     0.293 HD
ENDBRANCH   5  25
BRANCH   7  27
ATOM     27  O   UNL     1       2.726  10.604  25.513  1.00  0.00    -0.507 OA
ATOM     28  H   UNL     1       2.601   9.837  24.868  1.00  0.00     0.293 HD
ENDBRANCH   7  27
TORSDOF 7
ENDMDL
MODEL 4
REMARK VINA RESULT:    -6.756      1.566      2.713
REMARK INTER + INTRA:          -8.677
REMARK INTER:                  -8.430
REMARK INTRA:                  -0.247
REMARK UNBOUND:                -0.341
REMARK SMILES Oc1cc(O)c2cc(O)c(-c3cc(O)c(O)c(O)c3)[o+]c2c1
REMARK SMILES IDX 10 1 20 2 21 3 22 4 2 5 3 6 4 7 6 8 7 9 8 10 11 11 12 12
REMARK SMILES IDX 13 13 19 14 15 15 17 16 14 17 16 19 18 21 9 23 1 25 5 27
REMARK H PARENT 14 18 16 20 18 22 9 24 1 26 5 28
REMARK Flexibility Score: inf
ROOT
ATOM      1  C   UNL     1      -2.714  10.848  26.872  1.00  0.00     0.402 A 
ATOM      2  O   UNL     1      -2.872  12.146  27.119  1.00  0.00    -0.202 OA
ATOM      3  C   UNL     1      -2.957  12.650  28.346  1.00  0.00     0.368 A 
ATOM      4  C   UNL     1      -3.127  14.028  28.504  1.00  0.00     0.162 A 
ATOM      5  C   UNL     1      -3.222  14.585  29.780  1.00  0.00     0.128 A 
ATOM      6  C   UNL     1      -3.148  13.760  30.907  1.00  0.00     0.093 A 
ATOM      7  C   UNL     1      -2.978  12.376  30.776  1.00  0.00     0.136 A 
ATOM      8  C   UNL     1      -2.879  11.807  29.479  1.00  0.00     0.125 A 
ATOM      9  C   UNL     1      -2.695  10.433  29.252  1.00  0.00     0.078 A 
ATOM     10  C   UNL     1      -2.601   9.945  27.944  1.00  0.00     0.223 A 
ENDROOT
BRANCH   1  11
ATOM     11  C   UNL     1      -2.643  10.408  25.460  1.00  0.00     0.091 A 
ATOM     12  C   UNL     1      -3.796  10.458  24.663  1.00  0.00     0.068 A 
ATOM     13  C   UNL     1      -3.771  10.031  23.330  1.00  0.00     0.162 A 
ATOM     14  C   UNL     1      -1.461   9.885  24.915  1.00  0.00     0.068 A 
ATOM     15  C   UNL     1      -2.568   9.527  22.781  1.00  0.00     0.200 A 
ATOM     16  C   UNL     1      -1.420   9.454  23.583  1.00  0.00     0.162 A 
BRANCH  13  17
ATOM     17  O   UNL     1      -4.955  10.123  22.595  1.00  0.00    -0.504 OA
ATOM     18  H   UNL     1      -5.675  10.810  22.766  1.00  0.00     0.293 HD
ENDBRANCH  13  17
BRANCH  15  19
ATOM     19  O   UNL     1      -2.472   9.089  21.458  1.00  0.00    -0.502 OA
ATOM     20  H   UNL     1      -2.128   9.657  20.697  1.00  0.00     0.293 HD
ENDBRANCH  15  19
BRANCH  16  21
ATOM     21  O   UNL     1      -0.239   8.944  23.048  1.00  0.00    -0.504 OA
ATOM     22  H   UNL     1       0.548   9.543  22.830  1.00  0.00     0.293 HD
ENDBRANCH  16  21
ENDBRANCH   1  11
BRANCH  10  23
ATOM     23  O   UNL     1      -2.368   8.589  27.720  1.00  0.00    -0.500 OA
ATOM     24  H   UNL     1      -2.710   8.119  26.889  1.00  0.00     0.294 HD
ENDBRANCH  10  23
BRANCH   5  25
ATOM     25  O   UNL     1      -3.391  15.961  29.917  1.00  0.00    -0.507 OA
ATOM     26  H   UNL     1      -2.735  16.525  30.445  1.00  0.00     0.293 HD
ENDBRANCH   5  25
BRANCH   7  27
ATOM     27  O   UNL     1      -2.917  11.620  31.949  1.00  0.00    -0.507 OA
ATOM     28  H   UNL     1      -2.274  10.857  32.104  1.00  0.00     0.293 HD
ENDBRANCH   7  27
TORSDOF 7
ENDMDL
MODEL 5
REMARK VINA RESULT:    -6.656      8.413     10.053
REMARK INTER + INTRA:          -8.554
REMARK INTER:                  -8.596
REMARK INTRA:                   0.042
REMARK UNBOUND:                -0.341
REMARK SMILES Oc1cc(O)c2cc(O)c(-c3cc(O)c(O)c(O)c3)[o+]c2c1
REMARK SMILES IDX 10 1 20 2 21 3 22 4 2 5 3 6 4 7 6 8 7 9 8 10 11 11 12 12
REMARK SMILES IDX 13 13 19 14 15 15 17 16 14 17 16 19 18 21 9 23 1 25 5 27
REMARK H PARENT 14 18 16 20 18 22 9 24 1 26 5 28
REMARK Flexibility Score: inf
ROOT
ATOM      1  C   UNL     1       2.891  17.704  24.330  1.00  0.00     0.402 A 
ATOM      2  O   UNL     1       3.537  18.135  23.249  1.00  0.00    -0.202 OA
ATOM      3  C   UNL     1       3.638  19.420  22.924  1.00  0.00     0.368 A 
ATOM      4  C   UNL     1       4.335  19.775  21.766  1.00  0.00     0.162 A 
ATOM      5  C   UNL     1       4.455  21.115  21.398  1.00  0.00     0.128 A 
ATOM      6  C   UNL     1       3.876  22.110  22.192  1.00  0.00     0.093 A 
ATOM      7  C   UNL     1       3.173  21.781  23.358  1.00  0.00     0.136 A 
ATOM      8  C   UNL     1       3.051  20.418  23.737  1.00  0.00     0.125 A 
ATOM      9  C   UNL     1       2.377  19.996  24.894  1.00  0.00     0.078 A 
ATOM     10  C   UNL     1       2.301  18.635  25.204  1.00  0.00     0.223 A 
ENDROOT
BRANCH   1  11
ATOM     11  C   UNL     1       2.838  16.246  24.579  1.00  0.00     0.091 A 
ATOM     12  C   UNL     1       3.952  15.452  24.268  1.00  0.00     0.068 A 
ATOM     13  C   UNL     1       3.930  14.066  24.471  1.00  0.00     0.162 A 
ATOM     14  C   UNL     1       1.676  15.629  25.067  1.00  0.00     0.068 A 
ATOM     15  C   UNL     1       2.762  13.456  24.986  1.00  0.00     0.200 A 
ATOM     16  C   UNL     1       1.639  14.244  25.275  1.00  0.00     0.162 A 
BRANCH  13  17
ATOM     17  O   UNL     1       5.080  13.344  24.149  1.00  0.00    -0.504 OA
ATOM     18  H   UNL     1       5.171  12.761  23.331  1.00  0.00     0.293 HD
ENDBRANCH  13  17
BRANCH  15  19
ATOM     19  O   UNL     1       2.674  12.080  25.217  1.00  0.00    -0.502 OA
ATOM     20  H   UNL     1       3.251  11.580  25.878  1.00  0.00     0.293 HD
ENDBRANCH  15  19
BRANCH  16  21
ATOM     21  O   UNL     1       0.484  13.641  25.767  1.00  0.00    -0.504 OA
ATOM     22  H   UNL     1       0.492  13.090  26.617  1.00  0.00     0.293 HD
ENDBRANCH  16  21
ENDBRANCH   1  11
BRANCH  10  23
ATOM     23  O   UNL     1       1.675  18.219  26.379  1.00  0.00    -0.500 OA
ATOM     24  H   UNL     1       2.193  17.785  27.135  1.00  0.00     0.294 HD
ENDBRANCH  10  23
BRANCH   5  25
ATOM     25  O   UNL     1       5.153  21.449  20.239  1.00  0.00    -0.507 OA
ATOM     26  H   UNL     1       5.690  22.306  20.172  1.00  0.00     0.293 HD
ENDBRANCH   5  25
BRANCH   7  27
ATOM     27  O   UNL     1       2.621  22.832  24.096  1.00  0.00    -0.507 OA
ATOM     28  H   UNL     1       1.955  23.497  23.732  1.00  0.00     0.293 HD
ENDBRANCH   7  27
TORSDOF 7
ENDMDL
MODEL 6
REMARK VINA RESULT:    -6.651      1.383      7.168
REMARK INTER + INTRA:          -8.547
REMARK INTER:                  -8.168
REMARK INTRA:                  -0.379
REMARK UNBOUND:                -0.341
REMARK SMILES Oc1cc(O)c2cc(O)c(-c3cc(O)c(O)c(O)c3)[o+]c2c1
REMARK SMILES IDX 10 1 20 2 21 3 22 4 2 5 3 6 4 7 6 8 7 9 8 10 11 11 12 12
REMARK SMILES IDX 13 13 19 14 15 15 17 16 14 17 16 19 18 21 9 23 1 25 5 27
REMARK H PARENT 14 18 16 20 18 22 9 24 1 26 5 28
REMARK Flexibility Score: inf
ROOT
ATOM      1  C   UNL     1      -2.768  11.527  27.244  1.00  0.00     0.402 A 
ATOM      2  O   UNL     1      -1.505  11.186  26.999  1.00  0.00    -0.202 OA
ATOM      3  C   UNL     1      -1.122  10.546  25.899  1.00  0.00     0.368 A 
ATOM      4  C   UNL     1       0.228  10.228  25.732  1.00  0.00     0.162 A 
ATOM      5  C   UNL     1       0.659   9.552  24.590  1.00  0.00     0.128 A 
ATOM      6  C   UNL     1      -0.267   9.190  23.605  1.00  0.00     0.093 A 
ATOM      7  C   UNL     1      -1.626   9.497  23.748  1.00  0.00     0.136 A 
ATOM      8  C   UNL     1      -2.067  10.186  24.908  1.00  0.00     0.125 A 
ATOM      9  C   UNL     1      -3.406  10.546  25.130  1.00  0.00     0.078 A 
ATOM     10  C   UNL     1      -3.764  11.229  26.296  1.00  0.00     0.223 A 
ENDROOT
BRANCH   1  11
ATOM     11  C   UNL     1      -3.070  12.230  28.511  1.00  0.00     0.091 A 
ATOM     12  C   UNL     1      -3.489  11.491  29.627  1.00  0.00     0.068 A 
ATOM     13  C   UNL     1      -3.802  12.125  30.836  1.00  0.00     0.162 A 
ATOM     14  C   UNL     1      -3.004  13.629  28.605  1.00  0.00     0.068 A 
ATOM     15  C   UNL     1      -3.709  13.534  30.929  1.00  0.00     0.200 A 
ATOM     16  C   UNL     1      -3.314  14.277  29.807  1.00  0.00     0.162 A 
BRANCH  13  17
ATOM     17  O   UNL     1      -4.199  11.323  31.907  1.00  0.00    -0.504 OA
ATOM     18  H   UNL     1      -5.007  10.717  31.891  1.00  0.00     0.293 HD
ENDBRANCH  13  17
BRANCH  15  19
ATOM     19  O   UNL     1      -4.002  14.230  32.105  1.00  0.00    -0.502 OA
ATOM     20  H   UNL     1      -3.386  14.907  32.530  1.00  0.00     0.293 HD
ENDBRANCH  15  19
BRANCH  16  21
ATOM     21  O   UNL     1      -3.237  15.665  29.893  1.00  0.00    -0.504 OA
ATOM     22  H   UNL     1      -3.855  16.266  29.360  1.00  0.00     0.293 HD
ENDBRANCH  16  21
ENDBRANCH   1  11
BRANCH  10  23
ATOM     23  O   UNL     1      -5.085  11.630  26.493  1.00  0.00    -0.500 OA
ATOM     24  H   UNL     1      -5.314  12.520  26.921  1.00  0.00     0.294 HD
ENDBRANCH  10  23
BRANCH   5  25
ATOM     25  O   UNL     1       2.010   9.245  24.442  1.00  0.00    -0.507 OA
ATOM     26  H   UNL     1       2.727   9.956  24.528  1.00  0.00     0.293 HD
ENDBRANCH   5  25
BRANCH   7  27
ATOM     27  O   UNL     1      -2.487   9.098  22.722  1.00  0.00    -0.507 OA
ATOM     28  H   UNL     1      -3.420   9.462  22.586  1.00  0.00     0.293 HD
ENDBRANCH   7  27
TORSDOF 7
ENDMDL
MODEL 7
REMARK VINA RESULT:    -6.647      5.088      7.014
REMARK INTER + INTRA:          -8.543
REMARK INTER:                  -8.443
REMARK INTRA:                  -0.100
REMARK UNBOUND:                -0.341
REMARK SMILES Oc1cc(O)c2cc(O)c(-c3cc(O)c(O)c(O)c3)[o+]c2c1
REMARK SMILES IDX 10 1 20 2 21 3 22 4 2 5 3 6 4 7 6 8 7 9 8 10 11 11 12 12
REMARK SMILES IDX 13 13 19 14 15 15 17 16 14 17 16 19 18 21 9 23 1 25 5 27
REMARK H PARENT 14 18 16 20 18 22 9 24 1 26 5 28
REMARK Flexibility Score: inf
ROOT
ATOM      1  C   UNL     1       1.549  14.213  25.435  1.00  0.00     0.402 A 
ATOM      2  O   UNL     1       0.249  14.114  25.707  1.00  0.00    -0.202 OA
ATOM      3  C   UNL     1      -0.376  12.953  25.867  1.00  0.00     0.368 A 
ATOM      4  C   UNL     1      -1.745  12.951  26.148  1.00  0.00     0.162 A 
ATOM      5  C   UNL     1      -2.429  11.747  26.318  1.00  0.00     0.128 A 
ATOM      6  C   UNL     1      -1.742  10.534  26.206  1.00  0.00     0.093 A 
ATOM      7  C   UNL     1      -0.370  10.508  25.926  1.00  0.00     0.136 A 
ATOM      8  C   UNL     1       0.330  11.731  25.754  1.00  0.00     0.125 A 
ATOM      9  C   UNL     1       1.706  11.802  25.484  1.00  0.00     0.078 A 
ATOM     10  C   UNL     1       2.327  13.046  25.332  1.00  0.00     0.223 A 
ENDROOT
BRANCH   1  11
ATOM     11  C   UNL     1       2.128  15.564  25.268  1.00  0.00     0.091 A 
ATOM     12  C   UNL     1       1.843  16.559  26.215  1.00  0.00     0.068 A 
ATOM     13  C   UNL     1       2.359  17.854  26.079  1.00  0.00     0.162 A 
ATOM     14  C   UNL     1       2.912  15.891  24.151  1.00  0.00     0.068 A 
ATOM     15  C   UNL     1       3.168  18.169  24.962  1.00  0.00     0.200 A 
ATOM     16  C   UNL     1       3.434  17.182  24.001  1.00  0.00     0.162 A 
BRANCH  13  17
ATOM     17  O   UNL     1       2.042  18.787  27.068  1.00  0.00    -0.504 OA
ATOM     18  H   UNL     1       2.702  19.141  27.744  1.00  0.00     0.293 HD
ENDBRANCH  13  17
BRANCH  15  19
ATOM     19  O   UNL     1       3.717  19.439  24.767  1.00  0.00    -0.502 OA
ATOM     20  H   UNL     1       4.302  19.912  25.441  1.00  0.00     0.293 HD
ENDBRANCH  15  19
BRANCH  16  21
ATOM     21  O   UNL     1       4.218  17.496  22.893  1.00  0.00    -0.504 OA
ATOM     22  H   UNL     1       4.523  18.445  22.709  1.00  0.00     0.293 HD
ENDBRANCH  16  21
ENDBRANCH   1  11
BRANCH  10  23
ATOM     23  O   UNL     1       3.703  13.118  25.113  1.00  0.00    -0.500 OA
ATOM     24  H   UNL     1       4.347  12.472  25.554  1.00  0.00     0.294 HD
ENDBRANCH  10  23
BRANCH   5  25
ATOM     25  O   UNL     1      -3.794  11.766  26.598  1.00  0.00    -0.507 OA
ATOM     26  H   UNL     1      -4.304  10.916  26.808  1.00  0.00     0.293 HD
ENDBRANCH   5  25
BRANCH   7  27
ATOM     27  O   UNL     1       0.244   9.256  25.827  1.00  0.00    -0.507 OA
ATOM     28  H   UNL     1       1.030   9.052  25.226  1.00  0.00     0.293 HD
ENDBRANCH   7  27
TORSDOF 7
ENDMDL
MODEL 8
REMARK VINA RESULT:    -6.566      1.764      7.157
REMARK INTER + INTRA:          -8.442
REMARK INTER:                  -8.057
REMARK INTRA:                  -0.385
REMARK UNBOUND:                -0.341
REMARK SMILES Oc1cc(O)c2cc(O)c(-c3cc(O)c(O)c(O)c3)[o+]c2c1
REMARK SMILES IDX 10 1 20 2 21 3 22 4 2 5 3 6 4 7 6 8 7 9 8 10 11 11 12 12
REMARK SMILES IDX 13 13 19 14 15 15 17 16 14 17 16 19 18 21 9 23 1 25 5 27
REMARK H PARENT 14 18 16 20 18 22 9 24 1 26 5 28
REMARK Flexibility Score: inf
ROOT
ATOM      1  C   UNL     1      -2.234  11.198  27.098  1.00  0.00     0.402 A 
ATOM      2  O   UNL     1      -3.149  10.420  26.525  1.00  0.00    -0.202 OA
ATOM      3  C   UNL     1      -2.913   9.698  25.434  1.00  0.00     0.368 A 
ATOM      4  C   UNL     1      -3.940   8.912  24.904  1.00  0.00     0.162 A 
ATOM      5  C   UNL     1      -3.722   8.146  23.758  1.00  0.00     0.128 A 
ATOM      6  C   UNL     1      -2.470   8.165  23.136  1.00  0.00     0.093 A 
ATOM      7  C   UNL     1      -1.424   8.944  23.647  1.00  0.00     0.136 A 
ATOM      8  C   UNL     1      -1.642   9.722  24.814  1.00  0.00     0.125 A 
ATOM      9  C   UNL     1      -0.649  10.522  25.404  1.00  0.00     0.078 A 
ATOM     10  C   UNL     1      -0.937  11.259  26.557  1.00  0.00     0.223 A 
ENDROOT
BRANCH   1  11
ATOM     11  C   UNL     1      -2.622  11.963  28.305  1.00  0.00     0.091 A 
ATOM     12  C   UNL     1      -2.532  11.354  29.565  1.00  0.00     0.068 A 
ATOM     13  C   UNL     1      -2.909  12.041  30.726  1.00  0.00     0.162 A 
ATOM     14  C   UNL     1      -3.134  13.266  28.212  1.00  0.00     0.068 A 
ATOM     15  C   UNL     1      -3.401  13.363  30.626  1.00  0.00     0.200 A 
ATOM     16  C   UNL     1      -3.515  13.965  29.364  1.00  0.00     0.162 A 
BRANCH  13  17
ATOM     17  O   UNL     1      -2.780  11.374  31.946  1.00  0.00    -0.504 OA
ATOM     18  H   UNL     1      -3.223  10.492  32.159  1.00  0.00     0.293 HD
ENDBRANCH  13  17
BRANCH  15  19
ATOM     19  O   UNL     1      -3.790  14.106  31.744  1.00  0.00    -0.502 OA
ATOM     20  H   UNL     1      -3.771  13.756  32.691  1.00  0.00     0.293 HD
ENDBRANCH  15  19
BRANCH  16  21
ATOM     21  O   UNL     1      -4.014  15.262  29.264  1.00  0.00    -0.504 OA
ATOM     22  H   UNL     1      -3.791  15.972  29.951  1.00  0.00     0.293 HD
ENDBRANCH  16  21
ENDBRANCH   1  11
BRANCH  10  23
ATOM     23  O   UNL     1       0.062  12.014  27.172  1.00  0.00    -0.500 OA
ATOM     24  H   UNL     1      -0.122  12.567  28.001  1.00  0.00     0.294 HD
ENDBRANCH  10  23
BRANCH   5  25
ATOM     25  O   UNL     1      -4.758   7.368  23.245  1.00  0.00    -0.507 OA
ATOM     26  H   UNL     1      -5.298   7.668  22.442  1.00  0.00     0.293 HD
ENDBRANCH   5  25
BRANCH   7  27
ATOM     27  O   UNL     1      -0.204   8.911  22.966  1.00  0.00    -0.507 OA
ATOM     28  H   UNL     1       0.698   9.034  23.404  1.00  0.00     0.293 HD
ENDBRANCH   7  27
TORSDOF 7
ENDMDL
MODEL 9
REMARK VINA RESULT:    -6.548      7.585      9.263
REMARK INTER + INTRA:          -8.421
REMARK INTER:                  -8.258
REMARK INTRA:                  -0.162
REMARK UNBOUND:                -0.341
REMARK SMILES Oc1cc(O)c2cc(O)c(-c3cc(O)c(O)c(O)c3)[o+]c2c1
REMARK SMILES IDX 10 1 20 2 21 3 22 4 2 5 3 6 4 7 6 8 7 9 8 10 11 11 12 12
REMARK SMILES IDX 13 13 19 14 15 15 17 16 14 17 16 19 18 21 9 23 1 25 5 27
REMARK H PARENT 14 18 16 20 18 22 9 24 1 26 5 28
REMARK Flexibility Score: inf
ROOT
ATOM      1  C   UNL     1       2.345  17.501  25.177  1.00  0.00     0.402 A 
ATOM      2  O   UNL     1       2.558  18.173  24.048  1.00  0.00    -0.202 OA
ATOM      3  C   UNL     1       2.495  19.498  23.965  1.00  0.00     0.368 A 
ATOM      4  C   UNL     1       2.731  20.115  22.733  1.00  0.00     0.162 A 
ATOM      5  C   UNL     1       2.669  21.503  22.616  1.00  0.00     0.128 A 
ATOM      6  C   UNL     1       2.369  22.285  23.737  1.00  0.00     0.093 A 
ATOM      7  C   UNL     1       2.128  21.692  24.983  1.00  0.00     0.136 A 
ATOM      8  C   UNL     1       2.193  20.279  25.106  1.00  0.00     0.125 A 
ATOM      9  C   UNL     1       1.980  19.600  26.317  1.00  0.00     0.078 A 
ATOM     10  C   UNL     1       2.064  18.204  26.362  1.00  0.00     0.223 A 
ENDROOT
BRANCH   1  11
ATOM     11  C   UNL     1       2.433  16.024  25.139  1.00  0.00     0.091 A 
ATOM     12  C   UNL     1       1.328  15.256  25.535  1.00  0.00     0.068 A 
ATOM     13  C   UNL     1       1.382  13.857  25.531  1.00  0.00     0.162 A 
ATOM     14  C   UNL     1       3.619  15.371  24.769  1.00  0.00     0.068 A 
ATOM     15  C   UNL     1       2.575  13.207  25.134  1.00  0.00     0.200 A 
ATOM     16  C   UNL     1       3.689  13.972  24.760  1.00  0.00     0.162 A 
BRANCH  13  17
ATOM     17  O   UNL     1       0.239  13.161  25.927  1.00  0.00    -0.504 OA
ATOM     18  H   UNL     1      -0.489  12.863  25.295  1.00  0.00     0.293 HD
ENDBRANCH  13  17
BRANCH  15  19
ATOM     19  O   UNL     1       2.695  11.815  25.102  1.00  0.00    -0.502 OA
ATOM     20  H   UNL     1       3.519  11.311  25.398  1.00  0.00     0.293 HD
ENDBRANCH  15  19
BRANCH  16  21
ATOM     21  O   UNL     1       4.868  13.332  24.384  1.00  0.00    -0.504 OA
ATOM     22  H   UNL     1       5.611  13.154  25.049  1.00  0.00     0.293 HD
ENDBRANCH  16  21
ENDBRANCH   1  11
BRANCH  10  23
ATOM     23  O   UNL     1       1.902  17.533  27.574  1.00  0.00    -0.500 OA
ATOM     24  H   UNL     1       1.066  16.998  27.779  1.00  0.00     0.294 HD
ENDBRANCH  10  23
BRANCH   5  25
ATOM     25  O   UNL     1       2.908  22.099  21.379  1.00  0.00    -0.507 OA
ATOM     26  H   UNL     1       3.800  22.004  20.909  1.00  0.00     0.293 HD
ENDBRANCH   5  25
BRANCH   7  27
ATOM     27  O   UNL     1       1.832  22.540  26.053  1.00  0.00    -0.507 OA
ATOM     28  H   UNL     1       2.343  23.383  26.273  1.00  0.00     0.293 HD
ENDBRANCH   7  27
TORSDOF 7
ENDMDL
