MODEL 1
REMARK VINA RESULT:    -5.889      0.000      0.000
REMARK INTER + INTRA:          -7.188
REMARK INTER:                  -6.922
REMARK INTRA:                  -0.267
REMARK UNBOUND:                -0.267
REMARK SMILES O=c1cc(-c2ccc(O)c(O)c2)oc2cc(O)cc(O)c12
REMARK SMILES IDX 4 1 3 2 2 3 1 4 21 5 19 6 18 7 16 8 15 9 14 10 13 11 5 12
REMARK SMILES IDX 6 13 7 14 8 15 12 16 10 17 9 18 11 20 20 22 17 24
REMARK H PARENT 9 19 11 21 20 23 17 25
REMARK Flexibility Score: inf
ROOT
ATOM      1  C   UNL     1      23.048   5.113 -22.727  1.00  0.00     0.138 A 
ATOM      2  C   UNL     1      24.038   5.395 -23.679  1.00  0.00     0.100 A 
ATOM      3  C   UNL     1      24.001   4.760 -24.921  1.00  0.00     0.197 A 
ATOM      4  O   UNL     1      24.866   5.079 -25.777  1.00  0.00    -0.289 OA
ATOM      5  C   UNL     1      22.984   3.815 -25.199  1.00  0.00     0.107 A 
ATOM      6  C   UNL     1      22.871   3.077 -26.414  1.00  0.00     0.134 A 
ATOM      7  C   UNL     1      21.756   2.255 -26.622  1.00  0.00     0.093 A 
ATOM      8  C   UNL     1      20.783   2.099 -25.635  1.00  0.00     0.123 A 
ATOM      9  C   UNL     1      20.912   2.774 -24.420  1.00  0.00     0.094 A 
ATOM     10  C   UNL     1      21.994   3.628 -24.197  1.00  0.00     0.146 A 
ATOM     11  O   UNL     1      22.073   4.263 -23.032  1.00  0.00    -0.456 OA
ENDROOT
BRANCH   1  12
ATOM     12  C   UNL     1      23.040   5.759 -21.390  1.00  0.00     0.021 A 
ATOM     13  C   UNL     1      23.250   4.977 -20.244  1.00  0.00     0.016 A 
ATOM     14  C   UNL     1      23.254   5.562 -18.976  1.00  0.00     0.051 A 
ATOM     15  C   UNL     1      23.060   6.938 -18.824  1.00  0.00     0.157 A 
ATOM     16  C   UNL     1      22.859   7.146 -21.239  1.00  0.00     0.062 A 
ATOM     17  C   UNL     1      22.865   7.743 -19.972  1.00  0.00     0.158 A 
BRANCH  15  18
ATOM     18  O   UNL     1      23.070   7.460 -17.529  1.00  0.00    -0.504 OA
ATOM     19  H   UNL     1      23.453   8.363 -17.287  1.00  0.00     0.293 HD
ENDBRANCH  15  18
BRANCH  17  20
ATOM     20  O   UNL     1      22.681   9.125 -19.901  1.00  0.00    -0.504 OA
ATOM     21  H   UNL     1      23.226   9.795 -20.424  1.00  0.00     0.293 HD
ENDBRANCH  17  20
ENDBRANCH   1  12
BRANCH   6  22
ATOM     22  O   UNL     1      23.830   3.096 -27.432  1.00  0.00    -0.507 OA
ATOM     23  H   UNL     1      24.757   3.483 -27.343  1.00  0.00     0.293 HD
ENDBRANCH   6  22
BRANCH   8  24
ATOM     24  O   UNL     1      19.695   1.260 -25.870  1.00  0.00    -0.508 OA
ATOM     25  H   UNL     1      18.837   1.609 -26.281  1.00  0.00     0.293 HD
ENDBRANCH   8  24
TORSDOF 5
ENDMDL
MODEL 2
REMARK VINA RESULT:    -5.807      1.887      3.352
REMARK INTER + INTRA:          -7.092
REMARK INTER:                  -6.804
REMARK INTRA:                  -0.289
REMARK UNBOUND:                -0.267
REMARK SMILES O=c1cc(-c2ccc(O)c(O)c2)oc2cc(O)cc(O)c12
REMARK SMILES IDX 4 1 3 2 2 3 1 4 21 5 19 6 18 7 16 8 15 9 14 10 13 11 5 12
REMARK SMILES IDX 6 13 7 14 8 15 12 16 10 17 9 18 11 20 20 22 17 24
REMARK H PARENT 9 19 11 21 20 23 17 25
REMARK Flexibility Score: inf
ROOT
ATOM      1  C   UNL     1      23.496   6.079 -21.771  1.00  0.00     0.138 A 
ATOM      2  C   UNL     1      22.874   4.823 -21.822  1.00  0.00     0.100 A 
ATOM      3  C   UNL     1      22.801   4.138 -23.036  1.00  0.00     0.197 A 
ATOM      4  O   UNL     1      22.292   2.988 -23.039  1.00  0.00    -0.289 OA
ATOM      5  C   UNL     1      23.325   4.729 -24.210  1.00  0.00     0.107 A 
ATOM      6  C   UNL     1      23.270   4.143 -25.509  1.00  0.00     0.134 A 
ATOM      7  C   UNL     1      23.927   4.768 -26.577  1.00  0.00     0.093 A 
ATOM      8  C   UNL     1      24.584   5.986 -26.405  1.00  0.00     0.123 A 
ATOM      9  C   UNL     1      24.597   6.596 -25.150  1.00  0.00     0.094 A 
ATOM     10  C   UNL     1      23.982   5.980 -24.058  1.00  0.00     0.146 A 
ATOM     11  O   UNL     1      24.029   6.587 -22.876  1.00  0.00    -0.456 OA
ENDROOT
BRANCH   1  12
ATOM     12  C   UNL     1      23.601   6.850 -20.506  1.00  0.00     0.021 A 
ATOM     13  C   UNL     1      24.679   7.729 -20.322  1.00  0.00     0.016 A 
ATOM     14  C   UNL     1      24.797   8.471 -19.144  1.00  0.00     0.051 A 
ATOM     15  C   UNL     1      23.839   8.360 -18.132  1.00  0.00     0.157 A 
ATOM     16  C   UNL     1      22.628   6.749 -19.494  1.00  0.00     0.062 A 
ATOM     17  C   UNL     1      22.736   7.491 -18.311  1.00  0.00     0.158 A 
BRANCH  15  18
ATOM     18  O   UNL     1      24.018   9.125 -16.978  1.00  0.00    -0.504 OA
ATOM     19  H   UNL     1      23.709  10.083 -16.881  1.00  0.00     0.293 HD
ENDBRANCH  15  18
BRANCH  17  20
ATOM     20  O   UNL     1      21.732   7.340 -17.353  1.00  0.00    -0.504 OA
ATOM     21  H   UNL     1      21.906   7.259 -16.361  1.00  0.00     0.293 HD
ENDBRANCH  17  20
ENDBRANCH   1  12
BRANCH   6  22
ATOM     22  O   UNL     1      22.569   2.970 -25.808  1.00  0.00    -0.507 OA
ATOM     23  H   UNL     1      22.411   2.213 -25.162  1.00  0.00     0.293 HD
ENDBRANCH   6  22
BRANCH   8  24
ATOM     24  O   UNL     1      25.213   6.586 -27.494  1.00  0.00    -0.508 OA
ATOM     25  H   UNL     1      25.692   6.037 -28.198  1.00  0.00     0.293 HD
ENDBRANCH   8  24
TORSDOF 5
ENDMDL
MODEL 3
REMARK VINA RESULT:    -5.791      1.364      2.039
REMARK INTER + INTRA:          -7.074
REMARK INTER:                  -6.757
REMARK INTRA:                  -0.317
REMARK UNBOUND:                -0.267
REMARK SMILES O=c1cc(-c2ccc(O)c(O)c2)oc2cc(O)cc(O)c12
REMARK SMILES IDX 4 1 3 2 2 3 1 4 21 5 19 6 18 7 16 8 15 9 14 10 13 11 5 12
REMARK SMILES IDX 6 13 7 14 8 15 12 16 10 17 9 18 11 20 20 22 17 24
REMARK H PARENT 9 19 11 21 20 23 17 25
REMARK Flexibility Score: inf
ROOT
ATOM      1  C   UNL     1      23.598   6.380 -21.982  1.00  0.00     0.138 A 
ATOM      2  C   UNL     1      24.422   6.872 -23.005  1.00  0.00     0.100 A 
ATOM      3  C   UNL     1      24.445   6.228 -24.242  1.00  0.00     0.197 A 
ATOM      4  O   UNL     1      25.146   6.728 -25.159  1.00  0.00    -0.289 OA
ATOM      5  C   UNL     1      23.661   5.068 -24.446  1.00  0.00     0.107 A 
ATOM      6  C   UNL     1      23.635   4.305 -25.651  1.00  0.00     0.134 A 
ATOM      7  C   UNL     1      22.732   3.242 -25.777  1.00  0.00     0.093 A 
ATOM      8  C   UNL     1      21.898   2.877 -24.721  1.00  0.00     0.123 A 
ATOM      9  C   UNL     1      21.953   3.581 -23.518  1.00  0.00     0.094 A 
ATOM     10  C   UNL     1      22.818   4.668 -23.373  1.00  0.00     0.146 A 
ATOM     11  O   UNL     1      22.831   5.322 -22.216  1.00  0.00    -0.456 OA
ENDROOT
BRANCH   1  12
ATOM     12  C   UNL     1      23.537   7.027 -20.647  1.00  0.00     0.021 A 
ATOM     13  C   UNL     1      24.169   8.263 -20.448  1.00  0.00     0.016 A 
ATOM     14  C   UNL     1      24.120   8.895 -19.204  1.00  0.00     0.051 A 
ATOM     15  C   UNL     1      23.431   8.313 -18.135  1.00  0.00     0.157 A 
ATOM     16  C   UNL     1      22.830   6.448 -19.576  1.00  0.00     0.062 A 
ATOM     17  C   UNL     1      22.772   7.075 -18.324  1.00  0.00     0.158 A 
BRANCH  15  18
ATOM     18  O   UNL     1      23.424   8.993 -16.915  1.00  0.00    -0.504 OA
ATOM     19  H   UNL     1      22.755   8.823 -16.177  1.00  0.00     0.293 HD
ENDBRANCH  15  18
BRANCH  17  20
ATOM     20  O   UNL     1      22.051   6.442 -17.310  1.00  0.00    -0.504 OA
ATOM     21  H   UNL     1      21.945   5.440 -17.234  1.00  0.00     0.293 HD
ENDBRANCH  17  20
ENDBRANCH   1  12
BRANCH   6  22
ATOM     22  O   UNL     1      24.486   4.533 -26.738  1.00  0.00    -0.507 OA
ATOM     23  H   UNL     1      24.189   4.596 -27.699  1.00  0.00     0.293 HD
ENDBRANCH   6  22
BRANCH   8  24
ATOM     24  O   UNL     1      21.023   1.804 -24.877  1.00  0.00    -0.508 OA
ATOM     25  H   UNL     1      21.329   0.924 -25.275  1.00  0.00     0.293 HD
ENDBRANCH   8  24
TORSDOF 5
ENDMDL
MODEL 4
REMARK VINA RESULT:    -5.519     15.082     16.432
REMARK INTER + INTRA:          -6.753
REMARK INTER:                  -6.477
REMARK INTRA:                  -0.276
REMARK UNBOUND:                -0.267
REMARK SMILES O=c1cc(-c2ccc(O)c(O)c2)oc2cc(O)cc(O)c12
REMARK SMILES IDX 4 1 3 2 2 3 1 4 21 5 19 6 18 7 16 8 15 9 14 10 13 11 5 12
REMARK SMILES IDX 6 13 7 14 8 15 12 16 10 17 9 18 11 20 20 22 17 24
REMARK H PARENT 9 19 11 21 20 23 17 25
REMARK Flexibility Score: inf
ROOT
ATOM      1  C   UNL     1      31.484  -8.249 -27.107  1.00  0.00     0.138 A 
ATOM      2  C   UNL     1      32.665  -8.315 -27.861  1.00  0.00     0.100 A 
ATOM      3  C   UNL     1      32.603  -8.209 -29.250  1.00  0.00     0.197 A 
ATOM      4  O   UNL     1      33.683  -8.211 -29.895  1.00  0.00    -0.289 OA
ATOM      5  C   UNL     1      31.349  -8.068 -29.890  1.00  0.00     0.107 A 
ATOM      6  C   UNL     1      31.160  -7.992 -31.303  1.00  0.00     0.134 A 
ATOM      7  C   UNL     1      29.884  -7.735 -31.816  1.00  0.00     0.093 A 
ATOM      8  C   UNL     1      28.779  -7.611 -30.973  1.00  0.00     0.123 A 
ATOM      9  C   UNL     1      28.943  -7.738 -29.593  1.00  0.00     0.094 A 
ATOM     10  C   UNL     1      30.209  -7.960 -29.048  1.00  0.00     0.146 A 
ATOM     11  O   UNL     1      30.325  -8.061 -27.728  1.00  0.00    -0.456 OA
ENDROOT
BRANCH   1  12
ATOM     12  C   UNL     1      31.493  -8.357 -25.626  1.00  0.00     0.021 A 
ATOM     13  C   UNL     1      30.774  -7.425 -24.862  1.00  0.00     0.016 A 
ATOM     14  C   UNL     1      30.761  -7.508 -23.468  1.00  0.00     0.051 A 
ATOM     15  C   UNL     1      31.454  -8.528 -22.808  1.00  0.00     0.157 A 
ATOM     16  C   UNL     1      32.178  -9.392 -24.963  1.00  0.00     0.062 A 
ATOM     17  C   UNL     1      32.168  -9.486 -23.565  1.00  0.00     0.158 A 
BRANCH  15  18
ATOM     18  O   UNL     1      31.405  -8.552 -21.412  1.00  0.00    -0.504 OA
ATOM     19  H   UNL     1      30.612  -8.884 -20.881  1.00  0.00     0.293 HD
ENDBRANCH  15  18
BRANCH  17  20
ATOM     20  O   UNL     1      32.869 -10.541 -22.978  1.00  0.00    -0.504 OA
ATOM     21  H   UNL     1      32.490 -11.141 -22.259  1.00  0.00     0.293 HD
ENDBRANCH  17  20
ENDBRANCH   1  12
BRANCH   6  22
ATOM     22  O   UNL     1      32.182  -8.185 -32.238  1.00  0.00    -0.507 OA
ATOM     23  H   UNL     1      32.301  -9.014 -32.799  1.00  0.00     0.293 HD
ENDBRANCH   6  22
BRANCH   8  24
ATOM     24  O   UNL     1      27.520  -7.370 -31.520  1.00  0.00    -0.508 OA
ATOM     25  H   UNL     1      26.902  -6.666 -31.137  1.00  0.00     0.293 HD
ENDBRANCH   8  24
TORSDOF 5
ENDMDL
MODEL 5
REMARK VINA RESULT:    -5.475      2.900      7.048
REMARK INTER + INTRA:          -6.701
REMARK INTER:                  -6.437
REMARK INTRA:                  -0.265
REMARK UNBOUND:                -0.267
REMARK SMILES O=c1cc(-c2ccc(O)c(O)c2)oc2cc(O)cc(O)c12
REMARK SMILES IDX 4 1 3 2 2 3 1 4 21 5 19 6 18 7 16 8 15 9 14 10 13 11 5 12
REMARK SMILES IDX 6 13 7 14 8 15 12 16 10 17 9 18 11 20 20 22 17 24
REMARK H PARENT 9 19 11 21 20 23 17 25
REMARK Flexibility Score: inf
ROOT
ATOM      1  C   UNL     1      24.498   5.612 -22.539  1.00  0.00     0.138 A 
ATOM      2  C   UNL     1      24.375   4.349 -21.941  1.00  0.00     0.100 A 
ATOM      3  C   UNL     1      23.803   4.238 -20.674  1.00  0.00     0.197 A 
ATOM      4  O   UNL     1      23.650   3.087 -20.190  1.00  0.00    -0.289 OA
ATOM      5  C   UNL     1      23.379   5.402 -19.989  1.00  0.00     0.107 A 
ATOM      6  C   UNL     1      22.819   5.414 -18.676  1.00  0.00     0.134 A 
ATOM      7  C   UNL     1      22.328   6.613 -18.146  1.00  0.00     0.093 A 
ATOM      8  C   UNL     1      22.431   7.810 -18.855  1.00  0.00     0.123 A 
ATOM      9  C   UNL     1      23.027   7.819 -20.117  1.00  0.00     0.094 A 
ATOM     10  C   UNL     1      23.494   6.633 -20.688  1.00  0.00     0.146 A 
ATOM     11  O   UNL     1      24.042   6.683 -21.898  1.00  0.00    -0.456 OA
ENDROOT
BRANCH   1  12
ATOM     12  C   UNL     1      25.100   5.787 -23.885  1.00  0.00     0.021 A 
ATOM     13  C   UNL     1      26.486   5.968 -24.003  1.00  0.00     0.016 A 
ATOM     14  C   UNL     1      27.077   6.128 -25.258  1.00  0.00     0.051 A 
ATOM     15  C   UNL     1      26.301   6.100 -26.421  1.00  0.00     0.157 A 
ATOM     16  C   UNL     1      24.320   5.744 -25.056  1.00  0.00     0.062 A 
ATOM     17  C   UNL     1      24.904   5.899 -26.319  1.00  0.00     0.158 A 
BRANCH  15  18
ATOM     18  O   UNL     1      26.953   6.271 -27.644  1.00  0.00    -0.504 OA
ATOM     19  H   UNL     1      27.868   5.897 -27.854  1.00  0.00     0.293 HD
ENDBRANCH  15  18
BRANCH  17  20
ATOM     20  O   UNL     1      24.068   5.844 -27.436  1.00  0.00    -0.504 OA
ATOM     21  H   UNL     1      24.389   5.952 -28.387  1.00  0.00     0.293 HD
ENDBRANCH  17  20
ENDBRANCH   1  12
BRANCH   6  22
ATOM     22  O   UNL     1      22.745   4.289 -17.848  1.00  0.00    -0.507 OA
ATOM     23  H   UNL     1      23.035   4.264 -16.883  1.00  0.00     0.293 HD
ENDBRANCH   6  22
BRANCH   8  24
ATOM     24  O   UNL     1      21.946   8.988 -18.290  1.00  0.00    -0.508 OA
ATOM     25  H   UNL     1      21.264   9.563 -18.769  1.00  0.00     0.293 HD
ENDBRANCH   8  24
TORSDOF 5
ENDMDL
MODEL 6
REMARK VINA RESULT:    -5.277     10.189     13.216
REMARK INTER + INTRA:          -6.469
REMARK INTER:                  -6.184
REMARK INTRA:                  -0.284
REMARK UNBOUND:                -0.267
REMARK SMILES O=c1cc(-c2ccc(O)c(O)c2)oc2cc(O)cc(O)c12
REMARK SMILES IDX 4 1 3 2 2 3 1 4 21 5 19 6 18 7 16 8 15 9 14 10 13 11 5 12
REMARK SMILES IDX 6 13 7 14 8 15 12 16 10 17 9 18 11 20 20 22 17 24
REMARK H PARENT 9 19 11 21 20 23 17 25
REMARK Flexibility Score: inf
ROOT
ATOM      1  C   UNL     1      26.707  -5.151 -28.582  1.00  0.00     0.138 A 
ATOM      2  C   UNL     1      27.706  -4.173 -28.696  1.00  0.00     0.100 A 
ATOM      3  C   UNL     1      28.798  -4.398 -29.535  1.00  0.00     0.197 A 
ATOM      4  O   UNL     1      29.647  -3.478 -29.664  1.00  0.00    -0.289 OA
ATOM      5  C   UNL     1      28.905  -5.621 -30.239  1.00  0.00     0.107 A 
ATOM      6  C   UNL     1      29.994  -5.976 -31.091  1.00  0.00     0.134 A 
ATOM      7  C   UNL     1      29.934  -7.165 -31.827  1.00  0.00     0.093 A 
ATOM      8  C   UNL     1      28.855  -8.040 -31.698  1.00  0.00     0.123 A 
ATOM      9  C   UNL     1      27.810  -7.728 -30.827  1.00  0.00     0.094 A 
ATOM     10  C   UNL     1      27.824  -6.533 -30.105  1.00  0.00     0.146 A 
ATOM     11  O   UNL     1      26.803  -6.267 -29.296  1.00  0.00    -0.456 OA
ENDROOT
BRANCH   1  12
ATOM     12  C   UNL     1      25.525  -4.964 -27.704  1.00  0.00     0.021 A 
ATOM     13  C   UNL     1      24.737  -3.811 -27.843  1.00  0.00     0.016 A 
ATOM     14  C   UNL     1      23.616  -3.615 -27.033  1.00  0.00     0.051 A 
ATOM     15  C   UNL     1      23.251  -4.568 -26.077  1.00  0.00     0.157 A 
ATOM     16  C   UNL     1      25.149  -5.930 -26.751  1.00  0.00     0.062 A 
ATOM     17  C   UNL     1      24.025  -5.744 -25.937  1.00  0.00     0.158 A 
BRANCH  15  18
ATOM     18  O   UNL     1      22.122  -4.309 -25.296  1.00  0.00    -0.504 OA
ATOM     19  H   UNL     1      21.366  -4.965 -25.162  1.00  0.00     0.293 HD
ENDBRANCH  15  18
BRANCH  17  20
ATOM     20  O   UNL     1      23.713  -6.746 -25.017  1.00  0.00    -0.504 OA
ATOM     21  H   UNL     1      24.153  -6.838 -24.112  1.00  0.00     0.293 HD
ENDBRANCH  17  20
ENDBRANCH   1  12
BRANCH   6  22
ATOM     22  O   UNL     1      31.158  -5.214 -31.228  1.00  0.00    -0.507 OA
ATOM     23  H   UNL     1      31.326  -4.546 -31.965  1.00  0.00     0.293 HD
ENDBRANCH   6  22
BRANCH   8  24
ATOM     24  O   UNL     1      28.837  -9.222 -32.436  1.00  0.00    -0.508 OA
ATOM     25  H   UNL     1      29.136 -10.102 -32.033  1.00  0.00     0.293 HD
ENDBRANCH   8  24
TORSDOF 5
ENDMDL
MODEL 7
REMARK VINA RESULT:    -5.275      9.281     13.269
REMARK INTER + INTRA:          -6.467
REMARK INTER:                  -6.197
REMARK INTRA:                  -0.269
REMARK UNBOUND:                -0.267
REMARK SMILES O=c1cc(-c2ccc(O)c(O)c2)oc2cc(O)cc(O)c12
REMARK SMILES IDX 4 1 3 2 2 3 1 4 21 5 19 6 18 7 16 8 15 9 14 10 13 11 5 12
REMARK SMILES IDX 6 13 7 14 8 15 12 16 10 17 9 18 11 20 20 22 17 24
REMARK H PARENT 9 19 11 21 20 23 17 25
REMARK Flexibility Score: inf
ROOT
ATOM      1  C   UNL     1      28.379  -3.885 -29.287  1.00  0.00     0.138 A 
ATOM      2  C   UNL     1      29.731  -3.514 -29.335  1.00  0.00     0.100 A 
ATOM      3  C   UNL     1      30.083  -2.171 -29.198  1.00  0.00     0.197 A 
ATOM      4  O   UNL     1      31.305  -1.875 -29.185  1.00  0.00    -0.289 OA
ATOM      5  C   UNL     1      29.073  -1.191 -29.042  1.00  0.00     0.107 A 
ATOM      6  C   UNL     1      29.311   0.211 -28.934  1.00  0.00     0.134 A 
ATOM      7  C   UNL     1      28.242   1.074 -28.666  1.00  0.00     0.093 A 
ATOM      8  C   UNL     1      26.937   0.594 -28.561  1.00  0.00     0.123 A 
ATOM      9  C   UNL     1      26.685  -0.770 -28.719  1.00  0.00     0.094 A 
ATOM     10  C   UNL     1      27.735  -1.660 -28.953  1.00  0.00     0.146 A 
ATOM     11  O   UNL     1      27.455  -2.953 -29.084  1.00  0.00    -0.456 OA
ENDROOT
BRANCH   1  12
ATOM     12  C   UNL     1      27.950  -5.299 -29.428  1.00  0.00     0.021 A 
ATOM     13  C   UNL     1      27.211  -5.903 -28.398  1.00  0.00     0.016 A 
ATOM     14  C   UNL     1      26.790  -7.229 -28.510  1.00  0.00     0.051 A 
ATOM     15  C   UNL     1      27.086  -7.978 -29.653  1.00  0.00     0.157 A 
ATOM     16  C   UNL     1      28.235  -6.048 -30.585  1.00  0.00     0.062 A 
ATOM     17  C   UNL     1      27.813  -7.378 -30.708  1.00  0.00     0.158 A 
BRANCH  15  18
ATOM     18  O   UNL     1      26.640  -9.301 -29.700  1.00  0.00    -0.504 OA
ATOM     19  H   UNL     1      26.683  -9.940 -28.918  1.00  0.00     0.293 HD
ENDBRANCH  15  18
BRANCH  17  20
ATOM     20  O   UNL     1      28.132  -8.057 -31.885  1.00  0.00    -0.504 OA
ATOM     21  H   UNL     1      27.514  -8.127 -32.682  1.00  0.00     0.293 HD
ENDBRANCH  17  20
ENDBRANCH   1  12
BRANCH   6  22
ATOM     22  O   UNL     1      30.565   0.806 -29.106  1.00  0.00    -0.507 OA
ATOM     23  H   UNL     1      30.718   1.732 -29.474  1.00  0.00     0.293 HD
ENDBRANCH   6  22
BRANCH   8  24
ATOM     24  O   UNL     1      25.895   1.484 -28.308  1.00  0.00    -0.508 OA
ATOM     25  H   UNL     1      24.968   1.159 -28.064  1.00  0.00     0.293 HD
ENDBRANCH   8  24
TORSDOF 5
ENDMDL
MODEL 8
REMARK VINA RESULT:    -5.244      1.608      6.875
REMARK INTER + INTRA:          -6.431
REMARK INTER:                  -6.114
REMARK INTRA:                  -0.316
REMARK UNBOUND:                -0.267
REMARK SMILES O=c1cc(-c2ccc(O)c(O)c2)oc2cc(O)cc(O)c12
REMARK SMILES IDX 4 1 3 2 2 3 1 4 21 5 19 6 18 7 16 8 15 9 14 10 13 11 5 12
REMARK SMILES IDX 6 13 7 14 8 15 12 16 10 17 9 18 11 20 20 22 17 24
REMARK H PARENT 9 19 11 21 20 23 17 25
REMARK Flexibility Score: inf
ROOT
ATOM      1  C   UNL     1      23.244   5.270 -23.136  1.00  0.00     0.138 A 
ATOM      2  C   UNL     1      24.234   6.141 -23.613  1.00  0.00     0.100 A 
ATOM      3  C   UNL     1      24.813   7.068 -22.745  1.00  0.00     0.197 A 
ATOM      4  O   UNL     1      25.741   7.794 -23.186  1.00  0.00    -0.289 OA
ATOM      5  C   UNL     1      24.376   7.143 -21.401  1.00  0.00     0.107 A 
ATOM      6  C   UNL     1      24.865   8.075 -20.438  1.00  0.00     0.134 A 
ATOM      7  C   UNL     1      24.442   7.978 -19.107  1.00  0.00     0.093 A 
ATOM      8  C   UNL     1      23.503   7.023 -18.717  1.00  0.00     0.123 A 
ATOM      9  C   UNL     1      22.977   6.142 -19.662  1.00  0.00     0.094 A 
ATOM     10  C   UNL     1      23.405   6.190 -20.990  1.00  0.00     0.146 A 
ATOM     11  O   UNL     1      22.890   5.324 -21.856  1.00  0.00    -0.456 OA
ENDROOT
BRANCH   1  12
ATOM     12  C   UNL     1      22.594   4.266 -24.015  1.00  0.00     0.021 A 
ATOM     13  C   UNL     1      23.135   4.006 -25.284  1.00  0.00     0.016 A 
ATOM     14  C   UNL     1      22.547   3.061 -26.127  1.00  0.00     0.051 A 
ATOM     15  C   UNL     1      21.415   2.349 -25.720  1.00  0.00     0.157 A 
ATOM     16  C   UNL     1      21.463   3.538 -23.600  1.00  0.00     0.062 A 
ATOM     17  C   UNL     1      20.868   2.586 -24.437  1.00  0.00     0.158 A 
BRANCH  15  18
ATOM     18  O   UNL     1      20.872   1.422 -26.613  1.00  0.00    -0.504 OA
ATOM     19  H   UNL     1      19.880   1.296 -26.764  1.00  0.00     0.293 HD
ENDBRANCH  15  18
BRANCH  17  20
ATOM     20  O   UNL     1      19.750   1.902 -23.956  1.00  0.00    -0.504 OA
ATOM     21  H   UNL     1      19.673   0.896 -23.928  1.00  0.00     0.293 HD
ENDBRANCH  17  20
ENDBRANCH   1  12
BRANCH   6  22
ATOM     22  O   UNL     1      25.742   9.122 -20.740  1.00  0.00    -0.507 OA
ATOM     23  H   UNL     1      26.707   9.007 -21.007  1.00  0.00     0.293 HD
ENDBRANCH   6  22
BRANCH   8  24
ATOM     24  O   UNL     1      23.094   6.966 -17.386  1.00  0.00    -0.508 OA
ATOM     25  H   UNL     1      22.757   7.789 -16.900  1.00  0.00     0.293 HD
ENDBRANCH   8  24
TORSDOF 5
ENDMDL
MODEL 9
REMARK VINA RESULT:    -5.225      9.036     13.305
REMARK INTER + INTRA:          -6.408
REMARK INTER:                  -6.122
REMARK INTRA:                  -0.286
REMARK UNBOUND:                -0.267
REMARK SMILES O=c1cc(-c2ccc(O)c(O)c2)oc2cc(O)cc(O)c12
REMARK SMILES IDX 4 1 3 2 2 3 1 4 21 5 19 6 18 7 16 8 15 9 14 10 13 11 5 12
REMARK SMILES IDX 6 13 7 14 8 15 12 16 10 17 9 18 11 20 20 22 17 24
REMARK H PARENT 9 19 11 21 20 23 17 25
REMARK Flexibility Score: inf
ROOT
ATOM      1  C   UNL     1      27.116  -4.490 -28.643  1.00  0.00     0.138 A 
ATOM      2  C   UNL     1      26.624  -4.675 -27.343  1.00  0.00     0.100 A 
ATOM      3  C   UNL     1      26.262  -3.566 -26.578  1.00  0.00     0.197 A 
ATOM      4  O   UNL     1      25.768  -3.766 -25.439  1.00  0.00    -0.289 OA
ATOM      5  C   UNL     1      26.422  -2.263 -27.107  1.00  0.00     0.107 A 
ATOM      6  C   UNL     1      26.125  -1.058 -26.404  1.00  0.00     0.134 A 
ATOM      7  C   UNL     1      26.212   0.170 -27.071  1.00  0.00     0.093 A 
ATOM      8  C   UNL     1      26.643   0.241 -28.396  1.00  0.00     0.123 A 
ATOM      9  C   UNL     1      26.988  -0.927 -29.077  1.00  0.00     0.094 A 
ATOM     10  C   UNL     1      26.879  -2.170 -28.450  1.00  0.00     0.146 A 
ATOM     11  O   UNL     1      27.204  -3.260 -29.137  1.00  0.00    -0.456 OA
ENDROOT
BRANCH   1  12
ATOM     12  C   UNL     1      27.516  -5.634 -29.500  1.00  0.00     0.021 A 
ATOM     13  C   UNL     1      28.568  -5.477 -30.415  1.00  0.00     0.016 A 
ATOM     14  C   UNL     1      28.968  -6.540 -31.227  1.00  0.00     0.051 A 
ATOM     15  C   UNL     1      28.336  -7.784 -31.137  1.00  0.00     0.157 A 
ATOM     16  C   UNL     1      26.890  -6.891 -29.398  1.00  0.00     0.062 A 
ATOM     17  C   UNL     1      27.286  -7.964 -30.206  1.00  0.00     0.158 A 
BRANCH  15  18
ATOM     18  O   UNL     1      28.781  -8.805 -31.981  1.00  0.00    -0.504 OA
ATOM     19  H   UNL     1      29.634  -9.326 -31.836  1.00  0.00     0.293 HD
ENDBRANCH  15  18
BRANCH  17  20
ATOM     20  O   UNL     1      26.620  -9.181 -30.047  1.00  0.00    -0.504 OA
ATOM     21  H   UNL     1      26.707  -9.960 -30.684  1.00  0.00     0.293 HD
ENDBRANCH  17  20
ENDBRANCH   1  12
BRANCH   6  22
ATOM     22  O   UNL     1      25.766  -1.010 -25.053  1.00  0.00    -0.507 OA
ATOM     23  H   UNL     1      25.294  -1.749 -24.556  1.00  0.00     0.293 HD
ENDBRANCH   6  22
BRANCH   8  24
ATOM     24  O   UNL     1      26.732   1.483 -29.023  1.00  0.00    -0.508 OA
ATOM     25  H   UNL     1      26.585   2.345 -28.513  1.00  0.00     0.293 HD
ENDBRANCH   8  24
TORSDOF 5
ENDMDL
