MODEL 1
REMARK VINA RESULT:    -3.327      0.000      0.000
REMARK INTER + INTRA:          -7.629
REMARK INTER:                  -5.661
REMARK INTRA:                  -1.968
REMARK UNBOUND:                -1.968
REMARK SMILES CCCCCCCCCCCCCC(=O)[O-]
REMARK SMILES IDX 8 1 9 2 10 3 11 4 12 5 13 6 14 7 15 8 16 9 7 10 6 11 5 12
REMARK SMILES IDX 4 13 3 14 2 15 1 16
REMARK H PARENT
REMARK Flexibility Score: inf
ROOT
ATOM      1  C   UNL     1       8.461 -32.873  14.705  1.00  0.00     0.000 C 
ENDROOT
BRANCH   1   2
ATOM      2  C   UNL     1       7.385 -33.015  15.795  1.00  0.00     0.000 C 
BRANCH   2   3
ATOM      3  C   UNL     1       7.688 -32.159  17.035  1.00  0.00     0.000 C 
BRANCH   3   4
ATOM      4  C   UNL     1       6.696 -30.992  17.201  1.00  0.00     0.000 C 
BRANCH   4   5
ATOM      5  C   UNL     1       7.281 -29.650  16.735  1.00  0.00     0.006 C 
BRANCH   5   6
ATOM      6  C   UNL     1       8.810 -29.685  16.611  1.00  0.00     0.053 C 
BRANCH   6   7
ATOM      7  C   UNL     1       9.437 -28.825  17.661  1.00  0.00     0.041 C 
ATOM      8  O   UNL     1       9.140 -28.986  18.874  1.00  0.00    -0.550 OA
ATOM      9  O   UNL     1      10.315 -27.811  17.297  1.00  0.00    -0.550 OA
ENDBRANCH   6   7
ENDBRANCH   5   6
ENDBRANCH   4   5
ENDBRANCH   3   4
ENDBRANCH   2   3
ENDBRANCH   1   2
BRANCH   1  10
ATOM     10  C   UNL     1       7.878 -32.460  13.342  1.00  0.00     0.000 C 
BRANCH  10  11
ATOM     11  C   UNL     1       6.762 -31.398  13.444  1.00  0.00    -0.000 C 
BRANCH  11  12
ATOM     12  C   UNL     1       7.262 -29.990  13.076  1.00  0.00    -0.000 C 
BRANCH  12  13
ATOM     13  C   UNL     1       8.507 -30.030  12.162  1.00  0.00    -0.000 C 
BRANCH  13  14
ATOM     14  C   UNL     1       9.684 -29.183  12.683  1.00  0.00    -0.000 C 
BRANCH  14  15
ATOM     15  C   UNL     1      10.777 -29.981  13.413  1.00  0.00    -0.003 C 
ATOM     16  C   UNL     1      11.187 -31.249  12.665  1.00  0.00     0.004 C 
ENDBRANCH  14  15
ENDBRANCH  13  14
ENDBRANCH  12  13
ENDBRANCH  11  12
ENDBRANCH  10  11
ENDBRANCH   1  10
TORSDOF 12
ENDMDL
MODEL 2
REMARK VINA RESULT:    -3.309      1.075      2.301
REMARK INTER + INTRA:          -7.598
REMARK INTER:                  -5.818
REMARK INTRA:                  -1.780
REMARK UNBOUND:                -1.968
REMARK SMILES CCCCCCCCCCCCCC(=O)[O-]
REMARK SMILES IDX 8 1 9 2 10 3 11 4 12 5 13 6 14 7 15 8 16 9 7 10 6 11 5 12
REMARK SMILES IDX 4 13 3 14 2 15 1 16
REMARK H PARENT
REMARK Flexibility Score: inf
ROOT
ATOM      1  C   UNL     1       7.104 -32.432  14.844  1.00  0.00     0.000 C 
ENDROOT
BRANCH   1   2
ATOM      2  C   UNL     1       7.077 -31.098  14.079  1.00  0.00     0.000 C 
BRANCH   2   3
ATOM      3  C   UNL     1       7.004 -29.883  15.018  1.00  0.00     0.000 C 
BRANCH   3   4
ATOM      4  C   UNL     1       6.407 -30.237  16.393  1.00  0.00     0.000 C 
BRANCH   4   5
ATOM      5  C   UNL     1       7.431 -30.112  17.531  1.00  0.00     0.006 C 
BRANCH   5   6
ATOM      6  C   UNL     1       8.832 -29.744  17.024  1.00  0.00     0.053 C 
BRANCH   6   7
ATOM      7  C   UNL     1       9.467 -28.740  17.934  1.00  0.00     0.041 C 
ATOM      8  O   UNL     1      10.291 -27.904  17.479  1.00  0.00    -0.550 OA
ATOM      9  O   UNL     1       9.185 -28.758  19.294  1.00  0.00    -0.550 OA
ENDBRANCH   6   7
ENDBRANCH   5   6
ENDBRANCH   4   5
ENDBRANCH   3   4
ENDBRANCH   2   3
ENDBRANCH   1   2
BRANCH   1  10
ATOM     10  C   UNL     1       8.340 -33.286  14.509  1.00  0.00     0.000 C 
BRANCH  10  11
ATOM     11  C   UNL     1       9.670 -32.504  14.583  1.00  0.00    -0.000 C 
BRANCH  11  12
ATOM     12  C   UNL     1      10.592 -32.810  13.391  1.00  0.00    -0.000 C 
BRANCH  12  13
ATOM     13  C   UNL     1      11.214 -31.530  12.788  1.00  0.00    -0.000 C 
BRANCH  13  14
ATOM     14  C   UNL     1      10.187 -30.602  12.111  1.00  0.00    -0.000 C 
BRANCH  14  15
ATOM     15  C   UNL     1      10.026 -29.226  12.780  1.00  0.00    -0.003 C 
ATOM     16  C   UNL     1      10.902 -29.063  14.022  1.00  0.00     0.004 C 
ENDBRANCH  14  15
ENDBRANCH  13  14
ENDBRANCH  12  13
ENDBRANCH  11  12
ENDBRANCH  10  11
ENDBRANCH   1  10
TORSDOF 12
ENDMDL
MODEL 3
REMARK VINA RESULT:    -3.206      2.182      4.285
REMARK INTER + INTRA:          -7.424
REMARK INTER:                  -5.807
REMARK INTRA:                  -1.616
REMARK UNBOUND:                -1.968
REMARK SMILES CCCCCCCCCCCCCC(=O)[O-]
REMARK SMILES IDX 8 1 9 2 10 3 11 4 12 5 13 6 14 7 15 8 16 9 7 10 6 11 5 12
REMARK SMILES IDX 4 13 3 14 2 15 1 16
REMARK H PARENT
REMARK Flexibility Score: inf
ROOT
ATOM      1  C   UNL     1       6.222 -32.429  15.683  1.00  0.00     0.000 C 
ENDROOT
BRANCH   1   2
ATOM      2  C   UNL     1       7.316 -33.293  15.032  1.00  0.00     0.000 C 
BRANCH   2   3
ATOM      3  C   UNL     1       8.733 -32.800  15.368  1.00  0.00     0.000 C 
BRANCH   3   4
ATOM      4  C   UNL     1       9.678 -32.855  14.154  1.00  0.00     0.000 C 
BRANCH   4   5
ATOM      5  C   UNL     1       9.678 -31.548  13.346  1.00  0.00     0.006 C 
BRANCH   5   6
ATOM      6  C   UNL     1       9.799 -30.305  14.238  1.00  0.00     0.053 C 
BRANCH   6   7
ATOM      7  C   UNL     1      10.521 -29.213  13.515  1.00  0.00     0.041 C 
ATOM      8  O   UNL     1      11.555 -28.698  14.013  1.00  0.00    -0.550 OA
ATOM      9  O   UNL     1      10.022 -28.729  12.311  1.00  0.00    -0.550 OA
ENDBRANCH   6   7
ENDBRANCH   5   6
ENDBRANCH   4   5
ENDBRANCH   3   4
ENDBRANCH   2   3
ENDBRANCH   1   2
BRANCH   1  10
ATOM     10  C   UNL     1       6.004 -31.093  14.951  1.00  0.00     0.000 C 
BRANCH  10  11
ATOM     11  C   UNL     1       6.526 -29.868  15.733  1.00  0.00    -0.000 C 
BRANCH  11  12
ATOM     12  C   UNL     1       5.974 -29.813  17.167  1.00  0.00    -0.000 C 
BRANCH  12  13
ATOM     13  C   UNL     1       7.075 -30.029  18.229  1.00  0.00    -0.000 C 
BRANCH  13  14
ATOM     14  C   UNL     1       8.506 -29.883  17.676  1.00  0.00    -0.000 C 
BRANCH  14  15
ATOM     15  C   UNL     1       9.314 -28.725  18.283  1.00  0.00    -0.003 C 
ATOM     16  C   UNL     1      10.264 -28.072  17.279  1.00  0.00     0.004 C 
ENDBRANCH  14  15
ENDBRANCH  13  14
ENDBRANCH  12  13
ENDBRANCH  11  12
ENDBRANCH  10  11
ENDBRANCH   1  10
TORSDOF 12
ENDMDL
MODEL 4
REMARK VINA RESULT:    -3.142      1.627      3.657
REMARK INTER + INTRA:          -7.314
REMARK INTER:                  -5.540
REMARK INTRA:                  -1.774
REMARK UNBOUND:                -1.968
REMARK SMILES CCCCCCCCCCCCCC(=O)[O-]
REMARK SMILES IDX 8 1 9 2 10 3 11 4 12 5 13 6 14 7 15 8 16 9 7 10 6 11 5 12
REMARK SMILES IDX 4 13 3 14 2 15 1 16
REMARK H PARENT
REMARK Flexibility Score: inf
ROOT
ATOM      1  C   UNL     1      10.706 -29.445  13.675  1.00  0.00     0.000 C 
ENDROOT
BRANCH   1   2
ATOM      2  C   UNL     1       9.744 -29.295  14.865  1.00  0.00     0.000 C 
BRANCH   2   3
ATOM      3  C   UNL     1       8.795 -30.495  15.010  1.00  0.00     0.000 C 
BRANCH   3   4
ATOM      4  C   UNL     1       7.316 -30.073  15.067  1.00  0.00     0.000 C 
BRANCH   4   5
ATOM      5  C   UNL     1       6.500 -30.914  16.062  1.00  0.00     0.006 C 
BRANCH   5   6
ATOM      6  C   UNL     1       7.222 -31.104  17.402  1.00  0.00     0.053 C 
BRANCH   6   7
ATOM      7  C   UNL     1       7.185 -29.838  18.198  1.00  0.00     0.041 C 
ATOM      8  O   UNL     1       6.086 -29.274  18.441  1.00  0.00    -0.550 OA
ATOM      9  O   UNL     1       8.369 -29.253  18.630  1.00  0.00    -0.550 OA
ENDBRANCH   6   7
ENDBRANCH   5   6
ENDBRANCH   4   5
ENDBRANCH   3   4
ENDBRANCH   2   3
ENDBRANCH   1   2
BRANCH   1  10
ATOM     10  C   UNL     1      10.019 -30.017  12.422  1.00  0.00     0.000 C 
BRANCH  10  11
ATOM     11  C   UNL     1      10.658 -31.326  11.910  1.00  0.00    -0.000 C 
BRANCH  11  12
ATOM     12  C   UNL     1      11.643 -31.929  12.926  1.00  0.00    -0.000 C 
BRANCH  12  13
ATOM     13  C   UNL     1      11.085 -33.204  13.598  1.00  0.00    -0.000 C 
BRANCH  13  14
ATOM     14  C   UNL     1       9.869 -33.807  12.869  1.00  0.00    -0.000 C 
BRANCH  14  15
ATOM     15  C   UNL     1       8.578 -33.854  13.704  1.00  0.00    -0.003 C 
ATOM     16  C   UNL     1       7.387 -33.214  12.992  1.00  0.00     0.004 C 
ENDBRANCH  14  15
ENDBRANCH  13  14
ENDBRANCH  12  13
ENDBRANCH  11  12
ENDBRANCH  10  11
ENDBRANCH   1  10
TORSDOF 12
ENDMDL
MODEL 5
REMARK VINA RESULT:    -3.006      2.454      5.509
REMARK INTER + INTRA:          -7.083
REMARK INTER:                  -5.614
REMARK INTRA:                  -1.469
REMARK UNBOUND:                -1.968
REMARK SMILES CCCCCCCCCCCCCC(=O)[O-]
REMARK SMILES IDX 8 1 9 2 10 3 11 4 12 5 13 6 14 7 15 8 16 9 7 10 6 11 5 12
REMARK SMILES IDX 4 13 3 14 2 15 1 16
REMARK H PARENT
REMARK Flexibility Score: inf
ROOT
ATOM      1  C   UNL     1       9.613 -29.171  15.539  1.00  0.00     0.000 C 
ENDROOT
BRANCH   1   2
ATOM      2  C   UNL     1      10.634 -29.177  14.389  1.00  0.00     0.000 C 
BRANCH   2   3
ATOM      3  C   UNL     1       9.964 -29.261  13.008  1.00  0.00     0.000 C 
BRANCH   3   4
ATOM      4  C   UNL     1      10.312 -30.563  12.264  1.00  0.00     0.000 C 
BRANCH   4   5
ATOM      5  C   UNL     1       9.111 -31.515  12.148  1.00  0.00     0.006 C 
BRANCH   5   6
ATOM      6  C   UNL     1       9.457 -32.952  12.560  1.00  0.00     0.053 C 
BRANCH   6   7
ATOM      7  C   UNL     1      10.078 -32.968  13.921  1.00  0.00     0.041 C 
ATOM      8  O   UNL     1       9.425 -32.571  14.920  1.00  0.00    -0.550 OA
ATOM      9  O   UNL     1      11.397 -33.376  14.077  1.00  0.00    -0.550 OA
ENDBRANCH   6   7
ENDBRANCH   5   6
ENDBRANCH   4   5
ENDBRANCH   3   4
ENDBRANCH   2   3
ENDBRANCH   1   2
BRANCH   1  10
ATOM     10  C   UNL     1      10.138 -28.461  16.799  1.00  0.00     0.000 C 
BRANCH  10  11
ATOM     11  C   UNL     1       9.366 -28.830  18.084  1.00  0.00    -0.000 C 
BRANCH  11  12
ATOM     12  C   UNL     1       8.386 -29.995  17.860  1.00  0.00    -0.000 C 
BRANCH  12  13
ATOM     13  C   UNL     1       6.922 -29.594  18.144  1.00  0.00    -0.000 C 
BRANCH  13  14
ATOM     14  C   UNL     1       5.969 -29.848  16.960  1.00  0.00    -0.000 C 
BRANCH  14  15
ATOM     15  C   UNL     1       6.412 -30.972  16.009  1.00  0.00    -0.003 C 
ATOM     16  C   UNL     1       6.361 -30.561  14.538  1.00  0.00     0.004 C 
ENDBRANCH  14  15
ENDBRANCH  13  14
ENDBRANCH  12  13
ENDBRANCH  11  12
ENDBRANCH  10  11
ENDBRANCH   1  10
TORSDOF 12
ENDMDL
MODEL 6
REMARK VINA RESULT:    -2.994      1.519      2.998
REMARK INTER + INTRA:          -7.063
REMARK INTER:                  -5.212
REMARK INTRA:                  -1.851
REMARK UNBOUND:                -1.968
REMARK SMILES CCCCCCCCCCCCCC(=O)[O-]
REMARK SMILES IDX 8 1 9 2 10 3 11 4 12 5 13 6 14 7 15 8 16 9 7 10 6 11 5 12
REMARK SMILES IDX 4 13 3 14 2 15 1 16
REMARK H PARENT
REMARK Flexibility Score: inf
ROOT
ATOM      1  C   UNL     1       7.069 -29.673  12.865  1.00  0.00     0.000 C 
ENDROOT
BRANCH   1   2
ATOM      2  C   UNL     1       8.585 -29.534  13.084  1.00  0.00     0.000 C 
BRANCH   2   3
ATOM      3  C   UNL     1       8.976 -29.630  14.568  1.00  0.00     0.000 C 
BRANCH   3   4
ATOM      4  C   UNL     1       7.829 -30.164  15.445  1.00  0.00     0.000 C 
BRANCH   4   5
ATOM      5  C   UNL     1       8.296 -31.248  16.430  1.00  0.00     0.006 C 
BRANCH   5   6
ATOM      6  C   UNL     1       7.559 -31.178  17.774  1.00  0.00     0.053 C 
BRANCH   6   7
ATOM      7  C   UNL     1       7.505 -29.766  18.266  1.00  0.00     0.041 C 
ATOM      8  O   UNL     1       6.406 -29.154  18.316  1.00  0.00    -0.550 OA
ATOM      9  O   UNL     1       8.676 -29.110  18.624  1.00  0.00    -0.550 OA
ENDBRANCH   6   7
ENDBRANCH   5   6
ENDBRANCH   4   5
ENDBRANCH   3   4
ENDBRANCH   2   3
ENDBRANCH   1   2
BRANCH   1  10
ATOM     10  C   UNL     1       6.711 -30.798  11.877  1.00  0.00     0.000 C 
BRANCH  10  11
ATOM     11  C   UNL     1       5.987 -31.992  12.537  1.00  0.00    -0.000 C 
BRANCH  11  12
ATOM     12  C   UNL     1       6.798 -33.295  12.431  1.00  0.00    -0.000 C 
BRANCH  12  13
ATOM     13  C   UNL     1       7.917 -33.378  13.492  1.00  0.00    -0.000 C 
BRANCH  13  14
ATOM     14  C   UNL     1       9.334 -33.458  12.893  1.00  0.00    -0.000 C 
BRANCH  14  15
ATOM     15  C   UNL     1      10.434 -32.819  13.757  1.00  0.00    -0.003 C 
ATOM     16  C   UNL     1      11.446 -32.020  12.936  1.00  0.00     0.004 C 
ENDBRANCH  14  15
ENDBRANCH  13  14
ENDBRANCH  12  13
ENDBRANCH  11  12
ENDBRANCH  10  11
ENDBRANCH   1  10
TORSDOF 12
ENDMDL
MODEL 7
REMARK VINA RESULT:    -2.980      1.526      4.384
REMARK INTER + INTRA:          -7.038
REMARK INTER:                  -5.346
REMARK INTRA:                  -1.692
REMARK UNBOUND:                -1.968
REMARK SMILES CCCCCCCCCCCCCC(=O)[O-]
REMARK SMILES IDX 8 1 9 2 10 3 11 4 12 5 13 6 14 7 15 8 16 9 7 10 6 11 5 12
REMARK SMILES IDX 4 13 3 14 2 15 1 16
REMARK H PARENT
REMARK Flexibility Score: inf
ROOT
ATOM      1  C   UNL     1       5.994 -32.136  13.784  1.00  0.00     0.000 C 
ENDROOT
BRANCH   1   2
ATOM      2  C   UNL     1       5.978 -30.599  13.835  1.00  0.00     0.000 C 
BRANCH   2   3
ATOM      3  C   UNL     1       7.055 -29.970  12.937  1.00  0.00     0.000 C 
BRANCH   3   4
ATOM      4  C   UNL     1       8.155 -30.973  12.544  1.00  0.00     0.000 C 
BRANCH   4   5
ATOM      5  C   UNL     1       9.530 -30.595  13.116  1.00  0.00     0.006 C 
BRANCH   5   6
ATOM      6  C   UNL     1       9.432 -29.579  14.261  1.00  0.00     0.053 C 
BRANCH   6   7
ATOM      7  C   UNL     1      10.773 -28.973  14.536  1.00  0.00     0.041 C 
ATOM      8  O   UNL     1      11.706 -29.094  13.700  1.00  0.00    -0.550 OA
ATOM      9  O   UNL     1      11.006 -28.317  15.738  1.00  0.00    -0.550 OA
ENDBRANCH   6   7
ENDBRANCH   5   6
ENDBRANCH   4   5
ENDBRANCH   3   4
ENDBRANCH   2   3
ENDBRANCH   1   2
BRANCH   1  10
ATOM     10  C   UNL     1       6.081 -32.778  15.179  1.00  0.00     0.000 C 
BRANCH  10  11
ATOM     11  C   UNL     1       7.509 -33.219  15.568  1.00  0.00    -0.000 C 
BRANCH  11  12
ATOM     12  C   UNL     1       8.128 -32.308  16.643  1.00  0.00    -0.000 C 
BRANCH  12  13
ATOM     13  C   UNL     1       7.058 -31.511  17.423  1.00  0.00    -0.000 C 
BRANCH  13  14
ATOM     14  C   UNL     1       7.348 -30.000  17.502  1.00  0.00    -0.000 C 
BRANCH  14  15
ATOM     15  C   UNL     1       8.815 -29.642  17.794  1.00  0.00    -0.003 C 
ATOM     16  C   UNL     1       8.966 -28.631  18.930  1.00  0.00     0.004 C 
ENDBRANCH  14  15
ENDBRANCH  13  14
ENDBRANCH  12  13
ENDBRANCH  11  12
ENDBRANCH  10  11
ENDBRANCH   1  10
TORSDOF 12
ENDMDL
MODEL 8
REMARK VINA RESULT:    -2.966      1.412      4.060
REMARK INTER + INTRA:          -7.016
REMARK INTER:                  -5.384
REMARK INTRA:                  -1.632
REMARK UNBOUND:                -1.968
REMARK SMILES CCCCCCCCCCCCCC(=O)[O-]
REMARK SMILES IDX 8 1 9 2 10 3 11 4 12 5 13 6 14 7 15 8 16 9 7 10 6 11 5 12
REMARK SMILES IDX 4 13 3 14 2 15 1 16
REMARK H PARENT
REMARK Flexibility Score: inf
ROOT
ATOM      1  C   UNL     1      11.117 -30.430  13.121  1.00  0.00     0.000 C 
ENDROOT
BRANCH   1   2
ATOM      2  C   UNL     1       9.931 -29.757  12.410  1.00  0.00     0.000 C 
BRANCH   2   3
ATOM      3  C   UNL     1       8.657 -29.749  13.269  1.00  0.00     0.000 C 
BRANCH   3   4
ATOM      4  C   UNL     1       8.963 -29.652  14.775  1.00  0.00     0.000 C 
BRANCH   4   5
ATOM      5  C   UNL     1       7.716 -29.868  15.646  1.00  0.00     0.006 C 
BRANCH   5   6
ATOM      6  C   UNL     1       8.049 -30.505  17.002  1.00  0.00     0.053 C 
BRANCH   6   7
ATOM      7  C   UNL     1       7.754 -29.548  18.113  1.00  0.00     0.041 C 
ATOM      8  O   UNL     1       6.576 -29.410  18.536  1.00  0.00    -0.550 OA
ATOM      9  O   UNL     1       8.773 -28.771  18.650  1.00  0.00    -0.550 OA
ENDBRANCH   6   7
ENDBRANCH   5   6
ENDBRANCH   4   5
ENDBRANCH   3   4
ENDBRANCH   2   3
ENDBRANCH   1   2
BRANCH   1  10
ATOM     10  C   UNL     1      11.343 -31.881  12.660  1.00  0.00     0.000 C 
BRANCH  10  11
ATOM     11  C   UNL     1      10.653 -32.930  13.559  1.00  0.00    -0.000 C 
BRANCH  11  12
ATOM     12  C   UNL     1       9.594 -33.745  12.797  1.00  0.00    -0.000 C 
BRANCH  12  13
ATOM     13  C   UNL     1       8.163 -33.472  13.310  1.00  0.00    -0.000 C 
BRANCH  13  14
ATOM     14  C   UNL     1       8.051 -33.440  14.847  1.00  0.00    -0.000 C 
BRANCH  14  15
ATOM     15  C   UNL     1       6.611 -33.412  15.386  1.00  0.00    -0.003 C 
ATOM     16  C   UNL     1       6.523 -33.778  16.867  1.00  0.00     0.004 C 
ENDBRANCH  14  15
ENDBRANCH  13  14
ENDBRANCH  12  13
ENDBRANCH  11  12
ENDBRANCH  10  11
ENDBRANCH   1  10
TORSDOF 12
ENDMDL
MODEL 9
REMARK VINA RESULT:    -2.948      1.176      2.372
REMARK INTER + INTRA:          -6.983
REMARK INTER:                  -5.382
REMARK INTRA:                  -1.601
REMARK UNBOUND:                -1.968
REMARK SMILES CCCCCCCCCCCCCC(=O)[O-]
REMARK SMILES IDX 8 1 9 2 10 3 11 4 12 5 13 6 14 7 15 8 16 9 7 10 6 11 5 12
REMARK SMILES IDX 4 13 3 14 2 15 1 16
REMARK H PARENT
REMARK Flexibility Score: inf
ROOT
ATOM      1  C   UNL     1       8.195 -33.395  13.372  1.00  0.00     0.000 C 
ENDROOT
BRANCH   1   2
ATOM      2  C   UNL     1       7.271 -33.193  14.584  1.00  0.00     0.000 C 
BRANCH   2   3
ATOM      3  C   UNL     1       7.976 -32.480  15.749  1.00  0.00     0.000 C 
BRANCH   3   4
ATOM      4  C   UNL     1       6.999 -32.073  16.868  1.00  0.00     0.000 C 
BRANCH   4   5
ATOM      5  C   UNL     1       6.799 -30.552  16.953  1.00  0.00     0.006 C 
BRANCH   5   6
ATOM      6  C   UNL     1       7.248 -29.974  18.302  1.00  0.00     0.053 C 
BRANCH   6   7
ATOM      7  C   UNL     1       8.614 -29.376  18.184  1.00  0.00     0.041 C 
ATOM      8  O   UNL     1       9.230 -28.993  19.213  1.00  0.00    -0.550 OA
ATOM      9  O   UNL     1       9.189 -29.198  16.931  1.00  0.00    -0.550 OA
ENDBRANCH   6   7
ENDBRANCH   5   6
ENDBRANCH   4   5
ENDBRANCH   3   4
ENDBRANCH   2   3
ENDBRANCH   1   2
BRANCH   1  10
ATOM     10  C   UNL     1       9.575 -33.955  13.761  1.00  0.00     0.000 C 
BRANCH  10  11
ATOM     11  C   UNL     1      10.729 -32.949  13.559  1.00  0.00    -0.000 C 
BRANCH  11  12
ATOM     12  C   UNL     1      10.492 -32.025  12.352  1.00  0.00    -0.000 C 
BRANCH  12  13
ATOM     13  C   UNL     1      10.685 -30.534  12.707  1.00  0.00    -0.000 C 
BRANCH  13  14
ATOM     14  C   UNL     1       9.496 -29.920  13.470  1.00  0.00    -0.000 C 
BRANCH  14  15
ATOM     15  C   UNL     1       8.319 -29.483  12.581  1.00  0.00    -0.003 C 
ATOM     16  C   UNL     1       6.960 -29.879  13.157  1.00  0.00     0.004 C 
ENDBRANCH  14  15
ENDBRANCH  13  14
ENDBRANCH  12  13
ENDBRANCH  11  12
ENDBRANCH  10  11
ENDBRANCH   1  10
TORSDOF 12
ENDMDL
