MODEL 1
REMARK VINA RESULT:    -3.376      0.000      0.000
REMARK INTER + INTRA:          -4.159
REMARK INTER:                  -4.165
REMARK INTRA:                   0.005
REMARK UNBOUND:                 0.005
REMARK SMILES Oc1cc(O)c2cc(O)c(-c3cc(O)c(O)c(O)c3)[o+]c2c1.[Cl-]
REMARK SMILES IDX 10 1 20 2 21 3 22 4 2 5 3 6 4 7 6 8 7 9 8 10 11 11 12 12
REMARK SMILES IDX 13 13 19 14 15 15 17 16 14 17 16 19 18 21 9 23 1 25 5 27
REMARK H PARENT 14 18 16 20 18 22 9 24 1 26 5 28
REMARK Flexibility Score: inf
ROOT
ATOM      1  C   UNL     1      32.639  -1.430  43.494  1.00  0.00     0.402 A 
ATOM      2  O   UNL     1      33.423  -2.489  43.691  1.00  0.00    -0.202 OA
ATOM      3  C   UNL     1      34.714  -2.507  43.368  1.00  0.00     0.368 A 
ATOM      4  C   UNL     1      35.471  -3.657  43.612  1.00  0.00     0.162 A 
ATOM      5  C   UNL     1      36.829  -3.689  43.282  1.00  0.00     0.128 A 
ATOM      6  C   UNL     1      37.435  -2.565  42.704  1.00  0.00     0.093 A 
ATOM      7  C   UNL     1      36.688  -1.405  42.453  1.00  0.00     0.136 A 
ATOM      8  C   UNL     1      35.320  -1.374  42.786  1.00  0.00     0.125 A 
ATOM      9  C   UNL     1      34.524  -0.247  42.550  1.00  0.00     0.078 A 
ATOM     10  C   UNL     1      33.169  -0.270  42.894  1.00  0.00     0.223 A 
ENDROOT
BRANCH   1  11
ATOM     11  C   UNL     1      31.219  -1.526  43.902  1.00  0.00     0.091 A 
ATOM     12  C   UNL     1      30.215  -1.144  43.001  1.00  0.00     0.068 A 
ATOM     13  C   UNL     1      28.861  -1.241  43.346  1.00  0.00     0.162 A 
ATOM     14  C   UNL     1      30.851  -2.045  45.153  1.00  0.00     0.068 A 
ATOM     15  C   UNL     1      28.499  -1.743  44.618  1.00  0.00     0.200 A 
ATOM     16  C   UNL     1      29.501  -2.147  45.511  1.00  0.00     0.162 A 
BRANCH  13  17
ATOM     17  O   UNL     1      27.919  -0.829  42.401  1.00  0.00    -0.504 OA
ATOM     18  H   UNL     1      27.358  -1.462  41.848  1.00  0.00     0.293 HD
ENDBRANCH  13  17
BRANCH  15  19
ATOM     19  O   UNL     1      27.169  -1.859  45.028  1.00  0.00    -0.502 OA
ATOM     20  H   UNL     1      26.771  -1.357  45.809  1.00  0.00     0.293 HD
ENDBRANCH  15  19
BRANCH  16  21
ATOM     21  O   UNL     1      29.145  -2.658  46.759  1.00  0.00    -0.504 OA
ATOM     22  H   UNL     1      28.180  -2.684  47.066  1.00  0.00     0.293 HD
ENDBRANCH  16  21
ENDBRANCH   1  11
BRANCH  10  23
ATOM     23  O   UNL     1      32.359   0.831  42.617  1.00  0.00    -0.500 OA
ATOM     24  H   UNL     1      31.350   0.750  42.566  1.00  0.00     0.294 HD
ENDBRANCH  10  23
BRANCH   5  25
ATOM     25  O   UNL     1      37.568  -4.843  43.532  1.00  0.00    -0.507 OA
ATOM     26  H   UNL     1      37.328  -5.729  43.105  1.00  0.00     0.293 HD
ENDBRANCH   5  25
BRANCH   7  27
ATOM     27  O   UNL     1      37.301  -0.293  41.875  1.00  0.00    -0.507 OA
ATOM     28  H   UNL     1      38.286  -0.096  42.014  1.00  0.00     0.293 HD
ENDBRANCH   7  27
TORSDOF 7
ENDMDL
MODEL 2
REMARK VINA RESULT:    -3.269      0.091      1.800
REMARK INTER + INTRA:          -4.028
REMARK INTER:                  -3.998
REMARK INTRA:                  -0.031
REMARK UNBOUND:                 0.005
REMARK SMILES Oc1cc(O)c2cc(O)c(-c3cc(O)c(O)c(O)c3)[o+]c2c1.[Cl-]
REMARK SMILES IDX 10 1 20 2 21 3 22 4 2 5 3 6 4 7 6 8 7 9 8 10 11 11 12 12
REMARK SMILES IDX 13 13 19 14 15 15 17 16 14 17 16 19 18 21 9 23 1 25 5 27
REMARK H PARENT 14 18 16 20 18 22 9 24 1 26 5 28
REMARK Flexibility Score: inf
ROOT
ATOM      1  C   UNL     1      32.669  -1.432  43.434  1.00  0.00     0.402 A 
ATOM      2  O   UNL     1      33.463  -2.480  43.644  1.00  0.00    -0.202 OA
ATOM      3  C   UNL     1      34.758  -2.484  43.339  1.00  0.00     0.368 A 
ATOM      4  C   UNL     1      35.526  -3.623  43.596  1.00  0.00     0.162 A 
ATOM      5  C   UNL     1      36.889  -3.639  43.284  1.00  0.00     0.128 A 
ATOM      6  C   UNL     1      37.488  -2.509  42.711  1.00  0.00     0.093 A 
ATOM      7  C   UNL     1      36.730  -1.359  42.447  1.00  0.00     0.136 A 
ATOM      8  C   UNL     1      35.358  -1.344  42.762  1.00  0.00     0.125 A 
ATOM      9  C   UNL     1      34.551  -0.228  42.513  1.00  0.00     0.078 A 
ATOM     10  C   UNL     1      33.192  -0.267  42.838  1.00  0.00     0.223 A 
ENDROOT
BRANCH   1  11
ATOM     11  C   UNL     1      31.244  -1.545  43.823  1.00  0.00     0.091 A 
ATOM     12  C   UNL     1      30.915  -1.971  45.118  1.00  0.00     0.068 A 
ATOM     13  C   UNL     1      29.580  -2.069  45.528  1.00  0.00     0.162 A 
ATOM     14  C   UNL     1      30.214  -1.181  42.943  1.00  0.00     0.068 A 
ATOM     15  C   UNL     1      28.546  -1.722  44.626  1.00  0.00     0.200 A 
ATOM     16  C   UNL     1      28.874  -1.274  43.339  1.00  0.00     0.162 A 
BRANCH  13  17
ATOM     17  O   UNL     1      29.330  -2.513  46.828  1.00  0.00    -0.504 OA
ATOM     18  H   UNL     1      28.687  -2.064  47.466  1.00  0.00     0.293 HD
ENDBRANCH  13  17
BRANCH  15  19
ATOM     19  O   UNL     1      27.194  -1.804  44.967  1.00  0.00    -0.502 OA
ATOM     20  H   UNL     1      26.485  -2.217  44.378  1.00  0.00     0.293 HD
ENDBRANCH  15  19
BRANCH  16  21
ATOM     21  O   UNL     1      27.857  -0.916  42.456  1.00  0.00    -0.504 OA
ATOM     22  H   UNL     1      27.031  -0.420  42.769  1.00  0.00     0.293 HD
ENDBRANCH  16  21
ENDBRANCH   1  11
BRANCH  10  23
ATOM     23  O   UNL     1      32.372   0.823  42.547  1.00  0.00    -0.500 OA
ATOM     24  H   UNL     1      31.389   0.830  42.793  1.00  0.00     0.294 HD
ENDBRANCH  10  23
BRANCH   5  25
ATOM     25  O   UNL     1      37.639  -4.784  43.547  1.00  0.00    -0.507 OA
ATOM     26  H   UNL     1      37.530  -5.626  42.996  1.00  0.00     0.293 HD
ENDBRANCH   5  25
BRANCH   7  27
ATOM     27  O   UNL     1      37.338  -0.241  41.875  1.00  0.00    -0.507 OA
ATOM     28  H   UNL     1      38.322  -0.043  42.010  1.00  0.00     0.293 HD
ENDBRANCH   7  27
TORSDOF 7
ENDMDL
MODEL 3
REMARK VINA RESULT:    -2.036      1.366      1.477
REMARK INTER + INTRA:          -2.507
REMARK INTER:                  -2.684
REMARK INTRA:                   0.177
REMARK UNBOUND:                 0.005
REMARK SMILES Oc1cc(O)c2cc(O)c(-c3cc(O)c(O)c(O)c3)[o+]c2c1.[Cl-]
REMARK SMILES IDX 10 1 20 2 21 3 22 4 2 5 3 6 4 7 6 8 7 9 8 10 11 11 12 12
REMARK SMILES IDX 13 13 19 14 15 15 17 16 14 17 16 19 18 21 9 23 1 25 5 27
REMARK H PARENT 14 18 16 20 18 22 9 24 1 26 5 28
REMARK Flexibility Score: inf
ROOT
ATOM      1  C   UNL     1      32.610  -1.975  44.097  1.00  0.00     0.402 A 
ATOM      2  O   UNL     1      33.481  -2.975  44.214  1.00  0.00    -0.202 OA
ATOM      3  C   UNL     1      34.719  -2.922  43.730  1.00  0.00     0.368 A 
ATOM      4  C   UNL     1      35.576  -4.014  43.899  1.00  0.00     0.162 A 
ATOM      5  C   UNL     1      36.880  -3.970  43.399  1.00  0.00     0.128 A 
ATOM      6  C   UNL     1      37.333  -2.826  42.726  1.00  0.00     0.093 A 
ATOM      7  C   UNL     1      36.485  -1.724  42.549  1.00  0.00     0.136 A 
ATOM      8  C   UNL     1      35.171  -1.769  43.053  1.00  0.00     0.125 A 
ATOM      9  C   UNL     1      34.278  -0.702  42.898  1.00  0.00     0.078 A 
ATOM     10  C   UNL     1      32.982  -0.801  43.411  1.00  0.00     0.223 A 
ENDROOT
BRANCH   1  11
ATOM     11  C   UNL     1      31.262  -2.148  44.685  1.00  0.00     0.091 A 
ATOM     12  C   UNL     1      30.592  -1.036  45.214  1.00  0.00     0.068 A 
ATOM     13  C   UNL     1      29.307  -1.160  45.759  1.00  0.00     0.162 A 
ATOM     14  C   UNL     1      30.613  -3.393  44.674  1.00  0.00     0.068 A 
ATOM     15  C   UNL     1      28.670  -2.423  45.766  1.00  0.00     0.200 A 
ATOM     16  C   UNL     1      29.330  -3.531  45.216  1.00  0.00     0.162 A 
BRANCH  13  17
ATOM     17  O   UNL     1      28.709  -0.010  46.279  1.00  0.00    -0.504 OA
ATOM     18  H   UNL     1      28.891   0.355  47.202  1.00  0.00     0.293 HD
ENDBRANCH  13  17
BRANCH  15  19
ATOM     19  O   UNL     1      27.394  -2.617  46.299  1.00  0.00    -0.502 OA
ATOM     20  H   UNL     1      26.551  -2.672  45.745  1.00  0.00     0.293 HD
ENDBRANCH  15  19
BRANCH  16  21
ATOM     21  O   UNL     1      28.696  -4.773  45.207  1.00  0.00    -0.504 OA
ATOM     22  H   UNL     1      28.323  -5.186  46.053  1.00  0.00     0.293 HD
ENDBRANCH  16  21
ENDBRANCH   1  11
BRANCH  10  23
ATOM     23  O   UNL     1      32.072   0.238  43.217  1.00  0.00    -0.500 OA
ATOM     24  H   UNL     1      31.125   0.190  43.573  1.00  0.00     0.294 HD
ENDBRANCH  10  23
BRANCH   5  25
ATOM     25  O   UNL     1      37.720  -5.067  43.577  1.00  0.00    -0.507 OA
ATOM     26  H   UNL     1      38.727  -4.978  43.522  1.00  0.00     0.293 HD
ENDBRANCH   5  25
BRANCH   7  27
ATOM     27  O   UNL     1      36.946  -0.592  41.875  1.00  0.00    -0.507 OA
ATOM     28  H   UNL     1      36.576  -0.324  40.971  1.00  0.00     0.293 HD
ENDBRANCH   7  27
TORSDOF 7
ENDMDL
MODEL 4
REMARK VINA RESULT:    -1.846      1.207      6.855
REMARK INTER + INTRA:          -2.272
REMARK INTER:                  -2.558
REMARK INTRA:                   0.286
REMARK UNBOUND:                 0.005
REMARK SMILES Oc1cc(O)c2cc(O)c(-c3cc(O)c(O)c(O)c3)[o+]c2c1.[Cl-]
REMARK SMILES IDX 10 1 20 2 21 3 22 4 2 5 3 6 4 7 6 8 7 9 8 10 11 11 12 12
REMARK SMILES IDX 13 13 19 14 15 15 17 16 14 17 16 19 18 21 9 23 1 25 5 27
REMARK H PARENT 14 18 16 20 18 22 9 24 1 26 5 28
REMARK Flexibility Score: inf
ROOT
ATOM      1  C   UNL     1      32.421  -1.350  43.309  1.00  0.00     0.402 A 
ATOM      2  O   UNL     1      31.897  -2.256  44.133  1.00  0.00    -0.202 OA
ATOM      3  C   UNL     1      30.597  -2.329  44.402  1.00  0.00     0.368 A 
ATOM      4  C   UNL     1      30.125  -3.314  45.275  1.00  0.00     0.162 A 
ATOM      5  C   UNL     1      28.760  -3.404  45.563  1.00  0.00     0.128 A 
ATOM      6  C   UNL     1      27.860  -2.504  44.976  1.00  0.00     0.093 A 
ATOM      7  C   UNL     1      28.319  -1.511  44.099  1.00  0.00     0.136 A 
ATOM      8  C   UNL     1      29.694  -1.421  43.809  1.00  0.00     0.125 A 
ATOM      9  C   UNL     1      30.209  -0.445  42.948  1.00  0.00     0.078 A 
ATOM     10  C   UNL     1      31.583  -0.394  42.699  1.00  0.00     0.223 A 
ENDROOT
BRANCH   1  11
ATOM     11  C   UNL     1      33.884  -1.374  43.080  1.00  0.00     0.091 A 
ATOM     12  C   UNL     1      34.552  -0.183  42.765  1.00  0.00     0.068 A 
ATOM     13  C   UNL     1      35.938  -0.165  42.563  1.00  0.00     0.162 A 
ATOM     14  C   UNL     1      34.628  -2.555  43.228  1.00  0.00     0.068 A 
ATOM     15  C   UNL     1      36.678  -1.364  42.691  1.00  0.00     0.200 A 
ATOM     16  C   UNL     1      36.013  -2.552  43.029  1.00  0.00     0.162 A 
BRANCH  13  17
ATOM     17  O   UNL     1      36.531   1.058  42.240  1.00  0.00    -0.504 OA
ATOM     18  H   UNL     1      37.529   1.217  42.229  1.00  0.00     0.293 HD
ENDBRANCH  13  17
BRANCH  15  19
ATOM     19  O   UNL     1      38.060  -1.418  42.496  1.00  0.00    -0.502 OA
ATOM     20  H   UNL     1      38.500  -1.766  41.656  1.00  0.00     0.293 HD
ENDBRANCH  15  19
BRANCH  16  21
ATOM     21  O   UNL     1      36.744  -3.731  43.171  1.00  0.00    -0.504 OA
ATOM     22  H   UNL     1      36.291  -4.636  43.205  1.00  0.00     0.293 HD
ENDBRANCH  16  21
ENDBRANCH   1  11
BRANCH  10  23
ATOM     23  O   UNL     1      32.109   0.606  41.881  1.00  0.00    -0.500 OA
ATOM     24  H   UNL     1      33.097   0.832  41.885  1.00  0.00     0.294 HD
ENDBRANCH  10  23
BRANCH   5  25
ATOM     25  O   UNL     1      28.308  -4.392  46.436  1.00  0.00    -0.507 OA
ATOM     26  H   UNL     1      28.186  -4.210  47.424  1.00  0.00     0.293 HD
ENDBRANCH   5  25
BRANCH   7  27
ATOM     27  O   UNL     1      27.414  -0.619  43.523  1.00  0.00    -0.507 OA
ATOM     28  H   UNL     1      26.511  -0.431  43.942  1.00  0.00     0.293 HD
ENDBRANCH   7  27
TORSDOF 7
ENDMDL
MODEL 5
REMARK VINA RESULT:    -1.587      1.280      7.328
REMARK INTER + INTRA:          -1.953
REMARK INTER:                  -1.950
REMARK INTRA:                  -0.003
REMARK UNBOUND:                 0.005
REMARK SMILES Oc1cc(O)c2cc(O)c(-c3cc(O)c(O)c(O)c3)[o+]c2c1.[Cl-]
REMARK SMILES IDX 10 1 20 2 21 3 22 4 2 5 3 6 4 7 6 8 7 9 8 10 11 11 12 12
REMARK SMILES IDX 13 13 19 14 15 15 17 16 14 17 16 19 18 21 9 23 1 25 5 27
REMARK H PARENT 14 18 16 20 18 22 9 24 1 26 5 28
REMARK Flexibility Score: inf
ROOT
ATOM      1  C   UNL     1      32.386  -1.762  43.452  1.00  0.00     0.402 A 
ATOM      2  O   UNL     1      31.460  -1.078  42.782  1.00  0.00    -0.202 OA
ATOM      3  C   UNL     1      30.164  -1.126  43.079  1.00  0.00     0.368 A 
ATOM      4  C   UNL     1      29.254  -0.373  42.331  1.00  0.00     0.162 A 
ATOM      5  C   UNL     1      27.890  -0.410  42.634  1.00  0.00     0.128 A 
ATOM      6  C   UNL     1      27.431  -1.206  43.694  1.00  0.00     0.093 A 
ATOM      7  C   UNL     1      28.332  -1.966  44.454  1.00  0.00     0.136 A 
ATOM      8  C   UNL     1      29.706  -1.928  44.146  1.00  0.00     0.125 A 
ATOM      9  C   UNL     1      30.649  -2.672  44.865  1.00  0.00     0.078 A 
ATOM     10  C   UNL     1      32.000  -2.604  44.515  1.00  0.00     0.223 A 
ENDROOT
BRANCH   1  11
ATOM     11  C   UNL     1      33.799  -1.621  43.032  1.00  0.00     0.091 A 
ATOM     12  C   UNL     1      34.338  -0.341  42.843  1.00  0.00     0.068 A 
ATOM     13  C   UNL     1      35.676  -0.170  42.467  1.00  0.00     0.162 A 
ATOM     14  C   UNL     1      34.630  -2.741  42.873  1.00  0.00     0.068 A 
ATOM     15  C   UNL     1      36.501  -1.305  42.286  1.00  0.00     0.200 A 
ATOM     16  C   UNL     1      35.969  -2.585  42.498  1.00  0.00     0.162 A 
BRANCH  13  17
ATOM     17  O   UNL     1      36.138   1.136  42.286  1.00  0.00    -0.504 OA
ATOM     18  H   UNL     1      35.782   1.770  41.586  1.00  0.00     0.293 HD
ENDBRANCH  13  17
BRANCH  15  19
ATOM     19  O   UNL     1      37.841  -1.205  41.906  1.00  0.00    -0.502 OA
ATOM     20  H   UNL     1      38.620  -1.422  42.512  1.00  0.00     0.293 HD
ENDBRANCH  15  19
BRANCH  16  21
ATOM     21  O   UNL     1      36.786  -3.703  42.336  1.00  0.00    -0.504 OA
ATOM     22  H   UNL     1      36.421  -4.645  42.416  1.00  0.00     0.293 HD
ENDBRANCH  16  21
ENDBRANCH   1  11
BRANCH  10  23
ATOM     23  O   UNL     1      32.939  -3.381  45.194  1.00  0.00    -0.500 OA
ATOM     24  H   UNL     1      32.841  -3.590  46.181  1.00  0.00     0.294 HD
ENDBRANCH  10  23
BRANCH   5  25
ATOM     25  O   UNL     1      26.998   0.346  41.878  1.00  0.00    -0.507 OA
ATOM     26  H   UNL     1      27.300   0.855  41.056  1.00  0.00     0.293 HD
ENDBRANCH   5  25
BRANCH   7  27
ATOM     27  O   UNL     1      27.864  -2.755  45.504  1.00  0.00    -0.507 OA
ATOM     28  H   UNL     1      26.873  -2.901  45.659  1.00  0.00     0.293 HD
ENDBRANCH   7  27
TORSDOF 7
ENDMDL
MODEL 6
REMARK VINA RESULT:    -1.284      2.066      3.657
REMARK INTER + INTRA:          -1.579
REMARK INTER:                  -1.983
REMARK INTRA:                   0.404
REMARK UNBOUND:                 0.005
REMARK SMILES Oc1cc(O)c2cc(O)c(-c3cc(O)c(O)c(O)c3)[o+]c2c1.[Cl-]
REMARK SMILES IDX 10 1 20 2 21 3 22 4 2 5 3 6 4 7 6 8 7 9 8 10 11 11 12 12
REMARK SMILES IDX 13 13 19 14 15 15 17 16 14 17 16 19 18 21 9 23 1 25 5 27
REMARK H PARENT 14 18 16 20 18 22 9 24 1 26 5 28
REMARK Flexibility Score: inf
ROOT
ATOM      1  C   UNL     1      31.528  -1.904  44.408  1.00  0.00     0.402 A 
ATOM      2  O   UNL     1      31.783  -0.681  43.948  1.00  0.00    -0.202 OA
ATOM      3  C   UNL     1      32.941  -0.341  43.388  1.00  0.00     0.368 A 
ATOM      4  C   UNL     1      33.130   0.964  42.925  1.00  0.00     0.162 A 
ATOM      5  C   UNL     1      34.340   1.333  42.331  1.00  0.00     0.128 A 
ATOM      6  C   UNL     1      35.370   0.391  42.199  1.00  0.00     0.093 A 
ATOM      7  C   UNL     1      35.195  -0.922  42.659  1.00  0.00     0.136 A 
ATOM      8  C   UNL     1      33.976  -1.292  43.258  1.00  0.00     0.125 A 
ATOM      9  C   UNL     1      33.750  -2.586  43.743  1.00  0.00     0.078 A 
ATOM     10  C   UNL     1      32.523  -2.900  44.334  1.00  0.00     0.223 A 
ENDROOT
BRANCH   1  11
ATOM     11  C   UNL     1      30.197  -2.164  45.004  1.00  0.00     0.091 A 
ATOM     12  C   UNL     1      29.801  -3.485  45.256  1.00  0.00     0.068 A 
ATOM     13  C   UNL     1      28.558  -3.767  45.838  1.00  0.00     0.162 A 
ATOM     14  C   UNL     1      29.343  -1.114  45.374  1.00  0.00     0.068 A 
ATOM     15  C   UNL     1      27.693  -2.703  46.187  1.00  0.00     0.200 A 
ATOM     16  C   UNL     1      28.098  -1.380  45.956  1.00  0.00     0.162 A 
BRANCH  13  17
ATOM     17  O   UNL     1      28.228  -5.108  46.048  1.00  0.00    -0.504 OA
ATOM     18  H   UNL     1      28.905  -5.855  46.103  1.00  0.00     0.293 HD
ENDBRANCH  13  17
BRANCH  15  19
ATOM     19  O   UNL     1      26.439  -2.914  46.763  1.00  0.00    -0.502 OA
ATOM     20  H   UNL     1      25.577  -2.535  46.396  1.00  0.00     0.293 HD
ENDBRANCH  15  19
BRANCH  16  21
ATOM     21  O   UNL     1      27.254  -0.331  46.315  1.00  0.00    -0.504 OA
ATOM     22  H   UNL     1      26.734  -0.340  47.185  1.00  0.00     0.293 HD
ENDBRANCH  16  21
ENDBRANCH   1  11
BRANCH  10  23
ATOM     23  O   UNL     1      32.308  -4.172  44.864  1.00  0.00    -0.500 OA
ATOM     24  H   UNL     1      33.031  -4.882  44.853  1.00  0.00     0.294 HD
ENDBRANCH  10  23
BRANCH   5  25
ATOM     25  O   UNL     1      34.510   2.639  41.875  1.00  0.00    -0.507 OA
ATOM     26  H   UNL     1      33.857   3.374  42.117  1.00  0.00     0.293 HD
ENDBRANCH   5  25
BRANCH   7  27
ATOM     27  O   UNL     1      36.228  -1.850  42.524  1.00  0.00    -0.507 OA
ATOM     28  H   UNL     1      37.168  -1.652  42.849  1.00  0.00     0.293 HD
ENDBRANCH   7  27
TORSDOF 7
ENDMDL
MODEL 7
REMARK VINA RESULT:    -0.758      1.914      7.312
REMARK INTER + INTRA:          -0.929
REMARK INTER:                  -1.295
REMARK INTRA:                   0.366
REMARK UNBOUND:                 0.005
REMARK SMILES Oc1cc(O)c2cc(O)c(-c3cc(O)c(O)c(O)c3)[o+]c2c1.[Cl-]
REMARK SMILES IDX 10 1 20 2 21 3 22 4 2 5 3 6 4 7 6 8 7 9 8 10 11 11 12 12
REMARK SMILES IDX 13 13 19 14 15 15 17 16 14 17 16 19 18 21 9 23 1 25 5 27
REMARK H PARENT 14 18 16 20 18 22 9 24 1 26 5 28
REMARK Flexibility Score: inf
ROOT
ATOM      1  C   UNL     1      31.624  -1.893  44.423  1.00  0.00     0.402 A 
ATOM      2  O   UNL     1      30.552  -1.146  44.684  1.00  0.00    -0.202 OA
ATOM      3  C   UNL     1      29.468  -1.617  45.294  1.00  0.00     0.368 A 
ATOM      4  C   UNL     1      28.386  -0.767  45.536  1.00  0.00     0.162 A 
ATOM      5  C   UNL     1      27.242  -1.248  46.180  1.00  0.00     0.128 A 
ATOM      6  C   UNL     1      27.178  -2.589  46.583  1.00  0.00     0.093 A 
ATOM      7  C   UNL     1      28.256  -3.454  46.347  1.00  0.00     0.136 A 
ATOM      8  C   UNL     1      29.408  -2.968  45.699  1.00  0.00     0.125 A 
ATOM      9  C   UNL     1      30.510  -3.788  45.429  1.00  0.00     0.078 A 
ATOM     10  C   UNL     1      31.627  -3.258  44.776  1.00  0.00     0.223 A 
ENDROOT
BRANCH   1  11
ATOM     11  C   UNL     1      32.775  -1.253  43.747  1.00  0.00     0.091 A 
ATOM     12  C   UNL     1      32.674   0.081  43.327  1.00  0.00     0.068 A 
ATOM     13  C   UNL     1      33.750   0.725  42.703  1.00  0.00     0.162 A 
ATOM     14  C   UNL     1      33.989  -1.935  43.565  1.00  0.00     0.068 A 
ATOM     15  C   UNL     1      34.962   0.023  42.502  1.00  0.00     0.200 A 
ATOM     16  C   UNL     1      35.072  -1.304  42.943  1.00  0.00     0.162 A 
BRANCH  13  17
ATOM     17  O   UNL     1      33.570   2.050  42.302  1.00  0.00    -0.504 OA
ATOM     18  H   UNL     1      34.317   2.654  41.991  1.00  0.00     0.293 HD
ENDBRANCH  13  17
BRANCH  15  19
ATOM     19  O   UNL     1      36.070   0.602  41.881  1.00  0.00    -0.502 OA
ATOM     20  H   UNL     1      37.028   0.349  42.081  1.00  0.00     0.293 HD
ENDBRANCH  15  19
BRANCH  16  21
ATOM     21  O   UNL     1      36.272  -1.991  42.760  1.00  0.00    -0.504 OA
ATOM     22  H   UNL     1      36.374  -2.702  42.047  1.00  0.00     0.293 HD
ENDBRANCH  16  21
ENDBRANCH   1  11
BRANCH  10  23
ATOM     23  O   UNL     1      32.708  -4.081  44.460  1.00  0.00    -0.500 OA
ATOM     24  H   UNL     1      32.849  -4.437  43.522  1.00  0.00     0.294 HD
ENDBRANCH  10  23
BRANCH   5  25
ATOM     25  O   UNL     1      26.173  -0.386  46.413  1.00  0.00    -0.507 OA
ATOM     26  H   UNL     1      25.767   0.169  45.669  1.00  0.00     0.293 HD
ENDBRANCH   5  25
BRANCH   7  27
ATOM     27  O   UNL     1      28.181  -4.787  46.751  1.00  0.00    -0.507 OA
ATOM     28  H   UNL     1      28.890  -5.205  47.343  1.00  0.00     0.293 HD
ENDBRANCH   7  27
TORSDOF 7
ENDMDL
