MODEL 1
REMARK VINA RESULT:     4.964      0.000      0.000
REMARK INTER + INTRA:           9.360
REMARK INTER:                   9.027
REMARK INTRA:                   0.333
REMARK UNBOUND:                 0.333
REMARK SMILES CCCCCCCCCCCCCCCC(=O)[O-]
REMARK SMILES IDX 9 1 10 2 11 3 12 4 13 5 14 6 15 7 16 8 17 9 18 10 8 11 7 12
REMARK SMILES IDX 6 13 5 14 4 15 3 16 2 17 1 18
REMARK H PARENT
REMARK Flexibility Score: inf
ROOT
ATOM      1  C   UNL     1      -4.680  -9.633  -5.850  1.00  0.00     0.000 C 
ENDROOT
BRANCH   1   2
ATOM      2  C   UNL     1      -3.624  -9.036  -4.898  1.00  0.00     0.000 C 
BRANCH   2   3
ATOM      3  C   UNL     1      -2.197  -8.947  -5.475  1.00  0.00     0.000 C 
BRANCH   3   4
ATOM      4  C   UNL     1      -2.026  -7.939  -6.625  1.00  0.00     0.000 C 
BRANCH   4   5
ATOM      5  C   UNL     1      -1.426  -6.602  -6.158  1.00  0.00     0.000 C 
BRANCH   5   6
ATOM      6  C   UNL     1      -0.551  -6.749  -4.900  1.00  0.00     0.006 C 
BRANCH   6   7
ATOM      7  C   UNL     1       0.899  -6.273  -5.082  1.00  0.00     0.053 C 
BRANCH   7   8
ATOM      8  C   UNL     1       1.871  -7.413  -5.061  1.00  0.00     0.041 C 
ATOM      9  O   UNL     1       1.457  -8.601  -5.111  1.00  0.00    -0.550 OA
ATOM     10  O   UNL     1       3.237  -7.162  -5.018  1.00  0.00    -0.550 OA
ENDBRANCH   7   8
ENDBRANCH   6   7
ENDBRANCH   5   6
ENDBRANCH   4   5
ENDBRANCH   3   4
ENDBRANCH   2   3
ENDBRANCH   1   2
BRANCH   1  11
ATOM     11  C   UNL     1      -4.496  -9.271  -7.334  1.00  0.00     0.000 C 
BRANCH  11  12
ATOM     12  C   UNL     1      -4.747 -10.461  -8.273  1.00  0.00    -0.000 C 
BRANCH  12  13
ATOM     13  C   UNL     1      -4.361 -11.784  -7.595  1.00  0.00    -0.000 C 
BRANCH  13  14
ATOM     14  C   UNL     1      -5.578 -12.572  -7.076  1.00  0.00    -0.000 C 
BRANCH  14  15
ATOM     15  C   UNL     1      -5.674 -12.693  -5.545  1.00  0.00    -0.000 C 
BRANCH  15  16
ATOM     16  C   UNL     1      -6.564 -11.610  -4.913  1.00  0.00    -0.000 C 
BRANCH  16  17
ATOM     17  C   UNL     1      -8.047 -12.015  -4.875  1.00  0.00    -0.003 C 
ATOM     18  C   UNL     1      -8.991 -10.816  -4.954  1.00  0.00     0.004 C 
ENDBRANCH  16  17
ENDBRANCH  15  16
ENDBRANCH  14  15
ENDBRANCH  13  14
ENDBRANCH  12  13
ENDBRANCH  11  12
ENDBRANCH   1  11
TORSDOF 14
ENDMDL
MODEL 2
REMARK VINA RESULT:     5.421     18.608     21.006
REMARK INTER + INTRA:          10.191
REMARK INTER:                  10.077
REMARK INTRA:                   0.114
REMARK UNBOUND:                 0.333
REMARK SMILES CCCCCCCCCCCCCCCC(=O)[O-]
REMARK SMILES IDX 9 1 10 2 11 3 12 4 13 5 14 6 15 7 16 8 17 9 18 10 8 11 7 12
REMARK SMILES IDX 6 13 5 14 4 15 3 16 2 17 1 18
REMARK H PARENT
REMARK Flexibility Score: inf
ROOT
ATOM      1  C   UNL     1      -7.546 -18.855 -22.887  1.00  0.00     0.000 C 
ENDROOT
BRANCH   1   2
ATOM      2  C   UNL     1      -8.523 -18.444 -21.767  1.00  0.00     0.000 C 
BRANCH   2   3
ATOM      3  C   UNL     1      -8.704 -16.924 -21.580  1.00  0.00     0.000 C 
BRANCH   3   4
ATOM      4  C   UNL     1      -9.359 -16.200 -22.769  1.00  0.00     0.000 C 
BRANCH   4   5
ATOM      5  C   UNL     1      -8.558 -14.971 -23.231  1.00  0.00     0.000 C 
BRANCH   5   6
ATOM      6  C   UNL     1      -9.269 -13.643 -22.913  1.00  0.00     0.006 C 
BRANCH   6   7
ATOM      7  C   UNL     1      -8.865 -12.477 -23.830  1.00  0.00     0.053 C 
BRANCH   7   8
ATOM      8  C   UNL     1      -7.379 -12.375 -23.987  1.00  0.00     0.041 C 
ATOM      9  O   UNL     1      -6.680 -11.855 -23.078  1.00  0.00    -0.550 OA
ATOM     10  O   UNL     1      -6.762 -12.882 -25.125  1.00  0.00    -0.550 OA
ENDBRANCH   7   8
ENDBRANCH   6   7
ENDBRANCH   5   6
ENDBRANCH   4   5
ENDBRANCH   3   4
ENDBRANCH   2   3
ENDBRANCH   1   2
BRANCH   1  11
ATOM     11  C   UNL     1      -7.958 -18.414 -24.303  1.00  0.00     0.000 C 
BRANCH  11  12
ATOM     12  C   UNL     1      -9.121 -19.242 -24.869  1.00  0.00    -0.000 C 
BRANCH  12  13
ATOM     13  C   UNL     1      -9.728 -20.147 -23.787  1.00  0.00    -0.000 C 
BRANCH  13  14
ATOM     14  C   UNL     1     -11.094 -20.731 -24.189  1.00  0.00    -0.000 C 
BRANCH  14  15
ATOM     15  C   UNL     1     -11.114 -22.253 -24.417  1.00  0.00    -0.000 C 
BRANCH  15  16
ATOM     16  C   UNL     1      -9.849 -22.769 -25.125  1.00  0.00    -0.000 C 
BRANCH  16  17
ATOM     17  C   UNL     1      -9.683 -24.291 -24.998  1.00  0.00    -0.003 C 
ATOM     18  C   UNL     1     -10.868 -24.962 -24.303  1.00  0.00     0.004 C 
ENDBRANCH  16  17
ENDBRANCH  15  16
ENDBRANCH  14  15
ENDBRANCH  13  14
ENDBRANCH  12  13
ENDBRANCH  11  12
ENDBRANCH   1  11
TORSDOF 14
ENDMDL
MODEL 3
REMARK VINA RESULT:     5.607      1.635      3.100
REMARK INTER + INTRA:          10.529
REMARK INTER:                   8.883
REMARK INTRA:                   1.646
REMARK UNBOUND:                 0.333
REMARK SMILES CCCCCCCCCCCCCCCC(=O)[O-]
REMARK SMILES IDX 9 1 10 2 11 3 12 4 13 5 14 6 15 7 16 8 17 9 18 10 8 11 7 12
REMARK SMILES IDX 6 13 5 14 4 15 3 16 2 17 1 18
REMARK H PARENT
REMARK Flexibility Score: inf
ROOT
ATOM      1  C   UNL     1      -4.997 -10.455  -8.186  1.00  0.00     0.000 C 
ENDROOT
BRANCH   1   2
ATOM      2  C   UNL     1      -4.346  -9.350  -7.330  1.00  0.00     0.000 C 
BRANCH   2   3
ATOM      3  C   UNL     1      -4.207  -9.679  -5.830  1.00  0.00     0.000 C 
BRANCH   3   4
ATOM      4  C   UNL     1      -2.895  -9.204  -5.183  1.00  0.00     0.000 C 
BRANCH   4   5
ATOM      5  C   UNL     1      -2.557  -7.743  -5.526  1.00  0.00     0.000 C 
BRANCH   5   6
ATOM      6  C   UNL     1      -1.192  -7.301  -4.969  1.00  0.00     0.006 C 
BRANCH   6   7
ATOM      7  C   UNL     1      -0.021  -7.496  -5.945  1.00  0.00     0.053 C 
BRANCH   7   8
ATOM      8  C   UNL     1       1.301  -7.513  -5.241  1.00  0.00     0.041 C 
ATOM      9  O   UNL     1       1.877  -8.607  -4.999  1.00  0.00    -0.550 OA
ATOM     10  O   UNL     1       1.913  -6.319  -4.880  1.00  0.00    -0.550 OA
ENDBRANCH   7   8
ENDBRANCH   6   7
ENDBRANCH   5   6
ENDBRANCH   4   5
ENDBRANCH   3   4
ENDBRANCH   2   3
ENDBRANCH   1   2
BRANCH   1  11
ATOM     11  C   UNL     1      -4.448 -11.873  -7.945  1.00  0.00     0.000 C 
BRANCH  11  12
ATOM     12  C   UNL     1      -5.558 -12.908  -7.705  1.00  0.00    -0.000 C 
BRANCH  12  13
ATOM     13  C   UNL     1      -6.395 -12.539  -6.472  1.00  0.00    -0.000 C 
BRANCH  13  14
ATOM     14  C   UNL     1      -5.542 -12.020  -5.299  1.00  0.00    -0.000 C 
BRANCH  14  15
ATOM     15  C   UNL     1      -4.383 -12.940  -4.875  1.00  0.00    -0.000 C 
BRANCH  15  16
ATOM     16  C   UNL     1      -3.235 -12.968  -5.899  1.00  0.00    -0.000 C 
BRANCH  16  17
ATOM     17  C   UNL     1      -2.303 -14.174  -5.703  1.00  0.00    -0.003 C 
ATOM     18  C   UNL     1      -2.669 -15.359  -6.596  1.00  0.00     0.004 C 
ENDBRANCH  16  17
ENDBRANCH  15  16
ENDBRANCH  14  15
ENDBRANCH  13  14
ENDBRANCH  12  13
ENDBRANCH  11  12
ENDBRANCH   1  11
TORSDOF 14
ENDMDL
MODEL 4
REMARK VINA RESULT:     6.167     18.688     21.129
REMARK INTER + INTRA:          11.547
REMARK INTER:                  10.351
REMARK INTRA:                   1.196
REMARK UNBOUND:                 0.333
REMARK SMILES CCCCCCCCCCCCCCCC(=O)[O-]
REMARK SMILES IDX 9 1 10 2 11 3 12 4 13 5 14 6 15 7 16 8 17 9 18 10 8 11 7 12
REMARK SMILES IDX 6 13 5 14 4 15 3 16 2 17 1 18
REMARK H PARENT
REMARK Flexibility Score: inf
ROOT
ATOM      1  C   UNL     1      -7.659 -19.225 -22.810  1.00  0.00     0.000 C 
ENDROOT
BRANCH   1   2
ATOM      2  C   UNL     1      -8.672 -18.656 -21.797  1.00  0.00     0.000 C 
BRANCH   2   3
ATOM      3  C   UNL     1      -9.066 -17.182 -22.021  1.00  0.00     0.000 C 
BRANCH   3   4
ATOM      4  C   UNL     1      -8.882 -16.676 -23.462  1.00  0.00     0.000 C 
BRANCH   4   5
ATOM      5  C   UNL     1      -8.138 -15.331 -23.530  1.00  0.00     0.000 C 
BRANCH   5   6
ATOM      6  C   UNL     1      -8.489 -14.397 -22.357  1.00  0.00     0.006 C 
BRANCH   6   7
ATOM      7  C   UNL     1      -8.869 -12.970 -22.782  1.00  0.00     0.053 C 
BRANCH   7   8
ATOM      8  C   UNL     1     -10.344 -12.729 -22.687  1.00  0.00     0.041 C 
ATOM      9  O   UNL     1     -11.075 -12.855 -23.705  1.00  0.00    -0.550 OA
ATOM     10  O   UNL     1     -10.918 -12.395 -21.466  1.00  0.00    -0.550 OA
ENDBRANCH   7   8
ENDBRANCH   6   7
ENDBRANCH   5   6
ENDBRANCH   4   5
ENDBRANCH   3   4
ENDBRANCH   2   3
ENDBRANCH   1   2
BRANCH   1  11
ATOM     11  C   UNL     1      -7.895 -18.804 -24.271  1.00  0.00     0.000 C 
BRANCH  11  12
ATOM     12  C   UNL     1      -9.205 -19.360 -24.848  1.00  0.00    -0.000 C 
BRANCH  12  13
ATOM     13  C   UNL     1      -9.680 -20.582 -24.049  1.00  0.00    -0.000 C 
BRANCH  13  14
ATOM     14  C   UNL     1     -11.034 -21.131 -24.538  1.00  0.00    -0.000 C 
BRANCH  14  15
ATOM     15  C   UNL     1     -10.994 -22.563 -25.101  1.00  0.00    -0.000 C 
BRANCH  15  16
ATOM     16  C   UNL     1      -9.850 -23.406 -24.513  1.00  0.00    -0.000 C 
BRANCH  16  17
ATOM     17  C   UNL     1     -10.316 -24.803 -24.073  1.00  0.00    -0.003 C 
ATOM     18  C   UNL     1     -10.589 -24.892 -22.571  1.00  0.00     0.004 C 
ENDBRANCH  16  17
ENDBRANCH  15  16
ENDBRANCH  14  15
ENDBRANCH  13  14
ENDBRANCH  12  13
ENDBRANCH  11  12
ENDBRANCH   1  11
TORSDOF 14
ENDMDL
MODEL 5
REMARK VINA RESULT:     6.825     17.067     18.996
REMARK INTER + INTRA:          12.744
REMARK INTER:                  13.733
REMARK INTRA:                  -0.989
REMARK UNBOUND:                 0.333
REMARK SMILES CCCCCCCCCCCCCCCC(=O)[O-]
REMARK SMILES IDX 9 1 10 2 11 3 12 4 13 5 14 6 15 7 16 8 17 9 18 10 8 11 7 12
REMARK SMILES IDX 6 13 5 14 4 15 3 16 2 17 1 18
REMARK H PARENT
REMARK Flexibility Score: inf
ROOT
ATOM      1  C   UNL     1       9.044  -9.888 -21.331  1.00  0.00     0.000 C 
ENDROOT
BRANCH   1   2
ATOM      2  C   UNL     1       9.083  -8.692 -22.303  1.00  0.00     0.000 C 
BRANCH   2   3
ATOM      3  C   UNL     1       8.574  -7.358 -21.723  1.00  0.00     0.000 C 
BRANCH   3   4
ATOM      4  C   UNL     1       8.955  -6.110 -22.538  1.00  0.00     0.000 C 
BRANCH   4   5
ATOM      5  C   UNL     1       8.507  -6.200 -24.007  1.00  0.00     0.000 C 
BRANCH   5   6
ATOM      6  C   UNL     1       7.926  -4.875 -24.534  1.00  0.00     0.006 C 
BRANCH   6   7
ATOM      7  C   UNL     1       6.511  -4.999 -25.123  1.00  0.00     0.053 C 
BRANCH   7   8
ATOM      8  C   UNL     1       5.535  -5.552 -24.131  1.00  0.00     0.041 C 
ATOM      9  O   UNL     1       5.315  -4.942 -23.051  1.00  0.00    -0.550 OA
ATOM     10  O   UNL     1       4.845  -6.725 -24.412  1.00  0.00    -0.550 OA
ENDBRANCH   7   8
ENDBRANCH   6   7
ENDBRANCH   5   6
ENDBRANCH   4   5
ENDBRANCH   3   4
ENDBRANCH   2   3
ENDBRANCH   1   2
BRANCH   1  11
ATOM     11  C   UNL     1       9.023  -9.512 -19.839  1.00  0.00     0.000 C 
BRANCH  11  12
ATOM     12  C   UNL     1       7.796 -10.068 -19.101  1.00  0.00    -0.000 C 
BRANCH  12  13
ATOM     13  C   UNL     1       6.572  -9.167 -19.316  1.00  0.00    -0.000 C 
BRANCH  13  14
ATOM     14  C   UNL     1       6.511  -7.989 -18.327  1.00  0.00    -0.000 C 
BRANCH  14  15
ATOM     15  C   UNL     1       5.097  -7.458 -18.028  1.00  0.00    -0.000 C 
BRANCH  15  16
ATOM     16  C   UNL     1       5.108  -6.112 -17.284  1.00  0.00    -0.000 C 
BRANCH  16  17
ATOM     17  C   UNL     1       3.820  -5.873 -16.481  1.00  0.00    -0.003 C 
ATOM     18  C   UNL     1       2.629  -5.505 -17.365  1.00  0.00     0.004 C 
ENDBRANCH  16  17
ENDBRANCH  15  16
ENDBRANCH  14  15
ENDBRANCH  13  14
ENDBRANCH  12  13
ENDBRANCH  11  12
ENDBRANCH   1  11
TORSDOF 14
ENDMDL
