MODEL 1
REMARK VINA RESULT:    -4.964      0.000      0.000
REMARK INTER + INTRA:         -14.093
REMARK INTER:                 -10.768
REMARK INTRA:                  -3.325
REMARK UNBOUND:                -3.325
REMARK SMILES CCCCCCCCCCCCCCCCCCCCCC(=O)[O-]
REMARK SMILES IDX 12 1 11 2 10 3 9 4 8 5 7 6 6 7 5 8 4 9 3 10 2 11 1 12 13 13
REMARK SMILES IDX 14 14 15 15 16 16 17 17 18 18 19 19 20 20 21 21 22 22 23 23
REMARK SMILES IDX 24 24
REMARK H PARENT
REMARK Flexibility Score: inf
ROOT
ATOM      1  C   UNL     1      11.347  11.715 -19.890  1.00  0.00     0.000 C 
ENDROOT
BRANCH   1   2
ATOM      2  C   UNL     1      11.519  12.167 -18.431  1.00  0.00     0.000 C 
BRANCH   2   3
ATOM      3  C   UNL     1      10.742  13.466 -18.167  1.00  0.00     0.000 C 
BRANCH   3   4
ATOM      4  C   UNL     1      10.035  14.004 -19.422  1.00  0.00    -0.000 C 
BRANCH   4   5
ATOM      5  C   UNL     1      10.556  15.388 -19.847  1.00  0.00    -0.000 C 
BRANCH   5   6
ATOM      6  C   UNL     1       9.470  16.241 -20.523  1.00  0.00    -0.000 C 
BRANCH   6   7
ATOM      7  C   UNL     1       8.173  16.302 -19.695  1.00  0.00    -0.000 C 
BRANCH   7   8
ATOM      8  C   UNL     1       8.093  17.561 -18.816  1.00  0.00    -0.000 C 
BRANCH   8   9
ATOM      9  C   UNL     1       8.252  17.254 -17.319  1.00  0.00    -0.000 C 
BRANCH   9  10
ATOM     10  C   UNL     1       9.673  17.576 -16.841  1.00  0.00    -0.000 C 
BRANCH  10  11
ATOM     11  C   UNL     1      10.298  16.375 -16.120  1.00  0.00    -0.003 C 
ATOM     12  C   UNL     1      11.785  16.604 -15.854  1.00  0.00     0.004 C 
ENDBRANCH  10  11
ENDBRANCH   9  10
ENDBRANCH   8   9
ENDBRANCH   7   8
ENDBRANCH   6   7
ENDBRANCH   5   6
ENDBRANCH   4   5
ENDBRANCH   3   4
ENDBRANCH   2   3
ENDBRANCH   1   2
BRANCH   1  13
ATOM     13  C   UNL     1      12.665  11.260 -20.534  1.00  0.00     0.000 C 
BRANCH  13  14
ATOM     14  C   UNL     1      13.330  12.365 -21.371  1.00  0.00     0.000 C 
BRANCH  14  15
ATOM     15  C   UNL     1      14.846  12.464 -21.128  1.00  0.00     0.000 C 
BRANCH  15  16
ATOM     16  C   UNL     1      15.242  13.548 -20.102  1.00  0.00     0.000 C 
BRANCH  16  17
ATOM     17  C   UNL     1      14.100  14.545 -19.842  1.00  0.00     0.000 C 
BRANCH  17  18
ATOM     18  C   UNL     1      14.053  15.039 -18.383  1.00  0.00     0.000 C 
BRANCH  18  19
ATOM     19  C   UNL     1      15.033  16.179 -18.049  1.00  0.00     0.000 C 
BRANCH  19  20
ATOM     20  C   UNL     1      15.956  15.849 -16.863  1.00  0.00     0.006 C 
BRANCH  20  21
ATOM     21  C   UNL     1      17.227  15.112 -17.306  1.00  0.00     0.053 C 
BRANCH  21  22
ATOM     22  C   UNL     1      17.222  13.679 -16.866  1.00  0.00     0.041 C 
ATOM     23  O   UNL     1      17.950  12.833 -17.449  1.00  0.00    -0.550 OA
ATOM     24  O   UNL     1      16.433  13.284 -15.794  1.00  0.00    -0.550 OA
ENDBRANCH  21  22
ENDBRANCH  20  21
ENDBRANCH  19  20
ENDBRANCH  18  19
ENDBRANCH  17  18
ENDBRANCH  16  17
ENDBRANCH  15  16
ENDBRANCH  14  15
ENDBRANCH  13  14
ENDBRANCH   1  13
TORSDOF 20
ENDMDL
MODEL 2
REMARK VINA RESULT:    -4.932      1.823      3.783
REMARK INTER + INTRA:         -14.023
REMARK INTER:                 -10.840
REMARK INTRA:                  -3.184
REMARK UNBOUND:                -3.325
REMARK SMILES CCCCCCCCCCCCCCCCCCCCCC(=O)[O-]
REMARK SMILES IDX 12 1 11 2 10 3 9 4 8 5 7 6 6 7 5 8 4 9 3 10 2 11 1 12 13 13
REMARK SMILES IDX 14 14 15 15 16 16 17 17 18 18 19 19 20 20 21 21 22 22 23 23
REMARK SMILES IDX 24 24
REMARK H PARENT
REMARK Flexibility Score: inf
ROOT
ATOM      1  C   UNL     1      13.478  11.069 -21.066  1.00  0.00     0.000 C 
ENDROOT
BRANCH   1   2
ATOM      2  C   UNL     1      13.761  12.274 -21.976  1.00  0.00     0.000 C 
BRANCH   2   3
ATOM      3  C   UNL     1      13.861  13.568 -21.153  1.00  0.00     0.000 C 
BRANCH   3   4
ATOM      4  C   UNL     1      12.978  14.698 -21.707  1.00  0.00    -0.000 C 
BRANCH   4   5
ATOM      5  C   UNL     1      13.249  16.050 -21.023  1.00  0.00    -0.000 C 
BRANCH   5   6
ATOM      6  C   UNL     1      12.162  17.092 -21.333  1.00  0.00    -0.000 C 
BRANCH   6   7
ATOM      7  C   UNL     1      11.563  16.913 -22.740  1.00  0.00    -0.000 C 
BRANCH   7   8
ATOM      8  C   UNL     1      10.030  16.786 -22.718  1.00  0.00    -0.000 C 
BRANCH   8   9
ATOM      9  C   UNL     1       9.434  17.016 -21.320  1.00  0.00    -0.000 C 
BRANCH   9  10
ATOM     10  C   UNL     1       8.852  15.716 -20.753  1.00  0.00    -0.000 C 
BRANCH  10  11
ATOM     11  C   UNL     1       7.333  15.656 -20.960  1.00  0.00    -0.003 C 
ATOM     12  C   UNL     1       6.971  14.733 -22.122  1.00  0.00     0.004 C 
ENDBRANCH  10  11
ENDBRANCH   9  10
ENDBRANCH   8   9
ENDBRANCH   7   8
ENDBRANCH   6   7
ENDBRANCH   5   6
ENDBRANCH   4   5
ENDBRANCH   3   4
ENDBRANCH   2   3
ENDBRANCH   1   2
BRANCH   1  13
ATOM     13  C   UNL     1      12.549  11.412 -19.892  1.00  0.00     0.000 C 
BRANCH  13  14
ATOM     14  C   UNL     1      11.067  11.453 -20.299  1.00  0.00     0.000 C 
BRANCH  14  15
ATOM     15  C   UNL     1      10.253  12.468 -19.478  1.00  0.00     0.000 C 
BRANCH  15  16
ATOM     16  C   UNL     1      11.022  13.051 -18.272  1.00  0.00     0.000 C 
BRANCH  16  17
ATOM     17  C   UNL     1      11.169  14.580 -18.362  1.00  0.00     0.000 C 
BRANCH  17  18
ATOM     18  C   UNL     1      12.334  15.122 -17.512  1.00  0.00     0.000 C 
BRANCH  18  19
ATOM     19  C   UNL     1      13.479  14.124 -17.260  1.00  0.00     0.000 C 
BRANCH  19  20
ATOM     20  C   UNL     1      14.856  14.676 -17.667  1.00  0.00     0.006 C 
BRANCH  20  21
ATOM     21  C   UNL     1      15.962  14.249 -16.692  1.00  0.00     0.053 C 
BRANCH  21  22
ATOM     22  C   UNL     1      17.283  14.089 -17.382  1.00  0.00     0.041 C 
ATOM     23  O   UNL     1      18.126  13.257 -16.955  1.00  0.00    -0.550 OA
ATOM     24  O   UNL     1      17.570  14.839 -18.514  1.00  0.00    -0.550 OA
ENDBRANCH  21  22
ENDBRANCH  20  21
ENDBRANCH  19  20
ENDBRANCH  18  19
ENDBRANCH  17  18
ENDBRANCH  16  17
ENDBRANCH  15  16
ENDBRANCH  14  15
ENDBRANCH  13  14
ENDBRANCH   1  13
TORSDOF 20
ENDMDL
MODEL 3
REMARK VINA RESULT:    -4.932      1.610      3.205
REMARK INTER + INTRA:         -14.023
REMARK INTER:                 -10.656
REMARK INTRA:                  -3.367
REMARK UNBOUND:                -3.325
REMARK SMILES CCCCCCCCCCCCCCCCCCCCCC(=O)[O-]
REMARK SMILES IDX 12 1 11 2 10 3 9 4 8 5 7 6 6 7 5 8 4 9 3 10 2 11 1 12 13 13
REMARK SMILES IDX 14 14 15 15 16 16 17 17 18 18 19 19 20 20 21 21 22 22 23 23
REMARK SMILES IDX 24 24
REMARK H PARENT
REMARK Flexibility Score: inf
ROOT
ATOM      1  C   UNL     1      11.017  12.143 -19.496  1.00  0.00     0.000 C 
ENDROOT
BRANCH   1   2
ATOM      2  C   UNL     1      10.971  12.539 -18.011  1.00  0.00     0.000 C 
BRANCH   2   3
ATOM      3  C   UNL     1      10.378  13.946 -17.840  1.00  0.00     0.000 C 
BRANCH   3   4
ATOM      4  C   UNL     1      10.187  14.679 -19.178  1.00  0.00    -0.000 C 
BRANCH   4   5
ATOM      5  C   UNL     1       9.935  16.186 -18.996  1.00  0.00    -0.000 C 
BRANCH   5   6
ATOM      6  C   UNL     1      10.846  17.046 -19.888  1.00  0.00    -0.000 C 
BRANCH   6   7
ATOM      7  C   UNL     1      10.744  16.659 -21.375  1.00  0.00    -0.000 C 
BRANCH   7   8
ATOM      8  C   UNL     1      10.224  17.811 -22.251  1.00  0.00    -0.000 C 
BRANCH   8   9
ATOM      9  C   UNL     1       8.741  17.655 -22.621  1.00  0.00    -0.000 C 
BRANCH   9  10
ATOM     10  C   UNL     1       8.487  16.308 -23.309  1.00  0.00    -0.000 C 
BRANCH  10  11
ATOM     11  C   UNL     1       7.166  15.688 -22.836  1.00  0.00    -0.003 C 
ATOM     12  C   UNL     1       7.304  15.099 -21.433  1.00  0.00     0.004 C 
ENDBRANCH  10  11
ENDBRANCH   9  10
ENDBRANCH   8   9
ENDBRANCH   7   8
ENDBRANCH   6   7
ENDBRANCH   5   6
ENDBRANCH   4   5
ENDBRANCH   3   4
ENDBRANCH   2   3
ENDBRANCH   1   2
BRANCH   1  13
ATOM     13  C   UNL     1      12.220  11.252 -19.840  1.00  0.00     0.000 C 
BRANCH  13  14
ATOM     14  C   UNL     1      12.592  11.305 -21.330  1.00  0.00     0.000 C 
BRANCH  14  15
ATOM     15  C   UNL     1      13.932  12.018 -21.583  1.00  0.00     0.000 C 
BRANCH  15  16
ATOM     16  C   UNL     1      13.778  13.443 -22.159  1.00  0.00     0.000 C 
BRANCH  16  17
ATOM     17  C   UNL     1      13.426  14.473 -21.072  1.00  0.00     0.000 C 
BRANCH  17  18
ATOM     18  C   UNL     1      14.283  14.322 -19.800  1.00  0.00     0.000 C 
BRANCH  18  19
ATOM     19  C   UNL     1      13.837  15.186 -18.606  1.00  0.00     0.000 C 
BRANCH  19  20
ATOM     20  C   UNL     1      14.042  14.487 -17.251  1.00  0.00     0.006 C 
BRANCH  20  21
ATOM     21  C   UNL     1      15.228  15.071 -16.472  1.00  0.00     0.053 C 
BRANCH  21  22
ATOM     22  C   UNL     1      16.442  14.198 -16.569  1.00  0.00     0.041 C 
ATOM     23  O   UNL     1      17.337  14.448 -17.419  1.00  0.00    -0.550 OA
ATOM     24  O   UNL     1      16.598  13.126 -15.701  1.00  0.00    -0.550 OA
ENDBRANCH  21  22
ENDBRANCH  20  21
ENDBRANCH  19  20
ENDBRANCH  18  19
ENDBRANCH  17  18
ENDBRANCH  16  17
ENDBRANCH  15  16
ENDBRANCH  14  15
ENDBRANCH  13  14
ENDBRANCH   1  13
TORSDOF 20
ENDMDL
MODEL 4
REMARK VINA RESULT:    -4.925      1.449      3.875
REMARK INTER + INTRA:         -14.008
REMARK INTER:                 -10.561
REMARK INTRA:                  -3.447
REMARK UNBOUND:                -3.325
REMARK SMILES CCCCCCCCCCCCCCCCCCCCCC(=O)[O-]
REMARK SMILES IDX 12 1 11 2 10 3 9 4 8 5 7 6 6 7 5 8 4 9 3 10 2 11 1 12 13 13
REMARK SMILES IDX 14 14 15 15 16 16 17 17 18 18 19 19 20 20 21 21 22 22 23 23
REMARK SMILES IDX 24 24
REMARK H PARENT
REMARK Flexibility Score: inf
ROOT
ATOM      1  C   UNL     1      10.760  12.058 -19.817  1.00  0.00     0.000 C 
ENDROOT
BRANCH   1   2
ATOM      2  C   UNL     1      12.271  11.815 -19.667  1.00  0.00     0.000 C 
BRANCH   2   3
ATOM      3  C   UNL     1      13.053  12.550 -20.767  1.00  0.00     0.000 C 
BRANCH   3   4
ATOM      4  C   UNL     1      14.159  13.459 -20.206  1.00  0.00    -0.000 C 
BRANCH   4   5
ATOM      5  C   UNL     1      13.778  14.949 -20.247  1.00  0.00    -0.000 C 
BRANCH   5   6
ATOM      6  C   UNL     1      12.597  15.227 -21.192  1.00  0.00    -0.000 C 
BRANCH   6   7
ATOM      7  C   UNL     1      11.735  16.412 -20.719  1.00  0.00    -0.000 C 
BRANCH   7   8
ATOM      8  C   UNL     1      10.261  16.272 -21.134  1.00  0.00    -0.000 C 
BRANCH   8   9
ATOM      9  C   UNL     1       9.287  16.709 -20.028  1.00  0.00    -0.000 C 
BRANCH   9  10
ATOM     10  C   UNL     1       7.841  16.367 -20.404  1.00  0.00    -0.000 C 
BRANCH  10  11
ATOM     11  C   UNL     1       7.753  15.858 -21.849  1.00  0.00    -0.003 C 
ATOM     12  C   UNL     1       6.979  14.543 -21.924  1.00  0.00     0.004 C 
ENDBRANCH  10  11
ENDBRANCH   9  10
ENDBRANCH   8   9
ENDBRANCH   7   8
ENDBRANCH   6   7
ENDBRANCH   5   6
ENDBRANCH   4   5
ENDBRANCH   3   4
ENDBRANCH   2   3
ENDBRANCH   1   2
BRANCH   1  13
ATOM     13  C   UNL     1      10.262  13.253 -18.991  1.00  0.00     0.000 C 
BRANCH  13  14
ATOM     14  C   UNL     1      11.218  13.623 -17.845  1.00  0.00     0.000 C 
BRANCH  14  15
ATOM     15  C   UNL     1      10.837  14.946 -17.158  1.00  0.00     0.000 C 
BRANCH  15  16
ATOM     16  C   UNL     1      11.945  16.020 -17.221  1.00  0.00     0.000 C 
BRANCH  16  17
ATOM     17  C   UNL     1      12.208  16.664 -15.849  1.00  0.00     0.000 C 
BRANCH  17  18
ATOM     18  C   UNL     1      13.554  17.411 -15.783  1.00  0.00     0.000 C 
BRANCH  18  19
ATOM     19  C   UNL     1      14.584  16.992 -16.849  1.00  0.00     0.000 C 
BRANCH  19  20
ATOM     20  C   UNL     1      15.804  16.268 -16.252  1.00  0.00     0.006 C 
BRANCH  20  21
ATOM     21  C   UNL     1      15.832  14.779 -16.626  1.00  0.00     0.053 C 
BRANCH  21  22
ATOM     22  C   UNL     1      17.052  14.428 -17.423  1.00  0.00     0.041 C 
ATOM     23  O   UNL     1      17.822  13.510 -17.035  1.00  0.00    -0.550 OA
ATOM     24  O   UNL     1      17.323  15.096 -18.609  1.00  0.00    -0.550 OA
ENDBRANCH  21  22
ENDBRANCH  20  21
ENDBRANCH  19  20
ENDBRANCH  18  19
ENDBRANCH  17  18
ENDBRANCH  16  17
ENDBRANCH  15  16
ENDBRANCH  14  15
ENDBRANCH  13  14
ENDBRANCH   1  13
TORSDOF 20
ENDMDL
MODEL 5
REMARK VINA RESULT:    -4.925      3.779      6.868
REMARK INTER + INTRA:         -14.008
REMARK INTER:                 -10.743
REMARK INTRA:                  -3.265
REMARK UNBOUND:                -3.325
REMARK SMILES CCCCCCCCCCCCCCCCCCCCCC(=O)[O-]
REMARK SMILES IDX 12 1 11 2 10 3 9 4 8 5 7 6 6 7 5 8 4 9 3 10 2 11 1 12 13 13
REMARK SMILES IDX 14 14 15 15 16 16 17 17 18 18 19 19 20 20 21 21 22 22 23 23
REMARK SMILES IDX 24 24
REMARK H PARENT
REMARK Flexibility Score: inf
ROOT
ATOM      1  C   UNL     1      14.064  12.752 -20.868  1.00  0.00     0.000 C 
ENDROOT
BRANCH   1   2
ATOM      2  C   UNL     1      13.558  13.755 -21.918  1.00  0.00     0.000 C 
BRANCH   2   3
ATOM      3  C   UNL     1      13.256  15.115 -21.270  1.00  0.00     0.000 C 
BRANCH   3   4
ATOM      4  C   UNL     1      13.515  15.125 -19.755  1.00  0.00    -0.000 C 
BRANCH   4   5
ATOM      5  C   UNL     1      13.603  16.549 -19.178  1.00  0.00    -0.000 C 
BRANCH   5   6
ATOM      6  C   UNL     1      15.049  17.068 -19.114  1.00  0.00    -0.000 C 
BRANCH   6   7
ATOM      7  C   UNL     1      15.389  17.686 -17.745  1.00  0.00    -0.000 C 
BRANCH   7   8
ATOM      8  C   UNL     1      16.425  16.859 -16.965  1.00  0.00    -0.000 C 
BRANCH   8   9
ATOM      9  C   UNL     1      15.795  15.686 -16.199  1.00  0.00    -0.000 C 
BRANCH   9  10
ATOM     10  C   UNL     1      16.131  14.349 -16.870  1.00  0.00    -0.000 C 
BRANCH  10  11
ATOM     11  C   UNL     1      17.353  14.486 -17.789  1.00  0.00    -0.003 C 
ATOM     12  C   UNL     1      17.076  13.890 -19.167  1.00  0.00     0.004 C 
ENDBRANCH  10  11
ENDBRANCH   9  10
ENDBRANCH   8   9
ENDBRANCH   7   8
ENDBRANCH   6   7
ENDBRANCH   5   6
ENDBRANCH   4   5
ENDBRANCH   3   4
ENDBRANCH   2   3
ENDBRANCH   1   2
BRANCH   1  13
ATOM     13  C   UNL     1      13.373  11.384 -20.967  1.00  0.00     0.000 C 
BRANCH  13  14
ATOM     14  C   UNL     1      12.004  11.358 -20.268  1.00  0.00     0.000 C 
BRANCH  14  15
ATOM     15  C   UNL     1      12.059  11.908 -18.832  1.00  0.00     0.000 C 
BRANCH  15  16
ATOM     16  C   UNL     1      10.748  12.583 -18.374  1.00  0.00     0.000 C 
BRANCH  16  17
ATOM     17  C   UNL     1      10.104  13.419 -19.494  1.00  0.00     0.000 C 
BRANCH  17  18
ATOM     18  C   UNL     1       9.836  14.878 -19.077  1.00  0.00     0.000 C 
BRANCH  18  19
ATOM     19  C   UNL     1      10.017  15.919 -20.196  1.00  0.00     0.000 C 
BRANCH  19  20
ATOM     20  C   UNL     1       8.765  16.787 -20.416  1.00  0.00     0.006 C 
BRANCH  20  21
ATOM     21  C   UNL     1       7.496  15.940 -20.588  1.00  0.00     0.053 C 
BRANCH  21  22
ATOM     22  C   UNL     1       7.395  15.362 -21.967  1.00  0.00     0.041 C 
ATOM     23  O   UNL     1       7.713  16.054 -22.970  1.00  0.00    -0.550 OA
ATOM     24  O   UNL     1       6.977  14.050 -22.141  1.00  0.00    -0.550 OA
ENDBRANCH  21  22
ENDBRANCH  20  21
ENDBRANCH  19  20
ENDBRANCH  18  19
ENDBRANCH  17  18
ENDBRANCH  16  17
ENDBRANCH  15  16
ENDBRANCH  14  15
ENDBRANCH  13  14
ENDBRANCH   1  13
TORSDOF 20
ENDMDL
MODEL 6
REMARK VINA RESULT:    -4.924      1.607      4.843
REMARK INTER + INTRA:         -14.006
REMARK INTER:                  -9.889
REMARK INTRA:                  -4.117
REMARK UNBOUND:                -3.325
REMARK SMILES CCCCCCCCCCCCCCCCCCCCCC(=O)[O-]
REMARK SMILES IDX 12 1 11 2 10 3 9 4 8 5 7 6 6 7 5 8 4 9 3 10 2 11 1 12 13 13
REMARK SMILES IDX 14 14 15 15 16 16 17 17 18 18 19 19 20 20 21 21 22 22 23 23
REMARK SMILES IDX 24 24
REMARK H PARENT
REMARK Flexibility Score: inf
ROOT
ATOM      1  C   UNL     1      10.330  14.435 -18.150  1.00  0.00     0.000 C 
ENDROOT
BRANCH   1   2
ATOM      2  C   UNL     1      11.233  13.452 -17.389  1.00  0.00     0.000 C 
BRANCH   2   3
ATOM      3  C   UNL     1      11.429  12.157 -18.192  1.00  0.00     0.000 C 
BRANCH   3   4
ATOM      4  C   UNL     1      10.624  12.140 -19.502  1.00  0.00    -0.000 C 
BRANCH   4   5
ATOM      5  C   UNL     1      11.323  11.341 -20.616  1.00  0.00    -0.000 C 
BRANCH   5   6
ATOM      6  C   UNL     1      12.842  11.241 -20.402  1.00  0.00    -0.000 C 
BRANCH   6   7
ATOM      7  C   UNL     1      13.638  11.630 -21.661  1.00  0.00    -0.000 C 
BRANCH   7   8
ATOM      8  C   UNL     1      14.378  12.968 -21.502  1.00  0.00    -0.000 C 
BRANCH   8   9
ATOM      9  C   UNL     1      14.240  13.561 -20.092  1.00  0.00    -0.000 C 
BRANCH   9  10
ATOM     10  C   UNL     1      13.736  15.008 -20.153  1.00  0.00    -0.000 C 
BRANCH  10  11
ATOM     11  C   UNL     1      12.512  15.127 -21.071  1.00  0.00    -0.003 C 
ATOM     12  C   UNL     1      12.552  16.424 -21.877  1.00  0.00     0.004 C 
ENDBRANCH  10  11
ENDBRANCH   9  10
ENDBRANCH   8   9
ENDBRANCH   7   8
ENDBRANCH   6   7
ENDBRANCH   5   6
ENDBRANCH   4   5
ENDBRANCH   3   4
ENDBRANCH   2   3
ENDBRANCH   1   2
BRANCH   1  13
ATOM     13  C   UNL     1      10.351  15.851 -17.553  1.00  0.00     0.000 C 
BRANCH  13  14
ATOM     14  C   UNL     1      10.656  16.933 -18.601  1.00  0.00     0.000 C 
BRANCH  14  15
ATOM     15  C   UNL     1      11.438  18.123 -18.017  1.00  0.00     0.000 C 
BRANCH  15  16
ATOM     16  C   UNL     1      12.930  17.820 -17.762  1.00  0.00     0.000 C 
BRANCH  16  17
ATOM     17  C   UNL     1      13.256  17.730 -16.261  1.00  0.00     0.000 C 
BRANCH  17  18
ATOM     18  C   UNL     1      13.441  16.281 -15.772  1.00  0.00     0.000 C 
BRANCH  18  19
ATOM     19  C   UNL     1      14.407  15.427 -16.614  1.00  0.00     0.000 C 
BRANCH  19  20
ATOM     20  C   UNL     1      15.886  15.680 -16.271  1.00  0.00     0.006 C 
BRANCH  20  21
ATOM     21  C   UNL     1      16.715  16.035 -17.514  1.00  0.00     0.053 C 
BRANCH  21  22
ATOM     22  C   UNL     1      17.154  14.810 -18.258  1.00  0.00     0.041 C 
ATOM     23  O   UNL     1      17.411  14.874 -19.490  1.00  0.00    -0.550 OA
ATOM     24  O   UNL     1      17.304  13.605 -17.586  1.00  0.00    -0.550 OA
ENDBRANCH  21  22
ENDBRANCH  20  21
ENDBRANCH  19  20
ENDBRANCH  18  19
ENDBRANCH  17  18
ENDBRANCH  16  17
ENDBRANCH  15  16
ENDBRANCH  14  15
ENDBRANCH  13  14
ENDBRANCH   1  13
TORSDOF 20
ENDMDL
MODEL 7
REMARK VINA RESULT:    -4.907      1.475      2.866
REMARK INTER + INTRA:         -13.970
REMARK INTER:                 -10.792
REMARK INTRA:                  -3.178
REMARK UNBOUND:                -3.325
REMARK SMILES CCCCCCCCCCCCCCCCCCCCCC(=O)[O-]
REMARK SMILES IDX 12 1 11 2 10 3 9 4 8 5 7 6 6 7 5 8 4 9 3 10 2 11 1 12 13 13
REMARK SMILES IDX 14 14 15 15 16 16 17 17 18 18 19 19 20 20 21 21 22 22 23 23
REMARK SMILES IDX 24 24
REMARK H PARENT
REMARK Flexibility Score: inf
ROOT
ATOM      1  C   UNL     1      12.581  11.353 -20.057  1.00  0.00     0.000 C 
ENDROOT
BRANCH   1   2
ATOM      2  C   UNL     1      11.055  11.361 -20.245  1.00  0.00     0.000 C 
BRANCH   2   3
ATOM      3  C   UNL     1      10.410  12.486 -19.420  1.00  0.00     0.000 C 
BRANCH   3   4
ATOM      4  C   UNL     1      11.071  12.670 -18.044  1.00  0.00    -0.000 C 
BRANCH   4   5
ATOM      5  C   UNL     1      11.061  14.135 -17.575  1.00  0.00    -0.000 C 
BRANCH   5   6
ATOM      6  C   UNL     1       9.990  14.974 -18.291  1.00  0.00    -0.000 C 
BRANCH   6   7
ATOM      7  C   UNL     1      10.475  16.401 -18.605  1.00  0.00    -0.000 C 
BRANCH   7   8
ATOM      8  C   UNL     1      10.039  16.880 -19.999  1.00  0.00    -0.000 C 
BRANCH   8   9
ATOM      9  C   UNL     1       8.655  17.548 -19.993  1.00  0.00    -0.000 C 
BRANCH   9  10
ATOM     10  C   UNL     1       7.730  16.902 -21.030  1.00  0.00    -0.000 C 
BRANCH  10  11
ATOM     11  C   UNL     1       8.010  15.398 -21.159  1.00  0.00    -0.003 C 
ATOM     12  C   UNL     1       6.914  14.699 -21.960  1.00  0.00     0.004 C 
ENDBRANCH  10  11
ENDBRANCH   9  10
ENDBRANCH   8   9
ENDBRANCH   7   8
ENDBRANCH   6   7
ENDBRANCH   5   6
ENDBRANCH   4   5
ENDBRANCH   3   4
ENDBRANCH   2   3
ENDBRANCH   1   2
BRANCH   1  13
ATOM     13  C   UNL     1      13.347  11.424 -21.387  1.00  0.00     0.000 C 
BRANCH  13  14
ATOM     14  C   UNL     1      14.175  12.712 -21.526  1.00  0.00     0.000 C 
BRANCH  14  15
ATOM     15  C   UNL     1      13.338  13.906 -22.017  1.00  0.00     0.000 C 
BRANCH  15  16
ATOM     16  C   UNL     1      13.033  14.946 -20.916  1.00  0.00     0.000 C 
BRANCH  16  17
ATOM     17  C   UNL     1      13.944  14.774 -19.688  1.00  0.00     0.000 C 
BRANCH  17  18
ATOM     18  C   UNL     1      14.305  16.113 -19.016  1.00  0.00     0.000 C 
BRANCH  18  19
ATOM     19  C   UNL     1      14.224  16.113 -17.478  1.00  0.00     0.000 C 
BRANCH  19  20
ATOM     20  C   UNL     1      15.608  16.130 -16.805  1.00  0.00     0.006 C 
BRANCH  20  21
ATOM     21  C   UNL     1      16.118  14.716 -16.495  1.00  0.00     0.053 C 
BRANCH  21  22
ATOM     22  C   UNL     1      17.239  14.315 -17.406  1.00  0.00     0.041 C 
ATOM     23  O   UNL     1      17.887  13.257 -17.189  1.00  0.00    -0.550 OA
ATOM     24  O   UNL     1      17.548  15.097 -18.511  1.00  0.00    -0.550 OA
ENDBRANCH  21  22
ENDBRANCH  20  21
ENDBRANCH  19  20
ENDBRANCH  18  19
ENDBRANCH  17  18
ENDBRANCH  16  17
ENDBRANCH  15  16
ENDBRANCH  14  15
ENDBRANCH  13  14
ENDBRANCH   1  13
TORSDOF 20
ENDMDL
MODEL 8
REMARK VINA RESULT:    -4.830      2.415      5.682
REMARK INTER + INTRA:         -13.802
REMARK INTER:                 -10.210
REMARK INTRA:                  -3.591
REMARK UNBOUND:                -3.325
REMARK SMILES CCCCCCCCCCCCCCCCCCCCCC(=O)[O-]
REMARK SMILES IDX 12 1 11 2 10 3 9 4 8 5 7 6 6 7 5 8 4 9 3 10 2 11 1 12 13 13
REMARK SMILES IDX 14 14 15 15 16 16 17 17 18 18 19 19 20 20 21 21 22 22 23 23
REMARK SMILES IDX 24 24
REMARK H PARENT
REMARK Flexibility Score: inf
ROOT
ATOM      1  C   UNL     1       7.396  15.498 -22.585  1.00  0.00     0.000 C 
ENDROOT
BRANCH   1   2
ATOM      2  C   UNL     1       7.833  16.953 -22.822  1.00  0.00     0.000 C 
BRANCH   2   3
ATOM      3  C   UNL     1       9.297  17.013 -23.283  1.00  0.00     0.000 C 
BRANCH   3   4
ATOM      4  C   UNL     1      10.135  18.020 -22.478  1.00  0.00    -0.000 C 
BRANCH   4   5
ATOM      5  C   UNL     1      11.166  17.334 -21.564  1.00  0.00    -0.000 C 
BRANCH   5   6
ATOM      6  C   UNL     1      12.083  16.369 -22.334  1.00  0.00    -0.000 C 
BRANCH   6   7
ATOM      7  C   UNL     1      12.636  15.247 -21.437  1.00  0.00    -0.000 C 
BRANCH   7   8
ATOM      8  C   UNL     1      13.792  15.722 -20.542  1.00  0.00    -0.000 C 
BRANCH   8   9
ATOM      9  C   UNL     1      13.445  15.674 -19.046  1.00  0.00    -0.000 C 
BRANCH   9  10
ATOM     10  C   UNL     1      14.317  14.648 -18.313  1.00  0.00    -0.000 C 
BRANCH  10  11
ATOM     11  C   UNL     1      13.973  14.600 -16.818  1.00  0.00    -0.003 C 
ATOM     12  C   UNL     1      14.930  13.681 -16.062  1.00  0.00     0.004 C 
ENDBRANCH  10  11
ENDBRANCH   9  10
ENDBRANCH   8   9
ENDBRANCH   7   8
ENDBRANCH   6   7
ENDBRANCH   5   6
ENDBRANCH   4   5
ENDBRANCH   3   4
ENDBRANCH   2   3
ENDBRANCH   1   2
BRANCH   1  13
ATOM     13  C   UNL     1       7.550  15.059 -21.121  1.00  0.00     0.000 C 
BRANCH  13  14
ATOM     14  C   UNL     1       7.764  16.244 -20.165  1.00  0.00     0.000 C 
BRANCH  14  15
ATOM     15  C   UNL     1       8.890  15.989 -19.147  1.00  0.00     0.000 C 
BRANCH  15  16
ATOM     16  C   UNL     1       9.639  14.657 -19.368  1.00  0.00     0.000 C 
BRANCH  16  17
ATOM     17  C   UNL     1      10.265  14.121 -18.069  1.00  0.00     0.000 C 
BRANCH  17  18
ATOM     18  C   UNL     1      11.022  12.794 -18.270  1.00  0.00     0.000 C 
BRANCH  18  19
ATOM     19  C   UNL     1      11.297  12.416 -19.737  1.00  0.00     0.000 C 
BRANCH  19  20
ATOM     20  C   UNL     1      12.601  11.619 -19.917  1.00  0.00     0.006 C 
BRANCH  20  21
ATOM     21  C   UNL     1      12.918  11.353 -21.395  1.00  0.00     0.053 C 
BRANCH  21  22
ATOM     22  C   UNL     1      14.149  12.082 -21.841  1.00  0.00     0.041 C 
ATOM     23  O   UNL     1      14.257  12.477 -23.033  1.00  0.00    -0.550 OA
ATOM     24  O   UNL     1      15.165  12.351 -20.934  1.00  0.00    -0.550 OA
ENDBRANCH  21  22
ENDBRANCH  20  21
ENDBRANCH  19  20
ENDBRANCH  18  19
ENDBRANCH  17  18
ENDBRANCH  16  17
ENDBRANCH  15  16
ENDBRANCH  14  15
ENDBRANCH  13  14
ENDBRANCH   1  13
TORSDOF 20
ENDMDL
MODEL 9
REMARK VINA RESULT:    -4.797      1.541      3.583
REMARK INTER + INTRA:         -13.730
REMARK INTER:                 -10.619
REMARK INTRA:                  -3.111
REMARK UNBOUND:                -3.325
REMARK SMILES CCCCCCCCCCCCCCCCCCCCCC(=O)[O-]
REMARK SMILES IDX 12 1 11 2 10 3 9 4 8 5 7 6 6 7 5 8 4 9 3 10 2 11 1 12 13 13
REMARK SMILES IDX 14 14 15 15 16 16 17 17 18 18 19 19 20 20 21 21 22 22 23 23
REMARK SMILES IDX 24 24
REMARK H PARENT
REMARK Flexibility Score: inf
ROOT
ATOM      1  C   UNL     1      14.066  12.805 -21.171  1.00  0.00     0.000 C 
ENDROOT
BRANCH   1   2
ATOM      2  C   UNL     1      12.948  11.767 -21.360  1.00  0.00     0.000 C 
BRANCH   2   3
ATOM      3  C   UNL     1      12.419  11.283 -20.001  1.00  0.00     0.000 C 
BRANCH   3   4
ATOM      4  C   UNL     1      11.064  11.909 -19.632  1.00  0.00    -0.000 C 
BRANCH   4   5
ATOM      5  C   UNL     1      11.014  12.397 -18.174  1.00  0.00    -0.000 C 
BRANCH   5   6
ATOM      6  C   UNL     1      10.409  13.805 -18.046  1.00  0.00    -0.000 C 
BRANCH   6   7
ATOM      7  C   UNL     1       9.956  14.373 -19.404  1.00  0.00    -0.000 C 
BRANCH   7   8
ATOM      8  C   UNL     1       9.261  15.738 -19.270  1.00  0.00    -0.000 C 
BRANCH   8   9
ATOM      9  C   UNL     1       8.764  16.287 -20.616  1.00  0.00    -0.000 C 
BRANCH   9  10
ATOM     10  C   UNL     1       7.610  15.439 -21.162  1.00  0.00    -0.000 C 
BRANCH  10  11
ATOM     11  C   UNL     1       7.440  15.645 -22.673  1.00  0.00    -0.003 C 
ATOM     12  C   UNL     1       8.545  16.538 -23.235  1.00  0.00     0.004 C 
ENDBRANCH  10  11
ENDBRANCH   9  10
ENDBRANCH   8   9
ENDBRANCH   7   8
ENDBRANCH   6   7
ENDBRANCH   5   6
ENDBRANCH   4   5
ENDBRANCH   3   4
ENDBRANCH   2   3
ENDBRANCH   1   2
BRANCH   1  13
ATOM     13  C   UNL     1      13.603  14.047 -20.394  1.00  0.00     0.000 C 
BRANCH  13  14
ATOM     14  C   UNL     1      13.047  15.148 -21.310  1.00  0.00     0.000 C 
BRANCH  14  15
ATOM     15  C   UNL     1      12.718  16.445 -20.549  1.00  0.00     0.000 C 
BRANCH  15  16
ATOM     16  C   UNL     1      13.582  16.661 -19.288  1.00  0.00     0.000 C 
BRANCH  16  17
ATOM     17  C   UNL     1      12.726  16.854 -18.024  1.00  0.00     0.000 C 
BRANCH  17  18
ATOM     18  C   UNL     1      13.205  15.996 -16.837  1.00  0.00     0.000 C 
BRANCH  18  19
ATOM     19  C   UNL     1      14.461  15.148 -17.110  1.00  0.00     0.000 C 
BRANCH  19  20
ATOM     20  C   UNL     1      15.733  15.739 -16.476  1.00  0.00     0.006 C 
BRANCH  20  21
ATOM     21  C   UNL     1      16.916  15.748 -17.453  1.00  0.00     0.053 C 
BRANCH  21  22
ATOM     22  C   UNL     1      17.269  14.366 -17.914  1.00  0.00     0.041 C 
ATOM     23  O   UNL     1      17.111  14.039 -19.120  1.00  0.00    -0.550 OA
ATOM     24  O   UNL     1      17.797  13.448 -17.017  1.00  0.00    -0.550 OA
ENDBRANCH  21  22
ENDBRANCH  20  21
ENDBRANCH  19  20
ENDBRANCH  18  19
ENDBRANCH  17  18
ENDBRANCH  16  17
ENDBRANCH  15  16
ENDBRANCH  14  15
ENDBRANCH  13  14
ENDBRANCH   1  13
TORSDOF 20
ENDMDL
