MODEL 1
REMARK VINA RESULT:    -3.748      0.000      0.000
REMARK INTER + INTRA:          -8.193
REMARK INTER:                  -6.815
REMARK INTRA:                  -1.378
REMARK UNBOUND:                -1.378
REMARK SMILES CCCCCCCCCCCCCCCC(=O)[O-]
REMARK SMILES IDX 9 1 10 2 11 3 12 4 13 5 14 6 15 7 16 8 17 9 18 10 8 11 7 12
REMARK SMILES IDX 6 13 5 14 4 15 3 16 2 17 1 18
REMARK H PARENT
REMARK Flexibility Score: inf
ROOT
ATOM      1  C   UNL     1      58.387  35.883  49.645  1.00  0.00     0.000 C 
ENDROOT
BRANCH   1   2
ATOM      2  C   UNL     1      59.186  35.256  50.802  1.00  0.00     0.000 C 
BRANCH   2   3
ATOM      3  C   UNL     1      58.489  35.295  52.177  1.00  0.00     0.000 C 
BRANCH   3   4
ATOM      4  C   UNL     1      57.535  36.486  52.393  1.00  0.00     0.000 C 
BRANCH   4   5
ATOM      5  C   UNL     1      57.759  37.270  53.702  1.00  0.00     0.000 C 
BRANCH   5   6
ATOM      6  C   UNL     1      58.817  36.671  54.646  1.00  0.00     0.006 C 
BRANCH   6   7
ATOM      7  C   UNL     1      59.343  37.685  55.670  1.00  0.00     0.053 C 
BRANCH   7   8
ATOM      8  C   UNL     1      60.736  37.331  56.088  1.00  0.00     0.041 C 
ATOM      9  O   UNL     1      60.927  36.507  57.021  1.00  0.00    -0.550 OA
ATOM     10  O   UNL     1      61.823  37.874  55.416  1.00  0.00    -0.550 OA
ENDBRANCH   7   8
ENDBRANCH   6   7
ENDBRANCH   5   6
ENDBRANCH   4   5
ENDBRANCH   3   4
ENDBRANCH   2   3
ENDBRANCH   1   2
BRANCH   1  11
ATOM     11  C   UNL     1      58.237  34.936  48.441  1.00  0.00     0.000 C 
BRANCH  11  12
ATOM     12  C   UNL     1      58.463  35.645  47.094  1.00  0.00    -0.000 C 
BRANCH  12  13
ATOM     13  C   UNL     1      59.723  35.207  46.320  1.00  0.00    -0.000 C 
BRANCH  13  14
ATOM     14  C   UNL     1      60.843  36.261  46.231  1.00  0.00    -0.000 C 
BRANCH  14  15
ATOM     15  C   UNL     1      60.706  37.367  47.288  1.00  0.00    -0.000 C 
BRANCH  15  16
ATOM     16  C   UNL     1      61.703  37.206  48.449  1.00  0.00    -0.000 C 
BRANCH  16  17
ATOM     17  C   UNL     1      62.297  35.787  48.562  1.00  0.00    -0.003 C 
ATOM     18  C   UNL     1      62.803  35.480  49.971  1.00  0.00     0.004 C 
ENDBRANCH  16  17
ENDBRANCH  15  16
ENDBRANCH  14  15
ENDBRANCH  13  14
ENDBRANCH  12  13
ENDBRANCH  11  12
ENDBRANCH   1  11
TORSDOF 14
ENDMDL
MODEL 2
REMARK VINA RESULT:    -3.702      2.741      7.732
REMARK INTER + INTRA:          -8.111
REMARK INTER:                  -6.961
REMARK INTRA:                  -1.150
REMARK UNBOUND:                -1.378
REMARK SMILES CCCCCCCCCCCCCCCC(=O)[O-]
REMARK SMILES IDX 9 1 10 2 11 3 12 4 13 5 14 6 15 7 16 8 17 9 18 10 8 11 7 12
REMARK SMILES IDX 6 13 5 14 4 15 3 16 2 17 1 18
REMARK H PARENT
REMARK Flexibility Score: inf
ROOT
ATOM      1  C   UNL     1      57.517  37.417  53.229  1.00  0.00     0.000 C 
ENDROOT
BRANCH   1   2
ATOM      2  C   UNL     1      57.509  36.445  52.034  1.00  0.00     0.000 C 
BRANCH   2   3
ATOM      3  C   UNL     1      58.673  35.435  52.003  1.00  0.00     0.000 C 
BRANCH   3   4
ATOM      4  C   UNL     1      59.135  35.014  50.594  1.00  0.00     0.000 C 
BRANCH   4   5
ATOM      5  C   UNL     1      58.839  36.036  49.478  1.00  0.00     0.000 C 
BRANCH   5   6
ATOM      6  C   UNL     1      59.702  35.886  48.213  1.00  0.00     0.006 C 
BRANCH   6   7
ATOM      7  C   UNL     1      61.193  35.704  48.528  1.00  0.00     0.053 C 
BRANCH   7   8
ATOM      8  C   UNL     1      61.866  37.035  48.653  1.00  0.00     0.041 C 
ATOM      9  O   UNL     1      62.915  37.152  49.341  1.00  0.00    -0.550 OA
ATOM     10  O   UNL     1      61.363  38.137  47.973  1.00  0.00    -0.550 OA
ENDBRANCH   7   8
ENDBRANCH   6   7
ENDBRANCH   5   6
ENDBRANCH   4   5
ENDBRANCH   3   4
ENDBRANCH   2   3
ENDBRANCH   1   2
BRANCH   1  11
ATOM     11  C   UNL     1      57.955  36.745  54.542  1.00  0.00     0.000 C 
BRANCH  11  12
ATOM     12  C   UNL     1      59.185  37.421  55.175  1.00  0.00    -0.000 C 
BRANCH  12  13
ATOM     13  C   UNL     1      60.423  36.518  55.342  1.00  0.00    -0.000 C 
BRANCH  13  14
ATOM     14  C   UNL     1      60.983  36.423  56.773  1.00  0.00    -0.000 C 
BRANCH  14  15
ATOM     15  C   UNL     1      60.746  37.700  57.592  1.00  0.00    -0.000 C 
BRANCH  15  16
ATOM     16  C   UNL     1      59.853  37.461  58.821  1.00  0.00    -0.000 C 
BRANCH  16  17
ATOM     17  C   UNL     1      58.475  38.150  58.727  1.00  0.00    -0.003 C 
ATOM     18  C   UNL     1      58.585  39.608  58.283  1.00  0.00     0.004 C 
ENDBRANCH  16  17
ENDBRANCH  15  16
ENDBRANCH  14  15
ENDBRANCH  13  14
ENDBRANCH  12  13
ENDBRANCH  11  12
ENDBRANCH   1  11
TORSDOF 14
ENDMDL
MODEL 3
REMARK VINA RESULT:    -3.601      7.115     10.711
REMARK INTER + INTRA:          -7.927
REMARK INTER:                  -7.044
REMARK INTRA:                  -0.883
REMARK UNBOUND:                -1.378
REMARK SMILES CCCCCCCCCCCCCCCC(=O)[O-]
REMARK SMILES IDX 9 1 10 2 11 3 12 4 13 5 14 6 15 7 16 8 17 9 18 10 8 11 7 12
REMARK SMILES IDX 6 13 5 14 4 15 3 16 2 17 1 18
REMARK H PARENT
REMARK Flexibility Score: inf
ROOT
ATOM      1  C   UNL     1      64.087  40.029  58.298  1.00  0.00     0.000 C 
ENDROOT
BRANCH   1   2
ATOM      2  C   UNL     1      65.622  39.943  58.214  1.00  0.00     0.000 C 
BRANCH   2   3
ATOM      3  C   UNL     1      66.385  40.953  59.094  1.00  0.00     0.000 C 
BRANCH   3   4
ATOM      4  C   UNL     1      66.972  42.163  58.342  1.00  0.00     0.000 C 
BRANCH   4   5
ATOM      5  C   UNL     1      66.083  42.721  57.211  1.00  0.00     0.000 C 
BRANCH   5   6
ATOM      6  C   UNL     1      65.292  43.991  57.574  1.00  0.00     0.006 C 
BRANCH   6   7
ATOM      7  C   UNL     1      65.770  45.229  56.805  1.00  0.00     0.053 C 
BRANCH   7   8
ATOM      8  C   UNL     1      65.699  46.444  57.677  1.00  0.00     0.041 C 
ATOM      9  O   UNL     1      66.134  47.549  57.259  1.00  0.00    -0.550 OA
ATOM     10  O   UNL     1      65.111  46.366  58.933  1.00  0.00    -0.550 OA
ENDBRANCH   7   8
ENDBRANCH   6   7
ENDBRANCH   5   6
ENDBRANCH   4   5
ENDBRANCH   3   4
ENDBRANCH   2   3
ENDBRANCH   1   2
BRANCH   1  11
ATOM     11  C   UNL     1      63.459  38.818  59.008  1.00  0.00     0.000 C 
BRANCH  11  12
ATOM     12  C   UNL     1      62.493  38.032  58.103  1.00  0.00    -0.000 C 
BRANCH  12  13
ATOM     13  C   UNL     1      62.870  37.997  56.607  1.00  0.00    -0.000 C 
BRANCH  13  14
ATOM     14  C   UNL     1      61.735  37.587  55.651  1.00  0.00    -0.000 C 
BRANCH  14  15
ATOM     15  C   UNL     1      60.452  37.175  56.388  1.00  0.00    -0.000 C 
BRANCH  15  16
ATOM     16  C   UNL     1      59.262  38.097  56.069  1.00  0.00    -0.000 C 
BRANCH  16  17
ATOM     17  C   UNL     1      58.583  38.685  57.324  1.00  0.00    -0.003 C 
ATOM     18  C   UNL     1      58.952  37.921  58.595  1.00  0.00     0.004 C 
ENDBRANCH  16  17
ENDBRANCH  15  16
ENDBRANCH  14  15
ENDBRANCH  13  14
ENDBRANCH  12  13
ENDBRANCH  11  12
ENDBRANCH   1  11
TORSDOF 14
ENDMDL
MODEL 4
REMARK VINA RESULT:    -3.580     14.438     16.521
REMARK INTER + INTRA:          -7.888
REMARK INTER:                  -7.108
REMARK INTRA:                  -0.780
REMARK UNBOUND:                -1.378
REMARK SMILES CCCCCCCCCCCCCCCC(=O)[O-]
REMARK SMILES IDX 9 1 10 2 11 3 12 4 13 5 14 6 15 7 16 8 17 9 18 10 8 11 7 12
REMARK SMILES IDX 6 13 5 14 4 15 3 16 2 17 1 18
REMARK H PARENT
REMARK Flexibility Score: inf
ROOT
ATOM      1  C   UNL     1      68.707  50.773  55.109  1.00  0.00     0.000 C 
ENDROOT
BRANCH   1   2
ATOM      2  C   UNL     1      69.022  49.965  56.381  1.00  0.00     0.000 C 
BRANCH   2   3
ATOM      3  C   UNL     1      68.162  48.700  56.584  1.00  0.00     0.000 C 
BRANCH   3   4
ATOM      4  C   UNL     1      67.502  48.575  57.971  1.00  0.00     0.000 C 
BRANCH   4   5
ATOM      5  C   UNL     1      65.997  48.237  57.948  1.00  0.00     0.000 C 
BRANCH   5   6
ATOM      6  C   UNL     1      65.657  46.764  58.237  1.00  0.00     0.006 C 
BRANCH   6   7
ATOM      7  C   UNL     1      65.887  45.851  57.026  1.00  0.00     0.053 C 
BRANCH   7   8
ATOM      8  C   UNL     1      65.426  44.460  57.327  1.00  0.00     0.041 C 
ATOM      9  O   UNL     1      65.744  43.509  56.564  1.00  0.00    -0.550 OA
ATOM     10  O   UNL     1      64.685  44.203  58.473  1.00  0.00    -0.550 OA
ENDBRANCH   7   8
ENDBRANCH   6   7
ENDBRANCH   5   6
ENDBRANCH   4   5
ENDBRANCH   3   4
ENDBRANCH   2   3
ENDBRANCH   1   2
BRANCH   1  11
ATOM     11  C   UNL     1      69.960  51.080  54.271  1.00  0.00     0.000 C 
BRANCH  11  12
ATOM     12  C   UNL     1      70.321  52.576  54.267  1.00  0.00    -0.000 C 
BRANCH  12  13
ATOM     13  C   UNL     1      70.165  53.291  52.909  1.00  0.00    -0.000 C 
BRANCH  13  14
ATOM     14  C   UNL     1      71.226  52.936  51.851  1.00  0.00    -0.000 C 
BRANCH  14  15
ATOM     15  C   UNL     1      70.831  51.727  50.990  1.00  0.00    -0.000 C 
BRANCH  15  16
ATOM     16  C   UNL     1      69.901  52.106  49.825  1.00  0.00    -0.000 C 
BRANCH  16  17
ATOM     17  C   UNL     1      68.525  51.409  49.881  1.00  0.00    -0.003 C 
ATOM     18  C   UNL     1      68.487  50.281  50.912  1.00  0.00     0.004 C 
ENDBRANCH  16  17
ENDBRANCH  15  16
ENDBRANCH  14  15
ENDBRANCH  13  14
ENDBRANCH  12  13
ENDBRANCH  11  12
ENDBRANCH   1  11
TORSDOF 14
ENDMDL
MODEL 5
REMARK VINA RESULT:    -3.541     17.912     20.324
REMARK INTER + INTRA:          -7.817
REMARK INTER:                  -5.784
REMARK INTRA:                  -2.034
REMARK UNBOUND:                -1.378
REMARK SMILES CCCCCCCCCCCCCCCC(=O)[O-]
REMARK SMILES IDX 9 1 10 2 11 3 12 4 13 5 14 6 15 7 16 8 17 9 18 10 8 11 7 12
REMARK SMILES IDX 6 13 5 14 4 15 3 16 2 17 1 18
REMARK H PARENT
REMARK Flexibility Score: inf
ROOT
ATOM      1  C   UNL     1      71.115  52.285  51.330  1.00  0.00     0.000 C 
ENDROOT
BRANCH   1   2
ATOM      2  C   UNL     1      70.002  51.420  51.950  1.00  0.00     0.000 C 
BRANCH   2   3
ATOM      3  C   UNL     1      68.908  50.955  50.968  1.00  0.00     0.000 C 
BRANCH   3   4
ATOM      4  C   UNL     1      68.852  51.729  49.637  1.00  0.00     0.000 C 
BRANCH   4   5
ATOM      5  C   UNL     1      67.941  52.974  49.645  1.00  0.00     0.000 C 
BRANCH   5   6
ATOM      6  C   UNL     1      68.575  54.248  49.057  1.00  0.00     0.006 C 
BRANCH   6   7
ATOM      7  C   UNL     1      69.701  53.946  48.060  1.00  0.00     0.053 C 
BRANCH   7   8
ATOM      8  C   UNL     1      69.222  54.146  46.657  1.00  0.00     0.041 C 
ATOM      9  O   UNL     1      69.933  53.771  45.686  1.00  0.00    -0.550 OA
ATOM     10  O   UNL     1      67.972  54.702  46.419  1.00  0.00    -0.550 OA
ENDBRANCH   7   8
ENDBRANCH   6   7
ENDBRANCH   5   6
ENDBRANCH   4   5
ENDBRANCH   3   4
ENDBRANCH   2   3
ENDBRANCH   1   2
BRANCH   1  11
ATOM     11  C   UNL     1      71.106  53.733  51.850  1.00  0.00     0.000 C 
BRANCH  11  12
ATOM     12  C   UNL     1      69.891  54.036  52.746  1.00  0.00    -0.000 C 
BRANCH  12  13
ATOM     13  C   UNL     1      70.217  54.333  54.224  1.00  0.00    -0.000 C 
BRANCH  13  14
ATOM     14  C   UNL     1      69.839  53.220  55.219  1.00  0.00    -0.000 C 
BRANCH  14  15
ATOM     15  C   UNL     1      70.994  52.246  55.492  1.00  0.00    -0.000 C 
BRANCH  15  16
ATOM     16  C   UNL     1      70.534  50.779  55.548  1.00  0.00    -0.000 C 
BRANCH  16  17
ATOM     17  C   UNL     1      69.017  50.599  55.331  1.00  0.00    -0.003 C 
ATOM     18  C   UNL     1      68.367  49.770  56.439  1.00  0.00     0.004 C 
ENDBRANCH  16  17
ENDBRANCH  15  16
ENDBRANCH  14  15
ENDBRANCH  13  14
ENDBRANCH  12  13
ENDBRANCH  11  12
ENDBRANCH   1  11
TORSDOF 14
ENDMDL
MODEL 6
REMARK VINA RESULT:    -3.529     14.452     17.533
REMARK INTER + INTRA:          -7.795
REMARK INTER:                  -7.058
REMARK INTRA:                  -0.737
REMARK UNBOUND:                -1.378
REMARK SMILES CCCCCCCCCCCCCCCC(=O)[O-]
REMARK SMILES IDX 9 1 10 2 11 3 12 4 13 5 14 6 15 7 16 8 17 9 18 10 8 11 7 12
REMARK SMILES IDX 6 13 5 14 4 15 3 16 2 17 1 18
REMARK H PARENT
REMARK Flexibility Score: inf
ROOT
ATOM      1  C   UNL     1      68.497  50.282  55.728  1.00  0.00     0.000 C 
ENDROOT
BRANCH   1   2
ATOM      2  C   UNL     1      69.901  50.880  55.529  1.00  0.00     0.000 C 
BRANCH   2   3
ATOM      3  C   UNL     1      69.954  52.420  55.461  1.00  0.00     0.000 C 
BRANCH   3   4
ATOM      4  C   UNL     1      69.858  53.015  54.043  1.00  0.00     0.000 C 
BRANCH   4   5
ATOM      5  C   UNL     1      70.981  52.584  53.078  1.00  0.00     0.000 C 
BRANCH   5   6
ATOM      6  C   UNL     1      70.505  51.839  51.818  1.00  0.00     0.006 C 
BRANCH   6   7
ATOM      7  C   UNL     1      69.414  50.802  52.116  1.00  0.00     0.053 C 
BRANCH   7   8
ATOM      8  C   UNL     1      68.628  50.501  50.880  1.00  0.00     0.041 C 
ATOM      9  O   UNL     1      67.884  49.486  50.834  1.00  0.00    -0.550 OA
ATOM     10  O   UNL     1      68.679  51.366  49.794  1.00  0.00    -0.550 OA
ENDBRANCH   7   8
ENDBRANCH   6   7
ENDBRANCH   5   6
ENDBRANCH   4   5
ENDBRANCH   3   4
ENDBRANCH   2   3
ENDBRANCH   1   2
BRANCH   1  11
ATOM     11  C   UNL     1      68.498  49.046  56.644  1.00  0.00     0.000 C 
BRANCH  11  12
ATOM     12  C   UNL     1      67.818  49.309  57.999  1.00  0.00    -0.000 C 
BRANCH  12  13
ATOM     13  C   UNL     1      66.372  48.786  58.126  1.00  0.00    -0.000 C 
BRANCH  13  14
ATOM     14  C   UNL     1      66.168  47.309  57.742  1.00  0.00    -0.000 C 
BRANCH  14  15
ATOM     15  C   UNL     1      65.082  46.619  58.581  1.00  0.00    -0.000 C 
BRANCH  15  16
ATOM     16  C   UNL     1      64.872  45.147  58.185  1.00  0.00    -0.000 C 
BRANCH  16  17
ATOM     17  C   UNL     1      65.721  44.705  56.975  1.00  0.00    -0.003 C 
ATOM     18  C   UNL     1      65.780  43.184  56.832  1.00  0.00     0.004 C 
ENDBRANCH  16  17
ENDBRANCH  15  16
ENDBRANCH  14  15
ENDBRANCH  13  14
ENDBRANCH  12  13
ENDBRANCH  11  12
ENDBRANCH   1  11
TORSDOF 14
ENDMDL
MODEL 7
REMARK VINA RESULT:    -3.452      1.443      2.614
REMARK INTER + INTRA:          -7.656
REMARK INTER:                  -6.389
REMARK INTRA:                  -1.267
REMARK UNBOUND:                -1.378
REMARK SMILES CCCCCCCCCCCCCCCC(=O)[O-]
REMARK SMILES IDX 9 1 10 2 11 3 12 4 13 5 14 6 15 7 16 8 17 9 18 10 8 11 7 12
REMARK SMILES IDX 6 13 5 14 4 15 3 16 2 17 1 18
REMARK H PARENT
REMARK Flexibility Score: inf
ROOT
ATOM      1  C   UNL     1      58.231  36.029  50.362  1.00  0.00     0.000 C 
ENDROOT
BRANCH   1   2
ATOM      2  C   UNL     1      57.978  36.258  51.863  1.00  0.00     0.000 C 
BRANCH   2   3
ATOM      3  C   UNL     1      58.749  35.315  52.810  1.00  0.00     0.000 C 
BRANCH   3   4
ATOM      4  C   UNL     1      59.022  35.882  54.217  1.00  0.00     0.000 C 
BRANCH   4   5
ATOM      5  C   UNL     1      58.187  37.123  54.592  1.00  0.00     0.000 C 
BRANCH   5   6
ATOM      6  C   UNL     1      58.814  38.026  55.671  1.00  0.00     0.006 C 
BRANCH   6   7
ATOM      7  C   UNL     1      60.192  37.533  56.132  1.00  0.00     0.053 C 
BRANCH   7   8
ATOM      8  C   UNL     1      60.261  37.500  57.626  1.00  0.00     0.041 C 
ATOM      9  O   UNL     1      60.723  36.487  58.216  1.00  0.00    -0.550 OA
ATOM     10  O   UNL     1      59.860  38.605  58.367  1.00  0.00    -0.550 OA
ENDBRANCH   7   8
ENDBRANCH   6   7
ENDBRANCH   5   6
ENDBRANCH   4   5
ENDBRANCH   3   4
ENDBRANCH   2   3
ENDBRANCH   1   2
BRANCH   1  11
ATOM     11  C   UNL     1      59.212  34.876  50.091  1.00  0.00     0.000 C 
BRANCH  11  12
ATOM     12  C   UNL     1      60.609  35.368  49.672  1.00  0.00    -0.000 C 
BRANCH  12  13
ATOM     13  C   UNL     1      60.990  35.102  48.201  1.00  0.00    -0.000 C 
BRANCH  13  14
ATOM     14  C   UNL     1      61.285  36.356  47.358  1.00  0.00    -0.000 C 
BRANCH  14  15
ATOM     15  C   UNL     1      60.581  37.613  47.891  1.00  0.00    -0.000 C 
BRANCH  15  16
ATOM     16  C   UNL     1      59.240  37.885  47.189  1.00  0.00    -0.000 C 
BRANCH  16  17
ATOM     17  C   UNL     1      59.039  37.062  45.899  1.00  0.00    -0.003 C 
ATOM     18  C   UNL     1      57.836  36.123  45.992  1.00  0.00     0.004 C 
ENDBRANCH  16  17
ENDBRANCH  15  16
ENDBRANCH  14  15
ENDBRANCH  13  14
ENDBRANCH  12  13
ENDBRANCH  11  12
ENDBRANCH   1  11
TORSDOF 14
ENDMDL
MODEL 8
REMARK VINA RESULT:    -3.419      4.588      8.470
REMARK INTER + INTRA:          -7.595
REMARK INTER:                  -6.903
REMARK INTRA:                  -0.692
REMARK UNBOUND:                -1.378
REMARK SMILES CCCCCCCCCCCCCCCC(=O)[O-]
REMARK SMILES IDX 9 1 10 2 11 3 12 4 13 5 14 6 15 7 16 8 17 9 18 10 8 11 7 12
REMARK SMILES IDX 6 13 5 14 4 15 3 16 2 17 1 18
REMARK H PARENT
REMARK Flexibility Score: inf
ROOT
ATOM      1  C   UNL     1      59.892  34.972  50.815  1.00  0.00     0.000 C 
ENDROOT
BRANCH   1   2
ATOM      2  C   UNL     1      59.238  35.455  49.508  1.00  0.00     0.000 C 
BRANCH   2   3
ATOM      3  C   UNL     1      60.219  35.761  48.358  1.00  0.00     0.000 C 
BRANCH   3   4
ATOM      4  C   UNL     1      60.359  37.253  47.999  1.00  0.00     0.000 C 
BRANCH   4   5
ATOM      5  C   UNL     1      59.201  37.833  47.161  1.00  0.00     0.000 C 
BRANCH   5   6
ATOM      6  C   UNL     1      58.553  36.845  46.175  1.00  0.00     0.006 C 
BRANCH   6   7
ATOM      7  C   UNL     1      59.311  36.751  44.844  1.00  0.00     0.053 C 
BRANCH   7   8
ATOM      8  C   UNL     1      58.353  36.791  43.695  1.00  0.00     0.041 C 
ATOM      9  O   UNL     1      58.779  36.954  42.521  1.00  0.00    -0.550 OA
ATOM     10  O   UNL     1      56.994  36.602  43.913  1.00  0.00    -0.550 OA
ENDBRANCH   7   8
ENDBRANCH   6   7
ENDBRANCH   5   6
ENDBRANCH   4   5
ENDBRANCH   3   4
ENDBRANCH   2   3
ENDBRANCH   1   2
BRANCH   1  11
ATOM     11  C   UNL     1      58.928  35.005  52.014  1.00  0.00     0.000 C 
BRANCH  11  12
ATOM     12  C   UNL     1      57.821  36.064  51.858  1.00  0.00    -0.000 C 
BRANCH  12  13
ATOM     13  C   UNL     1      57.120  36.485  53.165  1.00  0.00    -0.000 C 
BRANCH  13  14
ATOM     14  C   UNL     1      57.864  37.543  54.001  1.00  0.00    -0.000 C 
BRANCH  14  15
ATOM     15  C   UNL     1      58.785  36.925  55.064  1.00  0.00    -0.000 C 
BRANCH  15  16
ATOM     16  C   UNL     1      59.507  37.985  55.914  1.00  0.00    -0.000 C 
BRANCH  16  17
ATOM     17  C   UNL     1      58.661  38.515  57.091  1.00  0.00    -0.003 C 
ATOM     18  C   UNL     1      58.954  37.774  58.395  1.00  0.00     0.004 C 
ENDBRANCH  16  17
ENDBRANCH  15  16
ENDBRANCH  14  15
ENDBRANCH  13  14
ENDBRANCH  12  13
ENDBRANCH  11  12
ENDBRANCH   1  11
TORSDOF 14
ENDMDL
MODEL 9
REMARK VINA RESULT:    -3.369     17.507     19.601
REMARK INTER + INTRA:          -7.505
REMARK INTER:                  -5.408
REMARK INTRA:                  -2.097
REMARK UNBOUND:                -1.378
REMARK SMILES CCCCCCCCCCCCCCCC(=O)[O-]
REMARK SMILES IDX 9 1 10 2 11 3 12 4 13 5 14 6 15 7 16 8 17 9 18 10 8 11 7 12
REMARK SMILES IDX 6 13 5 14 4 15 3 16 2 17 1 18
REMARK H PARENT
REMARK Flexibility Score: inf
ROOT
ATOM      1  C   UNL     1      69.783  48.729  58.177  1.00  0.00     0.000 C 
ENDROOT
BRANCH   1   2
ATOM      2  C   UNL     1      69.979  49.183  56.719  1.00  0.00     0.000 C 
BRANCH   2   3
ATOM      3  C   UNL     1      68.764  49.889  56.083  1.00  0.00     0.000 C 
BRANCH   3   4
ATOM      4  C   UNL     1      69.107  51.041  55.120  1.00  0.00     0.000 C 
BRANCH   4   5
ATOM      5  C   UNL     1      70.547  51.020  54.566  1.00  0.00     0.000 C 
BRANCH   5   6
ATOM      6  C   UNL     1      70.669  51.316  53.060  1.00  0.00     0.006 C 
BRANCH   6   7
ATOM      7  C   UNL     1      69.402  50.949  52.277  1.00  0.00     0.053 C 
BRANCH   7   8
ATOM      8  C   UNL     1      69.556  51.313  50.834  1.00  0.00     0.041 C 
ATOM      9  O   UNL     1      70.671  51.700  50.394  1.00  0.00    -0.550 OA
ATOM     10  O   UNL     1      68.481  51.182  49.964  1.00  0.00    -0.550 OA
ENDBRANCH   7   8
ENDBRANCH   6   7
ENDBRANCH   5   6
ENDBRANCH   4   5
ENDBRANCH   3   4
ENDBRANCH   2   3
ENDBRANCH   1   2
BRANCH   1  11
ATOM     11  C   UNL     1      71.078  48.197  58.815  1.00  0.00     0.000 C 
BRANCH  11  12
ATOM     12  C   UNL     1      72.137  47.799  57.771  1.00  0.00    -0.000 C 
BRANCH  12  13
ATOM     13  C   UNL     1      73.603  48.002  58.205  1.00  0.00    -0.000 C 
BRANCH  13  14
ATOM     14  C   UNL     1      74.167  49.417  57.984  1.00  0.00    -0.000 C 
BRANCH  14  15
ATOM     15  C   UNL     1      73.550  50.122  56.767  1.00  0.00    -0.000 C 
BRANCH  15  16
ATOM     16  C   UNL     1      73.154  51.579  57.062  1.00  0.00    -0.000 C 
BRANCH  16  17
ATOM     17  C   UNL     1      72.610  51.795  58.490  1.00  0.00    -0.003 C 
ATOM     18  C   UNL     1      71.125  52.157  58.496  1.00  0.00     0.004 C 
ENDBRANCH  16  17
ENDBRANCH  15  16
ENDBRANCH  14  15
ENDBRANCH  13  14
ENDBRANCH  12  13
ENDBRANCH  11  12
ENDBRANCH   1  11
TORSDOF 14
ENDMDL
