MODEL 1
REMARK VINA RESULT:    -2.510      0.000      0.000
REMARK INTER + INTRA:          -2.510
REMARK INTER:                  -2.510
REMARK INTRA:                   0.000
REMARK UNBOUND:                 0.000
REMARK SMILES C=C1CC[C@@H]2C[C@H]1C2(C)C
REMARK SMILES IDX 9 1 8 2 5 3 4 4 3 5 2 6 1 7 7 8 6 9 10 10
REMARK H PARENT
REMARK Flexibility Score: inf
ROOT
ATOM      1  C   UNL     1     166.096 158.408 138.819  1.00  0.00     0.012 C 
ATOM      2  C   UNL     1     165.243 157.129 139.035  1.00  0.00    -0.026 C 
ATOM      3  C   UNL     1     164.065 156.847 138.066  1.00  0.00    -0.004 C 
ATOM      4  C   UNL     1     163.354 158.174 137.649  1.00  0.00     0.008 C 
ATOM      5  C   UNL     1     162.954 159.062 138.887  1.00  0.00     0.031 C 
ATOM      6  C   UNL     1     163.506 158.504 140.208  1.00  0.00    -0.074 C 
ATOM      7  C   UNL     1     163.394 159.186 141.352  1.00  0.00     0.008 C 
ATOM      8  C   UNL     1     164.178 157.136 140.158  1.00  0.00     0.021 C 
ATOM      9  C   UNL     1     163.273 156.281 139.256  1.00  0.00     0.012 C 
ATOM     10  C   UNL     1     166.200 155.916 139.150  1.00  0.00     0.012 C 
ENDROOT
TORSDOF 0
ENDMDL
MODEL 2
REMARK VINA RESULT:    -2.391     16.116     17.414
REMARK INTER + INTRA:          -2.391
REMARK INTER:                  -2.391
REMARK INTRA:                   0.000
REMARK UNBOUND:                 0.000
REMARK SMILES C=C1CC[C@@H]2C[C@H]1C2(C)C
REMARK SMILES IDX 9 1 8 2 5 3 4 4 3 5 2 6 1 7 7 8 6 9 10 10
REMARK H PARENT
REMARK Flexibility Score: inf
ROOT
ATOM      1  C   UNL     1     166.692 172.772 138.592  1.00  0.00     0.012 C 
ATOM      2  C   UNL     1     167.780 173.871 138.455  1.00  0.00    -0.026 C 
ATOM      3  C   UNL     1     168.687 174.178 139.674  1.00  0.00    -0.004 C 
ATOM      4  C   UNL     1     167.885 174.065 141.011  1.00  0.00     0.008 C 
ATOM      5  C   UNL     1     166.550 174.903 140.989  1.00  0.00     0.031 C 
ATOM      6  C   UNL     1     166.259 175.499 139.603  1.00  0.00    -0.074 C 
ATOM      7  C   UNL     1     165.107 176.125 139.344  1.00  0.00     0.008 C 
ATOM      8  C   UNL     1     167.343 175.353 138.541  1.00  0.00     0.021 C 
ATOM      9  C   UNL     1     168.660 175.661 139.273  1.00  0.00     0.012 C 
ATOM     10  C   UNL     1     168.607 173.583 137.177  1.00  0.00     0.012 C 
ENDROOT
TORSDOF 0
ENDMDL
MODEL 3
REMARK VINA RESULT:    -2.363      0.973      3.021
REMARK INTER + INTRA:          -2.363
REMARK INTER:                  -2.363
REMARK INTRA:                   0.000
REMARK UNBOUND:                 0.000
REMARK SMILES C=C1CC[C@@H]2C[C@H]1C2(C)C
REMARK SMILES IDX 9 1 8 2 5 3 4 4 3 5 2 6 1 7 7 8 6 9 10 10
REMARK H PARENT
REMARK Flexibility Score: inf
ROOT
ATOM      1  C   UNL     1     165.359 159.284 138.546  1.00  0.00     0.012 C 
ATOM      2  C   UNL     1     164.214 158.238 138.453  1.00  0.00    -0.026 C 
ATOM      3  C   UNL     1     163.312 158.011 139.693  1.00  0.00    -0.004 C 
ATOM      4  C   UNL     1     164.139 158.117 141.015  1.00  0.00     0.008 C 
ATOM      5  C   UNL     1     165.428 157.212 140.997  1.00  0.00     0.031 C 
ATOM      6  C   UNL     1     165.668 156.565 139.624  1.00  0.00    -0.074 C 
ATOM      7  C   UNL     1     166.783 155.875 139.366  1.00  0.00     0.008 C 
ATOM      8  C   UNL     1     164.577 156.739 138.573  1.00  0.00     0.021 C 
ATOM      9  C   UNL     1     163.257 156.517 139.331  1.00  0.00     0.012 C 
ATOM     10  C   UNL     1     163.383 158.535 137.180  1.00  0.00     0.012 C 
ENDROOT
TORSDOF 0
ENDMDL
MODEL 4
REMARK VINA RESULT:    -2.242      0.947      3.152
REMARK INTER + INTRA:          -2.242
REMARK INTER:                  -2.242
REMARK INTRA:                   0.000
REMARK UNBOUND:                 0.000
REMARK SMILES C=C1CC[C@@H]2C[C@H]1C2(C)C
REMARK SMILES IDX 9 1 8 2 5 3 4 4 3 5 2 6 1 7 7 8 6 9 10 10
REMARK H PARENT
REMARK Flexibility Score: inf
ROOT
ATOM      1  C   UNL     1     164.221 158.650 141.080  1.00  0.00     0.012 C 
ATOM      2  C   UNL     1     164.031 158.874 139.555  1.00  0.00    -0.026 C 
ATOM      3  C   UNL     1     162.867 158.146 138.835  1.00  0.00    -0.004 C 
ATOM      4  C   UNL     1     162.650 156.715 139.425  1.00  0.00     0.008 C 
ATOM      5  C   UNL     1     163.982 155.875 139.483  1.00  0.00     0.031 C 
ATOM      6  C   UNL     1     165.215 156.711 139.105  1.00  0.00    -0.074 C 
ATOM      7  C   UNL     1     166.452 156.219 139.228  1.00  0.00     0.008 C 
ATOM      8  C   UNL     1     164.966 158.120 138.579  1.00  0.00     0.021 C 
ATOM      9  C   UNL     1     163.781 157.978 137.610  1.00  0.00     0.012 C 
ATOM     10  C   UNL     1     164.015 160.398 139.283  1.00  0.00     0.012 C 
ENDROOT
TORSDOF 0
ENDMDL
MODEL 5
REMARK VINA RESULT:    -2.226     16.032     17.313
REMARK INTER + INTRA:          -2.226
REMARK INTER:                  -2.226
REMARK INTRA:                   0.000
REMARK UNBOUND:                 0.000
REMARK SMILES C=C1CC[C@@H]2C[C@H]1C2(C)C
REMARK SMILES IDX 9 1 8 2 5 3 4 4 3 5 2 6 1 7 7 8 6 9 10 10
REMARK H PARENT
REMARK Flexibility Score: inf
ROOT
ATOM      1  C   UNL     1     168.166 173.528 141.020  1.00  0.00     0.012 C 
ATOM      2  C   UNL     1     168.605 174.200 139.690  1.00  0.00    -0.026 C 
ATOM      3  C   UNL     1     168.289 175.702 139.475  1.00  0.00    -0.004 C 
ATOM      4  C   UNL     1     166.906 176.078 140.096  1.00  0.00     0.008 C 
ATOM      5  C   UNL     1     165.749 175.117 139.626  1.00  0.00     0.031 C 
ATOM      6  C   UNL     1     166.276 173.931 138.803  1.00  0.00    -0.074 C 
ATOM      7  C   UNL     1     165.470 172.931 138.431  1.00  0.00     0.008 C 
ATOM      8  C   UNL     1     167.752 173.949 138.423  1.00  0.00     0.021 C 
ATOM      9  C   UNL     1     168.033 175.397 137.990  1.00  0.00     0.012 C 
ATOM     10  C   UNL     1     170.102 173.884 139.454  1.00  0.00     0.012 C 
ENDROOT
TORSDOF 0
ENDMDL
MODEL 6
REMARK VINA RESULT:    -2.212      0.968      3.192
REMARK INTER + INTRA:          -2.212
REMARK INTER:                  -2.212
REMARK INTRA:                   0.000
REMARK UNBOUND:                 0.000
REMARK SMILES C=C1CC[C@@H]2C[C@H]1C2(C)C
REMARK SMILES IDX 9 1 8 2 5 3 4 4 3 5 2 6 1 7 7 8 6 9 10 10
REMARK H PARENT
REMARK Flexibility Score: inf
ROOT
ATOM      1  C   UNL     1     163.791 158.531 141.037  1.00  0.00     0.012 C 
ATOM      2  C   UNL     1     163.337 157.885 139.699  1.00  0.00    -0.026 C 
ATOM      3  C   UNL     1     163.607 156.376 139.471  1.00  0.00    -0.004 C 
ATOM      4  C   UNL     1     164.977 155.952 140.093  1.00  0.00     0.008 C 
ATOM      5  C   UNL     1     166.164 156.883 139.636  1.00  0.00     0.031 C 
ATOM      6  C   UNL     1     165.676 158.092 138.823  1.00  0.00    -0.074 C 
ATOM      7  C   UNL     1     166.513 159.070 138.464  1.00  0.00     0.008 C 
ATOM      8  C   UNL     1     164.201 158.122 138.438  1.00  0.00     0.021 C 
ATOM      9  C   UNL     1     163.878 156.687 137.990  1.00  0.00     0.012 C 
ATOM     10  C   UNL     1     161.850 158.249 139.460  1.00  0.00     0.012 C 
ENDROOT
TORSDOF 0
ENDMDL
MODEL 7
REMARK VINA RESULT:    -2.151      1.110      2.955
REMARK INTER + INTRA:          -2.151
REMARK INTER:                  -2.151
REMARK INTRA:                   0.000
REMARK UNBOUND:                 0.000
REMARK SMILES C=C1CC[C@@H]2C[C@H]1C2(C)C
REMARK SMILES IDX 9 1 8 2 5 3 4 4 3 5 2 6 1 7 7 8 6 9 10 10
REMARK H PARENT
REMARK Flexibility Score: inf
ROOT
ATOM      1  C   UNL     1     163.011 156.435 139.453  1.00  0.00     0.012 C 
ATOM      2  C   UNL     1     164.121 157.366 138.896  1.00  0.00    -0.026 C 
ATOM      3  C   UNL     1     165.568 156.820 138.789  1.00  0.00    -0.004 C 
ATOM      4  C   UNL     1     165.900 155.875 139.989  1.00  0.00     0.008 C 
ATOM      5  C   UNL     1     165.574 156.531 141.384  1.00  0.00     0.031 C 
ATOM      6  C   UNL     1     164.848 157.877 141.240  1.00  0.00    -0.074 C 
ATOM      7  C   UNL     1     164.363 158.523 142.305  1.00  0.00     0.008 C 
ATOM      8  C   UNL     1     164.712 158.448 139.832  1.00  0.00     0.021 C 
ATOM      9  C   UNL     1     166.084 158.215 139.176  1.00  0.00     0.012 C 
ATOM     10  C   UNL     1     163.629 157.966 137.555  1.00  0.00     0.012 C 
ENDROOT
TORSDOF 0
ENDMDL
MODEL 8
REMARK VINA RESULT:    -2.106     16.295     17.783
REMARK INTER + INTRA:          -2.106
REMARK INTER:                  -2.106
REMARK INTRA:                   0.000
REMARK UNBOUND:                 0.000
REMARK SMILES C=C1CC[C@@H]2C[C@H]1C2(C)C
REMARK SMILES IDX 9 1 8 2 5 3 4 4 3 5 2 6 1 7 7 8 6 9 10 10
REMARK H PARENT
REMARK Flexibility Score: inf
ROOT
ATOM      1  C   UNL     1     166.675 173.867 141.713  1.00  0.00     0.012 C 
ATOM      2  C   UNL     1     165.878 175.029 141.061  1.00  0.00    -0.026 C 
ATOM      3  C   UNL     1     165.031 174.734 139.796  1.00  0.00    -0.004 C 
ATOM      4  C   UNL     1     165.743 173.691 138.876  1.00  0.00     0.008 C 
ATOM      5  C   UNL     1     167.236 174.083 138.559  1.00  0.00     0.031 C 
ATOM      6  C   UNL     1     167.701 175.307 139.363  1.00  0.00    -0.074 C 
ATOM      7  C   UNL     1     168.975 175.711 139.340  1.00  0.00     0.008 C 
ATOM      8  C   UNL     1     166.646 176.044 140.181  1.00  0.00     0.021 C 
ATOM      9  C   UNL     1     165.415 176.123 139.261  1.00  0.00     0.012 C 
ATOM     10  C   UNL     1     165.046 175.730 142.163  1.00  0.00     0.012 C 
ENDROOT
TORSDOF 0
ENDMDL
