MODEL 1
REMARK VINA RESULT:     8.189      0.000      0.000
REMARK INTER + INTRA:           9.494
REMARK INTER:                   9.626
REMARK INTRA:                  -0.132
REMARK UNBOUND:                -0.132
REMARK SMILES O=C([O-])C=Cc1ccc(O)c(O)c1
REMARK SMILES IDX 6 1 13 2 7 3 11 4 8 5 9 6 5 7 4 8 2 9 1 10 3 11 12 12 10 14
REMARK H PARENT 12 13 10 15
REMARK Flexibility Score: inf
ROOT
ATOM      1  C   UNL     1     -31.248  40.869 -23.664  1.00  0.00    -0.022 A 
ATOM      2  C   UNL     1     -31.952  40.906 -24.880  1.00  0.00     0.058 A 
ATOM      3  C   UNL     1     -31.966  40.671 -22.469  1.00  0.00     0.012 A 
ATOM      4  C   UNL     1     -33.342  40.724 -24.911  1.00  0.00     0.157 A 
ATOM      5  C   UNL     1     -33.352  40.488 -22.499  1.00  0.00     0.051 A 
ATOM      6  C   UNL     1     -34.044  40.512 -23.713  1.00  0.00     0.157 A 
ENDROOT
BRANCH   1   7
ATOM      7  C   UNL     1     -29.779  41.079 -23.687  1.00  0.00     0.010 C 
ATOM      8  C   UNL     1     -28.999  40.776 -24.734  1.00  0.00     0.025 C 
BRANCH   8   9
ATOM      9  C   UNL     1     -27.546  41.009 -24.726  1.00  0.00     0.064 C 
ATOM     10  O   UNL     1     -26.895  41.110 -25.800  1.00  0.00    -0.545 OA
ATOM     11  O   UNL     1     -26.880  41.123 -23.513  1.00  0.00    -0.545 OA
ENDBRANCH   8   9
ENDBRANCH   1   7
BRANCH   4  12
ATOM     12  O   UNL     1     -34.025  40.753 -26.125  1.00  0.00    -0.504 OA
ATOM     13  H   UNL     1     -33.960  39.991 -26.790  1.00  0.00     0.293 HD
ENDBRANCH   4  12
BRANCH   6  14
ATOM     14  O   UNL     1     -35.426  40.325 -23.710  1.00  0.00    -0.504 OA
ATOM     15  H   UNL     1     -36.015  40.656 -24.464  1.00  0.00     0.293 HD
ENDBRANCH   6  14
TORSDOF 4
ENDMDL
MODEL 2
REMARK VINA RESULT:    10.553      1.267      1.588
REMARK INTER + INTRA:          12.272
REMARK INTER:                  12.408
REMARK INTRA:                  -0.136
REMARK UNBOUND:                -0.132
REMARK SMILES O=C([O-])C=Cc1ccc(O)c(O)c1
REMARK SMILES IDX 6 1 13 2 7 3 11 4 8 5 9 6 5 7 4 8 2 9 1 10 3 11 12 12 10 14
REMARK H PARENT 12 13 10 15
REMARK Flexibility Score: inf
ROOT
ATOM      1  C   UNL     1     -31.263  40.876 -23.296  1.00  0.00    -0.022 A 
ATOM      2  C   UNL     1     -31.772  40.758 -24.602  1.00  0.00     0.058 A 
ATOM      3  C   UNL     1     -32.155  40.795 -22.210  1.00  0.00     0.012 A 
ATOM      4  C   UNL     1     -33.139  40.536 -24.822  1.00  0.00     0.157 A 
ATOM      5  C   UNL     1     -33.518  40.573 -22.428  1.00  0.00     0.051 A 
ATOM      6  C   UNL     1     -34.015  40.441 -23.728  1.00  0.00     0.157 A 
ENDROOT
BRANCH   1   7
ATOM      7  C   UNL     1     -29.810  41.121 -23.120  1.00  0.00     0.010 C 
ATOM      8  C   UNL     1     -29.109  40.712 -22.053  1.00  0.00     0.025 C 
BRANCH   8   9
ATOM      9  C   UNL     1     -27.666  40.962 -21.917  1.00  0.00     0.064 C 
ATOM     10  O   UNL     1     -26.923  41.061 -22.930  1.00  0.00    -0.545 OA
ATOM     11  O   UNL     1     -27.112  41.093 -20.651  1.00  0.00    -0.545 OA
ENDBRANCH   8   9
ENDBRANCH   1   7
BRANCH   4  12
ATOM     12  O   UNL     1     -33.627  40.410 -26.121  1.00  0.00    -0.504 OA
ATOM     13  H   UNL     1     -34.602  40.579 -26.340  1.00  0.00     0.293 HD
ENDBRANCH   4  12
BRANCH   6  14
ATOM     14  O   UNL     1     -35.379  40.220 -23.914  1.00  0.00    -0.504 OA
ATOM     15  H   UNL     1     -35.742  39.329 -24.231  1.00  0.00     0.293 HD
ENDBRANCH   6  14
TORSDOF 4
ENDMDL
