MODEL 1
REMARK VINA RESULT:    -0.850      0.000      0.000
REMARK INTER + INTRA:          -4.189
REMARK INTER:                  -2.243
REMARK INTRA:                  -1.947
REMARK UNBOUND:                -1.947
REMARK SMILES CCCCCCCCCCCCCCCCCCCCCCCCCCCCCC(=O)[O-]
REMARK SMILES IDX 16 1 17 2 18 3 19 4 20 5 21 6 22 7 23 8 24 9 25 10 26 11
REMARK SMILES IDX 27 12 28 13 29 14 30 15 31 16 32 17 15 18 14 19 13 20 12 21
REMARK SMILES IDX 11 22 10 23 9 24 8 25 7 26 6 27 5 28 4 29 3 30 2 31 1 32
REMARK H PARENT
REMARK Flexibility Score: inf
ROOT
ATOM      1  C   UNL     1      -4.901  -0.125 -11.300  1.00  0.00     0.000 C 
ENDROOT
BRANCH   1   2
ATOM      2  C   UNL     1      -5.876   0.736 -12.124  1.00  0.00     0.000 C 
BRANCH   2   3
ATOM      3  C   UNL     1      -7.373   0.484 -11.848  1.00  0.00     0.000 C 
BRANCH   3   4
ATOM      4  C   UNL     1      -8.151   1.683 -11.275  1.00  0.00     0.000 C 
BRANCH   4   5
ATOM      5  C   UNL     1      -9.672   1.542 -11.448  1.00  0.00     0.000 C 
BRANCH   5   6
ATOM      6  C   UNL     1     -10.413   1.345 -10.113  1.00  0.00     0.000 C 
BRANCH   6   7
ATOM      7  C   UNL     1     -11.071   2.611  -9.534  1.00  0.00     0.000 C 
BRANCH   7   8
ATOM      8  C   UNL     1     -10.076   3.530  -8.808  1.00  0.00     0.000 C 
BRANCH   8   9
ATOM      9  C   UNL     1     -10.525   4.997  -8.877  1.00  0.00     0.000 C 
BRANCH   9  10
ATOM     10  C   UNL     1     -10.672   5.495 -10.332  1.00  0.00     0.000 C 
BRANCH  10  11
ATOM     11  C   UNL     1      -9.430   6.232 -10.862  1.00  0.00     0.000 C 
BRANCH  11  12
ATOM     12  C   UNL     1      -8.639   6.945  -9.758  1.00  0.00     0.000 C 
BRANCH  12  13
ATOM     13  C   UNL     1      -7.234   6.348  -9.613  1.00  0.00     0.006 C 
BRANCH  13  14
ATOM     14  C   UNL     1      -6.961   5.926  -8.166  1.00  0.00     0.053 C 
BRANCH  14  15
ATOM     15  C   UNL     1      -6.325   4.574  -8.127  1.00  0.00     0.041 C 
ATOM     16  O   UNL     1      -5.154   4.438  -7.685  1.00  0.00    -0.550 OA
ATOM     17  O   UNL     1      -7.042   3.456  -8.532  1.00  0.00    -0.550 OA
ENDBRANCH  14  15
ENDBRANCH  13  14
ENDBRANCH  12  13
ENDBRANCH  11  12
ENDBRANCH  10  11
ENDBRANCH   9  10
ENDBRANCH   8   9
ENDBRANCH   7   8
ENDBRANCH   6   7
ENDBRANCH   5   6
ENDBRANCH   4   5
ENDBRANCH   3   4
ENDBRANCH   2   3
ENDBRANCH   1   2
BRANCH   1  18
ATOM     18  C   UNL     1      -4.707  -1.532 -11.889  1.00  0.00     0.000 C 
BRANCH  18  19
ATOM     19  C   UNL     1      -3.228  -1.888 -12.125  1.00  0.00     0.000 C 
BRANCH  19  20
ATOM     20  C   UNL     1      -2.890  -3.388 -12.059  1.00  0.00     0.000 C 
BRANCH  20  21
ATOM     21  C   UNL     1      -1.409  -3.658 -11.739  1.00  0.00     0.000 C 
BRANCH  21  22
ATOM     22  C   UNL     1      -0.968  -5.081 -12.124  1.00  0.00     0.000 C 
BRANCH  22  23
ATOM     23  C   UNL     1      -2.017  -6.182 -11.872  1.00  0.00     0.000 C 
BRANCH  23  24
ATOM     24  C   UNL     1      -1.433  -7.467 -11.248  1.00  0.00    -0.000 C 
BRANCH  24  25
ATOM     25  C   UNL     1       0.028  -7.290 -10.799  1.00  0.00    -0.000 C 
BRANCH  25  26
ATOM     26  C   UNL     1       1.017  -8.063 -11.697  1.00  0.00    -0.000 C 
BRANCH  26  27
ATOM     27  C   UNL     1       1.509  -9.387 -11.082  1.00  0.00    -0.000 C 
BRANCH  27  28
ATOM     28  C   UNL     1       0.702 -10.634 -11.491  1.00  0.00    -0.000 C 
BRANCH  28  29
ATOM     29  C   UNL     1       0.006 -11.371 -10.332  1.00  0.00    -0.000 C 
BRANCH  29  30
ATOM     30  C   UNL     1      -1.493 -11.604 -10.586  1.00  0.00    -0.000 C 
BRANCH  30  31
ATOM     31  C   UNL     1      -2.370 -10.492  -9.989  1.00  0.00    -0.003 C 
ATOM     32  C   UNL     1      -3.634 -10.230 -10.809  1.00  0.00     0.004 C 
ENDBRANCH  30  31
ENDBRANCH  29  30
ENDBRANCH  28  29
ENDBRANCH  27  28
ENDBRANCH  26  27
ENDBRANCH  25  26
ENDBRANCH  24  25
ENDBRANCH  23  24
ENDBRANCH  22  23
ENDBRANCH  21  22
ENDBRANCH  20  21
ENDBRANCH  19  20
ENDBRANCH  18  19
ENDBRANCH   1  18
TORSDOF 28
ENDMDL
MODEL 2
REMARK VINA RESULT:    -0.652      4.475     14.458
REMARK INTER + INTRA:          -3.666
REMARK INTER:                  -2.561
REMARK INTRA:                  -1.106
REMARK UNBOUND:                -1.947
REMARK SMILES CCCCCCCCCCCCCCCCCCCCCCCCCCCCCC(=O)[O-]
REMARK SMILES IDX 16 1 17 2 18 3 19 4 20 5 21 6 22 7 23 8 24 9 25 10 26 11
REMARK SMILES IDX 27 12 28 13 29 14 30 15 31 16 32 17 15 18 14 19 13 20 12 21
REMARK SMILES IDX 11 22 10 23 9 24 8 25 7 26 6 27 5 28 4 29 3 30 2 31 1 32
REMARK H PARENT
REMARK Flexibility Score: inf
ROOT
ATOM      1  C   UNL     1      -5.705   0.203 -10.640  1.00  0.00     0.000 C 
ENDROOT
BRANCH   1   2
ATOM      2  C   UNL     1      -5.140  -0.668 -11.778  1.00  0.00     0.000 C 
BRANCH   2   3
ATOM      3  C   UNL     1      -3.737  -1.256 -11.523  1.00  0.00     0.000 C 
BRANCH   3   4
ATOM      4  C   UNL     1      -3.487  -2.652 -12.122  1.00  0.00     0.000 C 
BRANCH   4   5
ATOM      5  C   UNL     1      -2.479  -3.478 -11.305  1.00  0.00     0.000 C 
BRANCH   5   6
ATOM      6  C   UNL     1      -2.289  -4.905 -11.850  1.00  0.00     0.000 C 
BRANCH   6   7
ATOM      7  C   UNL     1      -1.098  -5.681 -11.260  1.00  0.00     0.000 C 
BRANCH   7   8
ATOM      8  C   UNL     1      -0.952  -7.095 -11.842  1.00  0.00     0.000 C 
BRANCH   8   9
ATOM      9  C   UNL     1      -1.991  -8.052 -11.238  1.00  0.00     0.000 C 
BRANCH   9  10
ATOM     10  C   UNL     1      -1.961  -9.445 -11.906  1.00  0.00     0.000 C 
BRANCH  10  11
ATOM     11  C   UNL     1      -3.034 -10.410 -11.375  1.00  0.00     0.000 C 
BRANCH  11  12
ATOM     12  C   UNL     1      -2.558 -11.868 -11.330  1.00  0.00     0.000 C 
BRANCH  12  13
ATOM     13  C   UNL     1      -1.315 -12.016 -10.445  1.00  0.00     0.006 C 
BRANCH  13  14
ATOM     14  C   UNL     1      -0.061 -12.254 -11.292  1.00  0.00     0.053 C 
BRANCH  14  15
ATOM     15  C   UNL     1       1.119 -11.565 -10.684  1.00  0.00     0.041 C 
ATOM     16  O   UNL     1       2.048 -12.240 -10.167  1.00  0.00    -0.550 OA
ATOM     17  O   UNL     1       1.218 -10.181 -10.734  1.00  0.00    -0.550 OA
ENDBRANCH  14  15
ENDBRANCH  13  14
ENDBRANCH  12  13
ENDBRANCH  11  12
ENDBRANCH  10  11
ENDBRANCH   9  10
ENDBRANCH   8   9
ENDBRANCH   7   8
ENDBRANCH   6   7
ENDBRANCH   5   6
ENDBRANCH   4   5
ENDBRANCH   3   4
ENDBRANCH   2   3
ENDBRANCH   1   2
BRANCH   1  18
ATOM     18  C   UNL     1      -6.946   1.005 -11.065  1.00  0.00     0.000 C 
BRANCH  18  19
ATOM     19  C   UNL     1      -8.009   1.104  -9.956  1.00  0.00     0.000 C 
BRANCH  19  20
ATOM     20  C   UNL     1      -7.827   2.267  -8.965  1.00  0.00     0.000 C 
BRANCH  20  21
ATOM     21  C   UNL     1      -9.156   2.774  -8.379  1.00  0.00     0.000 C 
BRANCH  21  22
ATOM     22  C   UNL     1      -9.011   4.127  -7.660  1.00  0.00     0.000 C 
BRANCH  22  23
ATOM     23  C   UNL     1      -7.561   4.556  -7.361  1.00  0.00     0.000 C 
BRANCH  23  24
ATOM     24  C   UNL     1      -6.874   5.286  -8.535  1.00  0.00    -0.000 C 
BRANCH  24  25
ATOM     25  C   UNL     1      -7.518   6.652  -8.832  1.00  0.00    -0.000 C 
BRANCH  25  26
ATOM     26  C   UNL     1      -9.005   6.528  -9.225  1.00  0.00    -0.000 C 
BRANCH  26  27
ATOM     27  C   UNL     1      -9.240   6.428 -10.744  1.00  0.00    -0.000 C 
BRANCH  27  28
ATOM     28  C   UNL     1      -8.860   5.074 -11.374  1.00  0.00    -0.000 C 
BRANCH  28  29
ATOM     29  C   UNL     1     -10.002   4.357 -12.118  1.00  0.00    -0.000 C 
BRANCH  29  30
ATOM     30  C   UNL     1     -10.854   3.471 -11.194  1.00  0.00    -0.000 C 
BRANCH  30  31
ATOM     31  C   UNL     1     -11.123   2.082 -11.795  1.00  0.00    -0.003 C 
ATOM     32  C   UNL     1     -11.045   0.962 -10.757  1.00  0.00     0.004 C 
ENDBRANCH  30  31
ENDBRANCH  29  30
ENDBRANCH  28  29
ENDBRANCH  27  28
ENDBRANCH  26  27
ENDBRANCH  25  26
ENDBRANCH  24  25
ENDBRANCH  23  24
ENDBRANCH  22  23
ENDBRANCH  21  22
ENDBRANCH  20  21
ENDBRANCH  19  20
ENDBRANCH  18  19
ENDBRANCH   1  18
TORSDOF 28
ENDMDL
MODEL 3
REMARK VINA RESULT:    -0.623      1.464      3.293
REMARK INTER + INTRA:          -3.589
REMARK INTER:                  -2.306
REMARK INTRA:                  -1.283
REMARK UNBOUND:                -1.947
REMARK SMILES CCCCCCCCCCCCCCCCCCCCCCCCCCCCCC(=O)[O-]
REMARK SMILES IDX 16 1 17 2 18 3 19 4 20 5 21 6 22 7 23 8 24 9 25 10 26 11
REMARK SMILES IDX 27 12 28 13 29 14 30 15 31 16 32 17 15 18 14 19 13 20 12 21
REMARK SMILES IDX 11 22 10 23 9 24 8 25 7 26 6 27 5 28 4 29 3 30 2 31 1 32
REMARK H PARENT
REMARK Flexibility Score: inf
ROOT
ATOM      1  C   UNL     1      -3.079  -3.284 -11.881  1.00  0.00     0.000 C 
ENDROOT
BRANCH   1   2
ATOM      2  C   UNL     1      -3.258  -1.765 -11.709  1.00  0.00     0.000 C 
BRANCH   2   3
ATOM      3  C   UNL     1      -4.654  -1.221 -12.076  1.00  0.00     0.000 C 
BRANCH   3   4
ATOM      4  C   UNL     1      -4.774   0.314 -12.125  1.00  0.00     0.000 C 
BRANCH   4   5
ATOM      5  C   UNL     1      -5.851   0.857 -11.172  1.00  0.00     0.000 C 
BRANCH   5   6
ATOM      6  C   UNL     1      -7.237   0.232 -11.413  1.00  0.00     0.000 C 
BRANCH   6   7
ATOM      7  C   UNL     1      -8.370   0.784 -10.528  1.00  0.00     0.000 C 
BRANCH   7   8
ATOM      8  C   UNL     1      -8.074   2.187  -9.975  1.00  0.00     0.000 C 
BRANCH   8   9
ATOM      9  C   UNL     1      -8.963   2.503  -8.763  1.00  0.00     0.000 C 
BRANCH   9  10
ATOM     10  C   UNL     1      -8.460   3.732  -7.974  1.00  0.00     0.000 C 
BRANCH  10  11
ATOM     11  C   UNL     1      -9.582   4.531  -7.289  1.00  0.00     0.000 C 
BRANCH  11  12
ATOM     12  C   UNL     1     -10.470   5.291  -8.284  1.00  0.00     0.000 C 
BRANCH  12  13
ATOM     13  C   UNL     1      -9.872   5.257  -9.695  1.00  0.00     0.006 C 
BRANCH  13  14
ATOM     14  C   UNL     1      -9.281   6.618 -10.076  1.00  0.00     0.053 C 
BRANCH  14  15
ATOM     15  C   UNL     1      -7.823   6.488 -10.382  1.00  0.00     0.041 C 
ATOM     16  O   UNL     1      -6.964   6.827  -9.526  1.00  0.00    -0.550 OA
ATOM     17  O   UNL     1      -7.413   5.946 -11.592  1.00  0.00    -0.550 OA
ENDBRANCH  14  15
ENDBRANCH  13  14
ENDBRANCH  12  13
ENDBRANCH  11  12
ENDBRANCH  10  11
ENDBRANCH   9  10
ENDBRANCH   8   9
ENDBRANCH   7   8
ENDBRANCH   6   7
ENDBRANCH   5   6
ENDBRANCH   4   5
ENDBRANCH   3   4
ENDBRANCH   2   3
ENDBRANCH   1   2
BRANCH   1  18
ATOM     18  C   UNL     1      -1.920  -3.845 -11.038  1.00  0.00     0.000 C 
BRANCH  18  19
ATOM     19  C   UNL     1      -1.199  -5.025 -11.714  1.00  0.00     0.000 C 
BRANCH  19  20
ATOM     20  C   UNL     1      -1.755  -6.420 -11.380  1.00  0.00     0.000 C 
BRANCH  20  21
ATOM     21  C   UNL     1      -0.741  -7.312 -10.643  1.00  0.00     0.000 C 
BRANCH  21  22
ATOM     22  C   UNL     1       0.701  -7.111 -11.143  1.00  0.00     0.000 C 
BRANCH  22  23
ATOM     23  C   UNL     1       1.210  -8.187 -12.121  1.00  0.00     0.000 C 
BRANCH  23  24
ATOM     24  C   UNL     1       0.596  -9.583 -11.886  1.00  0.00    -0.000 C 
BRANCH  24  25
ATOM     25  C   UNL     1       1.562 -10.533 -11.156  1.00  0.00    -0.000 C 
BRANCH  25  26
ATOM     26  C   UNL     1       1.083 -12.000 -11.190  1.00  0.00    -0.000 C 
BRANCH  26  27
ATOM     27  C   UNL     1      -0.323 -12.180 -11.793  1.00  0.00    -0.000 C 
BRANCH  27  28
ATOM     28  C   UNL     1      -1.275 -13.069 -10.970  1.00  0.00    -0.000 C 
BRANCH  28  29
ATOM     29  C   UNL     1      -1.991 -12.359  -9.806  1.00  0.00    -0.000 C 
BRANCH  29  30
ATOM     30  C   UNL     1      -2.013 -10.829  -9.963  1.00  0.00    -0.000 C 
BRANCH  30  31
ATOM     31  C   UNL     1      -2.949 -10.367 -11.091  1.00  0.00    -0.003 C 
ATOM     32  C   UNL     1      -4.030 -11.398 -11.423  1.00  0.00     0.004 C 
ENDBRANCH  30  31
ENDBRANCH  29  30
ENDBRANCH  28  29
ENDBRANCH  27  28
ENDBRANCH  26  27
ENDBRANCH  25  26
ENDBRANCH  24  25
ENDBRANCH  23  24
ENDBRANCH  22  23
ENDBRANCH  21  22
ENDBRANCH  20  21
ENDBRANCH  19  20
ENDBRANCH  18  19
ENDBRANCH   1  18
TORSDOF 28
ENDMDL
MODEL 4
REMARK VINA RESULT:    -0.187      6.113     16.132
REMARK INTER + INTRA:          -2.441
REMARK INTER:                  -0.568
REMARK INTRA:                  -1.873
REMARK UNBOUND:                -1.947
REMARK SMILES CCCCCCCCCCCCCCCCCCCCCCCCCCCCCC(=O)[O-]
REMARK SMILES IDX 16 1 17 2 18 3 19 4 20 5 21 6 22 7 23 8 24 9 25 10 26 11
REMARK SMILES IDX 27 12 28 13 29 14 30 15 31 16 32 17 15 18 14 19 13 20 12 21
REMARK SMILES IDX 11 22 10 23 9 24 8 25 7 26 6 27 5 28 4 29 3 30 2 31 1 32
REMARK H PARENT
REMARK Flexibility Score: inf
ROOT
ATOM      1  C   UNL     1      -2.633  -3.818 -11.164  1.00  0.00     0.000 C 
ENDROOT
BRANCH   1   2
ATOM      2  C   UNL     1      -1.747  -4.778 -11.979  1.00  0.00     0.000 C 
BRANCH   2   3
ATOM      3  C   UNL     1      -1.446  -6.131 -11.302  1.00  0.00     0.000 C 
BRANCH   3   4
ATOM      4  C   UNL     1      -0.328  -6.965 -11.958  1.00  0.00     0.000 C 
BRANCH   4   5
ATOM      5  C   UNL     1      -0.029  -8.264 -11.193  1.00  0.00     0.000 C 
BRANCH   5   6
ATOM      6  C   UNL     1       1.407  -8.773 -11.412  1.00  0.00     0.000 C 
BRANCH   6   7
ATOM      7  C   UNL     1       2.471  -8.160 -10.483  1.00  0.00     0.000 C 
BRANCH   7   8
ATOM      8  C   UNL     1       3.500  -7.299 -11.231  1.00  0.00     0.000 C 
BRANCH   8   9
ATOM      9  C   UNL     1       4.402  -8.165 -12.125  1.00  0.00     0.000 C 
BRANCH   9  10
ATOM     10  C   UNL     1       5.327  -9.087 -11.301  1.00  0.00     0.000 C 
BRANCH  10  11
ATOM     11  C   UNL     1       6.421  -8.334 -10.525  1.00  0.00     0.000 C 
BRANCH  11  12
ATOM     12  C   UNL     1       7.775  -8.331 -11.247  1.00  0.00     0.000 C 
BRANCH  12  13
ATOM     13  C   UNL     1       8.307  -9.757 -11.428  1.00  0.00     0.006 C 
BRANCH  13  14
ATOM     14  C   UNL     1       8.854 -10.312 -10.109  1.00  0.00     0.053 C 
BRANCH  14  15
ATOM     15  C   UNL     1       8.230 -11.635  -9.799  1.00  0.00     0.041 C 
ATOM     16  O   UNL     1       8.193 -12.056  -8.613  1.00  0.00    -0.550 OA
ATOM     17  O   UNL     1       7.644 -12.381 -10.813  1.00  0.00    -0.550 OA
ENDBRANCH  14  15
ENDBRANCH  13  14
ENDBRANCH  12  13
ENDBRANCH  11  12
ENDBRANCH  10  11
ENDBRANCH   9  10
ENDBRANCH   8   9
ENDBRANCH   7   8
ENDBRANCH   6   7
ENDBRANCH   5   6
ENDBRANCH   4   5
ENDBRANCH   3   4
ENDBRANCH   2   3
ENDBRANCH   1   2
BRANCH   1  18
ATOM     18  C   UNL     1      -3.707  -3.127 -12.022  1.00  0.00     0.000 C 
BRANCH  18  19
ATOM     19  C   UNL     1      -3.789  -1.610 -11.777  1.00  0.00     0.000 C 
BRANCH  19  20
ATOM     20  C   UNL     1      -5.141  -0.957 -12.116  1.00  0.00     0.000 C 
BRANCH  20  21
ATOM     21  C   UNL     1      -5.407   0.329 -11.314  1.00  0.00     0.000 C 
BRANCH  21  22
ATOM     22  C   UNL     1      -6.717   0.267 -10.509  1.00  0.00     0.000 C 
BRANCH  22  23
ATOM     23  C   UNL     1      -7.516   1.584 -10.458  1.00  0.00     0.000 C 
BRANCH  23  24
ATOM     24  C   UNL     1      -8.823   1.488  -9.642  1.00  0.00    -0.000 C 
BRANCH  24  25
ATOM     25  C   UNL     1      -8.646   1.975  -8.193  1.00  0.00    -0.000 C 
BRANCH  25  26
ATOM     26  C   UNL     1      -7.983   3.367  -8.117  1.00  0.00    -0.000 C 
BRANCH  26  27
ATOM     27  C   UNL     1      -8.961   4.501  -7.757  1.00  0.00    -0.000 C 
BRANCH  27  28
ATOM     28  C   UNL     1     -10.338   4.415  -8.442  1.00  0.00    -0.000 C 
BRANCH  28  29
ATOM     29  C   UNL     1     -10.517   5.332  -9.667  1.00  0.00    -0.000 C 
BRANCH  29  30
ATOM     30  C   UNL     1      -9.375   6.349  -9.824  1.00  0.00    -0.000 C 
BRANCH  30  31
ATOM     31  C   UNL     1      -8.374   5.945 -10.918  1.00  0.00    -0.003 C 
ATOM     32  C   UNL     1      -8.836   4.731 -11.725  1.00  0.00     0.004 C 
ENDBRANCH  30  31
ENDBRANCH  29  30
ENDBRANCH  28  29
ENDBRANCH  27  28
ENDBRANCH  26  27
ENDBRANCH  25  26
ENDBRANCH  24  25
ENDBRANCH  23  24
ENDBRANCH  22  23
ENDBRANCH  21  22
ENDBRANCH  20  21
ENDBRANCH  19  20
ENDBRANCH  18  19
ENDBRANCH   1  18
TORSDOF 28
ENDMDL
MODEL 5
REMARK VINA RESULT:    -0.084      3.161     13.336
REMARK INTER + INTRA:          -2.168
REMARK INTER:                  -1.911
REMARK INTRA:                  -0.257
REMARK UNBOUND:                -1.947
REMARK SMILES CCCCCCCCCCCCCCCCCCCCCCCCCCCCCC(=O)[O-]
REMARK SMILES IDX 16 1 17 2 18 3 19 4 20 5 21 6 22 7 23 8 24 9 25 10 26 11
REMARK SMILES IDX 27 12 28 13 29 14 30 15 31 16 32 17 15 18 14 19 13 20 12 21
REMARK SMILES IDX 11 22 10 23 9 24 8 25 7 26 6 27 5 28 4 29 3 30 2 31 1 32
REMARK H PARENT
REMARK Flexibility Score: inf
ROOT
ATOM      1  C   UNL     1      -4.896   0.009 -10.560  1.00  0.00     0.000 C 
ENDROOT
BRANCH   1   2
ATOM      2  C   UNL     1      -4.237  -0.664 -11.779  1.00  0.00     0.000 C 
BRANCH   2   3
ATOM      3  C   UNL     1      -4.227  -2.206 -11.754  1.00  0.00     0.000 C 
BRANCH   3   4
ATOM      4  C   UNL     1      -2.884  -2.865 -12.123  1.00  0.00     0.000 C 
BRANCH   4   5
ATOM      5  C   UNL     1      -2.566  -4.094 -11.256  1.00  0.00     0.000 C 
BRANCH   5   6
ATOM      6  C   UNL     1      -1.800  -5.188 -12.021  1.00  0.00     0.000 C 
BRANCH   6   7
ATOM      7  C   UNL     1      -1.993  -6.620 -11.490  1.00  0.00     0.000 C 
BRANCH   7   8
ATOM      8  C   UNL     1      -0.762  -7.156 -10.743  1.00  0.00     0.000 C 
BRANCH   8   9
ATOM      9  C   UNL     1       0.516  -6.965 -11.574  1.00  0.00     0.000 C 
BRANCH   9  10
ATOM     10  C   UNL     1       1.793  -7.259 -10.756  1.00  0.00     0.000 C 
BRANCH  10  11
ATOM     11  C   UNL     1       2.711  -6.036 -10.580  1.00  0.00     0.000 C 
BRANCH  11  12
ATOM     12  C   UNL     1       2.817  -5.179 -11.848  1.00  0.00     0.000 C 
BRANCH  12  13
ATOM     13  C   UNL     1       1.504  -4.438 -12.125  1.00  0.00     0.006 C 
BRANCH  13  14
ATOM     14  C   UNL     1       1.231  -3.381 -11.049  1.00  0.00     0.053 C 
BRANCH  14  15
ATOM     15  C   UNL     1       2.123  -2.196 -11.242  1.00  0.00     0.041 C 
ATOM     16  O   UNL     1       3.283  -2.190 -10.753  1.00  0.00    -0.550 OA
ATOM     17  O   UNL     1       1.691  -1.119 -12.004  1.00  0.00    -0.550 OA
ENDBRANCH  14  15
ENDBRANCH  13  14
ENDBRANCH  12  13
ENDBRANCH  11  12
ENDBRANCH  10  11
ENDBRANCH   9  10
ENDBRANCH   8   9
ENDBRANCH   7   8
ENDBRANCH   6   7
ENDBRANCH   5   6
ENDBRANCH   4   5
ENDBRANCH   3   4
ENDBRANCH   2   3
ENDBRANCH   1   2
BRANCH   1  18
ATOM     18  C   UNL     1      -6.432   0.005 -10.637  1.00  0.00     0.000 C 
BRANCH  18  19
ATOM     19  C   UNL     1      -6.978   0.818 -11.825  1.00  0.00     0.000 C 
BRANCH  19  20
ATOM     20  C   UNL     1      -7.997   1.913 -11.464  1.00  0.00     0.000 C 
BRANCH  20  21
ATOM     21  C   UNL     1      -8.595   1.741 -10.057  1.00  0.00     0.000 C 
BRANCH  21  22
ATOM     22  C   UNL     1      -9.961   1.033 -10.075  1.00  0.00     0.000 C 
BRANCH  22  23
ATOM     23  C   UNL     1     -11.125   1.842  -9.470  1.00  0.00     0.000 C 
BRANCH  23  24
ATOM     24  C   UNL     1     -10.712   3.240  -8.961  1.00  0.00    -0.000 C 
BRANCH  24  25
ATOM     25  C   UNL     1      -9.500   3.185  -8.015  1.00  0.00    -0.000 C 
BRANCH  25  26
ATOM     26  C   UNL     1      -9.216   4.545  -7.343  1.00  0.00    -0.000 C 
BRANCH  26  27
ATOM     27  C   UNL     1      -8.948   5.687  -8.341  1.00  0.00    -0.000 C 
BRANCH  27  28
ATOM     28  C   UNL     1      -7.462   5.932  -8.665  1.00  0.00    -0.000 C 
BRANCH  28  29
ATOM     29  C   UNL     1      -7.199   6.794  -9.915  1.00  0.00    -0.000 C 
BRANCH  29  30
ATOM     30  C   UNL     1      -8.300   6.653 -10.980  1.00  0.00    -0.000 C 
BRANCH  30  31
ATOM     31  C   UNL     1      -8.500   5.196 -11.429  1.00  0.00    -0.003 C 
ATOM     32  C   UNL     1      -9.970   4.845 -11.663  1.00  0.00     0.004 C 
ENDBRANCH  30  31
ENDBRANCH  29  30
ENDBRANCH  28  29
ENDBRANCH  27  28
ENDBRANCH  26  27
ENDBRANCH  25  26
ENDBRANCH  24  25
ENDBRANCH  23  24
ENDBRANCH  22  23
ENDBRANCH  21  22
ENDBRANCH  20  21
ENDBRANCH  19  20
ENDBRANCH  18  19
ENDBRANCH   1  18
TORSDOF 28
ENDMDL
MODEL 6
REMARK VINA RESULT:     0.275      4.223     14.613
REMARK INTER + INTRA:          -1.222
REMARK INTER:                  -0.547
REMARK INTRA:                  -0.675
REMARK UNBOUND:                -1.947
REMARK SMILES CCCCCCCCCCCCCCCCCCCCCCCCCCCCCC(=O)[O-]
REMARK SMILES IDX 16 1 17 2 18 3 19 4 20 5 21 6 22 7 23 8 24 9 25 10 26 11
REMARK SMILES IDX 27 12 28 13 29 14 30 15 31 16 32 17 15 18 14 19 13 20 12 21
REMARK SMILES IDX 11 22 10 23 9 24 8 25 7 26 6 27 5 28 4 29 3 30 2 31 1 32
REMARK H PARENT
REMARK Flexibility Score: inf
ROOT
ATOM      1  C   UNL     1      -4.814  -0.234 -10.425  1.00  0.00     0.000 C 
ENDROOT
BRANCH   1   2
ATOM      2  C   UNL     1      -4.249  -0.875 -11.706  1.00  0.00     0.000 C 
BRANCH   2   3
ATOM      3  C   UNL     1      -4.032  -2.401 -11.639  1.00  0.00     0.000 C 
BRANCH   3   4
ATOM      4  C   UNL     1      -2.623  -2.886 -12.031  1.00  0.00     0.000 C 
BRANCH   4   5
ATOM      5  C   UNL     1      -2.180  -4.125 -11.236  1.00  0.00     0.000 C 
BRANCH   5   6
ATOM      6  C   UNL     1      -1.559  -5.218 -12.125  1.00  0.00     0.000 C 
BRANCH   6   7
ATOM      7  C   UNL     1      -2.087  -6.644 -11.880  1.00  0.00     0.000 C 
BRANCH   7   8
ATOM      8  C   UNL     1      -1.184  -7.470 -10.952  1.00  0.00     0.000 C 
BRANCH   8   9
ATOM      9  C   UNL     1       0.070  -7.960 -11.692  1.00  0.00     0.000 C 
BRANCH   9  10
ATOM     10  C   UNL     1       1.028  -8.739 -10.764  1.00  0.00     0.000 C 
BRANCH  10  11
ATOM     11  C   UNL     1       1.136 -10.237 -11.101  1.00  0.00     0.000 C 
BRANCH  11  12
ATOM     12  C   UNL     1      -0.228 -10.935 -11.172  1.00  0.00     0.000 C 
BRANCH  12  13
ATOM     13  C   UNL     1      -0.870 -11.034  -9.783  1.00  0.00     0.006 C 
BRANCH  13  14
ATOM     14  C   UNL     1      -1.906 -12.162  -9.734  1.00  0.00     0.053 C 
BRANCH  14  15
ATOM     15  C   UNL     1      -2.804 -12.099 -10.928  1.00  0.00     0.041 C 
ATOM     16  O   UNL     1      -2.479 -12.679 -11.997  1.00  0.00    -0.550 OA
ATOM     17  O   UNL     1      -4.024 -11.442 -10.845  1.00  0.00    -0.550 OA
ENDBRANCH  14  15
ENDBRANCH  13  14
ENDBRANCH  12  13
ENDBRANCH  11  12
ENDBRANCH  10  11
ENDBRANCH   9  10
ENDBRANCH   8   9
ENDBRANCH   7   8
ENDBRANCH   6   7
ENDBRANCH   5   6
ENDBRANCH   4   5
ENDBRANCH   3   4
ENDBRANCH   2   3
ENDBRANCH   1   2
BRANCH   1  18
ATOM     18  C   UNL     1      -6.347  -0.105 -10.452  1.00  0.00     0.000 C 
BRANCH  18  19
ATOM     19  C   UNL     1      -6.854   0.813 -11.579  1.00  0.00     0.000 C 
BRANCH  19  20
ATOM     20  C   UNL     1      -7.307   2.216 -11.137  1.00  0.00     0.000 C 
BRANCH  20  21
ATOM     21  C   UNL     1      -8.616   2.200 -10.328  1.00  0.00     0.000 C 
BRANCH  21  22
ATOM     22  C   UNL     1      -9.865   2.105 -11.222  1.00  0.00     0.000 C 
BRANCH  22  23
ATOM     23  C   UNL     1     -11.124   2.797 -10.662  1.00  0.00     0.000 C 
BRANCH  23  24
ATOM     24  C   UNL     1     -10.837   3.754  -9.486  1.00  0.00    -0.000 C 
BRANCH  24  25
ATOM     25  C   UNL     1     -10.091   3.060  -8.334  1.00  0.00    -0.000 C 
BRANCH  25  26
ATOM     26  C   UNL     1      -9.776   4.025  -7.171  1.00  0.00    -0.000 C 
BRANCH  26  27
ATOM     27  C   UNL     1      -9.005   5.286  -7.602  1.00  0.00    -0.000 C 
BRANCH  27  28
ATOM     28  C   UNL     1      -7.848   5.035  -8.588  1.00  0.00    -0.000 C 
BRANCH  28  29
ATOM     29  C   UNL     1      -7.434   6.255  -9.434  1.00  0.00    -0.000 C 
BRANCH  29  30
ATOM     30  C   UNL     1      -8.474   6.617 -10.508  1.00  0.00    -0.000 C 
BRANCH  30  31
ATOM     31  C   UNL     1      -7.961   6.358 -11.934  1.00  0.00    -0.003 C 
ATOM     32  C   UNL     1      -6.504   6.782 -12.125  1.00  0.00     0.004 C 
ENDBRANCH  30  31
ENDBRANCH  29  30
ENDBRANCH  28  29
ENDBRANCH  27  28
ENDBRANCH  26  27
ENDBRANCH  25  26
ENDBRANCH  24  25
ENDBRANCH  23  24
ENDBRANCH  22  23
ENDBRANCH  21  22
ENDBRANCH  20  21
ENDBRANCH  19  20
ENDBRANCH  18  19
ENDBRANCH   1  18
TORSDOF 28
ENDMDL
