MODEL 1
REMARK VINA RESULT:    -3.725      0.000      0.000
REMARK INTER + INTRA:          -7.476
REMARK INTER:                  -5.903
REMARK INTRA:                  -1.573
REMARK UNBOUND:                -1.573
REMARK SMILES CCCCCCCCCCCC(=O)[O-]
REMARK SMILES IDX 7 1 8 2 9 3 10 4 11 5 12 6 13 7 14 8 6 9 5 10 4 11 3 12 2 13
REMARK SMILES IDX 1 14
REMARK H PARENT
REMARK Flexibility Score: inf
ROOT
ATOM      1  C   UNL     1     -10.811 -35.176 -25.687  1.00  0.00     0.000 C 
ENDROOT
BRANCH   1   2
ATOM      2  C   UNL     1     -10.733 -36.702 -25.551  1.00  0.00     0.000 C 
BRANCH   2   3
ATOM      3  C   UNL     1     -10.002 -37.324 -26.751  1.00  0.00     0.000 C 
BRANCH   3   4
ATOM      4  C   UNL     1      -9.289 -36.273 -27.618  1.00  0.00     0.006 C 
BRANCH   4   5
ATOM      5  C   UNL     1      -9.090 -36.740 -29.066  1.00  0.00     0.053 C 
BRANCH   5   6
ATOM      6  C   UNL     1      -9.569 -35.693 -30.021  1.00  0.00     0.041 C 
ATOM      7  O   UNL     1      -9.593 -35.927 -31.259  1.00  0.00    -0.550 OA
ATOM      8  O   UNL     1      -9.943 -34.441 -29.550  1.00  0.00    -0.550 OA
ENDBRANCH   5   6
ENDBRANCH   4   5
ENDBRANCH   3   4
ENDBRANCH   2   3
ENDBRANCH   1   2
BRANCH   1   9
ATOM      9  C   UNL     1     -12.265 -34.693 -25.626  1.00  0.00     0.000 C 
BRANCH   9  10
ATOM     10  C   UNL     1     -12.628 -33.877 -26.874  1.00  0.00    -0.000 C 
BRANCH  10  11
ATOM     11  C   UNL     1     -13.802 -34.518 -27.629  1.00  0.00    -0.000 C 
BRANCH  11  12
ATOM     12  C   UNL     1     -13.376 -35.172 -28.956  1.00  0.00    -0.000 C 
BRANCH  12  13
ATOM     13  C   UNL     1     -12.942 -36.644 -28.841  1.00  0.00    -0.003 C 
ATOM     14  C   UNL     1     -13.748 -37.426 -27.805  1.00  0.00     0.004 C 
ENDBRANCH  12  13
ENDBRANCH  11  12
ENDBRANCH  10  11
ENDBRANCH   9  10
ENDBRANCH   1   9
TORSDOF 10
ENDMDL
MODEL 2
REMARK VINA RESULT:    -3.713      2.695      4.217
REMARK INTER + INTRA:          -7.457
REMARK INTER:                  -6.192
REMARK INTRA:                  -1.265
REMARK UNBOUND:                -1.573
REMARK SMILES CCCCCCCCCCCC(=O)[O-]
REMARK SMILES IDX 7 1 8 2 9 3 10 4 11 5 12 6 13 7 14 8 6 9 5 10 4 11 3 12 2 13
REMARK SMILES IDX 1 14
REMARK H PARENT
REMARK Flexibility Score: inf
ROOT
ATOM      1  C   UNL     1      -8.904 -35.639 -28.660  1.00  0.00     0.000 C 
ENDROOT
BRANCH   1   2
ATOM      2  C   UNL     1      -9.069 -37.160 -28.549  1.00  0.00     0.000 C 
BRANCH   2   3
ATOM      3  C   UNL     1      -9.264 -37.585 -27.085  1.00  0.00     0.000 C 
BRANCH   3   4
ATOM      4  C   UNL     1     -10.388 -36.803 -26.386  1.00  0.00     0.006 C 
BRANCH   4   5
ATOM      5  C   UNL     1     -10.763 -37.400 -25.024  1.00  0.00     0.053 C 
BRANCH   5   6
ATOM      6  C   UNL     1     -11.370 -36.351 -24.146  1.00  0.00     0.041 C 
ATOM      7  O   UNL     1     -12.273 -36.658 -23.322  1.00  0.00    -0.550 OA
ATOM      8  O   UNL     1     -10.974 -35.025 -24.270  1.00  0.00    -0.550 OA
ENDBRANCH   5   6
ENDBRANCH   4   5
ENDBRANCH   3   4
ENDBRANCH   2   3
ENDBRANCH   1   2
BRANCH   1   9
ATOM      9  C   UNL     1      -9.844 -35.060 -29.724  1.00  0.00     0.000 C 
BRANCH   9  10
ATOM     10  C   UNL     1     -11.072 -35.958 -29.921  1.00  0.00    -0.000 C 
BRANCH  10  11
ATOM     11  C   UNL     1     -12.344 -35.273 -29.400  1.00  0.00    -0.000 C 
BRANCH  11  12
ATOM     12  C   UNL     1     -12.046 -34.067 -28.491  1.00  0.00    -0.000 C 
BRANCH  12  13
ATOM     13  C   UNL     1     -12.861 -34.024 -27.187  1.00  0.00    -0.003 C 
ATOM     14  C   UNL     1     -13.694 -35.284 -26.960  1.00  0.00     0.004 C 
ENDBRANCH  12  13
ENDBRANCH  11  12
ENDBRANCH  10  11
ENDBRANCH   9  10
ENDBRANCH   1   9
TORSDOF 10
ENDMDL
MODEL 3
REMARK VINA RESULT:    -3.694     19.814     22.331
REMARK INTER + INTRA:          -7.426
REMARK INTER:                  -5.890
REMARK INTRA:                  -1.536
REMARK UNBOUND:                -1.573
REMARK SMILES CCCCCCCCCCCC(=O)[O-]
REMARK SMILES IDX 7 1 8 2 9 3 10 4 11 5 12 6 13 7 14 8 6 9 5 10 4 11 3 12 2 13
REMARK SMILES IDX 1 14
REMARK H PARENT
REMARK Flexibility Score: inf
ROOT
ATOM      1  C   UNL     1     -28.155 -22.479 -31.819  1.00  0.00     0.000 C 
ENDROOT
BRANCH   1   2
ATOM      2  C   UNL     1     -27.980 -21.286 -32.767  1.00  0.00     0.000 C 
BRANCH   2   3
ATOM      3  C   UNL     1     -28.036 -19.958 -31.996  1.00  0.00     0.000 C 
BRANCH   3   4
ATOM      4  C   UNL     1     -28.732 -20.095 -30.632  1.00  0.00     0.006 C 
BRANCH   4   5
ATOM      5  C   UNL     1     -28.301 -19.009 -29.638  1.00  0.00     0.053 C 
BRANCH   5   6
ATOM      6  C   UNL     1     -27.791 -19.631 -28.377  1.00  0.00     0.041 C 
ATOM      7  O   UNL     1     -28.072 -20.828 -28.101  1.00  0.00    -0.550 OA
ATOM      8  O   UNL     1     -27.046 -18.875 -27.480  1.00  0.00    -0.550 OA
ENDBRANCH   5   6
ENDBRANCH   4   5
ENDBRANCH   3   4
ENDBRANCH   2   3
ENDBRANCH   1   2
BRANCH   1   9
ATOM      9  C   UNL     1     -26.821 -23.201 -31.592  1.00  0.00     0.000 C 
BRANCH   9  10
ATOM     10  C   UNL     1     -26.189 -22.785 -30.257  1.00  0.00    -0.000 C 
BRANCH  10  11
ATOM     11  C   UNL     1     -24.692 -22.487 -30.427  1.00  0.00    -0.000 C 
BRANCH  11  12
ATOM     12  C   UNL     1     -24.424 -21.132 -31.108  1.00  0.00    -0.000 C 
BRANCH  12  13
ATOM     13  C   UNL     1     -24.563 -19.907 -30.187  1.00  0.00    -0.003 C 
ATOM     14  C   UNL     1     -24.833 -18.612 -30.952  1.00  0.00     0.004 C 
ENDBRANCH  12  13
ENDBRANCH  11  12
ENDBRANCH  10  11
ENDBRANCH   9  10
ENDBRANCH   1   9
TORSDOF 10
ENDMDL
MODEL 4
REMARK VINA RESULT:    -3.678     19.890     22.096
REMARK INTER + INTRA:          -7.402
REMARK INTER:                  -5.788
REMARK INTRA:                  -1.613
REMARK UNBOUND:                -1.573
REMARK SMILES CCCCCCCCCCCC(=O)[O-]
REMARK SMILES IDX 7 1 8 2 9 3 10 4 11 5 12 6 13 7 14 8 6 9 5 10 4 11 3 12 2 13
REMARK SMILES IDX 1 14
REMARK H PARENT
REMARK Flexibility Score: inf
ROOT
ATOM      1  C   UNL     1     -24.605 -20.879 -30.278  1.00  0.00     0.000 C 
ENDROOT
BRANCH   1   2
ATOM      2  C   UNL     1     -24.898 -20.209 -31.627  1.00  0.00     0.000 C 
BRANCH   2   3
ATOM      3  C   UNL     1     -26.250 -19.478 -31.594  1.00  0.00     0.000 C 
BRANCH   3   4
ATOM      4  C   UNL     1     -27.239 -20.017 -32.640  1.00  0.00     0.006 C 
BRANCH   4   5
ATOM      5  C   UNL     1     -28.401 -20.793 -32.008  1.00  0.00     0.053 C 
BRANCH   5   6
ATOM      6  C   UNL     1     -28.668 -22.049 -32.777  1.00  0.00     0.041 C 
ATOM      7  O   UNL     1     -28.976 -21.992 -33.997  1.00  0.00    -0.550 OA
ATOM      8  O   UNL     1     -28.626 -23.280 -32.135  1.00  0.00    -0.550 OA
ENDBRANCH   5   6
ENDBRANCH   4   5
ENDBRANCH   3   4
ENDBRANCH   2   3
ENDBRANCH   1   2
BRANCH   1   9
ATOM      9  C   UNL     1     -25.009 -22.358 -30.299  1.00  0.00     0.000 C 
BRANCH   9  10
ATOM     10  C   UNL     1     -26.303 -22.586 -29.505  1.00  0.00    -0.000 C 
BRANCH  10  11
ATOM     11  C   UNL     1     -26.487 -21.503 -28.432  1.00  0.00    -0.000 C 
BRANCH  11  12
ATOM     12  C   UNL     1     -27.893 -20.875 -28.451  1.00  0.00    -0.000 C 
BRANCH  12  13
ATOM     13  C   UNL     1     -27.922 -19.351 -28.240  1.00  0.00    -0.003 C 
ATOM     14  C   UNL     1     -26.556 -18.771 -27.875  1.00  0.00     0.004 C 
ENDBRANCH  12  13
ENDBRANCH  11  12
ENDBRANCH  10  11
ENDBRANCH   9  10
ENDBRANCH   1   9
TORSDOF 10
ENDMDL
MODEL 5
REMARK VINA RESULT:    -3.648      2.323      4.345
REMARK INTER + INTRA:          -7.353
REMARK INTER:                  -5.880
REMARK INTRA:                  -1.473
REMARK UNBOUND:                -1.573
REMARK SMILES CCCCCCCCCCCC(=O)[O-]
REMARK SMILES IDX 7 1 8 2 9 3 10 4 11 5 12 6 13 7 14 8 6 9 5 10 4 11 3 12 2 13
REMARK SMILES IDX 1 14
REMARK H PARENT
REMARK Flexibility Score: inf
ROOT
ATOM      1  C   UNL     1     -12.168 -34.927 -25.715  1.00  0.00     0.000 C 
ENDROOT
BRANCH   1   2
ATOM      2  C   UNL     1     -12.623 -33.941 -26.798  1.00  0.00     0.000 C 
BRANCH   2   3
ATOM      3  C   UNL     1     -13.662 -34.587 -27.728  1.00  0.00     0.000 C 
BRANCH   3   4
ATOM      4  C   UNL     1     -13.110 -34.852 -29.138  1.00  0.00     0.006 C 
BRANCH   4   5
ATOM      5  C   UNL     1     -13.263 -36.318 -29.565  1.00  0.00     0.053 C 
BRANCH   5   6
ATOM      6  C   UNL     1     -14.604 -36.539 -30.192  1.00  0.00     0.041 C 
ATOM      7  O   UNL     1     -15.071 -37.705 -30.294  1.00  0.00    -0.550 OA
ATOM      8  O   UNL     1     -15.316 -35.465 -30.709  1.00  0.00    -0.550 OA
ENDBRANCH   5   6
ENDBRANCH   4   5
ENDBRANCH   3   4
ENDBRANCH   2   3
ENDBRANCH   1   2
BRANCH   1   9
ATOM      9  C   UNL     1     -10.751 -35.439 -25.997  1.00  0.00     0.000 C 
BRANCH   9  10
ATOM     10  C   UNL     1     -10.788 -36.757 -26.782  1.00  0.00    -0.000 C 
BRANCH  10  11
ATOM     11  C   UNL     1      -9.647 -36.818 -27.808  1.00  0.00    -0.000 C 
BRANCH  11  12
ATOM     12  C   UNL     1      -9.047 -35.435 -28.120  1.00  0.00    -0.000 C 
BRANCH  12  13
ATOM     13  C   UNL     1      -9.354 -34.900 -29.530  1.00  0.00    -0.003 C 
ATOM     14  C   UNL     1      -9.631 -36.010 -30.543  1.00  0.00     0.004 C 
ENDBRANCH  12  13
ENDBRANCH  11  12
ENDBRANCH  10  11
ENDBRANCH   9  10
ENDBRANCH   1   9
TORSDOF 10
ENDMDL
MODEL 6
REMARK VINA RESULT:    -3.638     19.550     21.618
REMARK INTER + INTRA:          -7.339
REMARK INTER:                  -5.591
REMARK INTRA:                  -1.747
REMARK UNBOUND:                -1.573
REMARK SMILES CCCCCCCCCCCC(=O)[O-]
REMARK SMILES IDX 7 1 8 2 9 3 10 4 11 5 12 6 13 7 14 8 6 9 5 10 4 11 3 12 2 13
REMARK SMILES IDX 1 14
REMARK H PARENT
REMARK Flexibility Score: inf
ROOT
ATOM      1  C   UNL     1     -26.499 -21.548 -28.370  1.00  0.00     0.000 C 
ENDROOT
BRANCH   1   2
ATOM      2  C   UNL     1     -26.347 -22.545 -29.526  1.00  0.00     0.000 C 
BRANCH   2   3
ATOM      3  C   UNL     1     -24.924 -22.502 -30.104  1.00  0.00     0.000 C 
BRANCH   3   4
ATOM      4  C   UNL     1     -24.910 -22.483 -31.641  1.00  0.00     0.006 C 
BRANCH   4   5
ATOM      5  C   UNL     1     -26.277 -22.828 -32.247  1.00  0.00     0.053 C 
BRANCH   5   6
ATOM      6  C   UNL     1     -26.585 -21.914 -33.391  1.00  0.00     0.041 C 
ATOM      7  O   UNL     1     -27.735 -21.415 -33.512  1.00  0.00    -0.550 OA
ATOM      8  O   UNL     1     -25.616 -21.651 -34.352  1.00  0.00    -0.550 OA
ENDBRANCH   5   6
ENDBRANCH   4   5
ENDBRANCH   3   4
ENDBRANCH   2   3
ENDBRANCH   1   2
BRANCH   1   9
ATOM      9  C   UNL     1     -27.793 -20.737 -28.511  1.00  0.00     0.000 C 
BRANCH   9  10
ATOM     10  C   UNL     1     -28.426 -20.944 -29.893  1.00  0.00    -0.000 C 
BRANCH  10  11
ATOM     11  C   UNL     1     -28.626 -19.603 -30.613  1.00  0.00    -0.000 C 
BRANCH  11  12
ATOM     12  C   UNL     1     -27.469 -18.616 -30.374  1.00  0.00    -0.000 C 
BRANCH  12  13
ATOM     13  C   UNL     1     -26.217 -18.868 -31.232  1.00  0.00    -0.003 C 
ATOM     14  C   UNL     1     -24.917 -18.790 -30.432  1.00  0.00     0.004 C 
ENDBRANCH  12  13
ENDBRANCH  11  12
ENDBRANCH  10  11
ENDBRANCH   9  10
ENDBRANCH   1   9
TORSDOF 10
ENDMDL
MODEL 7
REMARK VINA RESULT:    -3.634     20.134     22.020
REMARK INTER + INTRA:          -7.332
REMARK INTER:                  -5.696
REMARK INTRA:                  -1.636
REMARK UNBOUND:                -1.573
REMARK SMILES CCCCCCCCCCCC(=O)[O-]
REMARK SMILES IDX 7 1 8 2 9 3 10 4 11 5 12 6 13 7 14 8 6 9 5 10 4 11 3 12 2 13
REMARK SMILES IDX 1 14
REMARK H PARENT
REMARK Flexibility Score: inf
ROOT
ATOM      1  C   UNL     1     -27.181 -22.007 -32.785  1.00  0.00     0.000 C 
ENDROOT
BRANCH   1   2
ATOM      2  C   UNL     1     -27.267 -23.123 -31.735  1.00  0.00     0.000 C 
BRANCH   2   3
ATOM      3  C   UNL     1     -26.273 -22.877 -30.590  1.00  0.00     0.000 C 
BRANCH   3   4
ATOM      4  C   UNL     1     -25.081 -22.005 -31.018  1.00  0.00     0.006 C 
BRANCH   4   5
ATOM      5  C   UNL     1     -24.617 -21.054 -29.907  1.00  0.00     0.053 C 
BRANCH   5   6
ATOM      6  C   UNL     1     -24.610 -19.641 -30.400  1.00  0.00     0.041 C 
ATOM      7  O   UNL     1     -24.636 -18.684 -29.582  1.00  0.00    -0.550 OA
ATOM      8  O   UNL     1     -24.623 -19.381 -31.765  1.00  0.00    -0.550 OA
ENDBRANCH   5   6
ENDBRANCH   4   5
ENDBRANCH   3   4
ENDBRANCH   2   3
ENDBRANCH   1   2
BRANCH   1   9
ATOM      9  C   UNL     1     -28.362 -21.037 -32.653  1.00  0.00     0.000 C 
BRANCH   9  10
ATOM     10  C   UNL     1     -27.878 -19.581 -32.634  1.00  0.00    -0.000 C 
BRANCH  10  11
ATOM     11  C   UNL     1     -28.319 -18.872 -31.345  1.00  0.00    -0.000 C 
BRANCH  11  12
ATOM     12  C   UNL     1     -28.551 -19.844 -30.175  1.00  0.00    -0.000 C 
BRANCH  12  13
ATOM     13  C   UNL     1     -27.977 -19.379 -28.825  1.00  0.00    -0.003 C 
ATOM     14  C   UNL     1     -27.594 -20.539 -27.907  1.00  0.00     0.004 C 
ENDBRANCH  12  13
ENDBRANCH  11  12
ENDBRANCH  10  11
ENDBRANCH   9  10
ENDBRANCH   1   9
TORSDOF 10
ENDMDL
MODEL 8
REMARK VINA RESULT:    -3.617      2.443      4.707
REMARK INTER + INTRA:          -7.304
REMARK INTER:                  -5.699
REMARK INTRA:                  -1.606
REMARK UNBOUND:                -1.573
REMARK SMILES CCCCCCCCCCCC(=O)[O-]
REMARK SMILES IDX 7 1 8 2 9 3 10 4 11 5 12 6 13 7 14 8 6 9 5 10 4 11 3 12 2 13
REMARK SMILES IDX 1 14
REMARK H PARENT
REMARK Flexibility Score: inf
ROOT
ATOM      1  C   UNL     1      -9.035 -35.243 -28.847  1.00  0.00     0.000 C 
ENDROOT
BRANCH   1   2
ATOM      2  C   UNL     1     -10.100 -34.784 -29.850  1.00  0.00     0.000 C 
BRANCH   2   3
ATOM      3  C   UNL     1     -11.352 -34.269 -29.125  1.00  0.00     0.000 C 
BRANCH   3   4
ATOM      4  C   UNL     1     -12.569 -35.189 -29.318  1.00  0.00     0.006 C 
BRANCH   4   5
ATOM      5  C   UNL     1     -13.780 -34.748 -28.486  1.00  0.00     0.053 C 
BRANCH   5   6
ATOM      6  C   UNL     1     -14.594 -35.936 -28.081  1.00  0.00     0.041 C 
ATOM      7  O   UNL     1     -14.639 -36.955 -28.820  1.00  0.00    -0.550 OA
ATOM      8  O   UNL     1     -15.343 -35.901 -26.912  1.00  0.00    -0.550 OA
ENDBRANCH   5   6
ENDBRANCH   4   5
ENDBRANCH   3   4
ENDBRANCH   2   3
ENDBRANCH   1   2
BRANCH   1   9
ATOM      9  C   UNL     1      -8.876 -36.768 -28.872  1.00  0.00     0.000 C 
BRANCH   9  10
ATOM     10  C   UNL     1      -9.236 -37.382 -27.512  1.00  0.00    -0.000 C 
BRANCH  10  11
ATOM     11  C   UNL     1     -10.725 -37.756 -27.455  1.00  0.00    -0.000 C 
BRANCH  11  12
ATOM     12  C   UNL     1     -11.456 -37.123 -26.257  1.00  0.00    -0.000 C 
BRANCH  12  13
ATOM     13  C   UNL     1     -10.821 -35.827 -25.723  1.00  0.00    -0.003 C 
ATOM     14  C   UNL     1     -11.852 -34.753 -25.381  1.00  0.00     0.004 C 
ENDBRANCH  12  13
ENDBRANCH  11  12
ENDBRANCH  10  11
ENDBRANCH   9  10
ENDBRANCH   1   9
TORSDOF 10
ENDMDL
MODEL 9
REMARK VINA RESULT:    -3.558     19.742     21.782
REMARK INTER + INTRA:          -7.211
REMARK INTER:                  -5.723
REMARK INTRA:                  -1.488
REMARK UNBOUND:                -1.573
REMARK SMILES CCCCCCCCCCCC(=O)[O-]
REMARK SMILES IDX 7 1 8 2 9 3 10 4 11 5 12 6 13 7 14 8 6 9 5 10 4 11 3 12 2 13
REMARK SMILES IDX 1 14
REMARK H PARENT
REMARK Flexibility Score: inf
ROOT
ATOM      1  C   UNL     1     -24.613 -20.906 -31.037  1.00  0.00     0.000 C 
ENDROOT
BRANCH   1   2
ATOM      2  C   UNL     1     -24.646 -22.234 -30.269  1.00  0.00     0.000 C 
BRANCH   2   3
ATOM      3  C   UNL     1     -26.087 -22.748 -30.125  1.00  0.00     0.000 C 
BRANCH   3   4
ATOM      4  C   UNL     1     -26.717 -23.128 -31.475  1.00  0.00     0.006 C 
BRANCH   4   5
ATOM      5  C   UNL     1     -28.032 -22.383 -31.742  1.00  0.00     0.053 C 
BRANCH   5   6
ATOM      6  C   UNL     1     -28.078 -21.900 -33.158  1.00  0.00     0.041 C 
ATOM      7  O   UNL     1     -29.125 -22.043 -33.843  1.00  0.00    -0.550 OA
ATOM      8  O   UNL     1     -26.949 -21.334 -33.736  1.00  0.00    -0.550 OA
ENDBRANCH   5   6
ENDBRANCH   4   5
ENDBRANCH   3   4
ENDBRANCH   2   3
ENDBRANCH   1   2
BRANCH   1   9
ATOM      9  C   UNL     1     -24.022 -19.786 -30.173  1.00  0.00     0.000 C 
BRANCH   9  10
ATOM     10  C   UNL     1     -25.009 -18.619 -30.033  1.00  0.00    -0.000 C 
BRANCH  10  11
ATOM     11  C   UNL     1     -26.362 -18.964 -30.673  1.00  0.00    -0.000 C 
BRANCH  11  12
ATOM     12  C   UNL     1     -27.552 -18.708 -29.731  1.00  0.00    -0.000 C 
BRANCH  12  13
ATOM     13  C   UNL     1     -28.021 -19.937 -28.933  1.00  0.00    -0.003 C 
ATOM     14  C   UNL     1     -27.243 -20.138 -27.633  1.00  0.00     0.004 C 
ENDBRANCH  12  13
ENDBRANCH  11  12
ENDBRANCH  10  11
ENDBRANCH   9  10
ENDBRANCH   1   9
TORSDOF 10
ENDMDL
