MODEL 1
REMARK VINA RESULT:    20.857      0.000      0.000
REMARK INTER + INTRA:          23.322
REMARK INTER:                  22.686
REMARK INTRA:                   0.635
REMARK UNBOUND:                 0.635
REMARK SMILES C[C@@H]1[C@@H](C)CC[C@@]2(C(=O)[O-])CC[C@@]3(C)C(=CC[C@@H]4[C@@]5(C)CC[C@H](O)C(C)(C)[C@H]5CC[C@@]43C)[C@@H]12
REMARK SMILES IDX 7 1 6 2 11 3 33 4 5 5 12 6 15 7 2 8 3 9 13 10 16 11 1 12
REMARK SMILES IDX 4 13 14 14 31 15 17 16 18 17 30 18 32 19 19 20 29 21 28 22
REMARK SMILES IDX 21 23 20 24 25 25 22 26 23 27 26 28 27 29 8 30 9 31 10 32
REMARK SMILES IDX 24 33
REMARK H PARENT 24 34
REMARK Flexibility Score: inf
ROOT
ATOM      1  C   UNL     1      23.673  38.328  28.129  1.00  0.00     0.017 C 
ATOM      2  C   UNL     1      23.938  39.794  28.628  1.00  0.00     0.014 C 
ATOM      3  C   UNL     1      22.762  38.387  26.876  1.00  0.00     0.014 C 
ATOM      4  C   UNL     1      25.026  37.588  27.840  1.00  0.00     0.030 C 
ATOM      5  C   UNL     1      24.896  39.874  29.829  1.00  0.00     0.004 C 
ATOM      6  C   UNL     1      23.472  38.932  25.644  1.00  0.00     0.013 C 
ATOM      7  C   UNL     1      25.606  37.687  26.411  1.00  0.00    -0.063 C 
ATOM      8  C   UNL     1      26.090  37.789  28.998  1.00  0.00    -0.003 C 
ATOM      9  C   UNL     1      26.246  39.247  29.509  1.00  0.00    -0.011 C 
ATOM     10  C   UNL     1      24.809  38.224  25.185  1.00  0.00    -0.006 C 
ATOM     11  C   UNL     1      26.663  36.890  26.144  1.00  0.00    -0.027 C 
ATOM     12  C   UNL     1      25.846  36.828  30.188  1.00  0.00     0.008 C 
ATOM     13  C   UNL     1      27.097  40.120  28.582  1.00  0.00     0.008 C 
ATOM     14  C   UNL     1      25.613  39.416  24.551  1.00  0.00     0.017 C 
ATOM     15  C   UNL     1      24.566  36.998  24.140  1.00  0.00    -0.020 C 
ATOM     16  C   UNL     1      27.074  36.533  24.750  1.00  0.00     0.032 C 
ATOM     17  C   UNL     1      25.835  36.019  23.954  1.00  0.00     0.006 C 
ATOM     18  C   UNL     1      24.085  37.510  22.739  1.00  0.00     0.008 C 
ATOM     19  C   UNL     1      23.409  36.150  24.740  1.00  0.00     0.012 C 
ATOM     20  C   UNL     1      26.211  35.556  22.463  1.00  0.00    -0.025 C 
ATOM     21  C   UNL     1      23.841  36.412  21.670  1.00  0.00     0.005 C 
ATOM     22  C   UNL     1      24.916  35.280  21.570  1.00  0.00     0.003 C 
ATOM     23  C   UNL     1      27.119  34.275  22.463  1.00  0.00     0.010 C 
ATOM     24  C   UNL     1      27.108  36.652  21.779  1.00  0.00     0.012 C 
ATOM     25  C   UNL     1      24.300  33.792  21.457  1.00  0.00    -0.006 C 
ATOM     26  C   UNL     1      26.381  32.961  22.669  1.00  0.00     0.033 C 
ATOM     27  C   UNL     1      25.414  32.699  21.503  1.00  0.00     0.120 C 
ATOM     28  C   UNL     1      23.256  33.411  22.551  1.00  0.00     0.014 C 
ATOM     29  C   UNL     1      23.529  33.656  20.106  1.00  0.00     0.014 C 
ENDROOT
BRANCH   1  30
ATOM     30  C   UNL     1      22.848  37.537  29.156  1.00  0.00     0.048 C 
ATOM     31  O   UNL     1      21.704  37.938  29.512  1.00  0.00    -0.550 OA
ATOM     32  O   UNL     1      23.295  36.304  29.595  1.00  0.00    -0.550 OA
ENDBRANCH   1  30
BRANCH  27  33
ATOM     33  O   UNL     1      26.088  32.561  20.258  1.00  0.00    -0.393 OA
ATOM     34  H   UNL     1      26.659  31.724  20.278  1.00  0.00     0.210 HD
ENDBRANCH  27  33
TORSDOF 2
ENDMDL
