MODEL 1
REMARK VINA RESULT:    13.633      0.000      0.000
REMARK INTER + INTRA:          19.161
REMARK INTER:                  18.813
REMARK INTRA:                   0.348
REMARK UNBOUND:                 0.348
REMARK SMILES CC[C@@H](CC[C@@H](C)[C@@H]1CC[C@@H]2[C@H]3CC=C4C[C@@H](O)CC[C@]4(C)[C@H]3CC[C@]21C)C(C)C
REMARK SMILES IDX 5 1 4 2 3 3 2 4 1 5 28 6 29 7 30 8 6 9 7 10 8 11 9 12 26 13
REMARK SMILES IDX 10 14 11 15 25 16 27 17 12 18 24 19 23 20 13 21 21 22 14 23
REMARK SMILES IDX 15 24 20 25 22 26 16 27 19 28 17 29 18 30
REMARK H PARENT 18 31
REMARK Flexibility Score: inf
ROOT
ATOM      1  C   UNL     1     -26.755 -23.598 -13.707  1.00  0.00     0.004 C 
ENDROOT
BRANCH   1   2
ATOM      2  C   UNL     1     -25.687 -23.568 -14.822  1.00  0.00     0.004 C 
BRANCH   2   3
ATOM      3  C   UNL     1     -24.284 -24.104 -14.414  1.00  0.00    -0.009 C 
BRANCH   3   4
ATOM      4  C   UNL     1     -23.277 -22.947 -14.172  1.00  0.00     0.000 C 
ATOM      5  C   UNL     1     -22.343 -23.194 -12.988  1.00  0.00     0.004 C 
ENDBRANCH   3   4
BRANCH   3   6
ATOM      6  C   UNL     1     -23.725 -25.276 -15.293  1.00  0.00    -0.014 C 
ATOM      7  C   UNL     1     -23.109 -26.400 -14.442  1.00  0.00     0.007 C 
ATOM      8  C   UNL     1     -24.710 -25.849 -16.343  1.00  0.00     0.007 C 
ENDBRANCH   3   6
ENDBRANCH   2   3
ENDBRANCH   1   2
BRANCH   1   9
ATOM      9  C   UNL     1     -26.624 -22.469 -12.648  1.00  0.00    -0.011 C 
ATOM     10  C   UNL     1     -27.133 -22.962 -11.277  1.00  0.00     0.008 C 
BRANCH   9  11
ATOM     11  C   UNL     1     -25.186 -21.850 -12.532  1.00  0.00    -0.002 C 
ATOM     12  C   UNL     1     -24.581 -22.049 -11.116  1.00  0.00     0.005 C 
ATOM     13  C   UNL     1     -25.014 -20.318 -12.791  1.00  0.00    -0.026 C 
ATOM     14  C   UNL     1     -23.672 -20.848 -10.835  1.00  0.00     0.005 C 
ATOM     15  C   UNL     1     -23.639 -20.081 -12.150  1.00  0.00    -0.001 C 
ATOM     16  C   UNL     1     -24.917 -19.907 -14.291  1.00  0.00     0.007 C 
ATOM     17  C   UNL     1     -26.151 -19.519 -12.073  1.00  0.00     0.012 C 
ATOM     18  C   UNL     1     -23.209 -18.587 -12.100  1.00  0.00     0.000 C 
ATOM     19  C   UNL     1     -23.827 -18.843 -14.597  1.00  0.00     0.005 C 
ATOM     20  C   UNL     1     -23.596 -17.827 -13.430  1.00  0.00     0.003 C 
ATOM     21  C   UNL     1     -21.703 -18.496 -11.736  1.00  0.00     0.031 C 
ATOM     22  C   UNL     1     -22.609 -16.643 -13.792  1.00  0.00    -0.008 C 
ATOM     23  C   UNL     1     -20.803 -18.074 -12.859  1.00  0.00    -0.027 C 
ATOM     24  C   UNL     1     -21.162 -17.099 -13.712  1.00  0.00    -0.065 C 
ATOM     25  C   UNL     1     -22.759 -15.463 -12.783  1.00  0.00     0.014 C 
ATOM     26  C   UNL     1     -22.931 -16.111 -15.220  1.00  0.00     0.016 C 
ATOM     27  C   UNL     1     -20.116 -16.066 -14.057  1.00  0.00     0.063 C 
ATOM     28  C   UNL     1     -21.678 -14.361 -12.954  1.00  0.00     0.033 C 
ATOM     29  C   UNL     1     -20.237 -14.920 -13.032  1.00  0.00     0.118 C 
BRANCH  29  30
ATOM     30  O   UNL     1     -19.359 -13.879 -13.373  1.00  0.00    -0.393 OA
ATOM     31  H   UNL     1     -18.589 -14.298 -13.842  1.00  0.00     0.210 HD
ENDBRANCH  29  30
ENDBRANCH   9  11
ENDBRANCH   1   9
TORSDOF 7
ENDMDL
MODEL 2
REMARK VINA RESULT:    14.572      2.917      7.840
REMARK INTER + INTRA:          20.458
REMARK INTER:                  19.736
REMARK INTRA:                   0.722
REMARK UNBOUND:                 0.348
REMARK SMILES CC[C@@H](CC[C@@H](C)[C@@H]1CC[C@@H]2[C@H]3CC=C4C[C@@H](O)CC[C@]4(C)[C@H]3CC[C@]21C)C(C)C
REMARK SMILES IDX 5 1 4 2 3 3 2 4 1 5 28 6 29 7 30 8 6 9 7 10 8 11 9 12 26 13
REMARK SMILES IDX 10 14 11 15 25 16 27 17 12 18 24 19 23 20 13 21 21 22 14 23
REMARK SMILES IDX 15 24 20 25 22 26 16 27 19 28 17 29 18 30
REMARK H PARENT 18 31
REMARK Flexibility Score: inf
ROOT
ATOM      1  C   UNL     1     -21.813 -14.271 -14.381  1.00  0.00     0.004 C 
ENDROOT
BRANCH   1   2
ATOM      2  C   UNL     1     -23.301 -13.875 -14.503  1.00  0.00     0.004 C 
BRANCH   2   3
ATOM      3  C   UNL     1     -24.117 -14.678 -15.558  1.00  0.00    -0.009 C 
BRANCH   3   4
ATOM      4  C   UNL     1     -23.993 -14.053 -16.974  1.00  0.00     0.000 C 
ATOM      5  C   UNL     1     -23.789 -15.090 -18.079  1.00  0.00     0.004 C 
ENDBRANCH   3   4
BRANCH   3   6
ATOM      6  C   UNL     1     -25.583 -15.049 -15.140  1.00  0.00    -0.014 C 
ATOM      7  C   UNL     1     -25.666 -16.439 -14.486  1.00  0.00     0.007 C 
ATOM      8  C   UNL     1     -26.321 -13.988 -14.288  1.00  0.00     0.007 C 
ENDBRANCH   3   6
ENDBRANCH   2   3
ENDBRANCH   1   2
BRANCH   1   9
ATOM      9  C   UNL     1     -21.345 -14.606 -12.938  1.00  0.00    -0.011 C 
ATOM     10  C   UNL     1     -22.361 -14.067 -11.909  1.00  0.00     0.008 C 
BRANCH   9  11
ATOM     11  C   UNL     1     -21.035 -16.125 -12.690  1.00  0.00    -0.002 C 
ATOM     12  C   UNL     1     -19.677 -16.548 -13.310  1.00  0.00     0.005 C 
ATOM     13  C   UNL     1     -22.038 -17.187 -13.247  1.00  0.00    -0.026 C 
ATOM     14  C   UNL     1     -19.805 -18.016 -13.733  1.00  0.00     0.005 C 
ATOM     15  C   UNL     1     -21.163 -18.448 -13.196  1.00  0.00    -0.001 C 
ATOM     16  C   UNL     1     -23.293 -17.443 -12.358  1.00  0.00     0.007 C 
ATOM     17  C   UNL     1     -22.463 -16.816 -14.705  1.00  0.00     0.012 C 
ATOM     18  C   UNL     1     -21.821 -19.705 -13.832  1.00  0.00     0.000 C 
ATOM     19  C   UNL     1     -23.680 -18.939 -12.208  1.00  0.00     0.005 C 
ATOM     20  C   UNL     1     -23.356 -19.801 -13.473  1.00  0.00     0.003 C 
ATOM     21  C   UNL     1     -21.003 -20.966 -13.447  1.00  0.00     0.031 C 
ATOM     22  C   UNL     1     -23.897 -21.288 -13.395  1.00  0.00    -0.008 C 
ATOM     23  C   UNL     1     -21.669 -21.880 -12.462  1.00  0.00    -0.027 C 
ATOM     24  C   UNL     1     -22.983 -22.153 -12.543  1.00  0.00    -0.065 C 
ATOM     25  C   UNL     1     -23.935 -21.943 -14.810  1.00  0.00     0.014 C 
ATOM     26  C   UNL     1     -25.341 -21.291 -12.814  1.00  0.00     0.016 C 
ATOM     27  C   UNL     1     -23.399 -23.595 -12.370  1.00  0.00     0.063 C 
ATOM     28  C   UNL     1     -24.254 -23.462 -14.782  1.00  0.00     0.033 C 
ATOM     29  C   UNL     1     -23.394 -24.252 -13.765  1.00  0.00     0.118 C 
BRANCH  29  30
ATOM     30  O   UNL     1     -23.880 -25.566 -13.675  1.00  0.00    -0.393 OA
ATOM     31  H   UNL     1     -24.593 -25.559 -12.983  1.00  0.00     0.210 HD
ENDBRANCH  29  30
ENDBRANCH   9  11
ENDBRANCH   1   9
TORSDOF 7
ENDMDL
MODEL 3
REMARK VINA RESULT:    15.651      3.228      8.119
REMARK INTER + INTRA:          21.947
REMARK INTER:                  21.170
REMARK INTRA:                   0.777
REMARK UNBOUND:                 0.348
REMARK SMILES CC[C@@H](CC[C@@H](C)[C@@H]1CC[C@@H]2[C@H]3CC=C4C[C@@H](O)CC[C@]4(C)[C@H]3CC[C@]21C)C(C)C
REMARK SMILES IDX 5 1 4 2 3 3 2 4 1 5 28 6 29 7 30 8 6 9 7 10 8 11 9 12 26 13
REMARK SMILES IDX 10 14 11 15 25 16 27 17 12 18 24 19 23 20 13 21 21 22 14 23
REMARK SMILES IDX 15 24 20 25 22 26 16 27 19 28 17 29 18 30
REMARK H PARENT 18 31
REMARK Flexibility Score: inf
ROOT
ATOM      1  C   UNL     1     -20.590 -15.795 -13.755  1.00  0.00     0.004 C 
ENDROOT
BRANCH   1   2
ATOM      2  C   UNL     1     -21.149 -14.983 -14.944  1.00  0.00     0.004 C 
BRANCH   2   3
ATOM      3  C   UNL     1     -22.455 -14.189 -14.652  1.00  0.00    -0.009 C 
BRANCH   3   4
ATOM      4  C   UNL     1     -22.607 -13.875 -13.139  1.00  0.00     0.000 C 
ATOM      5  C   UNL     1     -21.278 -13.875 -12.383  1.00  0.00     0.004 C 
ENDBRANCH   3   4
BRANCH   3   6
ATOM      6  C   UNL     1     -23.753 -14.749 -15.331  1.00  0.00    -0.014 C 
ATOM      7  C   UNL     1     -23.557 -15.010 -16.835  1.00  0.00     0.007 C 
ATOM      8  C   UNL     1     -24.395 -15.973 -14.633  1.00  0.00     0.007 C 
ENDBRANCH   3   6
ENDBRANCH   2   3
ENDBRANCH   1   2
BRANCH   1   9
ATOM      9  C   UNL     1     -20.937 -17.310 -13.781  1.00  0.00    -0.011 C 
ATOM     10  C   UNL     1     -19.723 -18.142 -13.315  1.00  0.00     0.008 C 
BRANCH   9  11
ATOM     11  C   UNL     1     -22.231 -17.695 -12.981  1.00  0.00    -0.002 C 
ATOM     12  C   UNL     1     -22.097 -17.373 -11.469  1.00  0.00     0.005 C 
ATOM     13  C   UNL     1     -22.697 -19.187 -12.997  1.00  0.00    -0.026 C 
ATOM     14  C   UNL     1     -22.926 -18.411 -10.705  1.00  0.00     0.005 C 
ATOM     15  C   UNL     1     -23.650 -19.193 -11.793  1.00  0.00    -0.001 C 
ATOM     16  C   UNL     1     -23.516 -19.612 -14.253  1.00  0.00     0.007 C 
ATOM     17  C   UNL     1     -21.472 -20.137 -12.792  1.00  0.00     0.012 C 
ATOM     18  C   UNL     1     -24.198 -20.600 -11.422  1.00  0.00     0.000 C 
ATOM     19  C   UNL     1     -24.753 -20.499 -13.945  1.00  0.00     0.005 C 
ATOM     20  C   UNL     1     -24.558 -21.441 -12.710  1.00  0.00     0.003 C 
ATOM     21  C   UNL     1     -25.373 -20.449 -10.420  1.00  0.00     0.031 C 
ATOM     22  C   UNL     1     -25.744 -22.465 -12.487  1.00  0.00    -0.008 C 
ATOM     23  C   UNL     1     -26.730 -20.750 -10.981  1.00  0.00    -0.027 C 
ATOM     24  C   UNL     1     -26.926 -21.788 -11.813  1.00  0.00    -0.065 C 
ATOM     25  C   UNL     1     -25.306 -23.632 -11.549  1.00  0.00     0.014 C 
ATOM     26  C   UNL     1     -26.177 -23.072 -13.855  1.00  0.00     0.016 C 
ATOM     27  C   UNL     1     -28.138 -22.653 -11.561  1.00  0.00     0.063 C 
ATOM     28  C   UNL     1     -26.478 -24.556 -11.121  1.00  0.00     0.033 C 
ATOM     29  C   UNL     1     -27.713 -23.782 -10.598  1.00  0.00     0.118 C 
BRANCH  29  30
ATOM     30  O   UNL     1     -28.776 -24.680 -10.418  1.00  0.00    -0.393 OA
ATOM     31  H   UNL     1     -29.612 -24.170 -10.587  1.00  0.00     0.210 HD
ENDBRANCH  29  30
ENDBRANCH   9  11
ENDBRANCH   1   9
TORSDOF 7
ENDMDL
MODEL 4
REMARK VINA RESULT:    15.922      2.817      5.292
REMARK INTER + INTRA:          22.320
REMARK INTER:                  21.596
REMARK INTRA:                   0.724
REMARK UNBOUND:                 0.348
REMARK SMILES CC[C@@H](CC[C@@H](C)[C@@H]1CC[C@@H]2[C@H]3CC=C4C[C@@H](O)CC[C@]4(C)[C@H]3CC[C@]21C)C(C)C
REMARK SMILES IDX 5 1 4 2 3 3 2 4 1 5 28 6 29 7 30 8 6 9 7 10 8 11 9 12 26 13
REMARK SMILES IDX 10 14 11 15 25 16 27 17 12 18 24 19 23 20 13 21 21 22 14 23
REMARK SMILES IDX 15 24 20 25 22 26 16 27 19 28 17 29 18 30
REMARK H PARENT 18 31
REMARK Flexibility Score: inf
ROOT
ATOM      1  C   UNL     1     -27.591 -24.313  -9.894  1.00  0.00     0.004 C 
ENDROOT
BRANCH   1   2
ATOM      2  C   UNL     1     -28.948 -24.217  -9.164  1.00  0.00     0.004 C 
BRANCH   2   3
ATOM      3  C   UNL     1     -29.124 -25.187  -7.960  1.00  0.00    -0.009 C 
BRANCH   3   4
ATOM      4  C   UNL     1     -28.997 -24.443  -6.602  1.00  0.00     0.000 C 
ATOM      5  C   UNL     1     -29.109 -25.370  -5.391  1.00  0.00     0.004 C 
ENDBRANCH   3   4
BRANCH   3   6
ATOM      6  C   UNL     1     -28.311 -26.525  -8.044  1.00  0.00    -0.014 C 
ATOM      7  C   UNL     1     -27.796 -26.980  -6.667  1.00  0.00     0.007 C 
ATOM      8  C   UNL     1     -29.016 -27.687  -8.785  1.00  0.00     0.007 C 
ENDBRANCH   3   6
ENDBRANCH   2   3
ENDBRANCH   1   2
BRANCH   1   9
ATOM      9  C   UNL     1     -27.691 -24.529 -11.429  1.00  0.00    -0.011 C 
ATOM     10  C   UNL     1     -29.125 -24.947 -11.817  1.00  0.00     0.008 C 
BRANCH   9  11
ATOM     11  C   UNL     1     -27.200 -23.313 -12.291  1.00  0.00    -0.002 C 
ATOM     12  C   UNL     1     -27.018 -23.696 -13.784  1.00  0.00     0.005 C 
ATOM     13  C   UNL     1     -25.838 -22.640 -11.918  1.00  0.00    -0.026 C 
ATOM     14  C   UNL     1     -25.877 -22.837 -14.341  1.00  0.00     0.005 C 
ATOM     15  C   UNL     1     -25.546 -21.868 -13.213  1.00  0.00    -0.001 C 
ATOM     16  C   UNL     1     -25.907 -21.607 -10.754  1.00  0.00     0.007 C 
ATOM     17  C   UNL     1     -24.760 -23.733 -11.621  1.00  0.00     0.012 C 
ATOM     18  C   UNL     1     -24.153 -21.179 -13.244  1.00  0.00     0.000 C 
ATOM     19  C   UNL     1     -25.090 -20.309 -10.997  1.00  0.00     0.005 C 
ATOM     20  C   UNL     1     -23.795 -20.532 -11.848  1.00  0.00     0.003 C 
ATOM     21  C   UNL     1     -24.095 -20.185 -14.433  1.00  0.00     0.031 C 
ATOM     22  C   UNL     1     -22.870 -19.252 -11.961  1.00  0.00    -0.008 C 
ATOM     23  C   UNL     1     -24.114 -18.735 -14.051  1.00  0.00    -0.027 C 
ATOM     24  C   UNL     1     -23.412 -18.282 -12.998  1.00  0.00    -0.065 C 
ATOM     25  C   UNL     1     -21.433 -19.642 -12.425  1.00  0.00     0.014 C 
ATOM     26  C   UNL     1     -22.765 -18.556 -10.572  1.00  0.00     0.016 C 
ATOM     27  C   UNL     1     -22.630 -17.004 -13.190  1.00  0.00     0.063 C 
ATOM     28  C   UNL     1     -20.537 -18.418 -12.759  1.00  0.00     0.033 C 
ATOM     29  C   UNL     1     -21.223 -17.389 -13.690  1.00  0.00     0.118 C 
BRANCH  29  30
ATOM     30  O   UNL     1     -20.418 -16.242 -13.780  1.00  0.00    -0.393 OA
ATOM     31  H   UNL     1     -20.137 -16.165 -14.729  1.00  0.00     0.210 HD
ENDBRANCH  29  30
ENDBRANCH   9  11
ENDBRANCH   1   9
TORSDOF 7
ENDMDL
MODEL 5
REMARK VINA RESULT:    16.271      3.059      7.958
REMARK INTER + INTRA:          22.801
REMARK INTER:                  23.973
REMARK INTRA:                  -1.171
REMARK UNBOUND:                 0.348
REMARK SMILES CC[C@@H](CC[C@@H](C)[C@@H]1CC[C@@H]2[C@H]3CC=C4C[C@@H](O)CC[C@]4(C)[C@H]3CC[C@]21C)C(C)C
REMARK SMILES IDX 5 1 4 2 3 3 2 4 1 5 28 6 29 7 30 8 6 9 7 10 8 11 9 12 26 13
REMARK SMILES IDX 10 14 11 15 25 16 27 17 12 18 24 19 23 20 13 21 21 22 14 23
REMARK SMILES IDX 15 24 20 25 22 26 16 27 19 28 17 29 18 30
REMARK H PARENT 18 31
REMARK Flexibility Score: inf
ROOT
ATOM      1  C   UNL     1     -21.336 -14.561 -14.723  1.00  0.00     0.004 C 
ENDROOT
BRANCH   1   2
ATOM      2  C   UNL     1     -22.820 -14.134 -14.747  1.00  0.00     0.004 C 
BRANCH   2   3
ATOM      3  C   UNL     1     -23.753 -15.021 -15.623  1.00  0.00    -0.009 C 
BRANCH   3   4
ATOM      4  C   UNL     1     -23.471 -14.826 -17.137  1.00  0.00     0.000 C 
ATOM      5  C   UNL     1     -24.574 -15.388 -18.036  1.00  0.00     0.004 C 
ENDBRANCH   3   4
BRANCH   3   6
ATOM      6  C   UNL     1     -25.273 -14.990 -15.237  1.00  0.00    -0.014 C 
ATOM      7  C   UNL     1     -25.781 -16.364 -14.767  1.00  0.00     0.007 C 
ATOM      8  C   UNL     1     -25.686 -13.875 -14.246  1.00  0.00     0.007 C 
ENDBRANCH   3   6
ENDBRANCH   2   3
ENDBRANCH   1   2
BRANCH   1   9
ATOM      9  C   UNL     1     -21.086 -16.023 -14.261  1.00  0.00    -0.011 C 
ATOM     10  C   UNL     1     -19.704 -16.140 -13.585  1.00  0.00     0.008 C 
BRANCH   9  11
ATOM     11  C   UNL     1     -22.217 -16.620 -13.350  1.00  0.00    -0.002 C 
ATOM     12  C   UNL     1     -21.950 -16.353 -11.845  1.00  0.00     0.005 C 
ATOM     13  C   UNL     1     -22.480 -18.160 -13.407  1.00  0.00    -0.026 C 
ATOM     14  C   UNL     1     -22.540 -17.530 -11.060  1.00  0.00     0.005 C 
ATOM     15  C   UNL     1     -23.277 -18.354 -12.109  1.00  0.00    -0.001 C 
ATOM     16  C   UNL     1     -23.376 -18.635 -14.590  1.00  0.00     0.007 C 
ATOM     17  C   UNL     1     -21.125 -18.940 -13.396  1.00  0.00     0.012 C 
ATOM     18  C   UNL     1     -23.587 -19.838 -11.767  1.00  0.00     0.000 C 
ATOM     19  C   UNL     1     -24.441 -19.699 -14.203  1.00  0.00     0.005 C 
ATOM     20  C   UNL     1     -23.980 -20.660 -13.058  1.00  0.00     0.003 C 
ATOM     21  C   UNL     1     -24.647 -19.897 -10.635  1.00  0.00     0.031 C 
ATOM     22  C   UNL     1     -24.987 -21.848 -12.770  1.00  0.00    -0.008 C 
ATOM     23  C   UNL     1     -26.009 -20.357 -11.063  1.00  0.00    -0.027 C 
ATOM     24  C   UNL     1     -26.161 -21.373 -11.931  1.00  0.00    -0.065 C 
ATOM     25  C   UNL     1     -24.292 -22.985 -11.959  1.00  0.00     0.014 C 
ATOM     26  C   UNL     1     -25.492 -22.445 -14.117  1.00  0.00     0.016 C 
ATOM     27  C   UNL     1     -27.210 -22.408 -11.602  1.00  0.00     0.063 C 
ATOM     28  C   UNL     1     -25.274 -24.081 -11.463  1.00  0.00     0.033 C 
ATOM     29  C   UNL     1     -26.531 -23.510 -10.762  1.00  0.00     0.118 C 
BRANCH  29  30
ATOM     30  O   UNL     1     -27.437 -24.554 -10.523  1.00  0.00    -0.393 OA
ATOM     31  H   UNL     1     -26.904 -25.392 -10.489  1.00  0.00     0.210 HD
ENDBRANCH  29  30
ENDBRANCH   9  11
ENDBRANCH   1   9
TORSDOF 7
ENDMDL
