MODEL 1
REMARK VINA RESULT:    -7.812      0.000      0.000
REMARK INTER + INTRA:          -9.505
REMARK INTER:                  -9.410
REMARK INTRA:                  -0.094
REMARK UNBOUND:                -0.094
REMARK SMILES O=c1c(O)c(-c2ccc(O)cc2O)oc2cc(O)cc(O)c12
REMARK SMILES IDX 5 1 3 2 2 3 1 4 22 5 20 6 19 7 17 8 16 9 15 10 14 11 6 12
REMARK SMILES IDX 8 13 7 14 9 15 11 16 12 17 10 18 13 20 4 22 21 24 18 26
REMARK H PARENT 10 19 13 21 4 23 21 25 18 27
REMARK Flexibility Score: inf
ROOT
ATOM      1  C   UNL     1      29.178  23.289  48.913  1.00  0.00     0.184 A 
ATOM      2  C   UNL     1      30.485  22.778  49.010  1.00  0.00     0.208 A 
ATOM      3  C   UNL     1      30.942  22.316  50.253  1.00  0.00     0.238 A 
ATOM      4  O   UNL     1      32.109  21.846  50.350  1.00  0.00    -0.285 OA
ATOM      5  C   UNL     1      30.094  22.389  51.377  1.00  0.00     0.111 A 
ATOM      6  C   UNL     1      30.479  21.947  52.667  1.00  0.00     0.134 A 
ATOM      7  C   UNL     1      29.580  22.062  53.738  1.00  0.00     0.093 A 
ATOM      8  C   UNL     1      28.310  22.609  53.546  1.00  0.00     0.123 A 
ATOM      9  C   UNL     1      27.923  23.047  52.275  1.00  0.00     0.094 A 
ATOM     10  C   UNL     1      28.804  22.939  51.195  1.00  0.00     0.146 A 
ATOM     11  O   UNL     1      28.411  23.358  49.997  1.00  0.00    -0.451 OA
ENDROOT
BRANCH   1  12
ATOM     12  C   UNL     1      28.630  23.782  47.633  1.00  0.00     0.063 A 
ATOM     13  C   UNL     1      28.936  25.102  45.615  1.00  0.00     0.047 A 
ATOM     14  C   UNL     1      29.424  24.614  46.828  1.00  0.00     0.020 A 
ATOM     15  C   UNL     1      27.641  24.775  45.196  1.00  0.00     0.119 A 
ATOM     16  C   UNL     1      26.833  23.967  46.001  1.00  0.00     0.093 A 
ATOM     17  C   UNL     1      27.315  23.477  47.225  1.00  0.00     0.130 A 
BRANCH  15  18
ATOM     18  O   UNL     1      27.144  25.253  43.985  1.00  0.00    -0.508 OA
ATOM     19  H   UNL     1      27.684  25.192  43.130  1.00  0.00     0.293 HD
ENDBRANCH  15  18
BRANCH  17  20
ATOM     20  O   UNL     1      26.482  22.712  48.042  1.00  0.00    -0.507 OA
ATOM     21  H   UNL     1      26.852  22.000  48.661  1.00  0.00     0.293 HD
ENDBRANCH  17  20
ENDBRANCH   1  12
BRANCH   2  22
ATOM     22  O   UNL     1      31.317  22.761  47.886  1.00  0.00    -0.502 OA
ATOM     23  H   UNL     1      32.305  22.549  47.948  1.00  0.00     0.293 HD
ENDBRANCH   2  22
BRANCH   6  24
ATOM     24  O   UNL     1      31.741  21.398  52.891  1.00  0.00    -0.507 OA
ATOM     25  H   UNL     1      32.436  21.870  53.459  1.00  0.00     0.293 HD
ENDBRANCH   6  24
BRANCH   8  26
ATOM     26  O   UNL     1      27.437  22.712  54.627  1.00  0.00    -0.508 OA
ATOM     27  H   UNL     1      27.747  23.053  55.530  1.00  0.00     0.293 HD
ENDBRANCH   8  26
TORSDOF 6
ENDMDL
MODEL 2
REMARK VINA RESULT:    -6.961     12.610     14.002
REMARK INTER + INTRA:          -8.480
REMARK INTER:                  -8.145
REMARK INTRA:                  -0.335
REMARK UNBOUND:                -0.094
REMARK SMILES O=c1c(O)c(-c2ccc(O)cc2O)oc2cc(O)cc(O)c12
REMARK SMILES IDX 5 1 3 2 2 3 1 4 22 5 20 6 19 7 17 8 16 9 15 10 14 11 6 12
REMARK SMILES IDX 8 13 7 14 9 15 11 16 12 17 10 18 13 20 4 22 21 24 18 26
REMARK H PARENT 10 19 13 21 4 23 21 25 18 27
REMARK Flexibility Score: inf
ROOT
ATOM      1  C   UNL     1      18.686  25.265  40.724  1.00  0.00     0.184 A 
ATOM      2  C   UNL     1      19.699  26.223  40.918  1.00  0.00     0.208 A 
ATOM      3  C   UNL     1      19.712  26.961  42.111  1.00  0.00     0.238 A 
ATOM      4  O   UNL     1      20.621  27.815  42.302  1.00  0.00    -0.285 OA
ATOM      5  C   UNL     1      18.707  26.745  43.076  1.00  0.00     0.111 A 
ATOM      6  C   UNL     1      18.647  27.450  44.303  1.00  0.00     0.134 A 
ATOM      7  C   UNL     1      17.609  27.182  45.208  1.00  0.00     0.093 A 
ATOM      8  C   UNL     1      16.633  26.229  44.911  1.00  0.00     0.123 A 
ATOM      9  C   UNL     1      16.686  25.529  43.701  1.00  0.00     0.094 A 
ATOM     10  C   UNL     1      17.714  25.780  42.787  1.00  0.00     0.146 A 
ATOM     11  O   UNL     1      17.745  25.098  41.647  1.00  0.00    -0.451 OA
ENDROOT
BRANCH   1  12
ATOM     12  C   UNL     1      18.620  24.445  39.496  1.00  0.00     0.063 A 
ATOM     13  C   UNL     1      19.676  22.831  38.018  1.00  0.00     0.047 A 
ATOM     14  C   UNL     1      19.704  23.615  39.173  1.00  0.00     0.020 A 
ATOM     15  C   UNL     1      18.568  22.877  37.163  1.00  0.00     0.119 A 
ATOM     16  C   UNL     1      17.494  23.719  37.465  1.00  0.00     0.093 A 
ATOM     17  C   UNL     1      17.517  24.514  38.621  1.00  0.00     0.130 A 
BRANCH  15  18
ATOM     18  O   UNL     1      18.528  22.096  36.010  1.00  0.00    -0.508 OA
ATOM     19  H   UNL     1      17.737  22.127  35.377  1.00  0.00     0.293 HD
ENDBRANCH  15  18
BRANCH  17  20
ATOM     20  O   UNL     1      16.460  25.385  38.884  1.00  0.00    -0.507 OA
ATOM     21  H   UNL     1      15.527  25.213  38.528  1.00  0.00     0.293 HD
ENDBRANCH  17  20
ENDBRANCH   1  12
BRANCH   2  22
ATOM     22  O   UNL     1      20.654  26.446  39.923  1.00  0.00    -0.502 OA
ATOM     23  H   UNL     1      20.565  27.193  39.245  1.00  0.00     0.293 HD
ENDBRANCH   2  22
BRANCH   6  24
ATOM     24  O   UNL     1      19.606  28.409  44.627  1.00  0.00    -0.507 OA
ATOM     25  H   UNL     1      19.957  29.067  43.940  1.00  0.00     0.293 HD
ENDBRANCH   6  24
BRANCH   8  26
ATOM     26  O   UNL     1      15.612  25.984  45.827  1.00  0.00    -0.508 OA
ATOM     27  H   UNL     1      15.386  26.646  46.560  1.00  0.00     0.293 HD
ENDBRANCH   8  26
TORSDOF 6
ENDMDL
MODEL 3
REMARK VINA RESULT:    -6.915      1.587      6.981
REMARK INTER + INTRA:          -8.424
REMARK INTER:                  -8.102
REMARK INTRA:                  -0.322
REMARK UNBOUND:                -0.094
REMARK SMILES O=c1c(O)c(-c2ccc(O)cc2O)oc2cc(O)cc(O)c12
REMARK SMILES IDX 5 1 3 2 2 3 1 4 22 5 20 6 19 7 17 8 16 9 15 10 14 11 6 12
REMARK SMILES IDX 8 13 7 14 9 15 11 16 12 17 10 18 13 20 4 22 21 24 18 26
REMARK H PARENT 10 19 13 21 4 23 21 25 18 27
REMARK Flexibility Score: inf
ROOT
ATOM      1  C   UNL     1      29.444  22.689  50.336  1.00  0.00     0.184 A 
ATOM      2  C   UNL     1      28.075  22.425  50.144  1.00  0.00     0.208 A 
ATOM      3  C   UNL     1      27.464  22.848  48.955  1.00  0.00     0.238 A 
ATOM      4  O   UNL     1      26.240  22.608  48.767  1.00  0.00    -0.285 OA
ATOM      5  C   UNL     1      28.223  23.543  47.990  1.00  0.00     0.111 A 
ATOM      6  C   UNL     1      27.682  24.007  46.767  1.00  0.00     0.134 A 
ATOM      7  C   UNL     1      28.502  24.698  45.862  1.00  0.00     0.093 A 
ATOM      8  C   UNL     1      29.846  24.935  46.156  1.00  0.00     0.123 A 
ATOM      9  C   UNL     1      30.386  24.479  47.363  1.00  0.00     0.094 A 
ATOM     10  C   UNL     1      29.587  23.787  48.277  1.00  0.00     0.146 A 
ATOM     11  O   UNL     1      30.125  23.360  49.414  1.00  0.00    -0.451 OA
ENDROOT
BRANCH   1  12
ATOM     12  C   UNL     1      30.152  22.261  51.560  1.00  0.00     0.063 A 
ATOM     13  C   UNL     1      30.372  22.372  53.978  1.00  0.00     0.047 A 
ATOM     14  C   UNL     1      29.722  22.752  52.803  1.00  0.00     0.020 A 
ATOM     15  C   UNL     1      31.471  21.507  53.926  1.00  0.00     0.119 A 
ATOM     16  C   UNL     1      31.922  21.031  52.691  1.00  0.00     0.093 A 
ATOM     17  C   UNL     1      31.277  21.413  51.505  1.00  0.00     0.130 A 
BRANCH  15  18
ATOM     18  O   UNL     1      32.125  21.118  55.093  1.00  0.00    -0.508 OA
ATOM     19  H   UNL     1      31.654  20.579  55.810  1.00  0.00     0.293 HD
ENDBRANCH  15  18
BRANCH  17  20
ATOM     20  O   UNL     1      31.767  20.970  50.276  1.00  0.00    -0.507 OA
ATOM     21  H   UNL     1      31.601  20.027  49.945  1.00  0.00     0.293 HD
ENDBRANCH  17  20
ENDBRANCH   1  12
BRANCH   2  22
ATOM     22  O   UNL     1      27.340  21.775  51.140  1.00  0.00    -0.502 OA
ATOM     23  H   UNL     1      26.609  22.240  51.663  1.00  0.00     0.293 HD
ENDBRANCH   2  22
BRANCH   6  24
ATOM     24  O   UNL     1      26.343  23.787  46.445  1.00  0.00    -0.507 OA
ATOM     25  H   UNL     1      25.604  24.384  46.799  1.00  0.00     0.293 HD
ENDBRANCH   6  24
BRANCH   8  26
ATOM     26  O   UNL     1      30.638  25.625  45.241  1.00  0.00    -0.508 OA
ATOM     27  H   UNL     1      30.510  26.615  45.069  1.00  0.00     0.293 HD
ENDBRANCH   8  26
TORSDOF 6
ENDMDL
MODEL 4
REMARK VINA RESULT:    -6.735     12.409     14.105
REMARK INTER + INTRA:          -8.207
REMARK INTER:                  -7.821
REMARK INTRA:                  -0.385
REMARK UNBOUND:                -0.094
REMARK SMILES O=c1c(O)c(-c2ccc(O)cc2O)oc2cc(O)cc(O)c12
REMARK SMILES IDX 5 1 3 2 2 3 1 4 22 5 20 6 19 7 17 8 16 9 15 10 14 11 6 12
REMARK SMILES IDX 8 13 7 14 9 15 11 16 12 17 10 18 13 20 4 22 21 24 18 26
REMARK H PARENT 10 19 13 21 4 23 21 25 18 27
REMARK Flexibility Score: inf
ROOT
ATOM      1  C   UNL     1      18.250  24.821  41.210  1.00  0.00     0.184 A 
ATOM      2  C   UNL     1      17.062  24.410  41.840  1.00  0.00     0.208 A 
ATOM      3  C   UNL     1      16.670  25.045  43.028  1.00  0.00     0.238 A 
ATOM      4  O   UNL     1      15.601  24.692  43.597  1.00  0.00    -0.285 OA
ATOM      5  C   UNL     1      17.479  26.063  43.573  1.00  0.00     0.111 A 
ATOM      6  C   UNL     1      17.157  26.751  44.769  1.00  0.00     0.134 A 
ATOM      7  C   UNL     1      18.020  27.746  45.251  1.00  0.00     0.093 A 
ATOM      8  C   UNL     1      19.194  28.066  44.566  1.00  0.00     0.123 A 
ATOM      9  C   UNL     1      19.518  27.390  43.385  1.00  0.00     0.094 A 
ATOM     10  C   UNL     1      18.670  26.396  42.886  1.00  0.00     0.146 A 
ATOM     11  O   UNL     1      18.998  25.773  41.760  1.00  0.00    -0.451 OA
ENDROOT
BRANCH   1  12
ATOM     12  C   UNL     1      18.716  24.202  39.952  1.00  0.00     0.063 A 
ATOM     13  C   UNL     1      20.203  22.640  38.832  1.00  0.00     0.047 A 
ATOM     14  C   UNL     1      19.737  23.241  40.003  1.00  0.00     0.020 A 
ATOM     15  C   UNL     1      19.665  23.003  37.592  1.00  0.00     0.119 A 
ATOM     16  C   UNL     1      18.664  23.978  37.529  1.00  0.00     0.093 A 
ATOM     17  C   UNL     1      18.193  24.590  38.700  1.00  0.00     0.130 A 
BRANCH  15  18
ATOM     18  O   UNL     1      20.120  22.408  36.418  1.00  0.00    -0.508 OA
ATOM     19  H   UNL     1      19.805  22.723  35.507  1.00  0.00     0.293 HD
ENDBRANCH  15  18
BRANCH  17  20
ATOM     20  O   UNL     1      17.230  25.595  38.618  1.00  0.00    -0.507 OA
ATOM     21  H   UNL     1      16.267  25.391  38.376  1.00  0.00     0.293 HD
ENDBRANCH  17  20
ENDBRANCH   1  12
BRANCH   2  22
ATOM     22  O   UNL     1      16.305  23.366  41.299  1.00  0.00    -0.502 OA
ATOM     23  H   UNL     1      15.887  22.646  41.875  1.00  0.00     0.293 HD
ENDBRANCH   2  22
BRANCH   6  24
ATOM     24  O   UNL     1      15.993  26.454  45.477  1.00  0.00    -0.507 OA
ATOM     25  H   UNL     1      15.906  26.651  46.467  1.00  0.00     0.293 HD
ENDBRANCH   6  24
BRANCH   8  26
ATOM     26  O   UNL     1      20.033  29.058  45.067  1.00  0.00    -0.508 OA
ATOM     27  H   UNL     1      20.679  28.873  45.827  1.00  0.00     0.293 HD
ENDBRANCH   8  26
TORSDOF 6
ENDMDL
MODEL 5
REMARK VINA RESULT:    -6.688      1.489      3.012
REMARK INTER + INTRA:          -8.150
REMARK INTER:                  -8.585
REMARK INTRA:                   0.434
REMARK UNBOUND:                -0.094
REMARK SMILES O=c1c(O)c(-c2ccc(O)cc2O)oc2cc(O)cc(O)c12
REMARK SMILES IDX 5 1 3 2 2 3 1 4 22 5 20 6 19 7 17 8 16 9 15 10 14 11 6 12
REMARK SMILES IDX 8 13 7 14 9 15 11 16 12 17 10 18 13 20 4 22 21 24 18 26
REMARK H PARENT 10 19 13 21 4 23 21 25 18 27
REMARK Flexibility Score: inf
ROOT
ATOM      1  C   UNL     1      28.028  23.469  49.100  1.00  0.00     0.184 A 
ATOM      2  C   UNL     1      26.989  22.664  49.603  1.00  0.00     0.208 A 
ATOM      3  C   UNL     1      27.050  22.235  50.937  1.00  0.00     0.238 A 
ATOM      4  O   UNL     1      26.119  21.522  51.402  1.00  0.00    -0.285 OA
ATOM      5  C   UNL     1      28.152  22.600  51.737  1.00  0.00     0.111 A 
ATOM      6  C   UNL     1      28.291  22.205  53.090  1.00  0.00     0.134 A 
ATOM      7  C   UNL     1      29.424  22.602  53.817  1.00  0.00     0.093 A 
ATOM      8  C   UNL     1      30.417  23.381  53.220  1.00  0.00     0.123 A 
ATOM      9  C   UNL     1      30.286  23.774  51.883  1.00  0.00     0.094 A 
ATOM     10  C   UNL     1      29.164  23.390  51.142  1.00  0.00     0.146 A 
ATOM     11  O   UNL     1      29.061  23.780  49.877  1.00  0.00    -0.451 OA
ENDROOT
BRANCH   1  12
ATOM     12  C   UNL     1      28.022  23.965  47.708  1.00  0.00     0.063 A 
ATOM     13  C   UNL     1      26.780  24.394  45.664  1.00  0.00     0.047 A 
ATOM     14  C   UNL     1      26.821  23.937  46.982  1.00  0.00     0.020 A 
ATOM     15  C   UNL     1      27.944  24.870  45.048  1.00  0.00     0.119 A 
ATOM     16  C   UNL     1      29.150  24.879  45.755  1.00  0.00     0.093 A 
ATOM     17  C   UNL     1      29.199  24.417  47.080  1.00  0.00     0.130 A 
BRANCH  15  18
ATOM     18  O   UNL     1      27.914  25.331  43.734  1.00  0.00    -0.508 OA
ATOM     19  H   UNL     1      28.745  25.697  43.282  1.00  0.00     0.293 HD
ENDBRANCH  15  18
BRANCH  17  20
ATOM     20  O   UNL     1      30.418  24.385  47.757  1.00  0.00    -0.507 OA
ATOM     21  H   UNL     1      30.903  25.236  48.020  1.00  0.00     0.293 HD
ENDBRANCH  17  20
ENDBRANCH   1  12
BRANCH   2  22
ATOM     22  O   UNL     1      25.932  22.283  48.771  1.00  0.00    -0.502 OA
ATOM     23  H   UNL     1      25.721  21.312  48.576  1.00  0.00     0.293 HD
ENDBRANCH   2  22
BRANCH   6  24
ATOM     24  O   UNL     1      27.317  21.427  53.715  1.00  0.00    -0.507 OA
ATOM     25  H   UNL     1      27.553  20.754  54.436  1.00  0.00     0.293 HD
ENDBRANCH   6  24
BRANCH   8  26
ATOM     26  O   UNL     1      31.532  23.761  53.963  1.00  0.00    -0.508 OA
ATOM     27  H   UNL     1      31.899  24.704  53.925  1.00  0.00     0.293 HD
ENDBRANCH   8  26
TORSDOF 6
ENDMDL
MODEL 6
REMARK VINA RESULT:    -6.563     13.341     14.808
REMARK INTER + INTRA:          -8.000
REMARK INTER:                  -7.603
REMARK INTRA:                  -0.397
REMARK UNBOUND:                -0.094
REMARK SMILES O=c1c(O)c(-c2ccc(O)cc2O)oc2cc(O)cc(O)c12
REMARK SMILES IDX 5 1 3 2 2 3 1 4 22 5 20 6 19 7 17 8 16 9 15 10 14 11 6 12
REMARK SMILES IDX 8 13 7 14 9 15 11 16 12 17 10 18 13 20 4 22 21 24 18 26
REMARK H PARENT 10 19 13 21 4 23 21 25 18 27
REMARK Flexibility Score: inf
ROOT
ATOM      1  C   UNL     1      16.929  23.563  42.059  1.00  0.00     0.184 A 
ATOM      2  C   UNL     1      15.533  23.665  41.920  1.00  0.00     0.208 A 
ATOM      3  C   UNL     1      14.725  22.638  42.431  1.00  0.00     0.238 A 
ATOM      4  O   UNL     1      13.471  22.724  42.323  1.00  0.00    -0.285 OA
ATOM      5  C   UNL     1      15.324  21.524  43.053  1.00  0.00     0.111 A 
ATOM      6  C   UNL     1      14.581  20.445  43.591  1.00  0.00     0.134 A 
ATOM      7  C   UNL     1      15.253  19.366  44.186  1.00  0.00     0.093 A 
ATOM      8  C   UNL     1      16.648  19.345  44.252  1.00  0.00     0.123 A 
ATOM      9  C   UNL     1      17.388  20.407  43.722  1.00  0.00     0.094 A 
ATOM     10  C   UNL     1      16.737  21.492  43.127  1.00  0.00     0.146 A 
ATOM     11  O   UNL     1      17.462  22.490  42.635  1.00  0.00    -0.451 OA
ENDROOT
BRANCH   1  12
ATOM     12  C   UNL     1      17.838  24.612  41.554  1.00  0.00     0.063 A 
ATOM     13  C   UNL     1      19.348  25.391  39.815  1.00  0.00     0.047 A 
ATOM     14  C   UNL     1      18.479  24.421  40.320  1.00  0.00     0.020 A 
ATOM     15  C   UNL     1      19.598  26.559  40.545  1.00  0.00     0.119 A 
ATOM     16  C   UNL     1      18.983  26.747  41.786  1.00  0.00     0.093 A 
ATOM     17  C   UNL     1      18.112  25.775  42.302  1.00  0.00     0.130 A 
BRANCH  15  18
ATOM     18  O   UNL     1      20.461  27.535  40.050  1.00  0.00    -0.508 OA
ATOM     19  H   UNL     1      21.189  27.940  40.626  1.00  0.00     0.293 HD
ENDBRANCH  15  18
BRANCH  17  20
ATOM     20  O   UNL     1      17.544  25.954  43.563  1.00  0.00    -0.507 OA
ATOM     21  H   UNL     1      16.588  26.271  43.676  1.00  0.00     0.293 HD
ENDBRANCH  17  20
ENDBRANCH   1  12
BRANCH   2  22
ATOM     22  O   UNL     1      14.972  24.761  41.259  1.00  0.00    -0.502 OA
ATOM     23  H   UNL     1      15.128  25.714  41.563  1.00  0.00     0.293 HD
ENDBRANCH   2  22
BRANCH   6  24
ATOM     24  O   UNL     1      13.187  20.437  43.540  1.00  0.00    -0.507 OA
ATOM     25  H   UNL     1      12.651  21.294  43.480  1.00  0.00     0.293 HD
ENDBRANCH   6  24
BRANCH   8  26
ATOM     26  O   UNL     1      17.290  18.261  44.847  1.00  0.00    -0.508 OA
ATOM     27  H   UNL     1      17.167  17.316  44.503  1.00  0.00     0.293 HD
ENDBRANCH   8  26
TORSDOF 6
ENDMDL
MODEL 7
REMARK VINA RESULT:    -6.403     13.739     15.414
REMARK INTER + INTRA:          -7.808
REMARK INTER:                  -7.394
REMARK INTRA:                  -0.414
REMARK UNBOUND:                -0.094
REMARK SMILES O=c1c(O)c(-c2ccc(O)cc2O)oc2cc(O)cc(O)c12
REMARK SMILES IDX 5 1 3 2 2 3 1 4 22 5 20 6 19 7 17 8 16 9 15 10 14 11 6 12
REMARK SMILES IDX 8 13 7 14 9 15 11 16 12 17 10 18 13 20 4 22 21 24 18 26
REMARK H PARENT 10 19 13 21 4 23 21 25 18 27
REMARK Flexibility Score: inf
ROOT
ATOM      1  C   UNL     1      17.051  23.471  42.264  1.00  0.00     0.184 A 
ATOM      2  C   UNL     1      17.195  24.679  42.970  1.00  0.00     0.208 A 
ATOM      3  C   UNL     1      17.822  25.763  42.336  1.00  0.00     0.238 A 
ATOM      4  O   UNL     1      17.948  26.855  42.955  1.00  0.00    -0.285 OA
ATOM      5  C   UNL     1      18.309  25.614  41.021  1.00  0.00     0.111 A 
ATOM      6  C   UNL     1      18.957  26.656  40.313  1.00  0.00     0.134 A 
ATOM      7  C   UNL     1      19.422  26.425  39.010  1.00  0.00     0.093 A 
ATOM      8  C   UNL     1      19.254  25.179  38.403  1.00  0.00     0.123 A 
ATOM      9  C   UNL     1      18.615  24.146  39.097  1.00  0.00     0.094 A 
ATOM     10  C   UNL     1      18.143  24.356  40.396  1.00  0.00     0.146 A 
ATOM     11  O   UNL     1      17.536  23.360  41.032  1.00  0.00    -0.451 OA
ENDROOT
BRANCH   1  12
ATOM     12  C   UNL     1      16.390  22.295  42.867  1.00  0.00     0.063 A 
ATOM     13  C   UNL     1      16.591  20.175  44.040  1.00  0.00     0.047 A 
ATOM     14  C   UNL     1      17.182  21.302  43.465  1.00  0.00     0.020 A 
ATOM     15  C   UNL     1      15.200  20.019  44.011  1.00  0.00     0.119 A 
ATOM     16  C   UNL     1      14.405  20.990  43.397  1.00  0.00     0.093 A 
ATOM     17  C   UNL     1      14.992  22.123  42.813  1.00  0.00     0.130 A 
BRANCH  15  18
ATOM     18  O   UNL     1      14.599  18.900  44.585  1.00  0.00    -0.508 OA
ATOM     19  H   UNL     1      15.101  18.301  45.230  1.00  0.00     0.293 HD
ENDBRANCH  15  18
BRANCH  17  20
ATOM     20  O   UNL     1      14.191  23.060  42.160  1.00  0.00    -0.507 OA
ATOM     21  H   UNL     1      14.297  24.055  42.321  1.00  0.00     0.293 HD
ENDBRANCH  17  20
ENDBRANCH   1  12
BRANCH   2  22
ATOM     22  O   UNL     1      16.742  24.781  44.288  1.00  0.00    -0.502 OA
ATOM     23  H   UNL     1      17.377  24.842  45.075  1.00  0.00     0.293 HD
ENDBRANCH   2  22
BRANCH   6  24
ATOM     24  O   UNL     1      19.141  27.911  40.892  1.00  0.00    -0.507 OA
ATOM     25  H   UNL     1      18.357  28.483  41.186  1.00  0.00     0.293 HD
ENDBRANCH   6  24
BRANCH   8  26
ATOM     26  O   UNL     1      19.726  24.977  37.108  1.00  0.00    -0.508 OA
ATOM     27  H   UNL     1      20.290  24.170  36.869  1.00  0.00     0.293 HD
ENDBRANCH   8  26
TORSDOF 6
ENDMDL
MODEL 8
REMARK VINA RESULT:    -6.350     12.383     14.644
REMARK INTER + INTRA:          -7.743
REMARK INTER:                  -7.492
REMARK INTRA:                  -0.251
REMARK UNBOUND:                -0.094
REMARK SMILES O=c1c(O)c(-c2ccc(O)cc2O)oc2cc(O)cc(O)c12
REMARK SMILES IDX 5 1 3 2 2 3 1 4 22 5 20 6 19 7 17 8 16 9 15 10 14 11 6 12
REMARK SMILES IDX 8 13 7 14 9 15 11 16 12 17 10 18 13 20 4 22 21 24 18 26
REMARK H PARENT 10 19 13 21 4 23 21 25 18 27
REMARK Flexibility Score: inf
ROOT
ATOM      1  C   UNL     1      17.372  25.614  43.462  1.00  0.00     0.184 A 
ATOM      2  C   UNL     1      18.329  26.377  44.156  1.00  0.00     0.208 A 
ATOM      3  C   UNL     1      19.317  27.052  43.424  1.00  0.00     0.238 A 
ATOM      4  O   UNL     1      20.174  27.748  44.034  1.00  0.00    -0.285 OA
ATOM      5  C   UNL     1      19.344  26.936  42.019  1.00  0.00     0.111 A 
ATOM      6  C   UNL     1      20.310  27.581  41.208  1.00  0.00     0.134 A 
ATOM      7  C   UNL     1      20.274  27.409  39.815  1.00  0.00     0.093 A 
ATOM      8  C   UNL     1      19.298  26.608  39.221  1.00  0.00     0.123 A 
ATOM      9  C   UNL     1      18.342  25.968  40.016  1.00  0.00     0.094 A 
ATOM     10  C   UNL     1      18.358  26.128  41.405  1.00  0.00     0.146 A 
ATOM     11  O   UNL     1      17.437  25.514  42.138  1.00  0.00    -0.451 OA
ENDROOT
BRANCH   1  12
ATOM     12  C   UNL     1      16.297  24.888  44.169  1.00  0.00     0.063 A 
ATOM     13  C   UNL     1      14.462  24.932  45.763  1.00  0.00     0.047 A 
ATOM     14  C   UNL     1      15.484  25.589  45.074  1.00  0.00     0.020 A 
ATOM     15  C   UNL     1      14.249  23.563  45.568  1.00  0.00     0.119 A 
ATOM     16  C   UNL     1      15.070  22.851  44.687  1.00  0.00     0.093 A 
ATOM     17  C   UNL     1      16.101  23.503  43.994  1.00  0.00     0.130 A 
BRANCH  15  18
ATOM     18  O   UNL     1      13.230  22.898  46.247  1.00  0.00    -0.508 OA
ATOM     19  H   UNL     1      12.928  21.971  45.972  1.00  0.00     0.293 HD
ENDBRANCH  15  18
BRANCH  17  20
ATOM     20  O   UNL     1      16.943  22.771  43.156  1.00  0.00    -0.507 OA
ATOM     21  H   UNL     1      16.591  22.289  42.338  1.00  0.00     0.293 HD
ENDBRANCH  17  20
ENDBRANCH   1  12
BRANCH   2  22
ATOM     22  O   UNL     1      18.302  26.435  45.552  1.00  0.00    -0.502 OA
ATOM     23  H   UNL     1      19.141  26.566  46.104  1.00  0.00     0.293 HD
ENDBRANCH   2  22
BRANCH   6  24
ATOM     24  O   UNL     1      21.298  28.387  41.771  1.00  0.00    -0.507 OA
ATOM     25  H   UNL     1      22.074  27.995  42.293  1.00  0.00     0.293 HD
ENDBRANCH   6  24
BRANCH   8  26
ATOM     26  O   UNL     1      19.286  26.453  37.837  1.00  0.00    -0.508 OA
ATOM     27  H   UNL     1      19.175  27.245  37.215  1.00  0.00     0.293 HD
ENDBRANCH   8  26
TORSDOF 6
ENDMDL
MODEL 9
REMARK VINA RESULT:    -6.201     13.141     16.166
REMARK INTER + INTRA:          -7.564
REMARK INTER:                  -7.149
REMARK INTRA:                  -0.416
REMARK UNBOUND:                -0.094
REMARK SMILES O=c1c(O)c(-c2ccc(O)cc2O)oc2cc(O)cc(O)c12
REMARK SMILES IDX 5 1 3 2 2 3 1 4 22 5 20 6 19 7 17 8 16 9 15 10 14 11 6 12
REMARK SMILES IDX 8 13 7 14 9 15 11 16 12 17 10 18 13 20 4 22 21 24 18 26
REMARK H PARENT 10 19 13 21 4 23 21 25 18 27
REMARK Flexibility Score: inf
ROOT
ATOM      1  C   UNL     1      17.540  25.037  40.543  1.00  0.00     0.184 A 
ATOM      2  C   UNL     1      16.405  25.225  39.734  1.00  0.00     0.208 A 
ATOM      3  C   UNL     1      16.379  24.643  38.458  1.00  0.00     0.238 A 
ATOM      4  O   UNL     1      15.362  24.795  37.727  1.00  0.00    -0.285 OA
ATOM      5  C   UNL     1      17.491  23.902  38.008  1.00  0.00     0.111 A 
ATOM      6  C   UNL     1      17.546  23.286  36.734  1.00  0.00     0.134 A 
ATOM      7  C   UNL     1      18.693  22.572  36.356  1.00  0.00     0.093 A 
ATOM      8  C   UNL     1      19.783  22.464  37.222  1.00  0.00     0.123 A 
ATOM      9  C   UNL     1      19.735  23.070  38.481  1.00  0.00     0.094 A 
ATOM     10  C   UNL     1      18.600  23.784  38.878  1.00  0.00     0.146 A 
ATOM     11  O   UNL     1      18.578  24.346  40.081  1.00  0.00    -0.451 OA
ENDROOT
BRANCH   1  12
ATOM     12  C   UNL     1      17.629  25.613  41.901  1.00  0.00     0.063 A 
ATOM     13  C   UNL     1      16.940  25.551  44.231  1.00  0.00     0.047 A 
ATOM     14  C   UNL     1      16.883  25.030  42.937  1.00  0.00     0.020 A 
ATOM     15  C   UNL     1      17.733  26.672  44.504  1.00  0.00     0.119 A 
ATOM     16  C   UNL     1      18.461  27.275  43.473  1.00  0.00     0.093 A 
ATOM     17  C   UNL     1      18.405  26.759  42.169  1.00  0.00     0.130 A 
BRANCH  15  18
ATOM     18  O   UNL     1      17.801  27.199  45.791  1.00  0.00    -0.508 OA
ATOM     19  H   UNL     1      17.273  26.797  46.557  1.00  0.00     0.293 HD
ENDBRANCH  15  18
BRANCH  17  20
ATOM     20  O   UNL     1      19.098  27.399  41.140  1.00  0.00    -0.507 OA
ATOM     21  H   UNL     1      19.541  28.300  41.278  1.00  0.00     0.293 HD
ENDBRANCH  17  20
ENDBRANCH   1  12
BRANCH   2  22
ATOM     22  O   UNL     1      15.338  26.003  40.192  1.00  0.00    -0.502 OA
ATOM     23  H   UNL     1      15.344  27.014  40.140  1.00  0.00     0.293 HD
ENDBRANCH   2  22
BRANCH   6  24
ATOM     24  O   UNL     1      16.474  23.377  35.845  1.00  0.00    -0.507 OA
ATOM     25  H   UNL     1      16.525  22.996  34.907  1.00  0.00     0.293 HD
ENDBRANCH   6  24
BRANCH   8  26
ATOM     26  O   UNL     1      20.910  21.751  36.821  1.00  0.00    -0.508 OA
ATOM     27  H   UNL     1      20.885  20.745  36.694  1.00  0.00     0.293 HD
ENDBRANCH   8  26
TORSDOF 6
ENDMDL
