MODEL 1
REMARK VINA RESULT:    -5.084      0.000      0.000
REMARK INTER + INTRA:          -8.588
REMARK INTER:                  -8.056
REMARK INTRA:                  -0.532
REMARK UNBOUND:                -0.532
REMARK SMILES CCCCCCCCCCCC(=O)[O-]
REMARK SMILES IDX 7 1 8 2 9 3 10 4 11 5 12 6 13 7 14 8 6 9 5 10 4 11 3 12 2 13
REMARK SMILES IDX 1 14
REMARK H PARENT
REMARK Flexibility Score: inf
ROOT
ATOM      1  C   UNL     1       2.114  -9.997  -2.299  1.00  0.00     0.000 C 
ENDROOT
BRANCH   1   2
ATOM      2  C   UNL     1       0.662  -9.683  -1.903  1.00  0.00     0.000 C 
BRANCH   2   3
ATOM      3  C   UNL     1       0.458  -8.204  -1.535  1.00  0.00     0.000 C 
BRANCH   3   4
ATOM      4  C   UNL     1      -0.800  -7.971  -0.677  1.00  0.00     0.006 C 
BRANCH   4   5
ATOM      5  C   UNL     1      -1.685  -9.215  -0.498  1.00  0.00     0.053 C 
BRANCH   5   6
ATOM      6  C   UNL     1      -1.660  -9.724   0.910  1.00  0.00     0.041 C 
ATOM      7  O   UNL     1      -2.732  -9.844   1.560  1.00  0.00    -0.550 OA
ATOM      8  O   UNL     1      -0.455 -10.096   1.493  1.00  0.00    -0.550 OA
ENDBRANCH   5   6
ENDBRANCH   4   5
ENDBRANCH   3   4
ENDBRANCH   2   3
ENDBRANCH   1   2
BRANCH   1   9
ATOM      9  C   UNL     1       2.479  -9.456  -3.693  1.00  0.00     0.000 C 
BRANCH   9  10
ATOM     10  C   UNL     1       3.971  -9.106  -3.817  1.00  0.00    -0.000 C 
BRANCH  10  11
ATOM     11  C   UNL     1       4.229  -7.969  -4.819  1.00  0.00    -0.000 C 
BRANCH  11  12
ATOM     12  C   UNL     1       3.517  -8.242  -6.152  1.00  0.00    -0.000 C 
BRANCH  12  13
ATOM     13  C   UNL     1       4.323  -9.170  -7.073  1.00  0.00    -0.003 C 
ATOM     14  C   UNL     1       3.439  -9.960  -8.038  1.00  0.00     0.004 C 
ENDBRANCH  12  13
ENDBRANCH  11  12
ENDBRANCH  10  11
ENDBRANCH   9  10
ENDBRANCH   1   9
TORSDOF 10
ENDMDL
MODEL 2
REMARK VINA RESULT:    -5.021      3.953      7.445
REMARK INTER + INTRA:          -8.487
REMARK INTER:                  -7.805
REMARK INTRA:                  -0.682
REMARK UNBOUND:                -0.532
REMARK SMILES CCCCCCCCCCCC(=O)[O-]
REMARK SMILES IDX 7 1 8 2 9 3 10 4 11 5 12 6 13 7 14 8 6 9 5 10 4 11 3 12 2 13
REMARK SMILES IDX 1 14
REMARK H PARENT
REMARK Flexibility Score: inf
ROOT
ATOM      1  C   UNL     1       1.208  -9.659  -2.663  1.00  0.00     0.000 C 
ENDROOT
BRANCH   1   2
ATOM      2  C   UNL     1       2.227  -9.629  -3.814  1.00  0.00     0.000 C 
BRANCH   2   3
ATOM      3  C   UNL     1       3.631  -9.211  -3.347  1.00  0.00     0.000 C 
BRANCH   3   4
ATOM      4  C   UNL     1       4.429  -8.476  -4.441  1.00  0.00     0.006 C 
BRANCH   4   5
ATOM      5  C   UNL     1       3.576  -7.969  -5.616  1.00  0.00     0.053 C 
BRANCH   5   6
ATOM      6  C   UNL     1       3.785  -8.785  -6.854  1.00  0.00     0.041 C 
ATOM      7  O   UNL     1       4.277  -9.942  -6.776  1.00  0.00    -0.550 OA
ATOM      8  O   UNL     1       3.406  -8.280  -8.092  1.00  0.00    -0.550 OA
ENDBRANCH   5   6
ENDBRANCH   4   5
ENDBRANCH   3   4
ENDBRANCH   2   3
ENDBRANCH   1   2
BRANCH   1   9
ATOM      9  C   UNL     1       1.779  -9.095  -1.350  1.00  0.00     0.000 C 
BRANCH   9  10
ATOM     10  C   UNL     1       0.681  -8.616  -0.387  1.00  0.00    -0.000 C 
BRANCH  10  11
ATOM     11  C   UNL     1      -0.437  -7.842  -1.103  1.00  0.00    -0.000 C 
BRANCH  11  12
ATOM     12  C   UNL     1      -1.806  -8.159  -0.484  1.00  0.00    -0.000 C 
BRANCH  12  13
ATOM     13  C   UNL     1      -1.921  -9.621  -0.023  1.00  0.00    -0.003 C 
ATOM     14  C   UNL     1      -2.449  -9.752   1.404  1.00  0.00     0.004 C 
ENDBRANCH  12  13
ENDBRANCH  11  12
ENDBRANCH  10  11
ENDBRANCH   9  10
ENDBRANCH   1   9
TORSDOF 10
ENDMDL
MODEL 3
REMARK VINA RESULT:    -4.701      1.516      2.847
REMARK INTER + INTRA:          -7.980
REMARK INTER:                  -7.246
REMARK INTRA:                  -0.735
REMARK UNBOUND:                -0.532
REMARK SMILES CCCCCCCCCCCC(=O)[O-]
REMARK SMILES IDX 7 1 8 2 9 3 10 4 11 5 12 6 13 7 14 8 6 9 5 10 4 11 3 12 2 13
REMARK SMILES IDX 1 14
REMARK H PARENT
REMARK Flexibility Score: inf
ROOT
ATOM      1  C   UNL     1       4.551  -8.984  -3.730  1.00  0.00     0.000 C 
ENDROOT
BRANCH   1   2
ATOM      2  C   UNL     1       3.250  -9.804  -3.726  1.00  0.00     0.000 C 
BRANCH   2   3
ATOM      3  C   UNL     1       2.094  -9.069  -3.027  1.00  0.00     0.000 C 
BRANCH   3   4
ATOM      4  C   UNL     1       1.562  -9.829  -1.797  1.00  0.00     0.006 C 
BRANCH   4   5
ATOM      5  C   UNL     1       0.925  -8.932  -0.723  1.00  0.00     0.053 C 
BRANCH   5   6
ATOM      6  C   UNL     1      -0.433  -9.417  -0.320  1.00  0.00     0.041 C 
ATOM      7  O   UNL     1      -1.402  -9.327  -1.119  1.00  0.00    -0.550 OA
ATOM      8  O   UNL     1      -0.621  -9.998   0.929  1.00  0.00    -0.550 OA
ENDBRANCH   5   6
ENDBRANCH   4   5
ENDBRANCH   3   4
ENDBRANCH   2   3
ENDBRANCH   1   2
BRANCH   1   9
ATOM      9  C   UNL     1       5.275  -9.025  -5.087  1.00  0.00     0.000 C 
BRANCH   9  10
ATOM     10  C   UNL     1       4.365  -9.513  -6.226  1.00  0.00    -0.000 C 
BRANCH  10  11
ATOM     11  C   UNL     1       4.107  -8.427  -7.283  1.00  0.00    -0.000 C 
BRANCH  11  12
ATOM     12  C   UNL     1       2.722  -7.792  -7.088  1.00  0.00    -0.000 C 
BRANCH  12  13
ATOM     13  C   UNL     1       2.675  -6.835  -5.888  1.00  0.00    -0.003 C 
ATOM     14  C   UNL     1       1.913  -5.545  -6.188  1.00  0.00     0.004 C 
ENDBRANCH  12  13
ENDBRANCH  11  12
ENDBRANCH  10  11
ENDBRANCH   9  10
ENDBRANCH   1   9
TORSDOF 10
ENDMDL
MODEL 4
REMARK VINA RESULT:    -4.658      1.537      1.983
REMARK INTER + INTRA:          -7.913
REMARK INTER:                  -7.109
REMARK INTRA:                  -0.804
REMARK UNBOUND:                -0.532
REMARK SMILES CCCCCCCCCCCC(=O)[O-]
REMARK SMILES IDX 7 1 8 2 9 3 10 4 11 5 12 6 13 7 14 8 6 9 5 10 4 11 3 12 2 13
REMARK SMILES IDX 1 14
REMARK H PARENT
REMARK Flexibility Score: inf
ROOT
ATOM      1  C   UNL     1       1.333  -9.918  -2.698  1.00  0.00     0.000 C 
ENDROOT
BRANCH   1   2
ATOM      2  C   UNL     1       1.549  -8.605  -1.926  1.00  0.00     0.000 C 
BRANCH   2   3
ATOM      3  C   UNL     1       1.663  -8.827  -0.408  1.00  0.00     0.000 C 
BRANCH   3   4
ATOM      4  C   UNL     1       0.976 -10.125   0.057  1.00  0.00     0.006 C 
BRANCH   4   5
ATOM      5  C   UNL     1      -0.427  -9.921   0.653  1.00  0.00     0.053 C 
BRANCH   5   6
ATOM      6  C   UNL     1      -1.386  -9.356  -0.349  1.00  0.00     0.041 C 
ATOM      7  O   UNL     1      -1.734 -10.038  -1.349  1.00  0.00    -0.550 OA
ATOM      8  O   UNL     1      -1.920  -8.087  -0.161  1.00  0.00    -0.550 OA
ENDBRANCH   5   6
ENDBRANCH   4   5
ENDBRANCH   3   4
ENDBRANCH   2   3
ENDBRANCH   1   2
BRANCH   1   9
ATOM      9  C   UNL     1       2.335 -10.100  -3.851  1.00  0.00     0.000 C 
BRANCH   9  10
ATOM     10  C   UNL     1       3.753  -9.636  -3.480  1.00  0.00    -0.000 C 
BRANCH  10  11
ATOM     11  C   UNL     1       4.422  -8.824  -4.601  1.00  0.00    -0.000 C 
BRANCH  11  12
ATOM     12  C   UNL     1       3.963  -9.316  -5.982  1.00  0.00    -0.000 C 
BRANCH  12  13
ATOM     13  C   UNL     1       3.461  -8.175  -6.878  1.00  0.00    -0.003 C 
ATOM     14  C   UNL     1       2.671  -7.118  -6.106  1.00  0.00     0.004 C 
ENDBRANCH  12  13
ENDBRANCH  11  12
ENDBRANCH  10  11
ENDBRANCH   9  10
ENDBRANCH   1   9
TORSDOF 10
ENDMDL
MODEL 5
REMARK VINA RESULT:    -4.626      1.166      1.819
REMARK INTER + INTRA:          -7.861
REMARK INTER:                  -7.423
REMARK INTRA:                  -0.438
REMARK UNBOUND:                -0.532
REMARK SMILES CCCCCCCCCCCC(=O)[O-]
REMARK SMILES IDX 7 1 8 2 9 3 10 4 11 5 12 6 13 7 14 8 6 9 5 10 4 11 3 12 2 13
REMARK SMILES IDX 1 14
REMARK H PARENT
REMARK Flexibility Score: inf
ROOT
ATOM      1  C   UNL     1       0.992  -8.960  -1.842  1.00  0.00     0.000 C 
ENDROOT
BRANCH   1   2
ATOM      2  C   UNL     1      -0.042 -10.098  -1.880  1.00  0.00     0.000 C 
BRANCH   2   3
ATOM      3  C   UNL     1      -1.477  -9.598  -1.641  1.00  0.00     0.000 C 
BRANCH   3   4
ATOM      4  C   UNL     1      -1.521  -8.176  -1.049  1.00  0.00     0.006 C 
BRANCH   4   5
ATOM      5  C   UNL     1      -2.014  -8.108   0.405  1.00  0.00     0.053 C 
BRANCH   5   6
ATOM      6  C   UNL     1      -1.947  -9.442   1.083  1.00  0.00     0.041 C 
ATOM      7  O   UNL     1      -2.992 -10.125   1.246  1.00  0.00    -0.550 OA
ATOM      8  O   UNL     1      -0.722  -9.944   1.508  1.00  0.00    -0.550 OA
ENDBRANCH   5   6
ENDBRANCH   4   5
ENDBRANCH   3   4
ENDBRANCH   2   3
ENDBRANCH   1   2
BRANCH   1   9
ATOM      9  C   UNL     1       2.375  -9.397  -2.355  1.00  0.00     0.000 C 
BRANCH   9  10
ATOM     10  C   UNL     1       2.414  -9.556  -3.883  1.00  0.00    -0.000 C 
BRANCH  10  11
ATOM     11  C   UNL     1       3.800  -9.254  -4.474  1.00  0.00    -0.000 C 
BRANCH  11  12
ATOM     12  C   UNL     1       3.701  -8.213  -5.598  1.00  0.00    -0.000 C 
BRANCH  12  13
ATOM     13  C   UNL     1       2.735  -7.067  -5.259  1.00  0.00    -0.003 C 
ATOM     14  C   UNL     1       2.244  -6.319  -6.498  1.00  0.00     0.004 C 
ENDBRANCH  12  13
ENDBRANCH  11  12
ENDBRANCH  10  11
ENDBRANCH   9  10
ENDBRANCH   1   9
TORSDOF 10
ENDMDL
MODEL 6
REMARK VINA RESULT:    -4.556      9.924     11.636
REMARK INTER + INTRA:          -7.751
REMARK INTER:                  -6.902
REMARK INTRA:                  -0.849
REMARK UNBOUND:                -0.532
REMARK SMILES CCCCCCCCCCCC(=O)[O-]
REMARK SMILES IDX 7 1 8 2 9 3 10 4 11 5 12 6 13 7 14 8 6 9 5 10 4 11 3 12 2 13
REMARK SMILES IDX 1 14
REMARK H PARENT
REMARK Flexibility Score: inf
ROOT
ATOM      1  C   UNL     1      -0.692   1.927   0.699  1.00  0.00     0.000 C 
ENDROOT
BRANCH   1   2
ATOM      2  C   UNL     1      -1.941   2.051  -0.188  1.00  0.00     0.000 C 
BRANCH   2   3
ATOM      3  C   UNL     1      -1.847   1.193  -1.461  1.00  0.00     0.000 C 
BRANCH   3   4
ATOM      4  C   UNL     1      -1.581   2.032  -2.726  1.00  0.00     0.006 C 
BRANCH   4   5
ATOM      5  C   UNL     1      -0.094   2.181  -3.088  1.00  0.00     0.053 C 
BRANCH   5   6
ATOM      6  C   UNL     1       0.372   3.600  -2.971  1.00  0.00     0.041 C 
ATOM      7  O   UNL     1      -0.189   4.387  -2.165  1.00  0.00    -0.550 OA
ATOM      8  O   UNL     1       1.447   4.043  -3.731  1.00  0.00    -0.550 OA
ENDBRANCH   5   6
ENDBRANCH   4   5
ENDBRANCH   3   4
ENDBRANCH   2   3
ENDBRANCH   1   2
BRANCH   1   9
ATOM      9  C   UNL     1       0.185   0.719   0.326  1.00  0.00     0.000 C 
BRANCH   9  10
ATOM     10  C   UNL     1       0.691  -0.046   1.559  1.00  0.00    -0.000 C 
BRANCH  10  11
ATOM     11  C   UNL     1       1.124  -1.483   1.227  1.00  0.00    -0.000 C 
BRANCH  11  12
ATOM     12  C   UNL     1       0.213  -2.095   0.153  1.00  0.00    -0.000 C 
BRANCH  12  13
ATOM     13  C   UNL     1       0.809  -3.365  -0.474  1.00  0.00    -0.003 C 
ATOM     14  C   UNL     1       1.138  -3.195  -1.956  1.00  0.00     0.004 C 
ENDBRANCH  12  13
ENDBRANCH  11  12
ENDBRANCH  10  11
ENDBRANCH   9  10
ENDBRANCH   1   9
TORSDOF 10
ENDMDL
MODEL 7
REMARK VINA RESULT:    -4.503     10.187     11.909
REMARK INTER + INTRA:          -7.668
REMARK INTER:                  -7.084
REMARK INTRA:                  -0.584
REMARK UNBOUND:                -0.532
REMARK SMILES CCCCCCCCCCCC(=O)[O-]
REMARK SMILES IDX 7 1 8 2 9 3 10 4 11 5 12 6 13 7 14 8 6 9 5 10 4 11 3 12 2 13
REMARK SMILES IDX 1 14
REMARK H PARENT
REMARK Flexibility Score: inf
ROOT
ATOM      1  C   UNL     1      -0.959   1.871   0.574  1.00  0.00     0.000 C 
ENDROOT
BRANCH   1   2
ATOM      2  C   UNL     1      -1.989   2.229  -0.511  1.00  0.00     0.000 C 
BRANCH   2   3
ATOM      3  C   UNL     1      -1.865   3.688  -0.982  1.00  0.00     0.000 C 
BRANCH   3   4
ATOM      4  C   UNL     1      -0.664   3.911  -1.921  1.00  0.00     0.006 C 
BRANCH   4   5
ATOM      5  C   UNL     1      -0.405   2.757  -2.904  1.00  0.00     0.053 C 
BRANCH   5   6
ATOM      6  C   UNL     1       0.735   3.053  -3.829  1.00  0.00     0.041 C 
ATOM      7  O   UNL     1       1.009   2.264  -4.771  1.00  0.00    -0.550 OA
ATOM      8  O   UNL     1       1.475   4.218  -3.669  1.00  0.00    -0.550 OA
ENDBRANCH   5   6
ENDBRANCH   4   5
ENDBRANCH   3   4
ENDBRANCH   2   3
ENDBRANCH   1   2
BRANCH   1   9
ATOM      9  C   UNL     1      -0.043   0.705   0.161  1.00  0.00     0.000 C 
BRANCH   9  10
ATOM     10  C   UNL     1       0.844   0.215   1.317  1.00  0.00    -0.000 C 
BRANCH  10  11
ATOM     11  C   UNL     1       0.963  -1.317   1.362  1.00  0.00    -0.000 C 
BRANCH  11  12
ATOM     12  C   UNL     1       0.327  -1.952   0.117  1.00  0.00    -0.000 C 
BRANCH  12  13
ATOM     13  C   UNL     1       1.010  -3.267  -0.289  1.00  0.00    -0.003 C 
ATOM     14  C   UNL     1       0.889  -3.562  -1.783  1.00  0.00     0.004 C 
ENDBRANCH  12  13
ENDBRANCH  11  12
ENDBRANCH  10  11
ENDBRANCH   9  10
ENDBRANCH   1   9
TORSDOF 10
ENDMDL
MODEL 8
REMARK VINA RESULT:    -4.040      2.642      3.901
REMARK INTER + INTRA:          -6.934
REMARK INTER:                  -6.314
REMARK INTRA:                  -0.620
REMARK UNBOUND:                -0.532
REMARK SMILES CCCCCCCCCCCC(=O)[O-]
REMARK SMILES IDX 7 1 8 2 9 3 10 4 11 5 12 6 13 7 14 8 6 9 5 10 4 11 3 12 2 13
REMARK SMILES IDX 1 14
REMARK H PARENT
REMARK Flexibility Score: inf
ROOT
ATOM      1  C   UNL     1       3.372  -8.749  -4.447  1.00  0.00     0.000 C 
ENDROOT
BRANCH   1   2
ATOM      2  C   UNL     1       2.704 -10.069  -4.028  1.00  0.00     0.000 C 
BRANCH   2   3
ATOM      3  C   UNL     1       1.506  -9.850  -3.089  1.00  0.00     0.000 C 
BRANCH   3   4
ATOM      4  C   UNL     1       1.859  -8.982  -1.866  1.00  0.00     0.006 C 
BRANCH   4   5
ATOM      5  C   UNL     1       0.764  -8.931  -0.787  1.00  0.00     0.053 C 
BRANCH   5   6
ATOM      6  C   UNL     1      -0.264  -7.883  -1.081  1.00  0.00     0.041 C 
ATOM      7  O   UNL     1       0.090  -6.736  -1.464  1.00  0.00    -0.550 OA
ATOM      8  O   UNL     1      -1.616  -8.182  -0.962  1.00  0.00    -0.550 OA
ENDBRANCH   5   6
ENDBRANCH   4   5
ENDBRANCH   3   4
ENDBRANCH   2   3
ENDBRANCH   1   2
BRANCH   1   9
ATOM      9  C   UNL     1       3.624  -8.666  -5.963  1.00  0.00     0.000 C 
BRANCH   9  10
ATOM     10  C   UNL     1       2.907  -7.473  -6.616  1.00  0.00    -0.000 C 
BRANCH  10  11
ATOM     11  C   UNL     1       2.243  -6.546  -5.585  1.00  0.00    -0.000 C 
BRANCH  11  12
ATOM     12  C   UNL     1       1.895  -5.189  -6.213  1.00  0.00    -0.000 C 
BRANCH  12  13
ATOM     13  C   UNL     1       0.514  -4.674  -5.777  1.00  0.00    -0.003 C 
ATOM     14  C   UNL     1       0.417  -4.442  -4.270  1.00  0.00     0.004 C 
ENDBRANCH  12  13
ENDBRANCH  11  12
ENDBRANCH  10  11
ENDBRANCH   9  10
ENDBRANCH   1   9
TORSDOF 10
ENDMDL
