MODEL 1
REMARK VINA RESULT:    -2.597      0.000      0.000
REMARK INTER + INTRA:         -12.808
REMARK INTER:                  -6.847
REMARK INTRA:                  -5.961
REMARK UNBOUND:                -5.961
REMARK SMILES CCCCCCCCCCCCCCCCCCCCCCCCCCCCCC(=O)[O-]
REMARK SMILES IDX 16 1 17 2 18 3 19 4 20 5 21 6 22 7 23 8 24 9 25 10 26 11
REMARK SMILES IDX 27 12 28 13 29 14 30 15 31 16 32 17 15 18 14 19 13 20 12 21
REMARK SMILES IDX 11 22 10 23 9 24 8 25 7 26 6 27 5 28 4 29 3 30 2 31 1 32
REMARK H PARENT
REMARK Flexibility Score: inf
ROOT
ATOM      1  C   UNL     1      96.043  64.032 225.829  1.00  0.00     0.000 C 
ENDROOT
BRANCH   1   2
ATOM      2  C   UNL     1      96.850  64.050 224.521  1.00  0.00     0.000 C 
BRANCH   2   3
ATOM      3  C   UNL     1      98.367  64.012 224.765  1.00  0.00     0.000 C 
BRANCH   3   4
ATOM      4  C   UNL     1      99.078  65.266 224.235  1.00  0.00     0.000 C 
BRANCH   4   5
ATOM      5  C   UNL     1      99.844  65.984 225.356  1.00  0.00     0.000 C 
BRANCH   5   6
ATOM      6  C   UNL     1      99.330  65.605 226.755  1.00  0.00     0.000 C 
BRANCH   6   7
ATOM      7  C   UNL     1     100.464  65.236 227.729  1.00  0.00     0.000 C 
BRANCH   7   8
ATOM      8  C   UNL     1     101.841  65.220 227.046  1.00  0.00     0.000 C 
BRANCH   8   9
ATOM      9  C   UNL     1     102.525  63.846 227.113  1.00  0.00     0.000 C 
BRANCH   9  10
ATOM     10  C   UNL     1     103.683  63.765 226.111  1.00  0.00     0.000 C 
BRANCH  10  11
ATOM     11  C   UNL     1     103.358  62.790 224.968  1.00  0.00     0.000 C 
BRANCH  11  12
ATOM     12  C   UNL     1     101.871  62.813 224.581  1.00  0.00     0.000 C 
BRANCH  12  13
ATOM     13  C   UNL     1     101.239  61.413 224.594  1.00  0.00     0.006 C 
BRANCH  13  14
ATOM     14  C   UNL     1     102.005  60.474 225.532  1.00  0.00     0.053 C 
BRANCH  14  15
ATOM     15  C   UNL     1     101.535  59.062 225.367  1.00  0.00     0.041 C 
ATOM     16  O   UNL     1     101.840  58.187 226.221  1.00  0.00    -0.550 OA
ATOM     17  O   UNL     1     100.757  58.711 224.269  1.00  0.00    -0.550 OA
ENDBRANCH  14  15
ENDBRANCH  13  14
ENDBRANCH  12  13
ENDBRANCH  11  12
ENDBRANCH  10  11
ENDBRANCH   9  10
ENDBRANCH   8   9
ENDBRANCH   7   8
ENDBRANCH   6   7
ENDBRANCH   5   6
ENDBRANCH   4   5
ENDBRANCH   3   4
ENDBRANCH   2   3
ENDBRANCH   1   2
BRANCH   1  18
ATOM     18  C   UNL     1      94.711  64.774 225.659  1.00  0.00     0.000 C 
BRANCH  18  19
ATOM     19  C   UNL     1      94.921  66.137 224.981  1.00  0.00     0.000 C 
BRANCH  19  20
ATOM     20  C   UNL     1      94.885  67.310 225.983  1.00  0.00     0.000 C 
BRANCH  20  21
ATOM     21  C   UNL     1      96.269  67.727 226.518  1.00  0.00     0.000 C 
BRANCH  21  22
ATOM     22  C   UNL     1      96.596  67.254 227.943  1.00  0.00     0.000 C 
BRANCH  22  23
ATOM     23  C   UNL     1      95.336  66.959 228.777  1.00  0.00     0.000 C 
BRANCH  23  24
ATOM     24  C   UNL     1      95.256  65.492 229.238  1.00  0.00    -0.000 C 
BRANCH  24  25
ATOM     25  C   UNL     1      96.593  64.720 229.220  1.00  0.00    -0.000 C 
BRANCH  25  26
ATOM     26  C   UNL     1      96.612  63.418 230.045  1.00  0.00    -0.000 C 
BRANCH  26  27
ATOM     27  C   UNL     1      97.193  62.196 229.311  1.00  0.00    -0.000 C 
BRANCH  27  28
ATOM     28  C   UNL     1      98.695  62.327 228.981  1.00  0.00    -0.000 C 
BRANCH  28  29
ATOM     29  C   UNL     1      99.038  61.808 227.576  1.00  0.00    -0.000 C 
BRANCH  29  30
ATOM     30  C   UNL     1      97.849  61.047 226.970  1.00  0.00    -0.000 C 
BRANCH  30  31
ATOM     31  C   UNL     1      98.121  59.540 226.834  1.00  0.00    -0.003 C 
ATOM     32  C   UNL     1      97.200  58.695 227.717  1.00  0.00     0.004 C 
ENDBRANCH  30  31
ENDBRANCH  29  30
ENDBRANCH  28  29
ENDBRANCH  27  28
ENDBRANCH  26  27
ENDBRANCH  25  26
ENDBRANCH  24  25
ENDBRANCH  23  24
ENDBRANCH  22  23
ENDBRANCH  21  22
ENDBRANCH  20  21
ENDBRANCH  19  20
ENDBRANCH  18  19
ENDBRANCH   1  18
TORSDOF 28
ENDMDL
MODEL 2
REMARK VINA RESULT:    -2.529      2.511      4.871
REMARK INTER + INTRA:         -12.630
REMARK INTER:                  -7.204
REMARK INTRA:                  -5.426
REMARK UNBOUND:                -5.961
REMARK SMILES CCCCCCCCCCCCCCCCCCCCCCCCCCCCCC(=O)[O-]
REMARK SMILES IDX 16 1 17 2 18 3 19 4 20 5 21 6 22 7 23 8 24 9 25 10 26 11
REMARK SMILES IDX 27 12 28 13 29 14 30 15 31 16 32 17 15 18 14 19 13 20 12 21
REMARK SMILES IDX 11 22 10 23 9 24 8 25 7 26 6 27 5 28 4 29 3 30 2 31 1 32
REMARK H PARENT
REMARK Flexibility Score: inf
ROOT
ATOM      1  C   UNL     1      99.191  65.340 224.238  1.00  0.00     0.000 C 
ENDROOT
BRANCH   1   2
ATOM      2  C   UNL     1     100.636  65.345 224.764  1.00  0.00     0.000 C 
BRANCH   2   3
ATOM      3  C   UNL     1     100.980  64.070 225.551  1.00  0.00     0.000 C 
BRANCH   3   4
ATOM      4  C   UNL     1     102.025  63.202 224.834  1.00  0.00     0.000 C 
BRANCH   4   5
ATOM      5  C   UNL     1     101.435  61.839 224.441  1.00  0.00     0.000 C 
BRANCH   5   6
ATOM      6  C   UNL     1     101.991  60.689 225.298  1.00  0.00     0.000 C 
BRANCH   6   7
ATOM      7  C   UNL     1     101.147  59.406 225.196  1.00  0.00     0.000 C 
BRANCH   7   8
ATOM      8  C   UNL     1     101.080  58.641 226.528  1.00  0.00     0.000 C 
BRANCH   8   9
ATOM      9  C   UNL     1      99.950  57.600 226.563  1.00  0.00     0.000 C 
BRANCH   9  10
ATOM     10  C   UNL     1      98.958  57.835 225.418  1.00  0.00     0.000 C 
BRANCH  10  11
ATOM     11  C   UNL     1      97.778  56.852 225.498  1.00  0.00     0.000 C 
BRANCH  11  12
ATOM     12  C   UNL     1      97.836  55.774 224.404  1.00  0.00     0.000 C 
BRANCH  12  13
ATOM     13  C   UNL     1      98.596  56.245 223.155  1.00  0.00     0.006 C 
BRANCH  13  14
ATOM     14  C   UNL     1      97.740  56.076 221.896  1.00  0.00     0.053 C 
BRANCH  14  15
ATOM     15  C   UNL     1      97.244  57.402 221.410  1.00  0.00     0.041 C 
ATOM     16  O   UNL     1      97.936  58.086 220.609  1.00  0.00    -0.550 OA
ATOM     17  O   UNL     1      96.013  57.885 221.840  1.00  0.00    -0.550 OA
ENDBRANCH  14  15
ENDBRANCH  13  14
ENDBRANCH  12  13
ENDBRANCH  11  12
ENDBRANCH  10  11
ENDBRANCH   9  10
ENDBRANCH   8   9
ENDBRANCH   7   8
ENDBRANCH   6   7
ENDBRANCH   5   6
ENDBRANCH   4   5
ENDBRANCH   3   4
ENDBRANCH   2   3
ENDBRANCH   1   2
BRANCH   1  18
ATOM     18  C   UNL     1      98.458  64.063 224.670  1.00  0.00     0.000 C 
BRANCH  18  19
ATOM     19  C   UNL     1      96.952  64.167 224.382  1.00  0.00     0.000 C 
BRANCH  19  20
ATOM     20  C   UNL     1      96.090  63.940 225.642  1.00  0.00     0.000 C 
BRANCH  20  21
ATOM     21  C   UNL     1      94.953  64.966 225.823  1.00  0.00     0.000 C 
BRANCH  21  22
ATOM     22  C   UNL     1      95.125  66.283 225.050  1.00  0.00     0.000 C 
BRANCH  22  23
ATOM     23  C   UNL     1      95.844  67.368 225.872  1.00  0.00     0.000 C 
BRANCH  23  24
ATOM     24  C   UNL     1      95.543  67.273 227.378  1.00  0.00    -0.000 C 
BRANCH  24  25
ATOM     25  C   UNL     1      96.775  67.066 228.286  1.00  0.00    -0.000 C 
BRANCH  25  26
ATOM     26  C   UNL     1      98.034  66.531 227.574  1.00  0.00    -0.000 C 
BRANCH  26  27
ATOM     27  C   UNL     1      98.583  65.208 228.138  1.00  0.00    -0.000 C 
BRANCH  27  28
ATOM     28  C   UNL     1      97.583  64.459 229.045  1.00  0.00    -0.000 C 
BRANCH  28  29
ATOM     29  C   UNL     1      97.571  62.945 228.785  1.00  0.00    -0.000 C 
BRANCH  29  30
ATOM     30  C   UNL     1      98.900  62.486 228.166  1.00  0.00    -0.000 C 
BRANCH  30  31
ATOM     31  C   UNL     1      98.709  61.386 227.109  1.00  0.00    -0.003 C 
ATOM     32  C   UNL     1      97.338  60.712 227.202  1.00  0.00     0.004 C 
ENDBRANCH  30  31
ENDBRANCH  29  30
ENDBRANCH  28  29
ENDBRANCH  27  28
ENDBRANCH  26  27
ENDBRANCH  25  26
ENDBRANCH  24  25
ENDBRANCH  23  24
ENDBRANCH  22  23
ENDBRANCH  21  22
ENDBRANCH  20  21
ENDBRANCH  19  20
ENDBRANCH  18  19
ENDBRANCH   1  18
TORSDOF 28
ENDMDL
MODEL 3
REMARK VINA RESULT:    -2.513      7.448     11.136
REMARK INTER + INTRA:         -12.588
REMARK INTER:                  -6.664
REMARK INTRA:                  -5.924
REMARK UNBOUND:                -5.961
REMARK SMILES CCCCCCCCCCCCCCCCCCCCCCCCCCCCCC(=O)[O-]
REMARK SMILES IDX 16 1 17 2 18 3 19 4 20 5 21 6 22 7 23 8 24 9 25 10 26 11
REMARK SMILES IDX 27 12 28 13 29 14 30 15 31 16 32 17 15 18 14 19 13 20 12 21
REMARK SMILES IDX 11 22 10 23 9 24 8 25 7 26 6 27 5 28 4 29 3 30 2 31 1 32
REMARK H PARENT
REMARK Flexibility Score: inf
ROOT
ATOM      1  C   UNL     1      94.989  57.202 224.302  1.00  0.00     0.000 C 
ENDROOT
BRANCH   1   2
ATOM      2  C   UNL     1      94.740  55.793 224.864  1.00  0.00     0.000 C 
BRANCH   2   3
ATOM      3  C   UNL     1      95.902  54.830 224.574  1.00  0.00     0.000 C 
BRANCH   3   4
ATOM      4  C   UNL     1      95.453  53.587 223.792  1.00  0.00     0.000 C 
BRANCH   4   5
ATOM      5  C   UNL     1      94.164  53.866 223.004  1.00  0.00     0.000 C 
BRANCH   5   6
ATOM      6  C   UNL     1      94.441  54.252 221.541  1.00  0.00     0.000 C 
BRANCH   6   7
ATOM      7  C   UNL     1      95.754  53.653 221.004  1.00  0.00     0.000 C 
BRANCH   7   8
ATOM      8  C   UNL     1      95.868  53.769 219.475  1.00  0.00     0.000 C 
BRANCH   8   9
ATOM      9  C   UNL     1      95.360  55.116 218.938  1.00  0.00     0.000 C 
BRANCH   9  10
ATOM     10  C   UNL     1      96.030  55.456 217.601  1.00  0.00     0.000 C 
BRANCH  10  11
ATOM     11  C   UNL     1      97.559  55.502 217.745  1.00  0.00     0.000 C 
BRANCH  11  12
ATOM     12  C   UNL     1      98.190  56.657 216.949  1.00  0.00     0.000 C 
BRANCH  12  13
ATOM     13  C   UNL     1      99.607  56.998 217.432  1.00  0.00     0.006 C 
BRANCH  13  14
ATOM     14  C   UNL     1      99.978  58.440 217.071  1.00  0.00     0.053 C 
BRANCH  14  15
ATOM     15  C   UNL     1      99.876  59.329 218.272  1.00  0.00     0.041 C 
ATOM     16  O   UNL     1     100.897  59.921 218.713  1.00  0.00    -0.550 OA
ATOM     17  O   UNL     1      98.651  59.505 218.905  1.00  0.00    -0.550 OA
ENDBRANCH  14  15
ENDBRANCH  13  14
ENDBRANCH  12  13
ENDBRANCH  11  12
ENDBRANCH  10  11
ENDBRANCH   9  10
ENDBRANCH   8   9
ENDBRANCH   7   8
ENDBRANCH   6   7
ENDBRANCH   5   6
ENDBRANCH   4   5
ENDBRANCH   3   4
ENDBRANCH   2   3
ENDBRANCH   1   2
BRANCH   1  18
ATOM     18  C   UNL     1      96.307  57.252 223.519  1.00  0.00     0.000 C 
BRANCH  18  19
ATOM     19  C   UNL     1      96.054  57.530 222.029  1.00  0.00     0.000 C 
BRANCH  19  20
ATOM     20  C   UNL     1      97.295  57.252 221.154  1.00  0.00     0.000 C 
BRANCH  20  21
ATOM     21  C   UNL     1      98.235  56.169 221.718  1.00  0.00     0.000 C 
BRANCH  21  22
ATOM     22  C   UNL     1      99.457  55.837 220.846  1.00  0.00     0.000 C 
BRANCH  22  23
ATOM     23  C   UNL     1      99.774  54.331 220.812  1.00  0.00     0.000 C 
BRANCH  23  24
ATOM     24  C   UNL     1      99.050  53.543 221.918  1.00  0.00    -0.000 C 
BRANCH  24  25
ATOM     25  C   UNL     1      99.660  52.165 222.253  1.00  0.00    -0.000 C 
BRANCH  25  26
ATOM     26  C   UNL     1      99.483  51.705 223.714  1.00  0.00    -0.000 C 
BRANCH  26  27
ATOM     27  C   UNL     1      99.513  52.837 224.756  1.00  0.00    -0.000 C 
BRANCH  27  28
ATOM     28  C   UNL     1     100.921  53.121 225.323  1.00  0.00    -0.000 C 
BRANCH  28  29
ATOM     29  C   UNL     1     101.635  54.263 224.583  1.00  0.00    -0.000 C 
BRANCH  29  30
ATOM     30  C   UNL     1     100.798  55.551 224.626  1.00  0.00    -0.000 C 
BRANCH  30  31
ATOM     31  C   UNL     1     101.392  56.669 223.756  1.00  0.00    -0.003 C 
ATOM     32  C   UNL     1     100.631  57.989 223.894  1.00  0.00     0.004 C 
ENDBRANCH  30  31
ENDBRANCH  29  30
ENDBRANCH  28  29
ENDBRANCH  27  28
ENDBRANCH  26  27
ENDBRANCH  25  26
ENDBRANCH  24  25
ENDBRANCH  23  24
ENDBRANCH  22  23
ENDBRANCH  21  22
ENDBRANCH  20  21
ENDBRANCH  19  20
ENDBRANCH  18  19
ENDBRANCH   1  18
TORSDOF 28
ENDMDL
MODEL 4
REMARK VINA RESULT:    -2.510      2.448      5.204
REMARK INTER + INTRA:         -12.579
REMARK INTER:                  -5.829
REMARK INTRA:                  -6.750
REMARK UNBOUND:                -5.961
REMARK SMILES CCCCCCCCCCCCCCCCCCCCCCCCCCCCCC(=O)[O-]
REMARK SMILES IDX 16 1 17 2 18 3 19 4 20 5 21 6 22 7 23 8 24 9 25 10 26 11
REMARK SMILES IDX 27 12 28 13 29 14 30 15 31 16 32 17 15 18 14 19 13 20 12 21
REMARK SMILES IDX 11 22 10 23 9 24 8 25 7 26 6 27 5 28 4 29 3 30 2 31 1 32
REMARK H PARENT
REMARK Flexibility Score: inf
ROOT
ATOM      1  C   UNL     1      99.111  65.806 224.291  1.00  0.00     0.000 C 
ENDROOT
BRANCH   1   2
ATOM      2  C   UNL     1      98.045  64.699 224.296  1.00  0.00     0.000 C 
BRANCH   2   3
ATOM      3  C   UNL     1      96.666  65.209 223.847  1.00  0.00     0.000 C 
BRANCH   3   4
ATOM      4  C   UNL     1      95.532  64.713 224.757  1.00  0.00     0.000 C 
BRANCH   4   5
ATOM      5  C   UNL     1      95.376  65.619 225.988  1.00  0.00     0.000 C 
BRANCH   5   6
ATOM      6  C   UNL     1      95.598  64.862 227.308  1.00  0.00     0.000 C 
BRANCH   6   7
ATOM      7  C   UNL     1      96.500  65.628 228.292  1.00  0.00     0.000 C 
BRANCH   7   8
ATOM      8  C   UNL     1      97.485  66.565 227.576  1.00  0.00     0.000 C 
BRANCH   8   9
ATOM      9  C   UNL     1      98.940  66.357 228.023  1.00  0.00     0.000 C 
BRANCH   9  10
ATOM     10  C   UNL     1      99.829  67.509 227.539  1.00  0.00     0.000 C 
BRANCH  10  11
ATOM     11  C   UNL     1     101.248  67.015 227.214  1.00  0.00     0.000 C 
BRANCH  11  12
ATOM     12  C   UNL     1     101.439  65.525 227.540  1.00  0.00     0.000 C 
BRANCH  12  13
ATOM     13  C   UNL     1     102.853  65.213 228.053  1.00  0.00     0.006 C 
BRANCH  13  14
ATOM     14  C   UNL     1     103.468  64.038 227.286  1.00  0.00     0.053 C 
BRANCH  14  15
ATOM     15  C   UNL     1     104.581  64.508 226.401  1.00  0.00     0.041 C 
ATOM     16  O   UNL     1     104.557  65.669 225.911  1.00  0.00    -0.550 OA
ATOM     17  O   UNL     1     105.648  63.663 226.118  1.00  0.00    -0.550 OA
ENDBRANCH  14  15
ENDBRANCH  13  14
ENDBRANCH  12  13
ENDBRANCH  11  12
ENDBRANCH  10  11
ENDBRANCH   9  10
ENDBRANCH   8   9
ENDBRANCH   7   8
ENDBRANCH   6   7
ENDBRANCH   5   6
ENDBRANCH   4   5
ENDBRANCH   3   4
ENDBRANCH   2   3
ENDBRANCH   1   2
BRANCH   1  18
ATOM     18  C   UNL     1     100.509  65.217 224.060  1.00  0.00     0.000 C 
BRANCH  18  19
ATOM     19  C   UNL     1     100.428  63.720 223.722  1.00  0.00     0.000 C 
BRANCH  19  20
ATOM     20  C   UNL     1     101.388  62.867 224.578  1.00  0.00     0.000 C 
BRANCH  20  21
ATOM     21  C   UNL     1     100.703  61.710 225.333  1.00  0.00     0.000 C 
BRANCH  21  22
ATOM     22  C   UNL     1     100.393  61.982 226.814  1.00  0.00     0.000 C 
BRANCH  22  23
ATOM     23  C   UNL     1      99.031  62.670 227.021  1.00  0.00     0.000 C 
BRANCH  23  24
ATOM     24  C   UNL     1      97.844  61.775 226.621  1.00  0.00    -0.000 C 
BRANCH  24  25
ATOM     25  C   UNL     1      96.920  61.347 227.781  1.00  0.00    -0.000 C 
BRANCH  25  26
ATOM     26  C   UNL     1      97.539  61.453 229.189  1.00  0.00    -0.000 C 
BRANCH  26  27
ATOM     27  C   UNL     1      96.835  62.446 230.132  1.00  0.00    -0.000 C 
BRANCH  27  28
ATOM     28  C   UNL     1      97.776  63.079 231.180  1.00  0.00    -0.000 C 
BRANCH  28  29
ATOM     29  C   UNL     1      98.912  63.890 230.537  1.00  0.00    -0.000 C 
BRANCH  29  30
ATOM     30  C   UNL     1      99.985  64.246 231.576  1.00  0.00    -0.000 C 
BRANCH  30  31
ATOM     31  C   UNL     1     101.384  63.758 231.170  1.00  0.00    -0.003 C 
ATOM     32  C   UNL     1     101.337  62.553 230.228  1.00  0.00     0.004 C 
ENDBRANCH  30  31
ENDBRANCH  29  30
ENDBRANCH  28  29
ENDBRANCH  27  28
ENDBRANCH  26  27
ENDBRANCH  25  26
ENDBRANCH  24  25
ENDBRANCH  23  24
ENDBRANCH  22  23
ENDBRANCH  21  22
ENDBRANCH  20  21
ENDBRANCH  19  20
ENDBRANCH  18  19
ENDBRANCH   1  18
TORSDOF 28
ENDMDL
MODEL 5
REMARK VINA RESULT:    -2.508      2.518      5.018
REMARK INTER + INTRA:         -12.573
REMARK INTER:                  -6.229
REMARK INTRA:                  -6.344
REMARK UNBOUND:                -5.961
REMARK SMILES CCCCCCCCCCCCCCCCCCCCCCCCCCCCCC(=O)[O-]
REMARK SMILES IDX 16 1 17 2 18 3 19 4 20 5 21 6 22 7 23 8 24 9 25 10 26 11
REMARK SMILES IDX 27 12 28 13 29 14 30 15 31 16 32 17 15 18 14 19 13 20 12 21
REMARK SMILES IDX 11 22 10 23 9 24 8 25 7 26 6 27 5 28 4 29 3 30 2 31 1 32
REMARK H PARENT
REMARK Flexibility Score: inf
ROOT
ATOM      1  C   UNL     1      99.723  66.072 225.411  1.00  0.00     0.000 C 
ENDROOT
BRANCH   1   2
ATOM      2  C   UNL     1     100.171  66.000 223.942  1.00  0.00     0.000 C 
BRANCH   2   3
ATOM      3  C   UNL     1     100.598  64.583 223.527  1.00  0.00     0.000 C 
BRANCH   3   4
ATOM      4  C   UNL     1     100.515  63.581 224.688  1.00  0.00     0.000 C 
BRANCH   4   5
ATOM      5  C   UNL     1     101.259  62.280 224.351  1.00  0.00     0.000 C 
BRANCH   5   6
ATOM      6  C   UNL     1     101.535  61.421 225.596  1.00  0.00     0.000 C 
BRANCH   6   7
ATOM      7  C   UNL     1     100.642  60.168 225.667  1.00  0.00     0.000 C 
BRANCH   7   8
ATOM      8  C   UNL     1      99.767  60.144 226.930  1.00  0.00     0.000 C 
BRANCH   8   9
ATOM      9  C   UNL     1      99.383  61.550 227.418  1.00  0.00     0.000 C 
BRANCH   9  10
ATOM     10  C   UNL     1      99.765  61.737 228.892  1.00  0.00     0.000 C 
BRANCH  10  11
ATOM     11  C   UNL     1     100.933  62.726 229.039  1.00  0.00     0.000 C 
BRANCH  11  12
ATOM     12  C   UNL     1     100.686  64.042 228.283  1.00  0.00     0.000 C 
BRANCH  12  13
ATOM     13  C   UNL     1     101.983  64.826 228.030  1.00  0.00     0.006 C 
BRANCH  13  14
ATOM     14  C   UNL     1     103.093  63.901 227.522  1.00  0.00     0.053 C 
BRANCH  14  15
ATOM     15  C   UNL     1     103.732  64.466 226.291  1.00  0.00     0.041 C 
ATOM     16  O   UNL     1     104.713  63.881 225.758  1.00  0.00    -0.550 OA
ATOM     17  O   UNL     1     103.243  65.640 225.730  1.00  0.00    -0.550 OA
ENDBRANCH  14  15
ENDBRANCH  13  14
ENDBRANCH  12  13
ENDBRANCH  11  12
ENDBRANCH  10  11
ENDBRANCH   9  10
ENDBRANCH   8   9
ENDBRANCH   7   8
ENDBRANCH   6   7
ENDBRANCH   5   6
ENDBRANCH   4   5
ENDBRANCH   3   4
ENDBRANCH   2   3
ENDBRANCH   1   2
BRANCH   1  18
ATOM     18  C   UNL     1      98.670  67.170 225.607  1.00  0.00     0.000 C 
BRANCH  18  19
ATOM     19  C   UNL     1      98.024  67.561 224.268  1.00  0.00     0.000 C 
BRANCH  19  20
ATOM     20  C   UNL     1      96.521  67.218 224.212  1.00  0.00     0.000 C 
BRANCH  20  21
ATOM     21  C   UNL     1      96.151  66.167 223.147  1.00  0.00     0.000 C 
BRANCH  21  22
ATOM     22  C   UNL     1      95.731  64.793 223.694  1.00  0.00     0.000 C 
BRANCH  22  23
ATOM     23  C   UNL     1      96.910  64.000 224.284  1.00  0.00     0.000 C 
BRANCH  23  24
ATOM     24  C   UNL     1      96.792  63.798 225.806  1.00  0.00    -0.000 C 
BRANCH  24  25
ATOM     25  C   UNL     1      95.520  64.387 226.453  1.00  0.00    -0.000 C 
BRANCH  25  26
ATOM     26  C   UNL     1      95.754  65.591 227.387  1.00  0.00    -0.000 C 
BRANCH  26  27
ATOM     27  C   UNL     1      96.952  65.445 228.343  1.00  0.00    -0.000 C 
BRANCH  27  28
ATOM     28  C   UNL     1      97.280  66.734 229.126  1.00  0.00    -0.000 C 
BRANCH  28  29
ATOM     29  C   UNL     1      98.789  66.918 229.352  1.00  0.00    -0.000 C 
BRANCH  29  30
ATOM     30  C   UNL     1      99.064  67.534 230.732  1.00  0.00    -0.000 C 
BRANCH  30  31
ATOM     31  C   UNL     1      98.890  66.523 231.875  1.00  0.00    -0.003 C 
ATOM     32  C   UNL     1      99.592  65.192 231.596  1.00  0.00     0.004 C 
ENDBRANCH  30  31
ENDBRANCH  29  30
ENDBRANCH  28  29
ENDBRANCH  27  28
ENDBRANCH  26  27
ENDBRANCH  25  26
ENDBRANCH  24  25
ENDBRANCH  23  24
ENDBRANCH  22  23
ENDBRANCH  21  22
ENDBRANCH  20  21
ENDBRANCH  19  20
ENDBRANCH  18  19
ENDBRANCH   1  18
TORSDOF 28
ENDMDL
MODEL 6
REMARK VINA RESULT:    -2.476      6.976     10.679
REMARK INTER + INTRA:         -12.489
REMARK INTER:                  -5.994
REMARK INTRA:                  -6.496
REMARK UNBOUND:                -5.961
REMARK SMILES CCCCCCCCCCCCCCCCCCCCCCCCCCCCCC(=O)[O-]
REMARK SMILES IDX 16 1 17 2 18 3 19 4 20 5 21 6 22 7 23 8 24 9 25 10 26 11
REMARK SMILES IDX 27 12 28 13 29 14 30 15 31 16 32 17 15 18 14 19 13 20 12 21
REMARK SMILES IDX 11 22 10 23 9 24 8 25 7 26 6 27 5 28 4 29 3 30 2 31 1 32
REMARK H PARENT
REMARK Flexibility Score: inf
ROOT
ATOM      1  C   UNL     1     100.635  56.059 224.293  1.00  0.00     0.000 C 
ENDROOT
BRANCH   1   2
ATOM      2  C   UNL     1      99.905  54.710 224.180  1.00  0.00     0.000 C 
BRANCH   2   3
ATOM      3  C   UNL     1     100.745  53.646 223.454  1.00  0.00     0.000 C 
BRANCH   3   4
ATOM      4  C   UNL     1     101.999  54.239 222.794  1.00  0.00     0.000 C 
BRANCH   4   5
ATOM      5  C   UNL     1     101.978  54.020 221.273  1.00  0.00     0.000 C 
BRANCH   5   6
ATOM      6  C   UNL     1     100.845  54.797 220.583  1.00  0.00     0.000 C 
BRANCH   6   7
ATOM      7  C   UNL     1      99.783  53.874 219.957  1.00  0.00     0.000 C 
BRANCH   7   8
ATOM      8  C   UNL     1      98.406  54.548 219.857  1.00  0.00     0.000 C 
BRANCH   8   9
ATOM      9  C   UNL     1      97.578  54.043 218.666  1.00  0.00     0.000 C 
BRANCH   9  10
ATOM     10  C   UNL     1      96.537  55.088 218.244  1.00  0.00     0.000 C 
BRANCH  10  11
ATOM     11  C   UNL     1      97.199  56.449 217.971  1.00  0.00     0.000 C 
BRANCH  11  12
ATOM     12  C   UNL     1      98.091  56.427 216.720  1.00  0.00     0.000 C 
BRANCH  12  13
ATOM     13  C   UNL     1      99.277  57.398 216.828  1.00  0.00     0.006 C 
BRANCH  13  14
ATOM     14  C   UNL     1      99.183  58.240 218.104  1.00  0.00     0.053 C 
BRANCH  14  15
ATOM     15  C   UNL     1      99.396  59.690 217.799  1.00  0.00     0.041 C 
ATOM     16  O   UNL     1      98.920  60.196 216.747  1.00  0.00    -0.550 OA
ATOM     17  O   UNL     1     100.121  60.486 218.678  1.00  0.00    -0.550 OA
ENDBRANCH  14  15
ENDBRANCH  13  14
ENDBRANCH  12  13
ENDBRANCH  11  12
ENDBRANCH  10  11
ENDBRANCH   9  10
ENDBRANCH   8   9
ENDBRANCH   7   8
ENDBRANCH   6   7
ENDBRANCH   5   6
ENDBRANCH   4   5
ENDBRANCH   3   4
ENDBRANCH   2   3
ENDBRANCH   1   2
BRANCH   1  18
ATOM     18  C   UNL     1      99.896  57.147 223.504  1.00  0.00     0.000 C 
BRANCH  18  19
ATOM     19  C   UNL     1      98.532  56.640 223.008  1.00  0.00     0.000 C 
BRANCH  19  20
ATOM     20  C   UNL     1      98.118  57.272 221.663  1.00  0.00     0.000 C 
BRANCH  20  21
ATOM     21  C   UNL     1      96.594  57.360 221.449  1.00  0.00     0.000 C 
BRANCH  21  22
ATOM     22  C   UNL     1      95.744  57.297 222.728  1.00  0.00     0.000 C 
BRANCH  22  23
ATOM     23  C   UNL     1      94.752  56.119 222.728  1.00  0.00     0.000 C 
BRANCH  23  24
ATOM     24  C   UNL     1      94.983  55.145 221.559  1.00  0.00    -0.000 C 
BRANCH  24  25
ATOM     25  C   UNL     1      95.388  53.711 221.966  1.00  0.00    -0.000 C 
BRANCH  25  26
ATOM     26  C   UNL     1      96.625  53.612 222.881  1.00  0.00    -0.000 C 
BRANCH  26  27
ATOM     27  C   UNL     1      96.499  52.594 224.030  1.00  0.00    -0.000 C 
BRANCH  27  28
ATOM     28  C   UNL     1      96.775  53.197 225.424  1.00  0.00    -0.000 C 
BRANCH  28  29
ATOM     29  C   UNL     1      96.162  54.596 225.593  1.00  0.00    -0.000 C 
BRANCH  29  30
ATOM     30  C   UNL     1      97.141  55.540 226.307  1.00  0.00    -0.000 C 
BRANCH  30  31
ATOM     31  C   UNL     1      96.683  57.006 226.267  1.00  0.00    -0.003 C 
ATOM     32  C   UNL     1      97.844  57.990 226.427  1.00  0.00     0.004 C 
ENDBRANCH  30  31
ENDBRANCH  29  30
ENDBRANCH  28  29
ENDBRANCH  27  28
ENDBRANCH  26  27
ENDBRANCH  25  26
ENDBRANCH  24  25
ENDBRANCH  23  24
ENDBRANCH  22  23
ENDBRANCH  21  22
ENDBRANCH  20  21
ENDBRANCH  19  20
ENDBRANCH  18  19
ENDBRANCH   1  18
TORSDOF 28
ENDMDL
MODEL 7
REMARK VINA RESULT:    -2.468      7.575      9.877
REMARK INTER + INTRA:         -12.468
REMARK INTER:                  -6.703
REMARK INTRA:                  -5.764
REMARK UNBOUND:                -5.961
REMARK SMILES CCCCCCCCCCCCCCCCCCCCCCCCCCCCCC(=O)[O-]
REMARK SMILES IDX 16 1 17 2 18 3 19 4 20 5 21 6 22 7 23 8 24 9 25 10 26 11
REMARK SMILES IDX 27 12 28 13 29 14 30 15 31 16 32 17 15 18 14 19 13 20 12 21
REMARK SMILES IDX 11 22 10 23 9 24 8 25 7 26 6 27 5 28 4 29 3 30 2 31 1 32
REMARK H PARENT
REMARK Flexibility Score: inf
ROOT
ATOM      1  C   UNL     1      96.948  53.770 223.066  1.00  0.00     0.000 C 
ENDROOT
BRANCH   1   2
ATOM      2  C   UNL     1      98.184  54.427 222.431  1.00  0.00     0.000 C 
BRANCH   2   3
ATOM      3  C   UNL     1      98.871  55.425 223.377  1.00  0.00     0.000 C 
BRANCH   3   4
ATOM      4  C   UNL     1      98.979  56.831 222.768  1.00  0.00     0.000 C 
BRANCH   4   5
ATOM      5  C   UNL     1      99.042  56.766 221.234  1.00  0.00     0.000 C 
BRANCH   5   6
ATOM      6  C   UNL     1      97.974  57.647 220.564  1.00  0.00     0.000 C 
BRANCH   6   7
ATOM      7  C   UNL     1      97.053  56.854 219.618  1.00  0.00     0.000 C 
BRANCH   7   8
ATOM      8  C   UNL     1      97.838  55.914 218.688  1.00  0.00     0.000 C 
BRANCH   8   9
ATOM      9  C   UNL     1      97.669  56.265 217.202  1.00  0.00     0.000 C 
BRANCH   9  10
ATOM     10  C   UNL     1      98.960  56.866 216.634  1.00  0.00     0.000 C 
BRANCH  10  11
ATOM     11  C   UNL     1      98.873  58.400 216.564  1.00  0.00     0.000 C 
BRANCH  11  12
ATOM     12  C   UNL     1      99.687  59.086 217.673  1.00  0.00     0.000 C 
BRANCH  12  13
ATOM     13  C   UNL     1     100.990  58.337 217.994  1.00  0.00     0.006 C 
BRANCH  13  14
ATOM     14  C   UNL     1     101.687  58.948 219.213  1.00  0.00     0.053 C 
BRANCH  14  15
ATOM     15  C   UNL     1     103.172  58.790 219.108  1.00  0.00     0.041 C 
ATOM     16  O   UNL     1     103.867  59.673 218.537  1.00  0.00    -0.550 OA
ATOM     17  O   UNL     1     103.792  57.666 219.642  1.00  0.00    -0.550 OA
ENDBRANCH  14  15
ENDBRANCH  13  14
ENDBRANCH  12  13
ENDBRANCH  11  12
ENDBRANCH  10  11
ENDBRANCH   9  10
ENDBRANCH   8   9
ENDBRANCH   7   8
ENDBRANCH   6   7
ENDBRANCH   5   6
ENDBRANCH   4   5
ENDBRANCH   3   4
ENDBRANCH   2   3
ENDBRANCH   1   2
BRANCH   1  18
ATOM     18  C   UNL     1      95.859  53.525 222.014  1.00  0.00     0.000 C 
BRANCH  18  19
ATOM     19  C   UNL     1      95.066  54.811 221.731  1.00  0.00     0.000 C 
BRANCH  19  20
ATOM     20  C   UNL     1      94.727  55.594 223.017  1.00  0.00     0.000 C 
BRANCH  20  21
ATOM     21  C   UNL     1      95.161  57.073 222.989  1.00  0.00     0.000 C 
BRANCH  21  22
ATOM     22  C   UNL     1      95.652  57.642 224.330  1.00  0.00     0.000 C 
BRANCH  22  23
ATOM     23  C   UNL     1      95.947  56.546 225.370  1.00  0.00     0.000 C 
BRANCH  23  24
ATOM     24  C   UNL     1      97.048  56.950 226.367  1.00  0.00    -0.000 C 
BRANCH  24  25
ATOM     25  C   UNL     1      97.956  55.797 226.850  1.00  0.00    -0.000 C 
BRANCH  25  26
ATOM     26  C   UNL     1      97.534  55.141 228.180  1.00  0.00    -0.000 C 
BRANCH  26  27
ATOM     27  C   UNL     1      96.646  53.893 228.032  1.00  0.00    -0.000 C 
BRANCH  27  28
ATOM     28  C   UNL     1      96.826  53.159 226.685  1.00  0.00    -0.000 C 
BRANCH  28  29
ATOM     29  C   UNL     1      97.732  51.924 226.804  1.00  0.00    -0.000 C 
BRANCH  29  30
ATOM     30  C   UNL     1      98.727  51.861 225.636  1.00  0.00    -0.000 C 
BRANCH  30  31
ATOM     31  C   UNL     1      99.925  52.802 225.830  1.00  0.00    -0.003 C 
ATOM     32  C   UNL     1     100.956  52.684 224.705  1.00  0.00     0.004 C 
ENDBRANCH  30  31
ENDBRANCH  29  30
ENDBRANCH  28  29
ENDBRANCH  27  28
ENDBRANCH  26  27
ENDBRANCH  25  26
ENDBRANCH  24  25
ENDBRANCH  23  24
ENDBRANCH  22  23
ENDBRANCH  21  22
ENDBRANCH  20  21
ENDBRANCH  19  20
ENDBRANCH  18  19
ENDBRANCH   1  18
TORSDOF 28
ENDMDL
MODEL 8
REMARK VINA RESULT:    -2.445      2.195      4.936
REMARK INTER + INTRA:         -12.408
REMARK INTER:                  -5.226
REMARK INTRA:                  -7.181
REMARK UNBOUND:                -5.961
REMARK SMILES CCCCCCCCCCCCCCCCCCCCCCCCCCCCCC(=O)[O-]
REMARK SMILES IDX 16 1 17 2 18 3 19 4 20 5 21 6 22 7 23 8 24 9 25 10 26 11
REMARK SMILES IDX 27 12 28 13 29 14 30 15 31 16 32 17 15 18 14 19 13 20 12 21
REMARK SMILES IDX 11 22 10 23 9 24 8 25 7 26 6 27 5 28 4 29 3 30 2 31 1 32
REMARK H PARENT
REMARK Flexibility Score: inf
ROOT
ATOM      1  C   UNL     1      94.226  67.151 224.556  1.00  0.00     0.000 C 
ENDROOT
BRANCH   1   2
ATOM      2  C   UNL     1      94.635  68.104 225.691  1.00  0.00     0.000 C 
BRANCH   2   3
ATOM      3  C   UNL     1      95.064  67.354 226.962  1.00  0.00     0.000 C 
BRANCH   3   4
ATOM      4  C   UNL     1      96.535  67.607 227.324  1.00  0.00     0.000 C 
BRANCH   4   5
ATOM      5  C   UNL     1      97.214  66.317 227.809  1.00  0.00     0.000 C 
BRANCH   5   6
ATOM      6  C   UNL     1      96.205  65.194 228.101  1.00  0.00     0.000 C 
BRANCH   6   7
ATOM      7  C   UNL     1      96.569  63.868 227.410  1.00  0.00     0.000 C 
BRANCH   7   8
ATOM      8  C   UNL     1      98.066  63.775 227.074  1.00  0.00     0.000 C 
BRANCH   8   9
ATOM      9  C   UNL     1      98.350  62.895 225.846  1.00  0.00     0.000 C 
BRANCH   9  10
ATOM     10  C   UNL     1      99.606  62.043 226.065  1.00  0.00     0.000 C 
BRANCH  10  11
ATOM     11  C   UNL     1      99.988  61.994 227.553  1.00  0.00     0.000 C 
BRANCH  11  12
ATOM     12  C   UNL     1      99.637  60.647 228.206  1.00  0.00     0.000 C 
BRANCH  12  13
ATOM     13  C   UNL     1      98.557  60.783 229.290  1.00  0.00     0.006 C 
BRANCH  13  14
ATOM     14  C   UNL     1      97.162  60.531 228.710  1.00  0.00     0.053 C 
BRANCH  14  15
ATOM     15  C   UNL     1      97.138  59.256 227.925  1.00  0.00     0.041 C 
ATOM     16  O   UNL     1      96.998  59.284 226.672  1.00  0.00    -0.550 OA
ATOM     17  O   UNL     1      97.271  58.035 228.576  1.00  0.00    -0.550 OA
ENDBRANCH  14  15
ENDBRANCH  13  14
ENDBRANCH  12  13
ENDBRANCH  11  12
ENDBRANCH  10  11
ENDBRANCH   9  10
ENDBRANCH   8   9
ENDBRANCH   7   8
ENDBRANCH   6   7
ENDBRANCH   5   6
ENDBRANCH   4   5
ENDBRANCH   3   4
ENDBRANCH   2   3
ENDBRANCH   1   2
BRANCH   1  18
ATOM     18  C   UNL     1      94.367  65.688 224.995  1.00  0.00     0.000 C 
BRANCH  18  19
ATOM     19  C   UNL     1      95.377  64.941 224.110  1.00  0.00     0.000 C 
BRANCH  19  20
ATOM     20  C   UNL     1      96.399  65.888 223.447  1.00  0.00     0.000 C 
BRANCH  20  21
ATOM     21  C   UNL     1      97.753  65.970 224.180  1.00  0.00     0.000 C 
BRANCH  21  22
ATOM     22  C   UNL     1      98.377  67.373 224.257  1.00  0.00     0.000 C 
BRANCH  22  23
ATOM     23  C   UNL     1      99.833  67.351 224.756  1.00  0.00     0.000 C 
BRANCH  23  24
ATOM     24  C   UNL     1     100.505  65.978 224.577  1.00  0.00    -0.000 C 
BRANCH  24  25
ATOM     25  C   UNL     1     101.173  65.400 225.844  1.00  0.00    -0.000 C 
BRANCH  25  26
ATOM     26  C   UNL     1     100.896  66.176 227.147  1.00  0.00    -0.000 C 
BRANCH  26  27
ATOM     27  C   UNL     1     101.226  65.409 228.440  1.00  0.00    -0.000 C 
BRANCH  27  28
ATOM     28  C   UNL     1     100.177  65.598 229.557  1.00  0.00    -0.000 C 
BRANCH  28  29
ATOM     29  C   UNL     1      99.832  64.281 230.269  1.00  0.00    -0.000 C 
BRANCH  29  30
ATOM     30  C   UNL     1      98.472  64.381 230.977  1.00  0.00    -0.000 C 
BRANCH  30  31
ATOM     31  C   UNL     1      98.218  65.776 231.570  1.00  0.00    -0.003 C 
ATOM     32  C   UNL     1      96.733  66.145 231.591  1.00  0.00     0.004 C 
ENDBRANCH  30  31
ENDBRANCH  29  30
ENDBRANCH  28  29
ENDBRANCH  27  28
ENDBRANCH  26  27
ENDBRANCH  25  26
ENDBRANCH  24  25
ENDBRANCH  23  24
ENDBRANCH  22  23
ENDBRANCH  21  22
ENDBRANCH  20  21
ENDBRANCH  19  20
ENDBRANCH  18  19
ENDBRANCH   1  18
TORSDOF 28
ENDMDL
MODEL 9
REMARK VINA RESULT:    -2.432      2.394      5.280
REMARK INTER + INTRA:         -12.374
REMARK INTER:                  -6.538
REMARK INTRA:                  -5.836
REMARK UNBOUND:                -5.961
REMARK SMILES CCCCCCCCCCCCCCCCCCCCCCCCCCCCCC(=O)[O-]
REMARK SMILES IDX 16 1 17 2 18 3 19 4 20 5 21 6 22 7 23 8 24 9 25 10 26 11
REMARK SMILES IDX 27 12 28 13 29 14 30 15 31 16 32 17 15 18 14 19 13 20 12 21
REMARK SMILES IDX 11 22 10 23 9 24 8 25 7 26 6 27 5 28 4 29 3 30 2 31 1 32
REMARK H PARENT
REMARK Flexibility Score: inf
ROOT
ATOM      1  C   UNL     1      98.991  62.046 226.328  1.00  0.00     0.000 C 
ENDROOT
BRANCH   1   2
ATOM      2  C   UNL     1      97.804  62.550 227.166  1.00  0.00     0.000 C 
BRANCH   2   3
ATOM      3  C   UNL     1      96.747  63.271 226.314  1.00  0.00     0.000 C 
BRANCH   3   4
ATOM      4  C   UNL     1      97.268  63.630 224.914  1.00  0.00     0.000 C 
BRANCH   4   5
ATOM      5  C   UNL     1      96.352  64.657 224.230  1.00  0.00     0.000 C 
BRANCH   5   6
ATOM      6  C   UNL     1      95.016  64.839 224.971  1.00  0.00     0.000 C 
BRANCH   6   7
ATOM      7  C   UNL     1      94.525  66.298 224.968  1.00  0.00     0.000 C 
BRANCH   7   8
ATOM      8  C   UNL     1      95.617  67.284 225.412  1.00  0.00     0.000 C 
BRANCH   8   9
ATOM      9  C   UNL     1      95.979  67.145 226.899  1.00  0.00     0.000 C 
BRANCH   9  10
ATOM     10  C   UNL     1      97.484  67.345 227.114  1.00  0.00     0.000 C 
BRANCH  10  11
ATOM     11  C   UNL     1      98.075  66.216 227.974  1.00  0.00     0.000 C 
BRANCH  11  12
ATOM     12  C   UNL     1      99.473  65.787 227.501  1.00  0.00     0.000 C 
BRANCH  12  13
ATOM     13  C   UNL     1      99.709  66.092 226.014  1.00  0.00     0.006 C 
BRANCH  13  14
ATOM     14  C   UNL     1     100.705  65.102 225.402  1.00  0.00     0.053 C 
BRANCH  14  15
ATOM     15  C   UNL     1     100.634  65.136 223.906  1.00  0.00     0.041 C 
ATOM     16  O   UNL     1     100.891  66.200 223.281  1.00  0.00    -0.550 OA
ATOM     17  O   UNL     1     100.287  63.990 223.200  1.00  0.00    -0.550 OA
ENDBRANCH  14  15
ENDBRANCH  13  14
ENDBRANCH  12  13
ENDBRANCH  11  12
ENDBRANCH  10  11
ENDBRANCH   9  10
ENDBRANCH   8   9
ENDBRANCH   7   8
ENDBRANCH   6   7
ENDBRANCH   5   6
ENDBRANCH   4   5
ENDBRANCH   3   4
ENDBRANCH   2   3
ENDBRANCH   1   2
BRANCH   1  18
ATOM     18  C   UNL     1     100.044  61.376 227.221  1.00  0.00     0.000 C 
BRANCH  18  19
ATOM     19  C   UNL     1     100.799  62.419 228.061  1.00  0.00     0.000 C 
BRANCH  19  20
ATOM     20  C   UNL     1     100.655  62.175 229.578  1.00  0.00     0.000 C 
BRANCH  20  21
ATOM     21  C   UNL     1     100.224  63.419 230.380  1.00  0.00     0.000 C 
BRANCH  21  22
ATOM     22  C   UNL     1      99.005  63.224 231.296  1.00  0.00     0.000 C 
BRANCH  22  23
ATOM     23  C   UNL     1      97.771  64.013 230.823  1.00  0.00     0.000 C 
BRANCH  23  24
ATOM     24  C   UNL     1      96.545  63.114 230.584  1.00  0.00    -0.000 C 
BRANCH  24  25
ATOM     25  C   UNL     1      96.862  61.644 230.232  1.00  0.00    -0.000 C 
BRANCH  25  26
ATOM     26  C   UNL     1      96.370  60.602 231.256  1.00  0.00    -0.000 C 
BRANCH  26  27
ATOM     27  C   UNL     1      96.743  59.145 230.927  1.00  0.00    -0.000 C 
BRANCH  27  28
ATOM     28  C   UNL     1      96.797  58.846 229.413  1.00  0.00    -0.000 C 
BRANCH  28  29
ATOM     29  C   UNL     1      98.227  58.580 228.915  1.00  0.00    -0.000 C 
BRANCH  29  30
ATOM     30  C   UNL     1      98.229  58.232 227.419  1.00  0.00    -0.000 C 
BRANCH  30  31
ATOM     31  C   UNL     1      97.058  58.876 226.662  1.00  0.00    -0.003 C 
ATOM     32  C   UNL     1      96.493  57.967 225.568  1.00  0.00     0.004 C 
ENDBRANCH  30  31
ENDBRANCH  29  30
ENDBRANCH  28  29
ENDBRANCH  27  28
ENDBRANCH  26  27
ENDBRANCH  25  26
ENDBRANCH  24  25
ENDBRANCH  23  24
ENDBRANCH  22  23
ENDBRANCH  21  22
ENDBRANCH  20  21
ENDBRANCH  19  20
ENDBRANCH  18  19
ENDBRANCH   1  18
TORSDOF 28
ENDMDL
