MODEL 1
REMARK VINA RESULT:    -4.620      0.000      0.000
REMARK INTER + INTRA:          -7.782
REMARK INTER:                  -7.322
REMARK INTRA:                  -0.460
REMARK UNBOUND:                -0.460
REMARK SMILES CCCCCCCCCCCC(=O)[O-]
REMARK SMILES IDX 7 1 8 2 9 3 10 4 11 5 12 6 13 7 14 8 6 9 5 10 4 11 3 12 2 13
REMARK SMILES IDX 1 14
REMARK H PARENT
REMARK Flexibility Score: inf
ROOT
ATOM      1  C   UNL     1       4.123  10.382  82.828  1.00  0.00     0.000 C 
ENDROOT
BRANCH   1   2
ATOM      2  C   UNL     1       5.296  10.169  81.859  1.00  0.00     0.000 C 
BRANCH   2   3
ATOM      3  C   UNL     1       5.759   8.704  81.875  1.00  0.00     0.000 C 
BRANCH   3   4
ATOM      4  C   UNL     1       7.006   8.468  81.009  1.00  0.00     0.006 C 
BRANCH   4   5
ATOM      5  C   UNL     1       6.924   7.170  80.194  1.00  0.00     0.053 C 
BRANCH   5   6
ATOM      6  C   UNL     1       8.276   6.788  79.682  1.00  0.00     0.041 C 
ATOM      7  O   UNL     1       9.114   7.678  79.381  1.00  0.00    -0.550 OA
ATOM      8  O   UNL     1       8.630   5.448  79.586  1.00  0.00    -0.550 OA
ENDBRANCH   5   6
ENDBRANCH   4   5
ENDBRANCH   3   4
ENDBRANCH   2   3
ENDBRANCH   1   2
BRANCH   1   9
ATOM      9  C   UNL     1       3.246   9.130  82.989  1.00  0.00     0.000 C 
BRANCH   9  10
ATOM     10  C   UNL     1       2.423   9.148  84.287  1.00  0.00    -0.000 C 
BRANCH  10  11
ATOM     11  C   UNL     1       2.480   7.809  85.042  1.00  0.00    -0.000 C 
BRANCH  11  12
ATOM     12  C   UNL     1       2.236   7.966  86.550  1.00  0.00    -0.000 C 
BRANCH  12  13
ATOM     13  C   UNL     1       2.724   9.334  87.043  1.00  0.00    -0.003 C 
ATOM     14  C   UNL     1       2.551   9.469  88.553  1.00  0.00     0.004 C 
ENDBRANCH  12  13
ENDBRANCH  11  12
ENDBRANCH  10  11
ENDBRANCH   9  10
ENDBRANCH   1   9
TORSDOF 10
ENDMDL
MODEL 2
REMARK VINA RESULT:    -4.371      1.281      1.932
REMARK INTER + INTRA:          -7.386
REMARK INTER:                  -6.932
REMARK INTRA:                  -0.454
REMARK UNBOUND:                -0.460
REMARK SMILES CCCCCCCCCCCC(=O)[O-]
REMARK SMILES IDX 7 1 8 2 9 3 10 4 11 5 12 6 13 7 14 8 6 9 5 10 4 11 3 12 2 13
REMARK SMILES IDX 1 14
REMARK H PARENT
REMARK Flexibility Score: inf
ROOT
ATOM      1  C   UNL     1       3.538   9.373  82.981  1.00  0.00     0.000 C 
ENDROOT
BRANCH   1   2
ATOM      2  C   UNL     1       4.845   9.676  82.232  1.00  0.00     0.000 C 
BRANCH   2   3
ATOM      3  C   UNL     1       5.567   8.377  81.842  1.00  0.00     0.000 C 
BRANCH   3   4
ATOM      4  C   UNL     1       6.897   8.634  81.116  1.00  0.00     0.006 C 
BRANCH   4   5
ATOM      5  C   UNL     1       7.257   7.516  80.128  1.00  0.00     0.053 C 
BRANCH   5   6
ATOM      6  C   UNL     1       8.671   7.666  79.663  1.00  0.00     0.041 C 
ATOM      7  O   UNL     1       9.371   8.632  80.066  1.00  0.00    -0.550 OA
ATOM      8  O   UNL     1       9.233   6.710  78.827  1.00  0.00    -0.550 OA
ENDBRANCH   5   6
ENDBRANCH   4   5
ENDBRANCH   3   4
ENDBRANCH   2   3
ENDBRANCH   1   2
BRANCH   1   9
ATOM      9  C   UNL     1       3.162  10.469  83.990  1.00  0.00     0.000 C 
BRANCH   9  10
ATOM     10  C   UNL     1       3.029   9.931  85.424  1.00  0.00    -0.000 C 
BRANCH  10  11
ATOM     11  C   UNL     1       1.885   8.912  85.570  1.00  0.00    -0.000 C 
BRANCH  11  12
ATOM     12  C   UNL     1       2.340   7.599  86.225  1.00  0.00    -0.000 C 
BRANCH  12  13
ATOM     13  C   UNL     1       2.813   6.595  85.166  1.00  0.00    -0.003 C 
ATOM     14  C   UNL     1       2.732   5.164  85.689  1.00  0.00     0.004 C 
ENDBRANCH  12  13
ENDBRANCH  11  12
ENDBRANCH  10  11
ENDBRANCH   9  10
ENDBRANCH   1   9
TORSDOF 10
ENDMDL
MODEL 3
REMARK VINA RESULT:    -4.355      3.103      4.852
REMARK INTER + INTRA:          -7.361
REMARK INTER:                  -6.546
REMARK INTRA:                  -0.815
REMARK UNBOUND:                -0.460
REMARK SMILES CCCCCCCCCCCC(=O)[O-]
REMARK SMILES IDX 7 1 8 2 9 3 10 4 11 5 12 6 13 7 14 8 6 9 5 10 4 11 3 12 2 13
REMARK SMILES IDX 1 14
REMARK H PARENT
REMARK Flexibility Score: inf
ROOT
ATOM      1  C   UNL     1       5.373   8.779  82.009  1.00  0.00     0.000 C 
ENDROOT
BRANCH   1   2
ATOM      2  C   UNL     1       6.664   8.536  81.210  1.00  0.00     0.000 C 
BRANCH   2   3
ATOM      3  C   UNL     1       6.541   7.275  80.342  1.00  0.00     0.000 C 
BRANCH   3   4
ATOM      4  C   UNL     1       7.907   6.675  79.972  1.00  0.00     0.006 C 
BRANCH   4   5
ATOM      5  C   UNL     1       8.672   7.532  78.954  1.00  0.00     0.053 C 
BRANCH   5   6
ATOM      6  C   UNL     1       9.986   7.968  79.522  1.00  0.00     0.041 C 
ATOM      7  O   UNL     1      11.028   7.300  79.290  1.00  0.00    -0.550 OA
ATOM      8  O   UNL     1      10.069   9.138  80.264  1.00  0.00    -0.550 OA
ENDBRANCH   5   6
ENDBRANCH   4   5
ENDBRANCH   3   4
ENDBRANCH   2   3
ENDBRANCH   1   2
BRANCH   1   9
ATOM      9  C   UNL     1       5.258  10.220  82.531  1.00  0.00     0.000 C 
BRANCH   9  10
ATOM     10  C   UNL     1       3.821  10.761  82.458  1.00  0.00    -0.000 C 
BRANCH  10  11
ATOM     11  C   UNL     1       3.564  11.589  81.187  1.00  0.00    -0.000 C 
BRANCH  11  12
ATOM     12  C   UNL     1       4.585  12.722  81.000  1.00  0.00    -0.000 C 
BRANCH  12  13
ATOM     13  C   UNL     1       5.068  12.788  79.547  1.00  0.00    -0.003 C 
ATOM     14  C   UNL     1       6.201  11.796  79.297  1.00  0.00     0.004 C 
ENDBRANCH  12  13
ENDBRANCH  11  12
ENDBRANCH  10  11
ENDBRANCH   9  10
ENDBRANCH   1   9
TORSDOF 10
ENDMDL
MODEL 4
REMARK VINA RESULT:    -4.322      3.463      7.303
REMARK INTER + INTRA:          -7.309
REMARK INTER:                  -6.886
REMARK INTRA:                  -0.423
REMARK UNBOUND:                -0.460
REMARK SMILES CCCCCCCCCCCC(=O)[O-]
REMARK SMILES IDX 7 1 8 2 9 3 10 4 11 5 12 6 13 7 14 8 6 9 5 10 4 11 3 12 2 13
REMARK SMILES IDX 1 14
REMARK H PARENT
REMARK Flexibility Score: inf
ROOT
ATOM      1  C   UNL     1       4.537  10.237  82.576  1.00  0.00     0.000 C 
ENDROOT
BRANCH   1   2
ATOM      2  C   UNL     1       3.592   9.071  82.906  1.00  0.00     0.000 C 
BRANCH   2   3
ATOM      3  C   UNL     1       2.426   9.545  83.787  1.00  0.00     0.000 C 
BRANCH   3   4
ATOM      4  C   UNL     1       2.430   8.889  85.178  1.00  0.00     0.006 C 
BRANCH   4   5
ATOM      5  C   UNL     1       1.303   7.863  85.350  1.00  0.00     0.053 C 
BRANCH   5   6
ATOM      6  C   UNL     1       1.870   6.493  85.552  1.00  0.00     0.041 C 
ATOM      7  O   UNL     1       1.130   5.553  85.943  1.00  0.00    -0.550 OA
ATOM      8  O   UNL     1       3.205   6.243  85.260  1.00  0.00    -0.550 OA
ENDBRANCH   5   6
ENDBRANCH   4   5
ENDBRANCH   3   4
ENDBRANCH   2   3
ENDBRANCH   1   2
BRANCH   1   9
ATOM      9  C   UNL     1       5.604   9.862  81.535  1.00  0.00     0.000 C 
BRANCH   9  10
ATOM     10  C   UNL     1       5.965   8.368  81.572  1.00  0.00    -0.000 C 
BRANCH  10  11
ATOM     11  C   UNL     1       7.192   8.035  80.706  1.00  0.00    -0.000 C 
BRANCH  11  12
ATOM     12  C   UNL     1       6.998   6.765  79.863  1.00  0.00    -0.000 C 
BRANCH  12  13
ATOM     13  C   UNL     1       8.322   6.010  79.699  1.00  0.00    -0.003 C 
ATOM     14  C   UNL     1       9.368   6.878  79.004  1.00  0.00     0.004 C 
ENDBRANCH  12  13
ENDBRANCH  11  12
ENDBRANCH  10  11
ENDBRANCH   9  10
ENDBRANCH   1   9
TORSDOF 10
ENDMDL
MODEL 5
REMARK VINA RESULT:    -4.301      4.460      7.816
REMARK INTER + INTRA:          -7.276
REMARK INTER:                  -6.862
REMARK INTRA:                  -0.414
REMARK UNBOUND:                -0.460
REMARK SMILES CCCCCCCCCCCC(=O)[O-]
REMARK SMILES IDX 7 1 8 2 9 3 10 4 11 5 12 6 13 7 14 8 6 9 5 10 4 11 3 12 2 13
REMARK SMILES IDX 1 14
REMARK H PARENT
REMARK Flexibility Score: inf
ROOT
ATOM      1  C   UNL     1       3.769  10.247  82.304  1.00  0.00     0.000 C 
ENDROOT
BRANCH   1   2
ATOM      2  C   UNL     1       3.239   9.038  83.090  1.00  0.00     0.000 C 
BRANCH   2   3
ATOM      3  C   UNL     1       2.315   9.490  84.232  1.00  0.00     0.000 C 
BRANCH   3   4
ATOM      4  C   UNL     1       2.491   8.647  85.505  1.00  0.00     0.006 C 
BRANCH   4   5
ATOM      5  C   UNL     1       2.983   9.475  86.700  1.00  0.00     0.053 C 
BRANCH   5   6
ATOM      6  C   UNL     1       2.254   9.079  87.945  1.00  0.00     0.041 C 
ATOM      7  O   UNL     1       2.644   9.498  89.066  1.00  0.00    -0.550 OA
ATOM      8  O   UNL     1       1.115   8.289  87.863  1.00  0.00    -0.550 OA
ENDBRANCH   5   6
ENDBRANCH   4   5
ENDBRANCH   3   4
ENDBRANCH   2   3
ENDBRANCH   1   2
BRANCH   1   9
ATOM      9  C   UNL     1       5.267  10.137  81.980  1.00  0.00     0.000 C 
BRANCH   9  10
ATOM     10  C   UNL     1       5.750   8.679  81.909  1.00  0.00    -0.000 C 
BRANCH  10  11
ATOM     11  C   UNL     1       7.066   8.529  81.128  1.00  0.00    -0.000 C 
BRANCH  11  12
ATOM     12  C   UNL     1       7.060   7.319  80.181  1.00  0.00    -0.000 C 
BRANCH  12  13
ATOM     13  C   UNL     1       8.364   7.248  79.377  1.00  0.00    -0.003 C 
ATOM     14  C   UNL     1       9.246   8.463  79.649  1.00  0.00     0.004 C 
ENDBRANCH  12  13
ENDBRANCH  11  12
ENDBRANCH  10  11
ENDBRANCH   9  10
ENDBRANCH   1   9
TORSDOF 10
ENDMDL
MODEL 6
REMARK VINA RESULT:    -4.284      3.601      7.165
REMARK INTER + INTRA:          -7.249
REMARK INTER:                  -6.478
REMARK INTRA:                  -0.770
REMARK UNBOUND:                -0.460
REMARK SMILES CCCCCCCCCCCC(=O)[O-]
REMARK SMILES IDX 7 1 8 2 9 3 10 4 11 5 12 6 13 7 14 8 6 9 5 10 4 11 3 12 2 13
REMARK SMILES IDX 1 14
REMARK H PARENT
REMARK Flexibility Score: inf
ROOT
ATOM      1  C   UNL     1       6.304   8.841  81.929  1.00  0.00     0.000 C 
ENDROOT
BRANCH   1   2
ATOM      2  C   UNL     1       4.851   8.410  82.180  1.00  0.00     0.000 C 
BRANCH   2   3
ATOM      3  C   UNL     1       3.986   9.612  82.588  1.00  0.00     0.000 C 
BRANCH   3   4
ATOM      4  C   UNL     1       4.804  10.904  82.748  1.00  0.00     0.006 C 
BRANCH   4   5
ATOM      5  C   UNL     1       4.275  12.050  81.875  1.00  0.00     0.053 C 
BRANCH   5   6
ATOM      6  C   UNL     1       5.310  12.467  80.878  1.00  0.00     0.041 C 
ATOM      7  O   UNL     1       5.624  11.696  79.934  1.00  0.00    -0.550 OA
ATOM      8  O   UNL     1       5.889  13.727  80.961  1.00  0.00    -0.550 OA
ENDBRANCH   5   6
ENDBRANCH   4   5
ENDBRANCH   3   4
ENDBRANCH   2   3
ENDBRANCH   1   2
BRANCH   1   9
ATOM      9  C   UNL     1       6.947   8.106  80.743  1.00  0.00     0.000 C 
BRANCH   9  10
ATOM     10  C   UNL     1       7.891   9.009  79.931  1.00  0.00    -0.000 C 
BRANCH  10  11
ATOM     11  C   UNL     1       9.313   8.432  79.822  1.00  0.00    -0.000 C 
BRANCH  11  12
ATOM     12  C   UNL     1       9.397   7.239  78.856  1.00  0.00    -0.000 C 
BRANCH  12  13
ATOM     13  C   UNL     1       9.904   5.986  79.579  1.00  0.00    -0.003 C 
ATOM     14  C   UNL     1       8.760   5.017  79.868  1.00  0.00     0.004 C 
ENDBRANCH  12  13
ENDBRANCH  11  12
ENDBRANCH  10  11
ENDBRANCH   9  10
ENDBRANCH   1   9
TORSDOF 10
ENDMDL
MODEL 7
REMARK VINA RESULT:    -4.284      4.052      7.533
REMARK INTER + INTRA:          -7.248
REMARK INTER:                  -6.669
REMARK INTRA:                  -0.579
REMARK UNBOUND:                -0.460
REMARK SMILES CCCCCCCCCCCC(=O)[O-]
REMARK SMILES IDX 7 1 8 2 9 3 10 4 11 5 12 6 13 7 14 8 6 9 5 10 4 11 3 12 2 13
REMARK SMILES IDX 1 14
REMARK H PARENT
REMARK Flexibility Score: inf
ROOT
ATOM      1  C   UNL     1       7.048   8.433  81.118  1.00  0.00     0.000 C 
ENDROOT
BRANCH   1   2
ATOM      2  C   UNL     1       6.126   9.148  82.118  1.00  0.00     0.000 C 
BRANCH   2   3
ATOM      3  C   UNL     1       4.780   8.417  82.241  1.00  0.00     0.000 C 
BRANCH   3   4
ATOM      4  C   UNL     1       3.644   9.342  82.703  1.00  0.00     0.006 C 
BRANCH   4   5
ATOM      5  C   UNL     1       3.803  10.778  82.185  1.00  0.00     0.053 C 
BRANCH   5   6
ATOM      6  C   UNL     1       3.729  11.753  83.318  1.00  0.00     0.041 C 
ATOM      7  O   UNL     1       2.644  12.332  83.584  1.00  0.00    -0.550 OA
ATOM      8  O   UNL     1       4.846  11.983  84.111  1.00  0.00    -0.550 OA
ENDBRANCH   5   6
ENDBRANCH   4   5
ENDBRANCH   3   4
ENDBRANCH   2   3
ENDBRANCH   1   2
BRANCH   1   9
ATOM      9  C   UNL     1       7.383   9.299  79.893  1.00  0.00     0.000 C 
BRANCH   9  10
ATOM     10  C   UNL     1       8.889   9.580  79.762  1.00  0.00    -0.000 C 
BRANCH  10  11
ATOM     11  C   UNL     1       9.735   8.295  79.793  1.00  0.00    -0.000 C 
BRANCH  11  12
ATOM     12  C   UNL     1       9.261   7.248  78.772  1.00  0.00    -0.000 C 
BRANCH  12  13
ATOM     13  C   UNL     1       9.314   5.838  79.372  1.00  0.00    -0.003 C 
ATOM     14  C   UNL     1       7.923   5.359  79.775  1.00  0.00     0.004 C 
ENDBRANCH  12  13
ENDBRANCH  11  12
ENDBRANCH  10  11
ENDBRANCH   9  10
ENDBRANCH   1   9
TORSDOF 10
ENDMDL
MODEL 8
REMARK VINA RESULT:    -4.260      2.477      4.050
REMARK INTER + INTRA:          -7.210
REMARK INTER:                  -6.526
REMARK INTRA:                  -0.685
REMARK UNBOUND:                -0.460
REMARK SMILES CCCCCCCCCCCC(=O)[O-]
REMARK SMILES IDX 7 1 8 2 9 3 10 4 11 5 12 6 13 7 14 8 6 9 5 10 4 11 3 12 2 13
REMARK SMILES IDX 1 14
REMARK H PARENT
REMARK Flexibility Score: inf
ROOT
ATOM      1  C   UNL     1       4.802   9.473  82.488  1.00  0.00     0.000 C 
ENDROOT
BRANCH   1   2
ATOM      2  C   UNL     1       5.596   8.366  81.777  1.00  0.00     0.000 C 
BRANCH   2   3
ATOM      3  C   UNL     1       6.903   8.921  81.190  1.00  0.00     0.000 C 
BRANCH   3   4
ATOM      4  C   UNL     1       7.306   8.227  79.879  1.00  0.00     0.006 C 
BRANCH   4   5
ATOM      5  C   UNL     1       7.170   6.700  79.953  1.00  0.00     0.053 C 
BRANCH   5   6
ATOM      6  C   UNL     1       8.428   6.041  79.484  1.00  0.00     0.041 C 
ATOM      7  O   UNL     1       9.194   6.638  78.682  1.00  0.00    -0.550 OA
ATOM      8  O   UNL     1       8.781   4.789  79.970  1.00  0.00    -0.550 OA
ENDBRANCH   5   6
ENDBRANCH   4   5
ENDBRANCH   3   4
ENDBRANCH   2   3
ENDBRANCH   1   2
BRANCH   1   9
ATOM      9  C   UNL     1       3.336   9.087  82.739  1.00  0.00     0.000 C 
BRANCH   9  10
ATOM     10  C   UNL     1       2.414  10.312  82.851  1.00  0.00    -0.000 C 
BRANCH  10  11
ATOM     11  C   UNL     1       3.032  11.576  82.230  1.00  0.00    -0.000 C 
BRANCH  11  12
ATOM     12  C   UNL     1       2.135  12.209  81.155  1.00  0.00    -0.000 C 
BRANCH  12  13
ATOM     13  C   UNL     1       2.891  12.356  79.829  1.00  0.00    -0.003 C 
ATOM     14  C   UNL     1       4.398  12.422  80.059  1.00  0.00     0.004 C 
ENDBRANCH  12  13
ENDBRANCH  11  12
ENDBRANCH  10  11
ENDBRANCH   9  10
ENDBRANCH   1   9
TORSDOF 10
ENDMDL
MODEL 9
REMARK VINA RESULT:    -4.197      4.487      7.364
REMARK INTER + INTRA:          -7.111
REMARK INTER:                  -6.386
REMARK INTRA:                  -0.725
REMARK UNBOUND:                -0.460
REMARK SMILES CCCCCCCCCCCC(=O)[O-]
REMARK SMILES IDX 7 1 8 2 9 3 10 4 11 5 12 6 13 7 14 8 6 9 5 10 4 11 3 12 2 13
REMARK SMILES IDX 1 14
REMARK H PARENT
REMARK Flexibility Score: inf
ROOT
ATOM      1  C   UNL     1       6.020   9.455  82.475  1.00  0.00     0.000 C 
ENDROOT
BRANCH   1   2
ATOM      2  C   UNL     1       4.509   9.238  82.291  1.00  0.00     0.000 C 
BRANCH   2   3
ATOM      3  C   UNL     1       3.750  10.570  82.382  1.00  0.00     0.000 C 
BRANCH   3   4
ATOM      4  C   UNL     1       4.517  11.735  81.737  1.00  0.00     0.006 C 
BRANCH   4   5
ATOM      5  C   UNL     1       3.950  12.130  80.367  1.00  0.00     0.053 C 
BRANCH   5   6
ATOM      6  C   UNL     1       2.513  12.529  80.493  1.00  0.00     0.041 C 
ATOM      7  O   UNL     1       1.621  11.879  79.888  1.00  0.00    -0.550 OA
ATOM      8  O   UNL     1       2.155  13.587  81.318  1.00  0.00    -0.550 OA
ENDBRANCH   5   6
ENDBRANCH   4   5
ENDBRANCH   3   4
ENDBRANCH   2   3
ENDBRANCH   1   2
BRANCH   1   9
ATOM      9  C   UNL     1       6.856   8.788  81.372  1.00  0.00     0.000 C 
BRANCH   9  10
ATOM     10  C   UNL     1       6.143   7.582  80.738  1.00  0.00    -0.000 C 
BRANCH  10  11
ATOM     11  C   UNL     1       7.078   6.740  79.854  1.00  0.00    -0.000 C 
BRANCH  11  12
ATOM     12  C   UNL     1       8.270   7.546  79.314  1.00  0.00    -0.000 C 
BRANCH  12  13
ATOM     13  C   UNL     1       9.479   6.636  79.068  1.00  0.00    -0.003 C 
ATOM     14  C   UNL     1       9.217   5.222  79.578  1.00  0.00     0.004 C 
ENDBRANCH  12  13
ENDBRANCH  11  12
ENDBRANCH  10  11
ENDBRANCH   9  10
ENDBRANCH   1   9
TORSDOF 10
ENDMDL
