MODEL 1
REMARK VINA RESULT:    -5.761      0.000      0.000
REMARK INTER + INTRA:          -6.928
REMARK INTER:                  -7.109
REMARK INTRA:                   0.181
REMARK UNBOUND:                 0.181
REMARK SMILES Oc1cc(O)c2cc(O)c(-c3cc(O)c(O)c(O)c3)[o+]c2c1
REMARK SMILES IDX 10 1 20 2 21 3 22 4 2 5 3 6 4 7 6 8 7 9 8 10 11 11 12 12
REMARK SMILES IDX 13 13 19 14 15 15 17 16 14 17 16 19 18 21 9 23 1 25 5 27
REMARK H PARENT 14 18 16 20 18 22 9 24 1 26 5 28
REMARK Flexibility Score: inf
ROOT
ATOM      1  C   UNL     1      45.376  16.396  -3.467  1.00  0.00     0.402 A 
ATOM      2  O   UNL     1      45.887  15.334  -2.850  1.00  0.00    -0.202 OA
ATOM      3  C   UNL     1      47.030  14.760  -3.211  1.00  0.00     0.368 A 
ATOM      4  C   UNL     1      47.487  13.649  -2.498  1.00  0.00     0.162 A 
ATOM      5  C   UNL     1      48.688  13.027  -2.855  1.00  0.00     0.128 A 
ATOM      6  C   UNL     1      49.435  13.522  -3.927  1.00  0.00     0.093 A 
ATOM      7  C   UNL     1      48.998  14.635  -4.656  1.00  0.00     0.136 A 
ATOM      8  C   UNL     1      47.778  15.267  -4.300  1.00  0.00     0.125 A 
ATOM      9  C   UNL     1      47.257  16.378  -4.983  1.00  0.00     0.078 A 
ATOM     10  C   UNL     1      46.046  16.945  -4.576  1.00  0.00     0.223 A 
ENDROOT
BRANCH   1  11
ATOM     11  C   UNL     1      44.098  16.951  -2.965  1.00  0.00     0.091 A 
ATOM     12  C   UNL     1      43.784  18.311  -3.110  1.00  0.00     0.068 A 
ATOM     13  C   UNL     1      42.583  18.830  -2.611  1.00  0.00     0.162 A 
ATOM     14  C   UNL     1      43.206  16.116  -2.278  1.00  0.00     0.068 A 
ATOM     15  C   UNL     1      41.675  17.975  -1.942  1.00  0.00     0.200 A 
ATOM     16  C   UNL     1      42.001  16.616  -1.777  1.00  0.00     0.162 A 
BRANCH  13  17
ATOM     17  O   UNL     1      42.341  20.193  -2.795  1.00  0.00    -0.504 OA
ATOM     18  H   UNL     1      42.032  20.818  -2.065  1.00  0.00     0.293 HD
ENDBRANCH  13  17
BRANCH  15  19
ATOM     19  O   UNL     1      40.456  18.433  -1.434  1.00  0.00    -0.502 OA
ATOM     20  H   UNL     1      39.853  17.891  -0.832  1.00  0.00     0.293 HD
ENDBRANCH  15  19
BRANCH  16  21
ATOM     21  O   UNL     1      41.138  15.744  -1.114  1.00  0.00    -0.504 OA
ATOM     22  H   UNL     1      41.451  14.861  -0.728  1.00  0.00     0.293 HD
ENDBRANCH  16  21
ENDBRANCH   1  11
BRANCH  10  23
ATOM     23  O   UNL     1      45.503  18.017  -5.285  1.00  0.00    -0.500 OA
ATOM     24  H   UNL     1      44.604  17.951  -5.746  1.00  0.00     0.294 HD
ENDBRANCH  10  23
BRANCH   5  25
ATOM     25  O   UNL     1      49.149  11.919  -2.149  1.00  0.00    -0.507 OA
ATOM     26  H   UNL     1      49.552  11.119  -2.623  1.00  0.00     0.293 HD
ENDBRANCH   5  25
BRANCH   7  27
ATOM     27  O   UNL     1      49.805  15.069  -5.712  1.00  0.00    -0.507 OA
ATOM     28  H   UNL     1      50.777  14.821  -5.826  1.00  0.00     0.293 HD
ENDBRANCH   7  27
TORSDOF 7
ENDMDL
MODEL 2
REMARK VINA RESULT:    -5.606      1.209      1.717
REMARK INTER + INTRA:          -6.737
REMARK INTER:                  -6.356
REMARK INTRA:                  -0.380
REMARK UNBOUND:                 0.181
REMARK SMILES Oc1cc(O)c2cc(O)c(-c3cc(O)c(O)c(O)c3)[o+]c2c1
REMARK SMILES IDX 10 1 20 2 21 3 22 4 2 5 3 6 4 7 6 8 7 9 8 10 11 11 12 12
REMARK SMILES IDX 13 13 19 14 15 15 17 16 14 17 16 19 18 21 9 23 1 25 5 27
REMARK H PARENT 14 18 16 20 18 22 9 24 1 26 5 28
REMARK Flexibility Score: inf
ROOT
ATOM      1  C   UNL     1      45.172  16.007  -3.567  1.00  0.00     0.402 A 
ATOM      2  O   UNL     1      45.780  14.918  -3.104  1.00  0.00    -0.202 OA
ATOM      3  C   UNL     1      47.049  14.624  -3.366  1.00  0.00     0.368 A 
ATOM      4  C   UNL     1      47.601  13.456  -2.830  1.00  0.00     0.162 A 
ATOM      5  C   UNL     1      48.934  13.124  -3.087  1.00  0.00     0.128 A 
ATOM      6  C   UNL     1      49.720  13.964  -3.880  1.00  0.00     0.093 A 
ATOM      7  C   UNL     1      49.191  15.140  -4.427  1.00  0.00     0.136 A 
ATOM      8  C   UNL     1      47.836  15.479  -4.172  1.00  0.00     0.125 A 
ATOM      9  C   UNL     1      47.219  16.630  -4.689  1.00  0.00     0.078 A 
ATOM     10  C   UNL     1      45.878  16.897  -4.398  1.00  0.00     0.223 A 
ENDROOT
BRANCH   1  11
ATOM     11  C   UNL     1      43.755  16.229  -3.198  1.00  0.00     0.091 A 
ATOM     12  C   UNL     1      42.707  15.735  -3.989  1.00  0.00     0.068 A 
ATOM     13  C   UNL     1      41.371  15.971  -3.644  1.00  0.00     0.162 A 
ATOM     14  C   UNL     1      43.450  16.998  -2.067  1.00  0.00     0.068 A 
ATOM     15  C   UNL     1      41.070  16.725  -2.485  1.00  0.00     0.200 A 
ATOM     16  C   UNL     1      42.122  17.239  -1.705  1.00  0.00     0.162 A 
BRANCH  13  17
ATOM     17  O   UNL     1      40.384  15.445  -4.481  1.00  0.00    -0.504 OA
ATOM     18  H   UNL     1      39.850  15.991  -5.142  1.00  0.00     0.293 HD
ENDBRANCH  13  17
BRANCH  15  19
ATOM     19  O   UNL     1      39.756  16.982  -2.083  1.00  0.00    -0.502 OA
ATOM     20  H   UNL     1      39.093  16.267  -1.823  1.00  0.00     0.293 HD
ENDBRANCH  15  19
BRANCH  16  21
ATOM     21  O   UNL     1      41.866  17.997  -0.562  1.00  0.00    -0.504 OA
ATOM     22  H   UNL     1      41.054  17.839   0.023  1.00  0.00     0.293 HD
ENDBRANCH  16  21
ENDBRANCH   1  11
BRANCH  10  23
ATOM     23  O   UNL     1      45.250  18.012  -4.952  1.00  0.00    -0.500 OA
ATOM     24  H   UNL     1      45.728  18.626  -5.600  1.00  0.00     0.294 HD
ENDBRANCH  10  23
BRANCH   5  25
ATOM     25  O   UNL     1      49.490  11.962  -2.558  1.00  0.00    -0.507 OA
ATOM     26  H   UNL     1      49.549  11.811  -1.558  1.00  0.00     0.293 HD
ENDBRANCH   5  25
BRANCH   7  27
ATOM     27  O   UNL     1      50.043  15.928  -5.207  1.00  0.00    -0.507 OA
ATOM     28  H   UNL     1      50.546  16.734  -4.865  1.00  0.00     0.293 HD
ENDBRANCH   7  27
TORSDOF 7
ENDMDL
MODEL 3
REMARK VINA RESULT:    -5.594      1.349      6.897
REMARK INTER + INTRA:          -6.722
REMARK INTER:                  -7.071
REMARK INTRA:                   0.350
REMARK UNBOUND:                 0.181
REMARK SMILES Oc1cc(O)c2cc(O)c(-c3cc(O)c(O)c(O)c3)[o+]c2c1
REMARK SMILES IDX 10 1 20 2 21 3 22 4 2 5 3 6 4 7 6 8 7 9 8 10 11 11 12 12
REMARK SMILES IDX 13 13 19 14 15 15 17 16 14 17 16 19 18 21 9 23 1 25 5 27
REMARK H PARENT 14 18 16 20 18 22 9 24 1 26 5 28
REMARK Flexibility Score: inf
ROOT
ATOM      1  C   UNL     1      46.488  16.458  -4.291  1.00  0.00     0.402 A 
ATOM      2  O   UNL     1      45.606  16.064  -3.376  1.00  0.00    -0.202 OA
ATOM      3  C   UNL     1      44.380  16.569  -3.278  1.00  0.00     0.368 A 
ATOM      4  C   UNL     1      43.524  16.086  -2.285  1.00  0.00     0.162 A 
ATOM      5  C   UNL     1      42.228  16.598  -2.161  1.00  0.00     0.128 A 
ATOM      6  C   UNL     1      41.788  17.593  -3.036  1.00  0.00     0.093 A 
ATOM      7  C   UNL     1      42.627  18.093  -4.041  1.00  0.00     0.136 A 
ATOM      8  C   UNL     1      43.944  17.579  -4.168  1.00  0.00     0.125 A 
ATOM      9  C   UNL     1      44.857  18.029  -5.135  1.00  0.00     0.078 A 
ATOM     10  C   UNL     1      46.140  17.477  -5.197  1.00  0.00     0.223 A 
ENDROOT
BRANCH   1  11
ATOM     11  C   UNL     1      47.820  15.813  -4.305  1.00  0.00     0.091 A 
ATOM     12  C   UNL     1      48.895  16.369  -5.014  1.00  0.00     0.068 A 
ATOM     13  C   UNL     1      50.145  15.738  -5.040  1.00  0.00     0.162 A 
ATOM     14  C   UNL     1      48.000  14.590  -3.645  1.00  0.00     0.068 A 
ATOM     15  C   UNL     1      50.327  14.517  -4.347  1.00  0.00     0.200 A 
ATOM     16  C   UNL     1      49.242  13.948  -3.656  1.00  0.00     0.162 A 
BRANCH  13  17
ATOM     17  O   UNL     1      51.167  16.354  -5.766  1.00  0.00    -0.504 OA
ATOM     18  H   UNL     1      51.498  16.033  -6.664  1.00  0.00     0.293 HD
ENDBRANCH  13  17
BRANCH  15  19
ATOM     19  O   UNL     1      51.554  13.848  -4.326  1.00  0.00    -0.502 OA
ATOM     20  H   UNL     1      52.336  14.116  -3.748  1.00  0.00     0.293 HD
ENDBRANCH  15  19
BRANCH  16  21
ATOM     21  O   UNL     1      49.378  12.741  -2.971  1.00  0.00    -0.504 OA
ATOM     22  H   UNL     1      50.247  12.221  -2.956  1.00  0.00     0.293 HD
ENDBRANCH  16  21
ENDBRANCH   1  11
BRANCH  10  23
ATOM     23  O   UNL     1      47.064  17.959  -6.125  1.00  0.00    -0.500 OA
ATOM     24  H   UNL     1      47.830  17.388  -6.459  1.00  0.00     0.294 HD
ENDBRANCH  10  23
BRANCH   5  25
ATOM     25  O   UNL     1      41.370  16.122  -1.173  1.00  0.00    -0.507 OA
ATOM     26  H   UNL     1      41.217  15.130  -1.036  1.00  0.00     0.293 HD
ENDBRANCH   5  25
BRANCH   7  27
ATOM     27  O   UNL     1      42.109  19.086  -4.877  1.00  0.00    -0.507 OA
ATOM     28  H   UNL     1      42.515  19.357  -5.760  1.00  0.00     0.293 HD
ENDBRANCH   7  27
TORSDOF 7
ENDMDL
MODEL 4
REMARK VINA RESULT:    -5.480      1.460      3.157
REMARK INTER + INTRA:          -6.580
REMARK INTER:                  -6.589
REMARK INTRA:                   0.008
REMARK UNBOUND:                 0.181
REMARK SMILES Oc1cc(O)c2cc(O)c(-c3cc(O)c(O)c(O)c3)[o+]c2c1
REMARK SMILES IDX 10 1 20 2 21 3 22 4 2 5 3 6 4 7 6 8 7 9 8 10 11 11 12 12
REMARK SMILES IDX 13 13 19 14 15 15 17 16 14 17 16 19 18 21 9 23 1 25 5 27
REMARK H PARENT 14 18 16 20 18 22 9 24 1 26 5 28
REMARK Flexibility Score: inf
ROOT
ATOM      1  C   UNL     1      46.181  15.587  -3.559  1.00  0.00     0.402 A 
ATOM      2  O   UNL     1      47.379  16.051  -3.905  1.00  0.00    -0.202 OA
ATOM      3  C   UNL     1      48.451  15.278  -4.034  1.00  0.00     0.368 A 
ATOM      4  C   UNL     1      49.667  15.858  -4.406  1.00  0.00     0.162 A 
ATOM      5  C   UNL     1      50.811  15.067  -4.551  1.00  0.00     0.128 A 
ATOM      6  C   UNL     1      50.737  13.690  -4.327  1.00  0.00     0.093 A 
ATOM      7  C   UNL     1      49.530  13.084  -3.955  1.00  0.00     0.136 A 
ATOM      8  C   UNL     1      48.367  13.884  -3.803  1.00  0.00     0.125 A 
ATOM      9  C   UNL     1      47.119  13.365  -3.420  1.00  0.00     0.078 A 
ATOM     10  C   UNL     1      46.018  14.216  -3.286  1.00  0.00     0.223 A 
ENDROOT
BRANCH   1  11
ATOM     11  C   UNL     1      45.059  16.549  -3.457  1.00  0.00     0.091 A 
ATOM     12  C   UNL     1      44.185  16.538  -2.359  1.00  0.00     0.068 A 
ATOM     13  C   UNL     1      43.114  17.436  -2.283  1.00  0.00     0.162 A 
ATOM     14  C   UNL     1      44.827  17.452  -4.503  1.00  0.00     0.068 A 
ATOM     15  C   UNL     1      42.902  18.364  -3.331  1.00  0.00     0.200 A 
ATOM     16  C   UNL     1      43.766  18.358  -4.442  1.00  0.00     0.162 A 
BRANCH  13  17
ATOM     17  O   UNL     1      42.288  17.366  -1.159  1.00  0.00    -0.504 OA
ATOM     18  H   UNL     1      42.625  17.319  -0.209  1.00  0.00     0.293 HD
ENDBRANCH  13  17
BRANCH  15  19
ATOM     19  O   UNL     1      41.858  19.293  -3.306  1.00  0.00    -0.502 OA
ATOM     20  H   UNL     1      41.985  20.286  -3.181  1.00  0.00     0.293 HD
ENDBRANCH  15  19
BRANCH  16  21
ATOM     21  O   UNL     1      43.584  19.249  -5.500  1.00  0.00    -0.504 OA
ATOM     22  H   UNL     1      44.288  19.393  -6.214  1.00  0.00     0.293 HD
ENDBRANCH  16  21
ENDBRANCH   1  11
BRANCH  10  23
ATOM     23  O   UNL     1      44.791  13.709  -2.857  1.00  0.00    -0.500 OA
ATOM     24  H   UNL     1      44.730  12.883  -2.277  1.00  0.00     0.294 HD
ENDBRANCH  10  23
BRANCH   5  25
ATOM     25  O   UNL     1      52.026  15.639  -4.920  1.00  0.00    -0.507 OA
ATOM     26  H   UNL     1      52.904  15.312  -4.535  1.00  0.00     0.293 HD
ENDBRANCH   5  25
BRANCH   7  27
ATOM     27  O   UNL     1      49.540  11.701  -3.754  1.00  0.00    -0.507 OA
ATOM     28  H   UNL     1      50.116  11.053  -4.271  1.00  0.00     0.293 HD
ENDBRANCH   7  27
TORSDOF 7
ENDMDL
MODEL 5
REMARK VINA RESULT:    -5.432      1.546      2.947
REMARK INTER + INTRA:          -6.521
REMARK INTER:                  -6.521
REMARK INTRA:                  -0.001
REMARK UNBOUND:                 0.181
REMARK SMILES Oc1cc(O)c2cc(O)c(-c3cc(O)c(O)c(O)c3)[o+]c2c1
REMARK SMILES IDX 10 1 20 2 21 3 22 4 2 5 3 6 4 7 6 8 7 9 8 10 11 11 12 12
REMARK SMILES IDX 13 13 19 14 15 15 17 16 14 17 16 19 18 21 9 23 1 25 5 27
REMARK H PARENT 14 18 16 20 18 22 9 24 1 26 5 28
REMARK Flexibility Score: inf
ROOT
ATOM      1  C   UNL     1      46.334  15.935  -3.836  1.00  0.00     0.402 A 
ATOM      2  O   UNL     1      47.546  16.345  -4.205  1.00  0.00    -0.202 OA
ATOM      3  C   UNL     1      48.611  15.550  -4.222  1.00  0.00     0.368 A 
ATOM      4  C   UNL     1      49.842  16.073  -4.629  1.00  0.00     0.162 A 
ATOM      5  C   UNL     1      50.978  15.259  -4.659  1.00  0.00     0.128 A 
ATOM      6  C   UNL     1      50.881  13.916  -4.285  1.00  0.00     0.093 A 
ATOM      7  C   UNL     1      49.659  13.369  -3.874  1.00  0.00     0.136 A 
ATOM      8  C   UNL     1      48.504  14.193  -3.838  1.00  0.00     0.125 A 
ATOM      9  C   UNL     1      47.241  13.733  -3.428  1.00  0.00     0.078 A 
ATOM     10  C   UNL     1      46.149  14.605  -3.415  1.00  0.00     0.223 A 
ENDROOT
BRANCH   1  11
ATOM     11  C   UNL     1      45.224  16.914  -3.867  1.00  0.00     0.091 A 
ATOM     12  C   UNL     1      45.017  17.750  -4.975  1.00  0.00     0.068 A 
ATOM     13  C   UNL     1      43.979  18.688  -4.985  1.00  0.00     0.162 A 
ATOM     14  C   UNL     1      44.395  17.053  -2.746  1.00  0.00     0.068 A 
ATOM     15  C   UNL     1      43.128  18.803  -3.860  1.00  0.00     0.200 A 
ATOM     16  C   UNL     1      43.350  17.981  -2.740  1.00  0.00     0.162 A 
BRANCH  13  17
ATOM     17  O   UNL     1      43.835  19.484  -6.125  1.00  0.00    -0.504 OA
ATOM     18  H   UNL     1      43.865  19.131  -7.070  1.00  0.00     0.293 HD
ENDBRANCH  13  17
BRANCH  15  19
ATOM     19  O   UNL     1      42.067  19.712  -3.817  1.00  0.00    -0.502 OA
ATOM     20  H   UNL     1      41.884  20.334  -3.043  1.00  0.00     0.293 HD
ENDBRANCH  15  19
BRANCH  16  21
ATOM     21  O   UNL     1      42.541  18.072  -1.608  1.00  0.00    -0.504 OA
ATOM     22  H   UNL     1      42.819  18.590  -0.783  1.00  0.00     0.293 HD
ENDBRANCH  16  21
ENDBRANCH   1  11
BRANCH  10  23
ATOM     23  O   UNL     1      44.906  14.163  -2.960  1.00  0.00    -0.500 OA
ATOM     24  H   UNL     1      44.691  13.177  -2.872  1.00  0.00     0.294 HD
ENDBRANCH  10  23
BRANCH   5  25
ATOM     25  O   UNL     1      52.208  15.773  -5.063  1.00  0.00    -0.507 OA
ATOM     26  H   UNL     1      53.080  15.409  -4.696  1.00  0.00     0.293 HD
ENDBRANCH   5  25
BRANCH   7  27
ATOM     27  O   UNL     1      49.647  12.017  -3.519  1.00  0.00    -0.507 OA
ATOM     28  H   UNL     1      50.218  11.613  -2.791  1.00  0.00     0.293 HD
ENDBRANCH   7  27
TORSDOF 7
ENDMDL
MODEL 6
REMARK VINA RESULT:    -5.340      1.945      7.470
REMARK INTER + INTRA:          -6.408
REMARK INTER:                  -6.069
REMARK INTRA:                  -0.339
REMARK UNBOUND:                 0.181
REMARK SMILES Oc1cc(O)c2cc(O)c(-c3cc(O)c(O)c(O)c3)[o+]c2c1
REMARK SMILES IDX 10 1 20 2 21 3 22 4 2 5 3 6 4 7 6 8 7 9 8 10 11 11 12 12
REMARK SMILES IDX 13 13 19 14 15 15 17 16 14 17 16 19 18 21 9 23 1 25 5 27
REMARK H PARENT 14 18 16 20 18 22 9 24 1 26 5 28
REMARK Flexibility Score: inf
ROOT
ATOM      1  C   UNL     1      43.909  16.799  -3.316  1.00  0.00     0.402 A 
ATOM      2  O   UNL     1      43.781  17.856  -2.519  1.00  0.00    -0.202 OA
ATOM      3  C   UNL     1      42.639  18.516  -2.359  1.00  0.00     0.368 A 
ATOM      4  C   UNL     1      42.603  19.614  -1.495  1.00  0.00     0.162 A 
ATOM      5  C   UNL     1      41.414  20.325  -1.307  1.00  0.00     0.128 A 
ATOM      6  C   UNL     1      40.256  19.933  -1.983  1.00  0.00     0.093 A 
ATOM      7  C   UNL     1      40.265  18.836  -2.853  1.00  0.00     0.136 A 
ATOM      8  C   UNL     1      41.472  18.114  -3.050  1.00  0.00     0.125 A 
ATOM      9  C   UNL     1      41.577  17.010  -3.913  1.00  0.00     0.078 A 
ATOM     10  C   UNL     1      42.801  16.351  -4.059  1.00  0.00     0.223 A 
ENDROOT
BRANCH   1  11
ATOM     11  C   UNL     1      45.234  16.142  -3.403  1.00  0.00     0.091 A 
ATOM     12  C   UNL     1      45.482  14.911  -2.777  1.00  0.00     0.068 A 
ATOM     13  C   UNL     1      46.744  14.311  -2.845  1.00  0.00     0.162 A 
ATOM     14  C   UNL     1      46.281  16.788  -4.074  1.00  0.00     0.068 A 
ATOM     15  C   UNL     1      47.790  14.955  -3.548  1.00  0.00     0.200 A 
ATOM     16  C   UNL     1      47.546  16.201  -4.156  1.00  0.00     0.162 A 
BRANCH  13  17
ATOM     17  O   UNL     1      46.914  13.084  -2.197  1.00  0.00    -0.504 OA
ATOM     18  H   UNL     1      47.729  12.497  -2.299  1.00  0.00     0.293 HD
ENDBRANCH  13  17
BRANCH  15  19
ATOM     19  O   UNL     1      49.067  14.399  -3.661  1.00  0.00    -0.502 OA
ATOM     20  H   UNL     1      49.887  14.762  -3.199  1.00  0.00     0.293 HD
ENDBRANCH  15  19
BRANCH  16  21
ATOM     21  O   UNL     1      48.553  16.873  -4.848  1.00  0.00    -0.504 OA
ATOM     22  H   UNL     1      48.948  16.519  -5.711  1.00  0.00     0.293 HD
ENDBRANCH  16  21
ENDBRANCH   1  11
BRANCH  10  23
ATOM     23  O   UNL     1      42.919  15.286  -4.954  1.00  0.00    -0.500 OA
ATOM     24  H   UNL     1      42.171  14.619  -5.089  1.00  0.00     0.294 HD
ENDBRANCH  10  23
BRANCH   5  25
ATOM     25  O   UNL     1      41.371  21.420  -0.448  1.00  0.00    -0.507 OA
ATOM     26  H   UNL     1      41.604  22.353  -0.768  1.00  0.00     0.293 HD
ENDBRANCH   5  25
BRANCH   7  27
ATOM     27  O   UNL     1      39.064  18.508  -3.488  1.00  0.00    -0.507 OA
ATOM     28  H   UNL     1      38.973  18.327  -4.477  1.00  0.00     0.293 HD
ENDBRANCH   7  27
TORSDOF 7
ENDMDL
MODEL 7
REMARK VINA RESULT:    -5.310      1.313      7.364
REMARK INTER + INTRA:          -6.370
REMARK INTER:                  -6.481
REMARK INTRA:                   0.111
REMARK UNBOUND:                 0.181
REMARK SMILES Oc1cc(O)c2cc(O)c(-c3cc(O)c(O)c(O)c3)[o+]c2c1
REMARK SMILES IDX 10 1 20 2 21 3 22 4 2 5 3 6 4 7 6 8 7 9 8 10 11 11 12 12
REMARK SMILES IDX 13 13 19 14 15 15 17 16 14 17 16 19 18 21 9 23 1 25 5 27
REMARK H PARENT 14 18 16 20 18 22 9 24 1 26 5 28
REMARK Flexibility Score: inf
ROOT
ATOM      1  C   UNL     1      45.811  15.734  -3.499  1.00  0.00     0.402 A 
ATOM      2  O   UNL     1      45.288  16.947  -3.336  1.00  0.00    -0.202 OA
ATOM      3  C   UNL     1      44.047  17.155  -2.910  1.00  0.00     0.368 A 
ATOM      4  C   UNL     1      43.588  18.467  -2.768  1.00  0.00     0.162 A 
ATOM      5  C   UNL     1      42.287  18.715  -2.318  1.00  0.00     0.128 A 
ATOM      6  C   UNL     1      41.444  17.645  -2.007  1.00  0.00     0.093 A 
ATOM      7  C   UNL     1      41.880  16.321  -2.140  1.00  0.00     0.136 A 
ATOM      8  C   UNL     1      43.199  16.065  -2.600  1.00  0.00     0.125 A 
ATOM      9  C   UNL     1      43.716  14.771  -2.775  1.00  0.00     0.078 A 
ATOM     10  C   UNL     1      45.025  14.597  -3.236  1.00  0.00     0.223 A 
ENDROOT
BRANCH   1  11
ATOM     11  C   UNL     1      47.211  15.632  -3.972  1.00  0.00     0.091 A 
ATOM     12  C   UNL     1      48.054  14.596  -3.543  1.00  0.00     0.068 A 
ATOM     13  C   UNL     1      49.383  14.523  -3.978  1.00  0.00     0.162 A 
ATOM     14  C   UNL     1      47.725  16.622  -4.820  1.00  0.00     0.068 A 
ATOM     15  C   UNL     1      49.888  15.510  -4.857  1.00  0.00     0.200 A 
ATOM     16  C   UNL     1      49.047  16.562  -5.268  1.00  0.00     0.162 A 
BRANCH  13  17
ATOM     17  O   UNL     1      50.160  13.461  -3.508  1.00  0.00    -0.504 OA
ATOM     18  H   UNL     1      50.388  12.641  -4.051  1.00  0.00     0.293 HD
ENDBRANCH  13  17
BRANCH  15  19
ATOM     19  O   UNL     1      51.200  15.482  -5.335  1.00  0.00    -0.502 OA
ATOM     20  H   UNL     1      51.483  15.030  -6.192  1.00  0.00     0.293 HD
ENDBRANCH  15  19
BRANCH  16  21
ATOM     21  O   UNL     1      49.511  17.560  -6.125  1.00  0.00    -0.504 OA
ATOM     22  H   UNL     1      50.490  17.812  -6.185  1.00  0.00     0.293 HD
ENDBRANCH  16  21
ENDBRANCH   1  11
BRANCH  10  23
ATOM     23  O   UNL     1      45.522  13.313  -3.459  1.00  0.00    -0.500 OA
ATOM     24  H   UNL     1      44.926  12.496  -3.421  1.00  0.00     0.294 HD
ENDBRANCH  10  23
BRANCH   5  25
ATOM     25  O   UNL     1      41.823  20.020  -2.175  1.00  0.00    -0.507 OA
ATOM     26  H   UNL     1      42.265  20.673  -1.538  1.00  0.00     0.293 HD
ENDBRANCH   5  25
BRANCH   7  27
ATOM     27  O   UNL     1      40.977  15.309  -1.805  1.00  0.00    -0.507 OA
ATOM     28  H   UNL     1      40.267  15.391  -1.091  1.00  0.00     0.293 HD
ENDBRANCH   7  27
TORSDOF 7
ENDMDL
MODEL 8
REMARK VINA RESULT:    -5.209      4.025      5.419
REMARK INTER + INTRA:          -6.246
REMARK INTER:                  -6.049
REMARK INTRA:                  -0.197
REMARK UNBOUND:                 0.181
REMARK SMILES Oc1cc(O)c2cc(O)c(-c3cc(O)c(O)c(O)c3)[o+]c2c1
REMARK SMILES IDX 10 1 20 2 21 3 22 4 2 5 3 6 4 7 6 8 7 9 8 10 11 11 12 12
REMARK SMILES IDX 13 13 19 14 15 15 17 16 14 17 16 19 18 21 9 23 1 25 5 27
REMARK H PARENT 14 18 16 20 18 22 9 24 1 26 5 28
REMARK Flexibility Score: inf
ROOT
ATOM      1  C   UNL     1      48.803  14.254  -4.310  1.00  0.00     0.402 A 
ATOM      2  O   UNL     1      49.837  13.465  -4.594  1.00  0.00    -0.202 OA
ATOM      3  C   UNL     1      50.986  13.916  -5.084  1.00  0.00     0.368 A 
ATOM      4  C   UNL     1      52.016  13.008  -5.346  1.00  0.00     0.162 A 
ATOM      5  C   UNL     1      53.237  13.457  -5.860  1.00  0.00     0.128 A 
ATOM      6  C   UNL     1      53.429  14.818  -6.108  1.00  0.00     0.093 A 
ATOM      7  C   UNL     1      52.413  15.747  -5.852  1.00  0.00     0.136 A 
ATOM      8  C   UNL     1      51.171  15.296  -5.335  1.00  0.00     0.125 A 
ATOM      9  C   UNL     1      50.093  16.154  -5.061  1.00  0.00     0.078 A 
ATOM     10  C   UNL     1      48.897  15.636  -4.555  1.00  0.00     0.223 A 
ENDROOT
BRANCH   1  11
ATOM     11  C   UNL     1      47.577  13.632  -3.759  1.00  0.00     0.091 A 
ATOM     12  C   UNL     1      47.590  12.956  -2.529  1.00  0.00     0.068 A 
ATOM     13  C   UNL     1      46.431  12.351  -2.028  1.00  0.00     0.162 A 
ATOM     14  C   UNL     1      46.392  13.665  -4.505  1.00  0.00     0.068 A 
ATOM     15  C   UNL     1      45.230  12.414  -2.774  1.00  0.00     0.200 A 
ATOM     16  C   UNL     1      45.224  13.071  -4.019  1.00  0.00     0.162 A 
BRANCH  13  17
ATOM     17  O   UNL     1      46.521  11.699  -0.796  1.00  0.00    -0.504 OA
ATOM     18  H   UNL     1      47.277  11.083  -0.535  1.00  0.00     0.293 HD
ENDBRANCH  13  17
BRANCH  15  19
ATOM     19  O   UNL     1      44.039  11.840  -2.320  1.00  0.00    -0.502 OA
ATOM     20  H   UNL     1      43.136  11.997  -2.743  1.00  0.00     0.293 HD
ENDBRANCH  15  19
BRANCH  16  21
ATOM     21  O   UNL     1      44.064  13.144  -4.789  1.00  0.00    -0.504 OA
ATOM     22  H   UNL     1      43.344  12.433  -4.753  1.00  0.00     0.293 HD
ENDBRANCH  16  21
ENDBRANCH   1  11
BRANCH  10  23
ATOM     23  O   UNL     1      47.809  16.480  -4.330  1.00  0.00    -0.500 OA
ATOM     24  H   UNL     1      47.502  17.150  -5.024  1.00  0.00     0.294 HD
ENDBRANCH  10  23
BRANCH   5  25
ATOM     25  O   UNL     1      54.267  12.558  -6.125  1.00  0.00    -0.507 OA
ATOM     26  H   UNL     1      54.592  11.902  -5.424  1.00  0.00     0.293 HD
ENDBRANCH   5  25
BRANCH   7  27
ATOM     27  O   UNL     1      52.686  17.091  -6.125  1.00  0.00    -0.507 OA
ATOM     28  H   UNL     1      53.133  17.422  -6.968  1.00  0.00     0.293 HD
ENDBRANCH   7  27
TORSDOF 7
ENDMDL
MODEL 9
REMARK VINA RESULT:    -5.166      1.809      7.769
REMARK INTER + INTRA:          -6.194
REMARK INTER:                  -6.068
REMARK INTRA:                  -0.126
REMARK UNBOUND:                 0.181
REMARK SMILES Oc1cc(O)c2cc(O)c(-c3cc(O)c(O)c(O)c3)[o+]c2c1
REMARK SMILES IDX 10 1 20 2 21 3 22 4 2 5 3 6 4 7 6 8 7 9 8 10 11 11 12 12
REMARK SMILES IDX 13 13 19 14 15 15 17 16 14 17 16 19 18 21 9 23 1 25 5 27
REMARK H PARENT 14 18 16 20 18 22 9 24 1 26 5 28
REMARK Flexibility Score: inf
ROOT
ATOM      1  C   UNL     1      47.329  15.241  -3.865  1.00  0.00     0.402 A 
ATOM      2  O   UNL     1      46.830  16.251  -4.574  1.00  0.00    -0.202 OA
ATOM      3  C   UNL     1      45.673  16.839  -4.291  1.00  0.00     0.368 A 
ATOM      4  C   UNL     1      45.234  17.896  -5.094  1.00  0.00     0.162 A 
ATOM      5  C   UNL     1      44.021  18.535  -4.817  1.00  0.00     0.128 A 
ATOM      6  C   UNL     1      43.246  18.116  -3.733  1.00  0.00     0.093 A 
ATOM      7  C   UNL     1      43.664  17.060  -2.913  1.00  0.00     0.136 A 
ATOM      8  C   UNL     1      44.893  16.406  -3.193  1.00  0.00     0.125 A 
ATOM      9  C   UNL     1      45.384  15.331  -2.433  1.00  0.00     0.078 A 
ATOM     10  C   UNL     1      46.602  14.734  -2.771  1.00  0.00     0.223 A 
ENDROOT
BRANCH   1  11
ATOM     11  C   UNL     1      48.634  14.675  -4.274  1.00  0.00     0.091 A 
ATOM     12  C   UNL     1      48.777  13.312  -4.577  1.00  0.00     0.068 A 
ATOM     13  C   UNL     1      50.021  12.782  -4.940  1.00  0.00     0.162 A 
ATOM     14  C   UNL     1      49.765  15.501  -4.305  1.00  0.00     0.068 A 
ATOM     15  C   UNL     1      51.154  13.629  -4.996  1.00  0.00     0.200 A 
ATOM     16  C   UNL     1      51.014  14.990  -4.670  1.00  0.00     0.162 A 
BRANCH  13  17
ATOM     17  O   UNL     1      50.084  11.416  -5.228  1.00  0.00    -0.504 OA
ATOM     18  H   UNL     1      50.717  10.770  -4.779  1.00  0.00     0.293 HD
ENDBRANCH  13  17
BRANCH  15  19
ATOM     19  O   UNL     1      52.418  13.160  -5.364  1.00  0.00    -0.502 OA
ATOM     20  H   UNL     1      52.657  12.183  -5.455  1.00  0.00     0.293 HD
ENDBRANCH  15  19
BRANCH  16  21
ATOM     21  O   UNL     1      52.108  15.854  -4.702  1.00  0.00    -0.504 OA
ATOM     22  H   UNL     1      52.135  16.673  -5.298  1.00  0.00     0.293 HD
ENDBRANCH  16  21
ENDBRANCH   1  11
BRANCH  10  23
ATOM     23  O   UNL     1      47.066  13.634  -2.049  1.00  0.00    -0.500 OA
ATOM     24  H   UNL     1      46.973  13.580  -1.043  1.00  0.00     0.294 HD
ENDBRANCH  10  23
BRANCH   5  25
ATOM     25  O   UNL     1      43.577  19.588  -5.613  1.00  0.00    -0.507 OA
ATOM     26  H   UNL     1      42.993  20.326  -5.238  1.00  0.00     0.293 HD
ENDBRANCH   5  25
BRANCH   7  27
ATOM     27  O   UNL     1      42.833  16.705  -1.847  1.00  0.00    -0.507 OA
ATOM     28  H   UNL     1      41.925  17.110  -1.672  1.00  0.00     0.293 HD
ENDBRANCH   7  27
TORSDOF 7
ENDMDL
