MODEL 1
REMARK VINA RESULT:    -6.170      0.000      0.000
REMARK INTER + INTRA:          -7.761
REMARK INTER:                  -7.432
REMARK INTRA:                  -0.329
REMARK UNBOUND:                -0.329
REMARK SMILES O=c1c(O)c(-c2ccc(O)c(O)c2)oc2cc(O)cc(O)c12
REMARK SMILES IDX 5 1 3 2 2 3 1 4 22 5 20 6 19 7 17 8 16 9 15 10 14 11 6 12
REMARK SMILES IDX 7 13 8 14 9 15 13 16 11 17 10 18 12 20 4 22 21 24 18 26
REMARK H PARENT 10 19 12 21 4 23 21 25 18 27
REMARK Flexibility Score: inf
ROOT
ATOM      1  C   UNL     1      11.801  -4.857  18.570  1.00  0.00     0.180 A 
ATOM      2  C   UNL     1      12.821  -5.430  17.791  1.00  0.00     0.208 A 
ATOM      3  C   UNL     1      12.782  -5.276  16.397  1.00  0.00     0.238 A 
ATOM      4  O   UNL     1      13.656  -5.856  15.701  1.00  0.00    -0.285 OA
ATOM      5  C   UNL     1      11.755  -4.504  15.801  1.00  0.00     0.111 A 
ATOM      6  C   UNL     1      11.642  -4.245  14.401  1.00  0.00     0.134 A 
ATOM      7  C   UNL     1      10.524  -3.555  13.915  1.00  0.00     0.093 A 
ATOM      8  C   UNL     1       9.549  -3.061  14.780  1.00  0.00     0.123 A 
ATOM      9  C   UNL     1       9.678  -3.262  16.155  1.00  0.00     0.094 A 
ATOM     10  C   UNL     1      10.761  -3.978  16.668  1.00  0.00     0.146 A 
ATOM     11  O   UNL     1      10.834  -4.165  17.980  1.00  0.00    -0.452 OA
ENDROOT
BRANCH   1  12
ATOM     12  C   UNL     1      11.765  -4.987  20.044  1.00  0.00     0.025 A 
ATOM     13  C   UNL     1      11.068  -6.036  20.670  1.00  0.00     0.016 A 
ATOM     14  C   UNL     1      11.027  -6.125  22.063  1.00  0.00     0.051 A 
ATOM     15  C   UNL     1      11.669  -5.165  22.853  1.00  0.00     0.157 A 
ATOM     16  C   UNL     1      12.391  -4.015  20.839  1.00  0.00     0.062 A 
ATOM     17  C   UNL     1      12.352  -4.102  22.239  1.00  0.00     0.158 A 
BRANCH  15  18
ATOM     18  O   UNL     1      11.613  -5.282  24.241  1.00  0.00    -0.504 OA
ATOM     19  H   UNL     1      12.427  -5.133  24.827  1.00  0.00     0.293 HD
ENDBRANCH  15  18
BRANCH  17  20
ATOM     20  O   UNL     1      12.988  -3.138  23.019  1.00  0.00    -0.504 OA
ATOM     21  H   UNL     1      12.813  -2.148  22.888  1.00  0.00     0.293 HD
ENDBRANCH  17  20
ENDBRANCH   1  12
BRANCH   2  22
ATOM     22  O   UNL     1      13.867  -6.125  18.405  1.00  0.00    -0.502 OA
ATOM     23  H   UNL     1      14.189  -5.907  19.341  1.00  0.00     0.293 HD
ENDBRANCH   2  22
BRANCH   6  24
ATOM     24  O   UNL     1      12.603  -4.615  13.455  1.00  0.00    -0.507 OA
ATOM     25  H   UNL     1      12.818  -4.098  12.617  1.00  0.00     0.293 HD
ENDBRANCH   6  24
BRANCH   8  26
ATOM     26  O   UNL     1       8.459  -2.365  14.262  1.00  0.00    -0.508 OA
ATOM     27  H   UNL     1       7.787  -2.812  13.651  1.00  0.00     0.293 HD
ENDBRANCH   8  26
TORSDOF 6
ENDMDL
MODEL 2
REMARK VINA RESULT:    -5.979      3.401      8.477
REMARK INTER + INTRA:          -7.532
REMARK INTER:                  -7.429
REMARK INTRA:                  -0.102
REMARK UNBOUND:                -0.329
REMARK SMILES O=c1c(O)c(-c2ccc(O)c(O)c2)oc2cc(O)cc(O)c12
REMARK SMILES IDX 5 1 3 2 2 3 1 4 22 5 20 6 19 7 17 8 16 9 15 10 14 11 6 12
REMARK SMILES IDX 7 13 8 14 9 15 13 16 11 17 10 18 12 20 4 22 21 24 18 26
REMARK H PARENT 10 19 12 21 4 23 21 25 18 27
REMARK Flexibility Score: inf
ROOT
ATOM      1  C   UNL     1      12.369  -4.040  12.905  1.00  0.00     0.180 A 
ATOM      2  C   UNL     1      11.372  -5.014  13.081  1.00  0.00     0.208 A 
ATOM      3  C   UNL     1      10.814  -5.195  14.357  1.00  0.00     0.238 A 
ATOM      4  O   UNL     1       9.977  -6.119  14.523  1.00  0.00    -0.285 OA
ATOM      5  C   UNL     1      11.219  -4.362  15.428  1.00  0.00     0.111 A 
ATOM      6  C   UNL     1      10.689  -4.427  16.753  1.00  0.00     0.134 A 
ATOM      7  C   UNL     1      11.242  -3.624  17.757  1.00  0.00     0.093 A 
ATOM      8  C   UNL     1      12.260  -2.714  17.475  1.00  0.00     0.123 A 
ATOM      9  C   UNL     1      12.748  -2.603  16.172  1.00  0.00     0.094 A 
ATOM     10  C   UNL     1      12.243  -3.417  15.156  1.00  0.00     0.146 A 
ATOM     11  O   UNL     1      12.751  -3.295  13.936  1.00  0.00    -0.452 OA
ENDROOT
BRANCH   1  12
ATOM     12  C   UNL     1      13.014  -3.799  11.595  1.00  0.00     0.025 A 
ATOM     13  C   UNL     1      14.405  -3.924  11.430  1.00  0.00     0.016 A 
ATOM     14  C   UNL     1      14.996  -3.668  10.190  1.00  0.00     0.051 A 
ATOM     15  C   UNL     1      14.212  -3.271   9.101  1.00  0.00     0.157 A 
ATOM     16  C   UNL     1      12.233  -3.381  10.505  1.00  0.00     0.062 A 
ATOM     17  C   UNL     1      12.824  -3.124   9.259  1.00  0.00     0.158 A 
BRANCH  15  18
ATOM     18  O   UNL     1      14.830  -3.025   7.875  1.00  0.00    -0.504 OA
ATOM     19  H   UNL     1      15.277  -2.140   7.666  1.00  0.00     0.293 HD
ENDBRANCH  15  18
BRANCH  17  20
ATOM     20  O   UNL     1      12.037  -2.723   8.181  1.00  0.00    -0.504 OA
ATOM     21  H   UNL     1      11.660  -1.784   8.118  1.00  0.00     0.293 HD
ENDBRANCH  17  20
ENDBRANCH   1  12
BRANCH   2  22
ATOM     22  O   UNL     1      10.932  -5.774  11.994  1.00  0.00    -0.502 OA
ATOM     23  H   UNL     1       9.952  -5.859  11.752  1.00  0.00     0.293 HD
ENDBRANCH   2  22
BRANCH   6  24
ATOM     24  O   UNL     1       9.612  -5.237  17.127  1.00  0.00    -0.507 OA
ATOM     25  H   UNL     1       9.326  -6.076  16.646  1.00  0.00     0.293 HD
ENDBRANCH   6  24
BRANCH   8  26
ATOM     26  O   UNL     1      12.774  -1.918  18.497  1.00  0.00    -0.508 OA
ATOM     27  H   UNL     1      13.409  -1.152  18.304  1.00  0.00     0.293 HD
ENDBRANCH   8  26
TORSDOF 6
ENDMDL
MODEL 3
REMARK VINA RESULT:    -5.866      2.130      3.700
REMARK INTER + INTRA:          -7.395
REMARK INTER:                  -7.085
REMARK INTRA:                  -0.311
REMARK UNBOUND:                -0.329
REMARK SMILES O=c1c(O)c(-c2ccc(O)c(O)c2)oc2cc(O)cc(O)c12
REMARK SMILES IDX 5 1 3 2 2 3 1 4 22 5 20 6 19 7 17 8 16 9 15 10 14 11 6 12
REMARK SMILES IDX 7 13 8 14 9 15 13 16 11 17 10 18 12 20 4 22 21 24 18 26
REMARK H PARENT 10 19 12 21 4 23 21 25 18 27
REMARK Flexibility Score: inf
ROOT
ATOM      1  C   UNL     1      12.365  -4.428  16.596  1.00  0.00     0.180 A 
ATOM      2  C   UNL     1      11.234  -4.136  15.815  1.00  0.00     0.208 A 
ATOM      3  C   UNL     1      11.397  -3.907  14.439  1.00  0.00     0.238 A 
ATOM      4  O   UNL     1      10.391  -3.572  13.761  1.00  0.00    -0.285 OA
ATOM      5  C   UNL     1      12.679  -4.029  13.851  1.00  0.00     0.111 A 
ATOM      6  C   UNL     1      12.953  -3.862  12.459  1.00  0.00     0.134 A 
ATOM      7  C   UNL     1      14.278  -3.902  12.007  1.00  0.00     0.093 A 
ATOM      8  C   UNL     1      15.331  -4.164  12.882  1.00  0.00     0.123 A 
ATOM      9  C   UNL     1      15.069  -4.382  14.235  1.00  0.00     0.094 A 
ATOM     10  C   UNL     1      13.762  -4.312  14.723  1.00  0.00     0.146 A 
ATOM     11  O   UNL     1      13.560  -4.504  16.021  1.00  0.00    -0.452 OA
ENDROOT
BRANCH   1  12
ATOM     12  C   UNL     1      12.278  -4.668  18.054  1.00  0.00     0.025 A 
ATOM     13  C   UNL     1      11.927  -5.928  18.569  1.00  0.00     0.016 A 
ATOM     14  C   UNL     1      11.826  -6.125  19.948  1.00  0.00     0.051 A 
ATOM     15  C   UNL     1      12.061  -5.067  20.833  1.00  0.00     0.157 A 
ATOM     16  C   UNL     1      12.493  -3.603  18.944  1.00  0.00     0.062 A 
ATOM     17  C   UNL     1      12.393  -3.799  20.329  1.00  0.00     0.158 A 
BRANCH  15  18
ATOM     18  O   UNL     1      11.955  -5.295  22.205  1.00  0.00    -0.504 OA
ATOM     19  H   UNL     1      11.064  -5.273  22.687  1.00  0.00     0.293 HD
ENDBRANCH  15  18
BRANCH  17  20
ATOM     20  O   UNL     1      12.621  -2.738  21.204  1.00  0.00    -0.504 OA
ATOM     21  H   UNL     1      13.540  -2.323  21.308  1.00  0.00     0.293 HD
ENDBRANCH  17  20
ENDBRANCH   1  12
BRANCH   2  22
ATOM     22  O   UNL     1       9.966  -4.095  16.402  1.00  0.00    -0.502 OA
ATOM     23  H   UNL     1       9.833  -3.951  17.396  1.00  0.00     0.293 HD
ENDBRANCH   2  22
BRANCH   6  24
ATOM     24  O   UNL     1      11.968  -3.683  11.483  1.00  0.00    -0.507 OA
ATOM     25  H   UNL     1      10.985  -3.866  11.613  1.00  0.00     0.293 HD
ENDBRANCH   6  24
BRANCH   8  26
ATOM     26  O   UNL     1      16.635  -4.212  12.393  1.00  0.00    -0.508 OA
ATOM     27  H   UNL     1      17.434  -4.082  13.002  1.00  0.00     0.293 HD
ENDBRANCH   8  26
TORSDOF 6
ENDMDL
MODEL 4
REMARK VINA RESULT:    -5.674      1.470      2.771
REMARK INTER + INTRA:          -7.164
REMARK INTER:                  -6.841
REMARK INTRA:                  -0.324
REMARK UNBOUND:                -0.329
REMARK SMILES O=c1c(O)c(-c2ccc(O)c(O)c2)oc2cc(O)cc(O)c12
REMARK SMILES IDX 5 1 3 2 2 3 1 4 22 5 20 6 19 7 17 8 16 9 15 10 14 11 6 12
REMARK SMILES IDX 7 13 8 14 9 15 13 16 11 17 10 18 12 20 4 22 21 24 18 26
REMARK H PARENT 10 19 12 21 4 23 21 25 18 27
REMARK Flexibility Score: inf
ROOT
ATOM      1  C   UNL     1      11.773  -4.548  18.156  1.00  0.00     0.180 A 
ATOM      2  C   UNL     1      10.419  -4.498  17.784  1.00  0.00     0.208 A 
ATOM      3  C   UNL     1      10.091  -4.324  16.430  1.00  0.00     0.238 A 
ATOM      4  O   UNL     1       8.878  -4.204  16.115  1.00  0.00    -0.285 OA
ATOM      5  C   UNL     1      11.118  -4.260  15.459  1.00  0.00     0.111 A 
ATOM      6  C   UNL     1      10.899  -4.130  14.053  1.00  0.00     0.134 A 
ATOM      7  C   UNL     1      11.995  -3.970  13.196  1.00  0.00     0.093 A 
ATOM      8  C   UNL     1      13.301  -3.998  13.682  1.00  0.00     0.123 A 
ATOM      9  C   UNL     1      13.528  -4.179  15.047  1.00  0.00     0.094 A 
ATOM     10  C   UNL     1      12.455  -4.304  15.932  1.00  0.00     0.146 A 
ATOM     11  O   UNL     1      12.715  -4.453  17.226  1.00  0.00    -0.452 OA
ENDROOT
BRANCH   1  12
ATOM     12  C   UNL     1      12.199  -4.715  19.564  1.00  0.00     0.025 A 
ATOM     13  C   UNL     1      12.383  -5.990  20.128  1.00  0.00     0.016 A 
ATOM     14  C   UNL     1      12.762  -6.124  21.466  1.00  0.00     0.051 A 
ATOM     15  C   UNL     1      12.951  -4.991  22.264  1.00  0.00     0.157 A 
ATOM     16  C   UNL     1      12.370  -3.581  20.374  1.00  0.00     0.062 A 
ATOM     17  C   UNL     1      12.751  -3.713  21.717  1.00  0.00     0.158 A 
BRANCH  15  18
ATOM     18  O   UNL     1      13.332  -5.157  23.595  1.00  0.00    -0.504 OA
ATOM     19  H   UNL     1      14.233  -5.543  23.853  1.00  0.00     0.293 HD
ENDBRANCH  15  18
BRANCH  17  20
ATOM     20  O   UNL     1      12.931  -2.579  22.509  1.00  0.00    -0.504 OA
ATOM     21  H   UNL     1      13.763  -2.005  22.434  1.00  0.00     0.293 HD
ENDBRANCH  17  20
ENDBRANCH   1  12
BRANCH   2  22
ATOM     22  O   UNL     1       9.419  -4.639  18.751  1.00  0.00    -0.502 OA
ATOM     23  H   UNL     1       9.167  -5.539  19.143  1.00  0.00     0.293 HD
ENDBRANCH   2  22
BRANCH   6  24
ATOM     24  O   UNL     1       9.639  -4.177  13.448  1.00  0.00    -0.507 OA
ATOM     25  H   UNL     1       8.935  -3.459  13.522  1.00  0.00     0.293 HD
ENDBRANCH   6  24
BRANCH   8  26
ATOM     26  O   UNL     1      14.368  -3.852  12.797  1.00  0.00    -0.508 OA
ATOM     27  H   UNL     1      14.887  -2.985  12.732  1.00  0.00     0.293 HD
ENDBRANCH   8  26
TORSDOF 6
ENDMDL
MODEL 5
REMARK VINA RESULT:    -5.250     20.384     21.413
REMARK INTER + INTRA:          -6.654
REMARK INTER:                  -6.830
REMARK INTRA:                   0.177
REMARK UNBOUND:                -0.329
REMARK SMILES O=c1c(O)c(-c2ccc(O)c(O)c2)oc2cc(O)cc(O)c12
REMARK SMILES IDX 5 1 3 2 2 3 1 4 22 5 20 6 19 7 17 8 16 9 15 10 14 11 6 12
REMARK SMILES IDX 7 13 8 14 9 15 13 16 11 17 10 18 12 20 4 22 21 24 18 26
REMARK H PARENT 10 19 12 21 4 23 21 25 18 27
REMARK Flexibility Score: inf
ROOT
ATOM      1  C   UNL     1      23.340  12.738  12.802  1.00  0.00     0.180 A 
ATOM      2  C   UNL     1      23.717  12.430  11.483  1.00  0.00     0.208 A 
ATOM      3  C   UNL     1      22.719  12.145  10.538  1.00  0.00     0.238 A 
ATOM      4  O   UNL     1      23.068  11.797   9.380  1.00  0.00    -0.285 OA
ATOM      5  C   UNL     1      21.355  12.225  10.907  1.00  0.00     0.111 A 
ATOM      6  C   UNL     1      20.259  11.999  10.019  1.00  0.00     0.134 A 
ATOM      7  C   UNL     1      18.952  12.003  10.522  1.00  0.00     0.093 A 
ATOM      8  C   UNL     1      18.695  12.285  11.863  1.00  0.00     0.123 A 
ATOM      9  C   UNL     1      19.756  12.560  12.727  1.00  0.00     0.094 A 
ATOM     10  C   UNL     1      21.073  12.527  12.265  1.00  0.00     0.146 A 
ATOM     11  O   UNL     1      22.053  12.774  13.126  1.00  0.00    -0.452 OA
ENDROOT
BRANCH   1  12
ATOM     12  C   UNL     1      24.333  13.036  13.858  1.00  0.00     0.025 A 
ATOM     13  C   UNL     1      25.500  13.769  13.580  1.00  0.00     0.016 A 
ATOM     14  C   UNL     1      26.435  14.018  14.587  1.00  0.00     0.051 A 
ATOM     15  C   UNL     1      26.228  13.530  15.881  1.00  0.00     0.157 A 
ATOM     16  C   UNL     1      24.138  12.531  15.153  1.00  0.00     0.062 A 
ATOM     17  C   UNL     1      25.075  12.780  16.166  1.00  0.00     0.158 A 
BRANCH  15  18
ATOM     18  O   UNL     1      27.178  13.797  16.867  1.00  0.00    -0.504 OA
ATOM     19  H   UNL     1      28.173  13.775  16.674  1.00  0.00     0.293 HD
ENDBRANCH  15  18
BRANCH  17  20
ATOM     20  O   UNL     1      24.865  12.284  17.453  1.00  0.00    -0.504 OA
ATOM     21  H   UNL     1      24.001  12.457  17.954  1.00  0.00     0.293 HD
ENDBRANCH  17  20
ENDBRANCH   1  12
BRANCH   2  22
ATOM     22  O   UNL     1      25.067  12.431  11.121  1.00  0.00    -0.502 OA
ATOM     23  H   UNL     1      25.761  12.985  11.610  1.00  0.00     0.293 HD
ENDBRANCH   2  22
BRANCH   6  24
ATOM     24  O   UNL     1      20.395  11.796   8.643  1.00  0.00    -0.507 OA
ATOM     25  H   UNL     1      19.630  11.644   8.003  1.00  0.00     0.293 HD
ENDBRANCH   6  24
BRANCH   8  26
ATOM     26  O   UNL     1      17.380  12.296  12.324  1.00  0.00    -0.508 OA
ATOM     27  H   UNL     1      16.949  11.467  12.715  1.00  0.00     0.293 HD
ENDBRANCH   8  26
TORSDOF 6
ENDMDL
MODEL 6
REMARK VINA RESULT:    -4.920     20.365     21.180
REMARK INTER + INTRA:          -6.255
REMARK INTER:                  -5.972
REMARK INTRA:                  -0.283
REMARK UNBOUND:                -0.329
REMARK SMILES O=c1c(O)c(-c2ccc(O)c(O)c2)oc2cc(O)cc(O)c12
REMARK SMILES IDX 5 1 3 2 2 3 1 4 22 5 20 6 19 7 17 8 16 9 15 10 14 11 6 12
REMARK SMILES IDX 7 13 8 14 9 15 13 16 11 17 10 18 12 20 4 22 21 24 18 26
REMARK H PARENT 10 19 12 21 4 23 21 25 18 27
REMARK Flexibility Score: inf
ROOT
ATOM      1  C   UNL     1      24.024  12.459  14.510  1.00  0.00     0.180 A 
ATOM      2  C   UNL     1      25.070  12.234  13.599  1.00  0.00     0.208 A 
ATOM      3  C   UNL     1      24.760  12.008  12.248  1.00  0.00     0.238 A 
ATOM      4  O   UNL     1      25.696  11.732  11.454  1.00  0.00    -0.285 OA
ATOM      5  C   UNL     1      23.414  12.067  11.815  1.00  0.00     0.111 A 
ATOM      6  C   UNL     1      22.989  11.898  10.461  1.00  0.00     0.134 A 
ATOM      7  C   UNL     1      21.620  11.872  10.166  1.00  0.00     0.093 A 
ATOM      8  C   UNL     1      20.664  12.071  11.161  1.00  0.00     0.123 A 
ATOM      9  C   UNL     1      21.070  12.291  12.478  1.00  0.00     0.094 A 
ATOM     10  C   UNL     1      22.427  12.286  12.810  1.00  0.00     0.146 A 
ATOM     11  O   UNL     1      22.769  12.477  14.079  1.00  0.00    -0.452 OA
ENDROOT
BRANCH   1  12
ATOM     12  C   UNL     1      24.269  12.691  15.951  1.00  0.00     0.025 A 
ATOM     13  C   UNL     1      24.718  13.936  16.427  1.00  0.00     0.016 A 
ATOM     14  C   UNL     1      24.966  14.124  17.789  1.00  0.00     0.051 A 
ATOM     15  C   UNL     1      24.782  13.074  18.694  1.00  0.00     0.157 A 
ATOM     16  C   UNL     1      24.105  11.633  16.859  1.00  0.00     0.062 A 
ATOM     17  C   UNL     1      24.353  11.820  18.227  1.00  0.00     0.158 A 
BRANCH  15  18
ATOM     18  O   UNL     1      25.035  13.293  20.047  1.00  0.00    -0.504 OA
ATOM     19  H   UNL     1      24.809  14.170  20.501  1.00  0.00     0.293 HD
ENDBRANCH  15  18
BRANCH  17  20
ATOM     20  O   UNL     1      24.174  10.766  19.122  1.00  0.00    -0.504 OA
ATOM     21  H   UNL     1      23.249  10.446  19.389  1.00  0.00     0.293 HD
ENDBRANCH  17  20
ENDBRANCH   1  12
BRANCH   2  22
ATOM     22  O   UNL     1      26.398  12.255  14.035  1.00  0.00    -0.502 OA
ATOM     23  H   UNL     1      27.093  12.871  13.629  1.00  0.00     0.293 HD
ENDBRANCH   2  22
BRANCH   6  24
ATOM     24  O   UNL     1      23.861  11.780   9.375  1.00  0.00    -0.507 OA
ATOM     25  H   UNL     1      24.392  12.538   8.975  1.00  0.00     0.293 HD
ENDBRANCH   6  24
BRANCH   8  26
ATOM     26  O   UNL     1      19.311  12.055  10.827  1.00  0.00    -0.508 OA
ATOM     27  H   UNL     1      18.724  12.870  10.959  1.00  0.00     0.293 HD
ENDBRANCH   8  26
TORSDOF 6
ENDMDL
MODEL 7
REMARK VINA RESULT:    -4.810     20.845     21.749
REMARK INTER + INTRA:          -6.124
REMARK INTER:                  -5.811
REMARK INTRA:                  -0.313
REMARK UNBOUND:                -0.329
REMARK SMILES O=c1c(O)c(-c2ccc(O)c(O)c2)oc2cc(O)cc(O)c12
REMARK SMILES IDX 5 1 3 2 2 3 1 4 22 5 20 6 19 7 17 8 16 9 15 10 14 11 6 12
REMARK SMILES IDX 7 13 8 14 9 15 13 16 11 17 10 18 12 20 4 22 21 24 18 26
REMARK H PARENT 10 19 12 21 4 23 21 25 18 27
REMARK Flexibility Score: inf
ROOT
ATOM      1  C   UNL     1      24.285  12.800  15.282  1.00  0.00     0.180 A 
ATOM      2  C   UNL     1      23.071  13.368  14.860  1.00  0.00     0.208 A 
ATOM      3  C   UNL     1      22.637  13.147  13.543  1.00  0.00     0.238 A 
ATOM      4  O   UNL     1      21.588  13.721  13.150  1.00  0.00    -0.285 OA
ATOM      5  C   UNL     1      23.393  12.315  12.682  1.00  0.00     0.111 A 
ATOM      6  C   UNL     1      23.025  11.986  11.341  1.00  0.00     0.134 A 
ATOM      7  C   UNL     1      23.904  11.239  10.548  1.00  0.00     0.093 A 
ATOM      8  C   UNL     1      25.106  10.755  11.062  1.00  0.00     0.123 A 
ATOM      9  C   UNL     1      25.450  11.025  12.388  1.00  0.00     0.094 A 
ATOM     10  C   UNL     1      24.612  11.799  13.193  1.00  0.00     0.146 A 
ATOM     11  O   UNL     1      24.988  12.050  14.441  1.00  0.00    -0.452 OA
ENDROOT
BRANCH   1  12
ATOM     12  C   UNL     1      24.816  12.998  16.649  1.00  0.00     0.025 A 
ATOM     13  C   UNL     1      25.800  13.966  16.919  1.00  0.00     0.016 A 
ATOM     14  C   UNL     1      26.304  14.119  18.213  1.00  0.00     0.051 A 
ATOM     15  C   UNL     1      25.847  13.303  19.252  1.00  0.00     0.157 A 
ATOM     16  C   UNL     1      24.374  12.167  17.690  1.00  0.00     0.062 A 
ATOM     17  C   UNL     1      24.878  12.319  18.990  1.00  0.00     0.158 A 
BRANCH  15  18
ATOM     18  O   UNL     1      26.367  13.481  20.534  1.00  0.00    -0.504 OA
ATOM     19  H   UNL     1      27.205  13.003  20.845  1.00  0.00     0.293 HD
ENDBRANCH  15  18
BRANCH  17  20
ATOM     20  O   UNL     1      24.422  11.497  20.020  1.00  0.00    -0.504 OA
ATOM     21  H   UNL     1      24.445  11.796  20.988  1.00  0.00     0.293 HD
ENDBRANCH  17  20
ENDBRANCH   1  12
BRANCH   2  22
ATOM     22  O   UNL     1      22.302  14.124  15.749  1.00  0.00    -0.502 OA
ATOM     23  H   UNL     1      22.486  14.142  16.745  1.00  0.00     0.293 HD
ENDBRANCH   2  22
BRANCH   6  24
ATOM     24  O   UNL     1      21.807  12.342  10.753  1.00  0.00    -0.507 OA
ATOM     25  H   UNL     1      21.181  13.050  11.105  1.00  0.00     0.293 HD
ENDBRANCH   6  24
BRANCH   8  26
ATOM     26  O   UNL     1      25.948  10.000  10.248  1.00  0.00    -0.508 OA
ATOM     27  H   UNL     1      26.835  10.366   9.920  1.00  0.00     0.293 HD
ENDBRANCH   8  26
TORSDOF 6
ENDMDL
