MODEL 1
REMARK VINA RESULT:    -5.213      0.000      0.000
REMARK INTER + INTRA:          -6.759
REMARK INTER:                  -6.432
REMARK INTRA:                  -0.327
REMARK UNBOUND:                -0.327
REMARK SMILES Oc1cc(O)c2cc(O)c(-c3cc(O)c(O)c(O)c3)[o+]c2c1
REMARK SMILES IDX 10 1 20 2 21 3 22 4 2 5 3 6 4 7 6 8 7 9 8 10 11 11 12 12
REMARK SMILES IDX 13 13 19 14 15 15 17 16 14 17 16 19 18 21 9 23 1 25 5 27
REMARK H PARENT 14 18 16 20 18 22 9 24 1 26 5 28
REMARK Flexibility Score: inf
ROOT
ATOM      1  C   UNL     1     -13.280 -15.648  32.274  1.00  0.00     0.402 A 
ATOM      2  O   UNL     1     -12.243 -15.563  33.102  1.00  0.00    -0.202 OA
ATOM      3  C   UNL     1     -12.215 -14.755  34.156  1.00  0.00     0.368 A 
ATOM      4  C   UNL     1     -11.077 -14.733  34.967  1.00  0.00     0.162 A 
ATOM      5  C   UNL     1     -11.019 -13.892  36.078  1.00  0.00     0.128 A 
ATOM      6  C   UNL     1     -12.105 -13.064  36.384  1.00  0.00     0.093 A 
ATOM      7  C   UNL     1     -13.257 -13.067  35.587  1.00  0.00     0.136 A 
ATOM      8  C   UNL     1     -13.321 -13.923  34.458  1.00  0.00     0.125 A 
ATOM      9  C   UNL     1     -14.439 -14.002  33.611  1.00  0.00     0.078 A 
ATOM     10  C   UNL     1     -14.430 -14.873  32.518  1.00  0.00     0.223 A 
ENDROOT
BRANCH   1  11
ATOM     11  C   UNL     1     -13.188 -16.580  31.127  1.00  0.00     0.091 A 
ATOM     12  C   UNL     1     -13.205 -17.963  31.359  1.00  0.00     0.068 A 
ATOM     13  C   UNL     1     -13.099 -18.875  30.302  1.00  0.00     0.162 A 
ATOM     14  C   UNL     1     -13.025 -16.112  29.815  1.00  0.00     0.068 A 
ATOM     15  C   UNL     1     -12.958 -18.393  28.978  1.00  0.00     0.200 A 
ATOM     16  C   UNL     1     -12.917 -17.012  28.747  1.00  0.00     0.162 A 
BRANCH  13  17
ATOM     17  O   UNL     1     -13.137 -20.236  30.610  1.00  0.00    -0.504 OA
ATOM     18  H   UNL     1     -12.418 -20.719  31.131  1.00  0.00     0.293 HD
ENDBRANCH  13  17
BRANCH  15  19
ATOM     19  O   UNL     1     -12.853 -19.247  27.877  1.00  0.00    -0.502 OA
ATOM     20  H   UNL     1     -12.115 -19.925  27.756  1.00  0.00     0.293 HD
ENDBRANCH  15  19
BRANCH  16  21
ATOM     21  O   UNL     1     -12.763 -16.537  27.445  1.00  0.00    -0.504 OA
ATOM     22  H   UNL     1     -12.791 -17.158  26.645  1.00  0.00     0.293 HD
ENDBRANCH  16  21
ENDBRANCH   1  11
BRANCH  10  23
ATOM     23  O   UNL     1     -15.559 -14.989  31.706  1.00  0.00    -0.500 OA
ATOM     24  H   UNL     1     -15.964 -15.891  31.484  1.00  0.00     0.294 HD
ENDBRANCH  10  23
BRANCH   5  25
ATOM     25  O   UNL     1      -9.875 -13.885  36.875  1.00  0.00    -0.507 OA
ATOM     26  H   UNL     1      -9.600 -14.698  37.414  1.00  0.00     0.293 HD
ENDBRANCH   5  25
BRANCH   7  27
ATOM     27  O   UNL     1     -14.297 -12.208  35.957  1.00  0.00    -0.507 OA
ATOM     28  H   UNL     1     -14.992 -11.849  35.319  1.00  0.00     0.293 HD
ENDBRANCH   7  27
TORSDOF 7
ENDMDL
MODEL 2
REMARK VINA RESULT:    -5.185      0.097      1.800
REMARK INTER + INTRA:          -6.725
REMARK INTER:                  -6.427
REMARK INTRA:                  -0.297
REMARK UNBOUND:                -0.327
REMARK SMILES Oc1cc(O)c2cc(O)c(-c3cc(O)c(O)c(O)c3)[o+]c2c1
REMARK SMILES IDX 10 1 20 2 21 3 22 4 2 5 3 6 4 7 6 8 7 9 8 10 11 11 12 12
REMARK SMILES IDX 13 13 19 14 15 15 17 16 14 17 16 19 18 21 9 23 1 25 5 27
REMARK H PARENT 14 18 16 20 18 22 9 24 1 26 5 28
REMARK Flexibility Score: inf
ROOT
ATOM      1  C   UNL     1     -13.226 -15.659  32.288  1.00  0.00     0.402 A 
ATOM      2  O   UNL     1     -12.191 -15.538  33.115  1.00  0.00    -0.202 OA
ATOM      3  C   UNL     1     -12.191 -14.730  34.169  1.00  0.00     0.368 A 
ATOM      4  C   UNL     1     -11.054 -14.668  34.979  1.00  0.00     0.162 A 
ATOM      5  C   UNL     1     -11.024 -13.825  36.090  1.00  0.00     0.128 A 
ATOM      6  C   UNL     1     -12.139 -13.036  36.398  1.00  0.00     0.093 A 
ATOM      7  C   UNL     1     -13.291 -13.080  35.602  1.00  0.00     0.136 A 
ATOM      8  C   UNL     1     -13.325 -13.937  34.472  1.00  0.00     0.125 A 
ATOM      9  C   UNL     1     -14.440 -14.056  33.626  1.00  0.00     0.078 A 
ATOM     10  C   UNL     1     -14.403 -14.926  32.533  1.00  0.00     0.223 A 
ENDROOT
BRANCH   1  11
ATOM     11  C   UNL     1     -13.102 -16.588  31.140  1.00  0.00     0.091 A 
ATOM     12  C   UNL     1     -13.011 -16.068  29.841  1.00  0.00     0.068 A 
ATOM     13  C   UNL     1     -12.914 -16.915  28.730  1.00  0.00     0.162 A 
ATOM     14  C   UNL     1     -13.131 -17.978  31.318  1.00  0.00     0.068 A 
ATOM     15  C   UNL     1     -12.921 -18.318  28.920  1.00  0.00     0.200 A 
ATOM     16  C   UNL     1     -13.035 -18.838  30.216  1.00  0.00     0.162 A 
BRANCH  13  17
ATOM     17  O   UNL     1     -12.814 -16.325  27.469  1.00  0.00    -0.504 OA
ATOM     18  H   UNL     1     -12.366 -15.437  27.292  1.00  0.00     0.293 HD
ENDBRANCH  13  17
BRANCH  15  19
ATOM     19  O   UNL     1     -12.821 -19.220  27.857  1.00  0.00    -0.502 OA
ATOM     20  H   UNL     1     -12.263 -20.061  27.880  1.00  0.00     0.293 HD
ENDBRANCH  15  19
BRANCH  16  21
ATOM     21  O   UNL     1     -13.057 -20.220  30.403  1.00  0.00    -0.504 OA
ATOM     22  H   UNL     1     -12.211 -20.775  30.365  1.00  0.00     0.293 HD
ENDBRANCH  16  21
ENDBRANCH   1  11
BRANCH  10  23
ATOM     23  O   UNL     1     -15.528 -15.082  31.722  1.00  0.00    -0.500 OA
ATOM     24  H   UNL     1     -15.465 -15.496  30.800  1.00  0.00     0.294 HD
ENDBRANCH  10  23
BRANCH   5  25
ATOM     25  O   UNL     1      -9.880 -13.778  36.885  1.00  0.00    -0.507 OA
ATOM     26  H   UNL     1      -9.496 -12.898  37.209  1.00  0.00     0.293 HD
ENDBRANCH   5  25
BRANCH   7  27
ATOM     27  O   UNL     1     -14.360 -12.259  35.973  1.00  0.00    -0.507 OA
ATOM     28  H   UNL     1     -14.268 -11.289  36.238  1.00  0.00     0.293 HD
ENDBRANCH   7  27
TORSDOF 7
ENDMDL
MODEL 3
REMARK VINA RESULT:    -4.990      1.025      2.572
REMARK INTER + INTRA:          -6.484
REMARK INTER:                  -6.182
REMARK INTRA:                  -0.302
REMARK UNBOUND:                -0.327
REMARK SMILES Oc1cc(O)c2cc(O)c(-c3cc(O)c(O)c(O)c3)[o+]c2c1
REMARK SMILES IDX 10 1 20 2 21 3 22 4 2 5 3 6 4 7 6 8 7 9 8 10 11 11 12 12
REMARK SMILES IDX 13 13 19 14 15 15 17 16 14 17 16 19 18 21 9 23 1 25 5 27
REMARK H PARENT 14 18 16 20 18 22 9 24 1 26 5 28
REMARK Flexibility Score: inf
ROOT
ATOM      1  C   UNL     1     -12.107 -15.972  32.294  1.00  0.00     0.402 A 
ATOM      2  O   UNL     1     -12.958 -15.153  32.906  1.00  0.00    -0.202 OA
ATOM      3  C   UNL     1     -12.660 -14.493  34.020  1.00  0.00     0.368 A 
ATOM      4  C   UNL     1     -13.623 -13.657  34.593  1.00  0.00     0.162 A 
ATOM      5  C   UNL     1     -13.340 -12.954  35.764  1.00  0.00     0.128 A 
ATOM      6  C   UNL     1     -12.086 -13.086  36.371  1.00  0.00     0.093 A 
ATOM      7  C   UNL     1     -11.104 -13.918  35.817  1.00  0.00     0.136 A 
ATOM      8  C   UNL     1     -11.388 -14.632  34.625  1.00  0.00     0.125 A 
ATOM      9  C   UNL     1     -10.461 -15.478  33.992  1.00  0.00     0.078 A 
ATOM     10  C   UNL     1     -10.811 -16.146  32.816  1.00  0.00     0.223 A 
ENDROOT
BRANCH   1  11
ATOM     11  C   UNL     1     -12.559 -16.660  31.062  1.00  0.00     0.091 A 
ATOM     12  C   UNL     1     -12.805 -18.040  31.094  1.00  0.00     0.068 A 
ATOM     13  C   UNL     1     -13.213 -18.728  29.946  1.00  0.00     0.162 A 
ATOM     14  C   UNL     1     -12.691 -15.972  29.847  1.00  0.00     0.068 A 
ATOM     15  C   UNL     1     -13.366 -18.022  28.728  1.00  0.00     0.200 A 
ATOM     16  C   UNL     1     -13.098 -16.647  28.689  1.00  0.00     0.162 A 
BRANCH  13  17
ATOM     17  O   UNL     1     -13.452 -20.098  30.058  1.00  0.00    -0.504 OA
ATOM     18  H   UNL     1     -13.249 -20.770  29.331  1.00  0.00     0.293 HD
ENDBRANCH  13  17
BRANCH  15  19
ATOM     19  O   UNL     1     -13.776 -18.644  27.545  1.00  0.00    -0.502 OA
ATOM     20  H   UNL     1     -13.245 -19.358  27.070  1.00  0.00     0.293 HD
ENDBRANCH  15  19
BRANCH  16  21
ATOM     21  O   UNL     1     -13.234 -15.953  27.487  1.00  0.00    -0.504 OA
ATOM     22  H   UNL     1     -12.505 -15.962  26.783  1.00  0.00     0.293 HD
ENDBRANCH  16  21
ENDBRANCH   1  11
BRANCH  10  23
ATOM     23  O   UNL     1      -9.875 -16.947  32.160  1.00  0.00    -0.500 OA
ATOM     24  H   UNL     1     -10.071 -17.913  31.927  1.00  0.00     0.294 HD
ENDBRANCH  10  23
BRANCH   5  25
ATOM     25  O   UNL     1     -14.313 -12.125  36.319  1.00  0.00    -0.507 OA
ATOM     26  H   UNL     1     -14.065 -11.320  36.882  1.00  0.00     0.293 HD
ENDBRANCH   5  25
BRANCH   7  27
ATOM     27  O   UNL     1      -9.878 -13.999  36.485  1.00  0.00    -0.507 OA
ATOM     28  H   UNL     1      -8.978 -13.932  36.034  1.00  0.00     0.293 HD
ENDBRANCH   7  27
TORSDOF 7
ENDMDL
MODEL 4
REMARK VINA RESULT:    -4.969      1.072      3.147
REMARK INTER + INTRA:          -6.458
REMARK INTER:                  -6.113
REMARK INTRA:                  -0.345
REMARK UNBOUND:                -0.327
REMARK SMILES Oc1cc(O)c2cc(O)c(-c3cc(O)c(O)c(O)c3)[o+]c2c1
REMARK SMILES IDX 10 1 20 2 21 3 22 4 2 5 3 6 4 7 6 8 7 9 8 10 11 11 12 12
REMARK SMILES IDX 13 13 19 14 15 15 17 16 14 17 16 19 18 21 9 23 1 25 5 27
REMARK H PARENT 14 18 16 20 18 22 9 24 1 26 5 28
REMARK Flexibility Score: inf
ROOT
ATOM      1  C   UNL     1     -12.113 -16.170  32.224  1.00  0.00     0.402 A 
ATOM      2  O   UNL     1     -12.965 -15.332  32.809  1.00  0.00    -0.202 OA
ATOM      3  C   UNL     1     -12.666 -14.631  33.897  1.00  0.00     0.368 A 
ATOM      4  C   UNL     1     -13.629 -13.778  34.443  1.00  0.00     0.162 A 
ATOM      5  C   UNL     1     -13.345 -13.032  35.587  1.00  0.00     0.128 A 
ATOM      6  C   UNL     1     -12.087 -13.138  36.193  1.00  0.00     0.093 A 
ATOM      7  C   UNL     1     -11.104 -13.985  35.666  1.00  0.00     0.136 A 
ATOM      8  C   UNL     1     -11.390 -14.744  34.502  1.00  0.00     0.125 A 
ATOM      9  C   UNL     1     -10.463 -15.608  33.896  1.00  0.00     0.078 A 
ATOM     10  C   UNL     1     -10.815 -16.320  32.746  1.00  0.00     0.223 A 
ENDROOT
BRANCH   1  11
ATOM     11  C   UNL     1     -12.567 -16.903  31.019  1.00  0.00     0.091 A 
ATOM     12  C   UNL     1     -12.710 -16.215  29.806  1.00  0.00     0.068 A 
ATOM     13  C   UNL     1     -13.156 -16.870  28.652  1.00  0.00     0.162 A 
ATOM     14  C   UNL     1     -12.914 -18.261  31.077  1.00  0.00     0.068 A 
ATOM     15  C   UNL     1     -13.482 -18.246  28.714  1.00  0.00     0.200 A 
ATOM     16  C   UNL     1     -13.362 -18.930  29.932  1.00  0.00     0.162 A 
BRANCH  13  17
ATOM     17  O   UNL     1     -13.261 -16.122  27.479  1.00  0.00    -0.504 OA
ATOM     18  H   UNL     1     -12.627 -15.379  27.221  1.00  0.00     0.293 HD
ENDBRANCH  13  17
BRANCH  15  19
ATOM     19  O   UNL     1     -13.927 -18.963  27.600  1.00  0.00    -0.502 OA
ATOM     20  H   UNL     1     -13.555 -18.849  26.669  1.00  0.00     0.293 HD
ENDBRANCH  15  19
BRANCH  16  21
ATOM     21  O   UNL     1     -13.697 -20.282  29.997  1.00  0.00    -0.504 OA
ATOM     22  H   UNL     1     -13.125 -20.948  30.503  1.00  0.00     0.293 HD
ENDBRANCH  16  21
ENDBRANCH   1  11
BRANCH  10  23
ATOM     23  O   UNL     1      -9.878 -17.140  32.116  1.00  0.00    -0.500 OA
ATOM     24  H   UNL     1      -8.941 -17.255  32.482  1.00  0.00     0.294 HD
ENDBRANCH  10  23
BRANCH   5  25
ATOM     25  O   UNL     1     -14.319 -12.188  36.115  1.00  0.00    -0.507 OA
ATOM     26  H   UNL     1     -15.259 -12.163  35.739  1.00  0.00     0.293 HD
ENDBRANCH   5  25
BRANCH   7  27
ATOM     27  O   UNL     1      -9.876 -14.038  36.332  1.00  0.00    -0.507 OA
ATOM     28  H   UNL     1      -9.501 -14.866  36.771  1.00  0.00     0.293 HD
ENDBRANCH   7  27
TORSDOF 7
ENDMDL
MODEL 5
REMARK VINA RESULT:    -3.983      1.619      7.257
REMARK INTER + INTRA:          -5.241
REMARK INTER:                  -4.935
REMARK INTRA:                  -0.307
REMARK UNBOUND:                -0.327
REMARK SMILES Oc1cc(O)c2cc(O)c(-c3cc(O)c(O)c(O)c3)[o+]c2c1
REMARK SMILES IDX 10 1 20 2 21 3 22 4 2 5 3 6 4 7 6 8 7 9 8 10 11 11 12 12
REMARK SMILES IDX 13 13 19 14 15 15 17 16 14 17 16 19 18 21 9 23 1 25 5 27
REMARK H PARENT 14 18 16 20 18 22 9 24 1 26 5 28
REMARK Flexibility Score: inf
ROOT
ATOM      1  C   UNL     1     -12.621 -16.515  31.569  1.00  0.00     0.402 A 
ATOM      2  O   UNL     1     -12.066 -16.115  30.428  1.00  0.00    -0.202 OA
ATOM      3  C   UNL     1     -12.141 -16.810  29.298  1.00  0.00     0.368 A 
ATOM      4  C   UNL     1     -11.520 -16.309  28.150  1.00  0.00     0.162 A 
ATOM      5  C   UNL     1     -11.579 -17.017  26.950  1.00  0.00     0.128 A 
ATOM      6  C   UNL     1     -12.263 -18.238  26.894  1.00  0.00     0.093 A 
ATOM      7  C   UNL     1     -12.892 -18.762  28.030  1.00  0.00     0.136 A 
ATOM      8  C   UNL     1     -12.836 -18.042  29.252  1.00  0.00     0.125 A 
ATOM      9  C   UNL     1     -13.448 -18.483  30.437  1.00  0.00     0.078 A 
ATOM     10  C   UNL     1     -13.354 -17.717  31.602  1.00  0.00     0.223 A 
ENDROOT
BRANCH   1  11
ATOM     11  C   UNL     1     -12.461 -15.658  32.766  1.00  0.00     0.091 A 
ATOM     12  C   UNL     1     -13.540 -14.879  33.205  1.00  0.00     0.068 A 
ATOM     13  C   UNL     1     -13.420 -14.041  34.320  1.00  0.00     0.162 A 
ATOM     14  C   UNL     1     -11.234 -15.563  33.438  1.00  0.00     0.068 A 
ATOM     15  C   UNL     1     -12.184 -13.968  35.007  1.00  0.00     0.200 A 
ATOM     16  C   UNL     1     -11.097 -14.729  34.555  1.00  0.00     0.162 A 
BRANCH  13  17
ATOM     17  O   UNL     1     -14.541 -13.305  34.706  1.00  0.00    -0.504 OA
ATOM     18  H   UNL     1     -14.510 -12.507  35.324  1.00  0.00     0.293 HD
ENDBRANCH  13  17
BRANCH  15  19
ATOM     19  O   UNL     1     -11.995 -13.158  36.130  1.00  0.00    -0.502 OA
ATOM     20  H   UNL     1     -12.740 -12.861  36.744  1.00  0.00     0.293 HD
ENDBRANCH  15  19
BRANCH  16  21
ATOM     21  O   UNL     1      -9.875 -14.647  35.222  1.00  0.00    -0.504 OA
ATOM     22  H   UNL     1      -9.426 -13.757  35.402  1.00  0.00     0.293 HD
ENDBRANCH  16  21
ENDBRANCH   1  11
BRANCH  10  23
ATOM     23  O   UNL     1     -14.003 -18.130  32.766  1.00  0.00    -0.500 OA
ATOM     24  H   UNL     1     -14.433 -17.466  33.399  1.00  0.00     0.294 HD
ENDBRANCH  10  23
BRANCH   5  25
ATOM     25  O   UNL     1     -10.955 -16.501  25.816  1.00  0.00    -0.507 OA
ATOM     26  H   UNL     1      -9.995 -16.178  25.841  1.00  0.00     0.293 HD
ENDBRANCH   5  25
BRANCH   7  27
ATOM     27  O   UNL     1     -13.550 -19.988  27.893  1.00  0.00    -0.507 OA
ATOM     28  H   UNL     1     -13.541 -20.720  28.588  1.00  0.00     0.293 HD
ENDBRANCH   7  27
TORSDOF 7
ENDMDL
MODEL 6
REMARK VINA RESULT:    -2.961      1.411      6.932
REMARK INTER + INTRA:          -3.981
REMARK INTER:                  -4.330
REMARK INTRA:                   0.349
REMARK UNBOUND:                -0.327
REMARK SMILES Oc1cc(O)c2cc(O)c(-c3cc(O)c(O)c(O)c3)[o+]c2c1
REMARK SMILES IDX 10 1 20 2 21 3 22 4 2 5 3 6 4 7 6 8 7 9 8 10 11 11 12 12
REMARK SMILES IDX 13 13 19 14 15 15 17 16 14 17 16 19 18 21 9 23 1 25 5 27
REMARK H PARENT 14 18 16 20 18 22 9 24 1 26 5 28
REMARK Flexibility Score: inf
ROOT
ATOM      1  C   UNL     1     -12.705 -15.304  32.968  1.00  0.00     0.402 A 
ATOM      2  O   UNL     1     -11.788 -16.233  32.715  1.00  0.00    -0.202 OA
ATOM      3  C   UNL     1     -11.861 -17.068  31.684  1.00  0.00     0.368 A 
ATOM      4  C   UNL     1     -10.849 -18.015  31.503  1.00  0.00     0.162 A 
ATOM      5  C   UNL     1     -10.900 -18.907  30.432  1.00  0.00     0.128 A 
ATOM      6  C   UNL     1     -11.971 -18.855  29.532  1.00  0.00     0.093 A 
ATOM      7  C   UNL     1     -12.998 -17.915  29.691  1.00  0.00     0.136 A 
ATOM      8  C   UNL     1     -12.947 -17.006  30.779  1.00  0.00     0.125 A 
ATOM      9  C   UNL     1     -13.924 -16.022  31.009  1.00  0.00     0.078 A 
ATOM     10  C   UNL     1     -13.805 -15.157  32.100  1.00  0.00     0.223 A 
ENDROOT
BRANCH   1  11
ATOM     11  C   UNL     1     -12.519 -14.438  34.155  1.00  0.00     0.091 A 
ATOM     12  C   UNL     1     -11.312 -14.497  34.868  1.00  0.00     0.068 A 
ATOM     13  C   UNL     1     -11.108 -13.709  36.006  1.00  0.00     0.162 A 
ATOM     14  C   UNL     1     -13.544 -13.600  34.618  1.00  0.00     0.068 A 
ATOM     15  C   UNL     1     -12.139 -12.849  36.454  1.00  0.00     0.200 A 
ATOM     16  C   UNL     1     -13.354 -12.806  35.755  1.00  0.00     0.162 A 
BRANCH  13  17
ATOM     17  O   UNL     1      -9.877 -13.812  36.657  1.00  0.00    -0.504 OA
ATOM     18  H   UNL     1      -9.506 -14.672  37.035  1.00  0.00     0.293 HD
ENDBRANCH  13  17
BRANCH  15  19
ATOM     19  O   UNL     1     -12.000 -12.031  37.579  1.00  0.00    -0.502 OA
ATOM     20  H   UNL     1     -11.266 -11.348  37.693  1.00  0.00     0.293 HD
ENDBRANCH  15  19
BRANCH  16  21
ATOM     21  O   UNL     1     -14.376 -11.970  36.204  1.00  0.00    -0.504 OA
ATOM     22  H   UNL     1     -14.430 -11.668  37.170  1.00  0.00     0.293 HD
ENDBRANCH  16  21
ENDBRANCH   1  11
BRANCH  10  23
ATOM     23  O   UNL     1     -14.748 -14.149  32.301  1.00  0.00    -0.500 OA
ATOM     24  H   UNL     1     -14.481 -13.173  32.349  1.00  0.00     0.294 HD
ENDBRANCH  10  23
BRANCH   5  25
ATOM     25  O   UNL     1      -9.881 -19.843  30.269  1.00  0.00    -0.507 OA
ATOM     26  H   UNL     1      -8.961 -19.573  29.941  1.00  0.00     0.293 HD
ENDBRANCH   5  25
BRANCH   7  27
ATOM     27  O   UNL     1     -14.034 -17.930  28.753  1.00  0.00    -0.507 OA
ATOM     28  H   UNL     1     -14.706 -18.678  28.657  1.00  0.00     0.293 HD
ENDBRANCH   7  27
TORSDOF 7
ENDMDL
MODEL 7
REMARK VINA RESULT:    -2.876      1.571      7.329
REMARK INTER + INTRA:          -3.875
REMARK INTER:                  -3.713
REMARK INTRA:                  -0.162
REMARK UNBOUND:                -0.327
REMARK SMILES Oc1cc(O)c2cc(O)c(-c3cc(O)c(O)c(O)c3)[o+]c2c1
REMARK SMILES IDX 10 1 20 2 21 3 22 4 2 5 3 6 4 7 6 8 7 9 8 10 11 11 12 12
REMARK SMILES IDX 13 13 19 14 15 15 17 16 14 17 16 19 18 21 9 23 1 25 5 27
REMARK H PARENT 14 18 16 20 18 22 9 24 1 26 5 28
REMARK Flexibility Score: inf
ROOT
ATOM      1  C   UNL     1     -12.733 -16.295  31.566  1.00  0.00     0.402 A 
ATOM      2  O   UNL     1     -13.087 -15.685  30.439  1.00  0.00    -0.202 OA
ATOM      3  C   UNL     1     -13.262 -16.324  29.287  1.00  0.00     0.368 A 
ATOM      4  C   UNL     1     -13.631 -15.595  28.153  1.00  0.00     0.162 A 
ATOM      5  C   UNL     1     -13.818 -16.240  26.930  1.00  0.00     0.128 A 
ATOM      6  C   UNL     1     -13.634 -17.625  26.836  1.00  0.00     0.093 A 
ATOM      7  C   UNL     1     -13.264 -18.378  27.958  1.00  0.00     0.136 A 
ATOM      8  C   UNL     1     -13.075 -17.725  29.204  1.00  0.00     0.125 A 
ATOM      9  C   UNL     1     -12.717 -18.401  30.382  1.00  0.00     0.078 A 
ATOM     10  C   UNL     1     -12.553 -17.691  31.575  1.00  0.00     0.223 A 
ENDROOT
BRANCH   1  11
ATOM     11  C   UNL     1     -12.560 -15.471  32.785  1.00  0.00     0.091 A 
ATOM     12  C   UNL     1     -11.327 -15.480  33.454  1.00  0.00     0.068 A 
ATOM     13  C   UNL     1     -11.133 -14.731  34.620  1.00  0.00     0.162 A 
ATOM     14  C   UNL     1     -13.620 -14.725  33.320  1.00  0.00     0.068 A 
ATOM     15  C   UNL     1     -12.202 -13.962  35.141  1.00  0.00     0.200 A 
ATOM     16  C   UNL     1     -13.441 -13.971  34.486  1.00  0.00     0.162 A 
BRANCH  13  17
ATOM     17  O   UNL     1      -9.875 -14.780  35.223  1.00  0.00    -0.504 OA
ATOM     18  H   UNL     1      -9.216 -15.535  35.098  1.00  0.00     0.293 HD
ENDBRANCH  13  17
BRANCH  15  19
ATOM     19  O   UNL     1     -12.075 -13.187  36.297  1.00  0.00    -0.502 OA
ATOM     20  H   UNL     1     -12.659 -12.392  36.510  1.00  0.00     0.293 HD
ENDBRANCH  15  19
BRANCH  16  21
ATOM     21  O   UNL     1     -14.499 -13.226  35.007  1.00  0.00    -0.504 OA
ATOM     22  H   UNL     1     -14.628 -12.249  34.772  1.00  0.00     0.293 HD
ENDBRANCH  16  21
ENDBRANCH   1  11
BRANCH  10  23
ATOM     23  O   UNL     1     -12.247 -18.368  32.756  1.00  0.00    -0.500 OA
ATOM     24  H   UNL     1     -11.567 -19.118  32.778  1.00  0.00     0.294 HD
ENDBRANCH  10  23
BRANCH   5  25
ATOM     25  O   UNL     1     -14.187 -15.495  25.811  1.00  0.00    -0.507 OA
ATOM     26  H   UNL     1     -13.872 -14.541  25.683  1.00  0.00     0.293 HD
ENDBRANCH   5  25
BRANCH   7  27
ATOM     27  O   UNL     1     -13.096 -19.754  27.781  1.00  0.00    -0.507 OA
ATOM     28  H   UNL     1     -12.694 -20.178  26.957  1.00  0.00     0.293 HD
ENDBRANCH   7  27
TORSDOF 7
ENDMDL
MODEL 8
REMARK VINA RESULT:    -2.615      2.150      7.540
REMARK INTER + INTRA:          -3.554
REMARK INTER:                  -3.721
REMARK INTRA:                   0.167
REMARK UNBOUND:                -0.327
REMARK SMILES Oc1cc(O)c2cc(O)c(-c3cc(O)c(O)c(O)c3)[o+]c2c1
REMARK SMILES IDX 10 1 20 2 21 3 22 4 2 5 3 6 4 7 6 8 7 9 8 10 11 11 12 12
REMARK SMILES IDX 13 13 19 14 15 15 17 16 14 17 16 19 18 21 9 23 1 25 5 27
REMARK H PARENT 14 18 16 20 18 22 9 24 1 26 5 28
REMARK Flexibility Score: inf
ROOT
ATOM      1  C   UNL     1     -11.875 -16.033  30.840  1.00  0.00     0.402 A 
ATOM      2  O   UNL     1     -12.735 -15.740  29.869  1.00  0.00    -0.202 OA
ATOM      3  C   UNL     1     -12.589 -16.156  28.616  1.00  0.00     0.368 A 
ATOM      4  C   UNL     1     -13.545 -15.792  27.663  1.00  0.00     0.162 A 
ATOM      5  C   UNL     1     -13.416 -16.212  26.339  1.00  0.00     0.128 A 
ATOM      6  C   UNL     1     -12.323 -17.000  25.960  1.00  0.00     0.093 A 
ATOM      7  C   UNL     1     -11.351 -17.377  26.896  1.00  0.00     0.136 A 
ATOM      8  C   UNL     1     -11.481 -16.954  28.244  1.00  0.00     0.125 A 
ATOM      9  C   UNL     1     -10.563 -17.295  29.252  1.00  0.00     0.078 A 
ATOM     10  C   UNL     1     -10.759 -16.845  30.560  1.00  0.00     0.223 A 
ENDROOT
BRANCH   1  11
ATOM     11  C   UNL     1     -12.141 -15.502  32.197  1.00  0.00     0.091 A 
ATOM     12  C   UNL     1     -13.461 -15.226  32.583  1.00  0.00     0.068 A 
ATOM     13  C   UNL     1     -13.750 -14.704  33.849  1.00  0.00     0.162 A 
ATOM     14  C   UNL     1     -11.097 -15.214  33.088  1.00  0.00     0.068 A 
ATOM     15  C   UNL     1     -12.692 -14.438  34.751  1.00  0.00     0.200 A 
ATOM     16  C   UNL     1     -11.370 -14.692  34.359  1.00  0.00     0.162 A 
BRANCH  13  17
ATOM     17  O   UNL     1     -15.088 -14.467  34.166  1.00  0.00    -0.504 OA
ATOM     18  H   UNL     1     -15.869 -14.890  33.683  1.00  0.00     0.293 HD
ENDBRANCH  13  17
BRANCH  15  19
ATOM     19  O   UNL     1     -12.908 -13.923  36.032  1.00  0.00    -0.502 OA
ATOM     20  H   UNL     1     -13.814 -13.869  36.473  1.00  0.00     0.293 HD
ENDBRANCH  15  19
BRANCH  16  21
ATOM     21  O   UNL     1     -10.326 -14.416  35.241  1.00  0.00    -0.504 OA
ATOM     22  H   UNL     1     -10.406 -14.601  36.234  1.00  0.00     0.293 HD
ENDBRANCH  16  21
ENDBRANCH   1  11
BRANCH  10  23
ATOM     23  O   UNL     1      -9.876 -17.224  31.571  1.00  0.00    -0.500 OA
ATOM     24  H   UNL     1      -8.879 -17.065  31.493  1.00  0.00     0.294 HD
ENDBRANCH  10  23
BRANCH   5  25
ATOM     25  O   UNL     1     -14.381 -15.839  25.404  1.00  0.00    -0.507 OA
ATOM     26  H   UNL     1     -15.361 -16.058  25.539  1.00  0.00     0.293 HD
ENDBRANCH   5  25
BRANCH   7  27
ATOM     27  O   UNL     1     -10.288 -18.161  26.438  1.00  0.00    -0.507 OA
ATOM     28  H   UNL     1     -10.349 -18.808  25.666  1.00  0.00     0.293 HD
ENDBRANCH   7  27
TORSDOF 7
ENDMDL
