MODEL 1
REMARK VINA RESULT:     5.929      0.000      0.000
REMARK INTER + INTRA:           9.761
REMARK INTER:                  10.782
REMARK INTRA:                  -1.022
REMARK UNBOUND:                -1.022
REMARK SMILES CCCCCCCCCCCCCCCC(=O)[O-]
REMARK SMILES IDX 9 1 10 2 11 3 12 4 13 5 14 6 15 7 16 8 17 9 18 10 8 11 7 12
REMARK SMILES IDX 6 13 5 14 4 15 3 16 2 17 1 18
REMARK H PARENT
REMARK Flexibility Score: inf
ROOT
ATOM      1  C   UNL     1      15.732  15.091 -12.617  1.00  0.00     0.000 C 
ENDROOT
BRANCH   1   2
ATOM      2  C   UNL     1      17.005  14.485 -13.238  1.00  0.00     0.000 C 
BRANCH   2   3
ATOM      3  C   UNL     1      18.239  15.406 -13.230  1.00  0.00     0.000 C 
BRANCH   3   4
ATOM      4  C   UNL     1      17.894  16.867 -12.893  1.00  0.00     0.000 C 
BRANCH   4   5
ATOM      5  C   UNL     1      18.627  17.371 -11.640  1.00  0.00     0.000 C 
BRANCH   5   6
ATOM      6  C   UNL     1      18.248  18.817 -11.274  1.00  0.00     0.006 C 
BRANCH   6   7
ATOM      7  C   UNL     1      18.368  19.769 -12.472  1.00  0.00     0.053 C 
BRANCH   7   8
ATOM      8  C   UNL     1      19.582  20.640 -12.374  1.00  0.00     0.041 C 
ATOM      9  O   UNL     1      19.460  21.880 -12.189  1.00  0.00    -0.550 OA
ATOM     10  O   UNL     1      20.851  20.080 -12.457  1.00  0.00    -0.550 OA
ENDBRANCH   7   8
ENDBRANCH   6   7
ENDBRANCH   5   6
ENDBRANCH   4   5
ENDBRANCH   3   4
ENDBRANCH   2   3
ENDBRANCH   1   2
BRANCH   1  11
ATOM     11  C   UNL     1      15.194  14.272 -11.435  1.00  0.00     0.000 C 
BRANCH  11  12
ATOM     12  C   UNL     1      14.534  15.182 -10.392  1.00  0.00    -0.000 C 
BRANCH  12  13
ATOM     13  C   UNL     1      15.590  15.859  -9.506  1.00  0.00    -0.000 C 
BRANCH  13  14
ATOM     14  C   UNL     1      15.471  15.461  -8.024  1.00  0.00    -0.000 C 
BRANCH  14  15
ATOM     15  C   UNL     1      14.199  16.003  -7.339  1.00  0.00    -0.000 C 
BRANCH  15  16
ATOM     16  C   UNL     1      14.490  17.236  -6.465  1.00  0.00    -0.000 C 
BRANCH  16  17
ATOM     17  C   UNL     1      13.212  17.896  -5.928  1.00  0.00    -0.003 C 
ATOM     18  C   UNL     1      12.098  16.887  -5.647  1.00  0.00     0.004 C 
ENDBRANCH  16  17
ENDBRANCH  15  16
ENDBRANCH  14  15
ENDBRANCH  13  14
ENDBRANCH  12  13
ENDBRANCH  11  12
ENDBRANCH   1  11
TORSDOF 14
ENDMDL
MODEL 2
REMARK VINA RESULT:     6.096      3.337      6.926
REMARK INTER + INTRA:          10.063
REMARK INTER:                  11.029
REMARK INTRA:                  -0.966
REMARK UNBOUND:                -1.022
REMARK SMILES CCCCCCCCCCCCCCCC(=O)[O-]
REMARK SMILES IDX 9 1 10 2 11 3 12 4 13 5 14 6 15 7 16 8 17 9 18 10 8 11 7 12
REMARK SMILES IDX 6 13 5 14 4 15 3 16 2 17 1 18
REMARK H PARENT
REMARK Flexibility Score: inf
ROOT
ATOM      1  C   UNL     1      15.985  14.923 -12.911  1.00  0.00     0.000 C 
ENDROOT
BRANCH   1   2
ATOM      2  C   UNL     1      15.279  14.107 -11.811  1.00  0.00     0.000 C 
BRANCH   2   3
ATOM      3  C   UNL     1      14.461  14.937 -10.805  1.00  0.00     0.000 C 
BRANCH   3   4
ATOM      4  C   UNL     1      15.340  15.665  -9.774  1.00  0.00     0.000 C 
BRANCH   4   5
ATOM      5  C   UNL     1      15.329  14.978  -8.399  1.00  0.00     0.000 C 
BRANCH   5   6
ATOM      6  C   UNL     1      15.030  15.957  -7.250  1.00  0.00     0.006 C 
BRANCH   6   7
ATOM      7  C   UNL     1      13.576  16.447  -7.269  1.00  0.00     0.053 C 
BRANCH   7   8
ATOM      8  C   UNL     1      13.308  17.444  -6.184  1.00  0.00     0.041 C 
ATOM      9  O   UNL     1      12.405  17.229  -5.334  1.00  0.00    -0.550 OA
ATOM     10  O   UNL     1      14.076  18.598  -6.094  1.00  0.00    -0.550 OA
ENDBRANCH   7   8
ENDBRANCH   6   7
ENDBRANCH   5   6
ENDBRANCH   4   5
ENDBRANCH   3   4
ENDBRANCH   2   3
ENDBRANCH   1   2
BRANCH   1  11
ATOM     11  C   UNL     1      17.396  14.405 -13.226  1.00  0.00     0.000 C 
BRANCH  11  12
ATOM     12  C   UNL     1      18.403  15.561 -13.288  1.00  0.00    -0.000 C 
BRANCH  12  13
ATOM     13  C   UNL     1      17.789  16.856 -12.737  1.00  0.00    -0.000 C 
BRANCH  13  14
ATOM     14  C   UNL     1      18.744  17.622 -11.806  1.00  0.00    -0.000 C 
BRANCH  14  15
ATOM     15  C   UNL     1      18.212  19.007 -11.378  1.00  0.00    -0.000 C 
BRANCH  15  16
ATOM     16  C   UNL     1      18.380  20.061 -12.486  1.00  0.00    -0.000 C 
BRANCH  16  17
ATOM     17  C   UNL     1      19.375  21.166 -12.104  1.00  0.00    -0.003 C 
ATOM     18  C   UNL     1      20.826  20.786 -12.404  1.00  0.00     0.004 C 
ENDBRANCH  16  17
ENDBRANCH  15  16
ENDBRANCH  14  15
ENDBRANCH  13  14
ENDBRANCH  12  13
ENDBRANCH  11  12
ENDBRANCH   1  11
TORSDOF 14
ENDMDL
MODEL 3
REMARK VINA RESULT:     6.272      8.549     13.175
REMARK INTER + INTRA:          10.384
REMARK INTER:                  10.702
REMARK INTRA:                  -0.318
REMARK UNBOUND:                -1.022
REMARK SMILES CCCCCCCCCCCCCCCC(=O)[O-]
REMARK SMILES IDX 9 1 10 2 11 3 12 4 13 5 14 6 15 7 16 8 17 9 18 10 8 11 7 12
REMARK SMILES IDX 6 13 5 14 4 15 3 16 2 17 1 18
REMARK H PARENT
REMARK Flexibility Score: inf
ROOT
ATOM      1  C   UNL     1      10.436  14.063  -1.544  1.00  0.00     0.000 C 
ENDROOT
BRANCH   1   2
ATOM      2  C   UNL     1      10.745  12.993  -0.481  1.00  0.00     0.000 C 
BRANCH   2   3
ATOM      3  C   UNL     1      11.963  13.290   0.413  1.00  0.00     0.000 C 
BRANCH   3   4
ATOM      4  C   UNL     1      11.673  14.353   1.487  1.00  0.00     0.000 C 
BRANCH   4   5
ATOM      5  C   UNL     1      10.895  15.557   0.929  1.00  0.00     0.000 C 
BRANCH   5   6
ATOM      6  C   UNL     1       9.636  15.881   1.753  1.00  0.00     0.006 C 
BRANCH   6   7
ATOM      7  C   UNL     1       8.838  14.620   2.113  1.00  0.00     0.053 C 
BRANCH   7   8
ATOM      8  C   UNL     1       7.361  14.863   2.066  1.00  0.00     0.041 C 
ATOM      9  O   UNL     1       6.561  13.892   2.006  1.00  0.00    -0.550 OA
ATOM     10  O   UNL     1       6.865  16.160   2.118  1.00  0.00    -0.550 OA
ENDBRANCH   7   8
ENDBRANCH   6   7
ENDBRANCH   5   6
ENDBRANCH   4   5
ENDBRANCH   3   4
ENDBRANCH   2   3
ENDBRANCH   1   2
BRANCH   1  11
ATOM     11  C   UNL     1      11.551  14.207  -2.590  1.00  0.00     0.000 C 
BRANCH  11  12
ATOM     12  C   UNL     1      11.054  13.796  -3.982  1.00  0.00    -0.000 C 
BRANCH  12  13
ATOM     13  C   UNL     1      10.735  15.029  -4.839  1.00  0.00    -0.000 C 
BRANCH  13  14
ATOM     14  C   UNL     1      11.988  15.656  -5.474  1.00  0.00    -0.000 C 
BRANCH  14  15
ATOM     15  C   UNL     1      11.982  17.200  -5.456  1.00  0.00    -0.000 C 
BRANCH  15  16
ATOM     16  C   UNL     1      13.187  17.793  -6.207  1.00  0.00    -0.000 C 
BRANCH  16  17
ATOM     17  C   UNL     1      14.498  17.055  -5.899  1.00  0.00    -0.003 C 
ATOM     18  C   UNL     1      15.073  16.335  -7.119  1.00  0.00     0.004 C 
ENDBRANCH  16  17
ENDBRANCH  15  16
ENDBRANCH  14  15
ENDBRANCH  13  14
ENDBRANCH  12  13
ENDBRANCH  11  12
ENDBRANCH   1  11
TORSDOF 14
ENDMDL
MODEL 4
REMARK VINA RESULT:     7.744      6.132     10.024
REMARK INTER + INTRA:          13.061
REMARK INTER:                  13.686
REMARK INTRA:                  -0.625
REMARK UNBOUND:                -1.022
REMARK SMILES CCCCCCCCCCCCCCCC(=O)[O-]
REMARK SMILES IDX 9 1 10 2 11 3 12 4 13 5 14 6 15 7 16 8 17 9 18 10 8 11 7 12
REMARK SMILES IDX 6 13 5 14 4 15 3 16 2 17 1 18
REMARK H PARENT
REMARK Flexibility Score: inf
ROOT
ATOM      1  C   UNL     1      10.320  14.185  -1.866  1.00  0.00     0.000 C 
ENDROOT
BRANCH   1   2
ATOM      2  C   UNL     1      11.522  14.244  -2.827  1.00  0.00     0.000 C 
BRANCH   2   3
ATOM      3  C   UNL     1      11.162  14.327  -4.322  1.00  0.00     0.000 C 
BRANCH   3   4
ATOM      4  C   UNL     1      11.052  15.775  -4.832  1.00  0.00     0.000 C 
BRANCH   4   5
ATOM      5  C   UNL     1      12.015  16.064  -5.995  1.00  0.00     0.000 C 
BRANCH   5   6
ATOM      6  C   UNL     1      12.736  17.416  -5.844  1.00  0.00     0.006 C 
BRANCH   6   7
ATOM      7  C   UNL     1      14.190  17.355  -6.330  1.00  0.00     0.053 C 
BRANCH   7   8
ATOM      8  C   UNL     1      14.395  16.270  -7.343  1.00  0.00     0.041 C 
ATOM      9  O   UNL     1      15.312  15.422  -7.186  1.00  0.00    -0.550 OA
ATOM     10  O   UNL     1      13.553  16.177  -8.444  1.00  0.00    -0.550 OA
ENDBRANCH   7   8
ENDBRANCH   6   7
ENDBRANCH   5   6
ENDBRANCH   4   5
ENDBRANCH   3   4
ENDBRANCH   2   3
ENDBRANCH   1   2
BRANCH   1  11
ATOM     11  C   UNL     1      10.380  12.988  -0.905  1.00  0.00     0.000 C 
BRANCH  11  12
ATOM     12  C   UNL     1      10.370  13.457   0.555  1.00  0.00    -0.000 C 
BRANCH  12  13
ATOM     13  C   UNL     1      11.795  13.516   1.124  1.00  0.00    -0.000 C 
BRANCH  13  14
ATOM     14  C   UNL     1      12.077  14.816   1.897  1.00  0.00    -0.000 C 
BRANCH  14  15
ATOM     15  C   UNL     1      11.495  16.076   1.221  1.00  0.00    -0.000 C 
BRANCH  15  16
ATOM     16  C   UNL     1      10.484  16.805   2.125  1.00  0.00    -0.000 C 
BRANCH  16  17
ATOM     17  C   UNL     1       9.058  16.783   1.554  1.00  0.00    -0.003 C 
ATOM     18  C   UNL     1       8.215  15.636   2.112  1.00  0.00     0.004 C 
ENDBRANCH  16  17
ENDBRANCH  15  16
ENDBRANCH  14  15
ENDBRANCH  13  14
ENDBRANCH  12  13
ENDBRANCH  11  12
ENDBRANCH   1  11
TORSDOF 14
ENDMDL
MODEL 5
REMARK VINA RESULT:     7.839      7.676     12.107
REMARK INTER + INTRA:          13.233
REMARK INTER:                  13.827
REMARK INTRA:                  -0.593
REMARK UNBOUND:                -1.022
REMARK SMILES CCCCCCCCCCCCCCCC(=O)[O-]
REMARK SMILES IDX 9 1 10 2 11 3 12 4 13 5 14 6 15 7 16 8 17 9 18 10 8 11 7 12
REMARK SMILES IDX 6 13 5 14 4 15 3 16 2 17 1 18
REMARK H PARENT
REMARK Flexibility Score: inf
ROOT
ATOM      1  C   UNL     1      11.048  14.839  -3.444  1.00  0.00     0.000 C 
ENDROOT
BRANCH   1   2
ATOM      2  C   UNL     1      10.793  13.494  -2.737  1.00  0.00     0.000 C 
BRANCH   2   3
ATOM      3  C   UNL     1      10.413  13.598  -1.249  1.00  0.00     0.000 C 
BRANCH   3   4
ATOM      4  C   UNL     1      11.577  14.078  -0.365  1.00  0.00     0.000 C 
BRANCH   4   5
ATOM      5  C   UNL     1      11.478  13.554   1.077  1.00  0.00     0.000 C 
BRANCH   5   6
ATOM      6  C   UNL     1      11.619  14.673   2.124  1.00  0.00     0.006 C 
BRANCH   6   7
ATOM      7  C   UNL     1      10.923  15.969   1.686  1.00  0.00     0.053 C 
BRANCH   7   8
ATOM      8  C   UNL     1       9.442  15.907   1.904  1.00  0.00     0.041 C 
ATOM      9  O   UNL     1       8.751  16.959   1.861  1.00  0.00    -0.550 OA
ATOM     10  O   UNL     1       8.820  14.684   2.125  1.00  0.00    -0.550 OA
ENDBRANCH   7   8
ENDBRANCH   6   7
ENDBRANCH   5   6
ENDBRANCH   4   5
ENDBRANCH   3   4
ENDBRANCH   2   3
ENDBRANCH   1   2
BRANCH   1  11
ATOM     11  C   UNL     1      11.446  14.675  -4.918  1.00  0.00     0.000 C 
BRANCH  11  12
ATOM     12  C   UNL     1      11.394  16.020  -5.653  1.00  0.00    -0.000 C 
BRANCH  12  13
ATOM     13  C   UNL     1      12.390  17.018  -5.046  1.00  0.00    -0.000 C 
BRANCH  13  14
ATOM     14  C   UNL     1      13.366  17.596  -6.085  1.00  0.00    -0.000 C 
BRANCH  14  15
ATOM     15  C   UNL     1      13.690  16.621  -7.237  1.00  0.00    -0.000 C 
BRANCH  15  16
ATOM     16  C   UNL     1      15.005  15.858  -7.000  1.00  0.00    -0.000 C 
BRANCH  16  17
ATOM     17  C   UNL     1      15.388  14.957  -8.184  1.00  0.00    -0.003 C 
ATOM     18  C   UNL     1      14.728  15.389  -9.494  1.00  0.00     0.004 C 
ENDBRANCH  16  17
ENDBRANCH  15  16
ENDBRANCH  14  15
ENDBRANCH  13  14
ENDBRANCH  12  13
ENDBRANCH  11  12
ENDBRANCH   1  11
TORSDOF 14
ENDMDL
MODEL 6
REMARK VINA RESULT:     7.869      6.625     10.816
REMARK INTER + INTRA:          13.288
REMARK INTER:                  12.916
REMARK INTRA:                   0.372
REMARK UNBOUND:                -1.022
REMARK SMILES CCCCCCCCCCCCCCCC(=O)[O-]
REMARK SMILES IDX 9 1 10 2 11 3 12 4 13 5 14 6 15 7 16 8 17 9 18 10 8 11 7 12
REMARK SMILES IDX 6 13 5 14 4 15 3 16 2 17 1 18
REMARK H PARENT
REMARK Flexibility Score: inf
ROOT
ATOM      1  C   UNL     1      10.707  13.342  -0.405  1.00  0.00     0.000 C 
ENDROOT
BRANCH   1   2
ATOM      2  C   UNL     1      11.350  12.912  -1.737  1.00  0.00     0.000 C 
BRANCH   2   3
ATOM      3  C   UNL     1      10.820  13.642  -2.986  1.00  0.00     0.000 C 
BRANCH   3   4
ATOM      4  C   UNL     1      11.812  14.680  -3.539  1.00  0.00     0.000 C 
BRANCH   4   5
ATOM      5  C   UNL     1      11.259  15.430  -4.761  1.00  0.00     0.000 C 
BRANCH   5   6
ATOM      6  C   UNL     1      12.094  16.672  -5.121  1.00  0.00     0.006 C 
BRANCH   6   7
ATOM      7  C   UNL     1      12.505  16.685  -6.600  1.00  0.00     0.053 C 
BRANCH   7   8
ATOM      8  C   UNL     1      13.960  16.997  -6.771  1.00  0.00     0.041 C 
ATOM      9  O   UNL     1      14.430  18.085  -6.344  1.00  0.00    -0.550 OA
ATOM     10  O   UNL     1      14.805  16.074  -7.376  1.00  0.00    -0.550 OA
ENDBRANCH   7   8
ENDBRANCH   6   7
ENDBRANCH   5   6
ENDBRANCH   4   5
ENDBRANCH   3   4
ENDBRANCH   2   3
ENDBRANCH   1   2
BRANCH   1  11
ATOM     11  C   UNL     1      11.649  13.175   0.796  1.00  0.00     0.000 C 
BRANCH  11  12
ATOM     12  C   UNL     1      11.194  14.045   1.974  1.00  0.00    -0.000 C 
BRANCH  12  13
ATOM     13  C   UNL     1      12.059  15.309   2.091  1.00  0.00    -0.000 C 
BRANCH  13  14
ATOM     14  C   UNL     1      11.309  16.587   1.676  1.00  0.00    -0.000 C 
BRANCH  14  15
ATOM     15  C   UNL     1       9.819  16.587   2.078  1.00  0.00    -0.000 C 
BRANCH  15  16
ATOM     16  C   UNL     1       9.018  15.503   1.335  1.00  0.00    -0.000 C 
BRANCH  16  17
ATOM     17  C   UNL     1       7.788  15.032   2.124  1.00  0.00    -0.003 C 
ATOM     18  C   UNL     1       6.878  14.112   1.309  1.00  0.00     0.004 C 
ENDBRANCH  16  17
ENDBRANCH  15  16
ENDBRANCH  14  15
ENDBRANCH  13  14
ENDBRANCH  12  13
ENDBRANCH  11  12
ENDBRANCH   1  11
TORSDOF 14
ENDMDL
MODEL 7
REMARK VINA RESULT:     8.241      6.906     11.073
REMARK INTER + INTRA:          13.965
REMARK INTER:                  13.841
REMARK INTRA:                   0.124
REMARK UNBOUND:                -1.022
REMARK SMILES CCCCCCCCCCCCCCCC(=O)[O-]
REMARK SMILES IDX 9 1 10 2 11 3 12 4 13 5 14 6 15 7 16 8 17 9 18 10 8 11 7 12
REMARK SMILES IDX 6 13 5 14 4 15 3 16 2 17 1 18
REMARK H PARENT
REMARK Flexibility Score: inf
ROOT
ATOM      1  C   UNL     1       9.325  14.252  -0.911  1.00  0.00     0.000 C 
ENDROOT
BRANCH   1   2
ATOM      2  C   UNL     1      10.637  13.485  -1.161  1.00  0.00     0.000 C 
BRANCH   2   3
ATOM      3  C   UNL     1      11.376  13.857  -2.460  1.00  0.00     0.000 C 
BRANCH   3   4
ATOM      4  C   UNL     1      10.565  13.531  -3.725  1.00  0.00     0.000 C 
BRANCH   4   5
ATOM      5  C   UNL     1      11.153  14.183  -4.987  1.00  0.00     0.000 C 
BRANCH   5   6
ATOM      6  C   UNL     1      11.831  15.534  -4.695  1.00  0.00     0.006 C 
BRANCH   6   7
ATOM      7  C   UNL     1      11.649  16.534  -5.845  1.00  0.00     0.053 C 
BRANCH   7   8
ATOM      8  C   UNL     1      12.921  17.259  -6.160  1.00  0.00     0.041 C 
ATOM      9  O   UNL     1      13.047  18.476  -5.863  1.00  0.00    -0.550 OA
ATOM     10  O   UNL     1      13.980  16.583  -6.753  1.00  0.00    -0.550 OA
ENDBRANCH   7   8
ENDBRANCH   6   7
ENDBRANCH   5   6
ENDBRANCH   4   5
ENDBRANCH   3   4
ENDBRANCH   2   3
ENDBRANCH   1   2
BRANCH   1  11
ATOM     11  C   UNL     1       8.603  13.802   0.367  1.00  0.00     0.000 C 
BRANCH  11  12
ATOM     12  C   UNL     1       9.067  14.622   1.577  1.00  0.00    -0.000 C 
BRANCH  12  13
ATOM     13  C   UNL     1       9.148  16.116   1.231  1.00  0.00    -0.000 C 
BRANCH  13  14
ATOM     14  C   UNL     1      10.579  16.578   0.906  1.00  0.00    -0.000 C 
BRANCH  14  15
ATOM     15  C   UNL     1      11.529  16.545   2.122  1.00  0.00    -0.000 C 
BRANCH  15  16
ATOM     16  C   UNL     1      12.482  15.337   2.080  1.00  0.00    -0.000 C 
BRANCH  16  17
ATOM     17  C   UNL     1      11.737  13.994   2.125  1.00  0.00    -0.003 C 
ATOM     18  C   UNL     1      12.424  12.908   1.297  1.00  0.00     0.004 C 
ENDBRANCH  16  17
ENDBRANCH  15  16
ENDBRANCH  14  15
ENDBRANCH  13  14
ENDBRANCH  12  13
ENDBRANCH  11  12
ENDBRANCH   1  11
TORSDOF 14
ENDMDL
MODEL 8
REMARK VINA RESULT:     8.274      4.050      6.655
REMARK INTER + INTRA:          14.025
REMARK INTER:                  14.901
REMARK INTRA:                  -0.876
REMARK UNBOUND:                -1.022
REMARK SMILES CCCCCCCCCCCCCCCC(=O)[O-]
REMARK SMILES IDX 9 1 10 2 11 3 12 4 13 5 14 6 15 7 16 8 17 9 18 10 8 11 7 12
REMARK SMILES IDX 6 13 5 14 4 15 3 16 2 17 1 18
REMARK H PARENT
REMARK Flexibility Score: inf
ROOT
ATOM      1  C   UNL     1      18.629  19.397 -12.446  1.00  0.00     0.000 C 
ENDROOT
BRANCH   1   2
ATOM      2  C   UNL     1      20.065  19.953 -12.491  1.00  0.00     0.000 C 
BRANCH   2   3
ATOM      3  C   UNL     1      20.174  21.488 -12.469  1.00  0.00     0.000 C 
BRANCH   3   4
ATOM      4  C   UNL     1      18.803  22.186 -12.442  1.00  0.00     0.000 C 
BRANCH   4   5
ATOM      5  C   UNL     1      18.501  22.942 -13.746  1.00  0.00     0.000 C 
BRANCH   5   6
ATOM      6  C   UNL     1      18.595  24.469 -13.581  1.00  0.00     0.006 C 
BRANCH   6   7
ATOM      7  C   UNL     1      18.045  25.220 -14.801  1.00  0.00     0.053 C 
BRANCH   7   8
ATOM      8  C   UNL     1      19.117  25.516 -15.805  1.00  0.00     0.041 C 
ATOM      9  O   UNL     1      20.313  25.204 -15.565  1.00  0.00    -0.550 OA
ATOM     10  O   UNL     1      18.791  26.108 -17.019  1.00  0.00    -0.550 OA
ENDBRANCH   7   8
ENDBRANCH   6   7
ENDBRANCH   5   6
ENDBRANCH   4   5
ENDBRANCH   3   4
ENDBRANCH   2   3
ENDBRANCH   1   2
BRANCH   1  11
ATOM     11  C   UNL     1      18.251  18.824 -11.072  1.00  0.00     0.000 C 
BRANCH  11  12
ATOM     12  C   UNL     1      18.192  17.292 -11.115  1.00  0.00    -0.000 C 
BRANCH  12  13
ATOM     13  C   UNL     1      17.801  16.795 -12.514  1.00  0.00    -0.000 C 
BRANCH  13  14
ATOM     14  C   UNL     1      16.505  15.965 -12.514  1.00  0.00    -0.000 C 
BRANCH  14  15
ATOM     15  C   UNL     1      16.624  14.634 -13.287  1.00  0.00    -0.000 C 
BRANCH  15  16
ATOM     16  C   UNL     1      18.032  14.427 -13.873  1.00  0.00    -0.000 C 
BRANCH  16  17
ATOM     17  C   UNL     1      18.797  13.287 -13.186  1.00  0.00    -0.003 C 
ATOM     18  C   UNL     1      20.136  13.740 -12.603  1.00  0.00     0.004 C 
ENDBRANCH  16  17
ENDBRANCH  15  16
ENDBRANCH  14  15
ENDBRANCH  13  14
ENDBRANCH  12  13
ENDBRANCH  11  12
ENDBRANCH   1  11
TORSDOF 14
ENDMDL
