MODEL 1
REMARK VINA RESULT:    -4.907      0.000      0.000
REMARK INTER + INTRA:         -17.326
REMARK INTER:                 -12.939
REMARK INTRA:                  -4.387
REMARK UNBOUND:                -4.387
REMARK SMILES CCCCCCCCCCCCCCCCCCCCCCCCCCCCCC(=O)[O-]
REMARK SMILES IDX 16 1 17 2 18 3 19 4 20 5 21 6 22 7 23 8 24 9 25 10 26 11
REMARK SMILES IDX 27 12 28 13 29 14 30 15 31 16 32 17 15 18 14 19 13 20 12 21
REMARK SMILES IDX 11 22 10 23 9 24 8 25 7 26 6 27 5 28 4 29 3 30 2 31 1 32
REMARK H PARENT
REMARK Flexibility Score: inf
ROOT
ATOM      1  C   UNL     1      -3.301   0.717   9.640  1.00  0.00     0.000 C 
ENDROOT
BRANCH   1   2
ATOM      2  C   UNL     1      -4.083   1.499  10.707  1.00  0.00     0.000 C 
BRANCH   2   3
ATOM      3  C   UNL     1      -4.395   0.649  11.955  1.00  0.00     0.000 C 
BRANCH   3   4
ATOM      4  C   UNL     1      -5.522   1.220  12.835  1.00  0.00     0.000 C 
BRANCH   4   5
ATOM      5  C   UNL     1      -5.128   1.327  14.317  1.00  0.00     0.000 C 
BRANCH   5   6
ATOM      6  C   UNL     1      -3.659   1.741  14.510  1.00  0.00     0.000 C 
BRANCH   6   7
ATOM      7  C   UNL     1      -3.511   2.999  15.385  1.00  0.00     0.000 C 
BRANCH   7   8
ATOM      8  C   UNL     1      -2.705   4.108  14.692  1.00  0.00     0.000 C 
BRANCH   8   9
ATOM      9  C   UNL     1      -2.820   4.047  13.159  1.00  0.00     0.000 C 
BRANCH   9  10
ATOM     10  C   UNL     1      -4.093   4.726  12.630  1.00  0.00     0.000 C 
BRANCH  10  11
ATOM     11  C   UNL     1      -4.166   6.235  12.952  1.00  0.00     0.000 C 
BRANCH  11  12
ATOM     12  C   UNL     1      -5.089   6.526  14.146  1.00  0.00     0.000 C 
BRANCH  12  13
ATOM     13  C   UNL     1      -6.388   5.716  14.050  1.00  0.00     0.006 C 
BRANCH  13  14
ATOM     14  C   UNL     1      -6.878   5.291  15.437  1.00  0.00     0.053 C 
BRANCH  14  15
ATOM     15  C   UNL     1      -7.721   4.059  15.342  1.00  0.00     0.041 C 
ATOM     16  O   UNL     1      -7.557   3.117  16.163  1.00  0.00    -0.550 OA
ATOM     17  O   UNL     1      -8.653   3.929  14.322  1.00  0.00    -0.550 OA
ENDBRANCH  14  15
ENDBRANCH  13  14
ENDBRANCH  12  13
ENDBRANCH  11  12
ENDBRANCH  10  11
ENDBRANCH   9  10
ENDBRANCH   8   9
ENDBRANCH   7   8
ENDBRANCH   6   7
ENDBRANCH   5   6
ENDBRANCH   4   5
ENDBRANCH   3   4
ENDBRANCH   2   3
ENDBRANCH   1   2
BRANCH   1  18
ATOM     18  C   UNL     1      -4.001  -0.610   9.305  1.00  0.00     0.000 C 
BRANCH  18  19
ATOM     19  C   UNL     1      -3.039  -1.686   8.774  1.00  0.00     0.000 C 
BRANCH  19  20
ATOM     20  C   UNL     1      -3.440  -3.137   9.094  1.00  0.00     0.000 C 
BRANCH  20  21
ATOM     21  C   UNL     1      -2.448  -3.843  10.033  1.00  0.00     0.000 C 
BRANCH  21  22
ATOM     22  C   UNL     1      -2.494  -3.269  11.459  1.00  0.00     0.000 C 
BRANCH  22  23
ATOM     23  C   UNL     1      -1.087  -3.056  12.048  1.00  0.00     0.000 C 
BRANCH  23  24
ATOM     24  C   UNL     1      -0.572  -1.612  11.871  1.00  0.00    -0.000 C 
BRANCH  24  25
ATOM     25  C   UNL     1      -1.459  -0.534  12.525  1.00  0.00    -0.000 C 
BRANCH  25  26
ATOM     26  C   UNL     1      -0.713   0.680  13.116  1.00  0.00    -0.000 C 
BRANCH  26  27
ATOM     27  C   UNL     1       0.021   0.413  14.443  1.00  0.00    -0.000 C 
BRANCH  27  28
ATOM     28  C   UNL     1       0.038   1.637  15.374  1.00  0.00    -0.000 C 
BRANCH  28  29
ATOM     29  C   UNL     1      -0.533   1.326  16.767  1.00  0.00    -0.000 C 
BRANCH  29  30
ATOM     30  C   UNL     1       0.504   0.662  17.691  1.00  0.00    -0.000 C 
BRANCH  30  31
ATOM     31  C   UNL     1      -0.117  -0.407  18.606  1.00  0.00    -0.003 C 
ATOM     32  C   UNL     1      -0.637   0.172  19.922  1.00  0.00     0.004 C 
ENDBRANCH  30  31
ENDBRANCH  29  30
ENDBRANCH  28  29
ENDBRANCH  27  28
ENDBRANCH  26  27
ENDBRANCH  25  26
ENDBRANCH  24  25
ENDBRANCH  23  24
ENDBRANCH  22  23
ENDBRANCH  21  22
ENDBRANCH  20  21
ENDBRANCH  19  20
ENDBRANCH  18  19
ENDBRANCH   1  18
TORSDOF 28
ENDMDL
MODEL 2
REMARK VINA RESULT:    -4.900      3.216      7.407
REMARK INTER + INTRA:         -17.309
REMARK INTER:                 -12.201
REMARK INTRA:                  -5.107
REMARK UNBOUND:                -4.387
REMARK SMILES CCCCCCCCCCCCCCCCCCCCCCCCCCCCCC(=O)[O-]
REMARK SMILES IDX 16 1 17 2 18 3 19 4 20 5 21 6 22 7 23 8 24 9 25 10 26 11
REMARK SMILES IDX 27 12 28 13 29 14 30 15 31 16 32 17 15 18 14 19 13 20 12 21
REMARK SMILES IDX 11 22 10 23 9 24 8 25 7 26 6 27 5 28 4 29 3 30 2 31 1 32
REMARK H PARENT
REMARK Flexibility Score: inf
ROOT
ATOM      1  C   UNL     1      -5.643   2.562  15.887  1.00  0.00     0.000 C 
ENDROOT
BRANCH   1   2
ATOM      2  C   UNL     1      -5.906   2.389  14.384  1.00  0.00     0.000 C 
BRANCH   2   3
ATOM      3  C   UNL     1      -4.810   1.561  13.681  1.00  0.00     0.000 C 
BRANCH   3   4
ATOM      4  C   UNL     1      -4.860   1.632  12.144  1.00  0.00     0.000 C 
BRANCH   4   5
ATOM      5  C   UNL     1      -3.708   2.455  11.547  1.00  0.00     0.000 C 
BRANCH   5   6
ATOM      6  C   UNL     1      -3.433   2.108  10.074  1.00  0.00     0.000 C 
BRANCH   6   7
ATOM      7  C   UNL     1      -1.930   2.081   9.745  1.00  0.00     0.000 C 
BRANCH   7   8
ATOM      8  C   UNL     1      -1.050   2.118  11.005  1.00  0.00     0.000 C 
BRANCH   8   9
ATOM      9  C   UNL     1      -0.362   0.771  11.281  1.00  0.00     0.000 C 
BRANCH   9  10
ATOM     10  C   UNL     1      -1.201  -0.153  12.180  1.00  0.00     0.000 C 
BRANCH  10  11
ATOM     11  C   UNL     1      -1.757  -1.391  11.443  1.00  0.00     0.000 C 
BRANCH  11  12
ATOM     12  C   UNL     1      -3.292  -1.381  11.377  1.00  0.00     0.000 C 
BRANCH  12  13
ATOM     13  C   UNL     1      -3.790  -1.925  10.032  1.00  0.00     0.006 C 
BRANCH  13  14
ATOM     14  C   UNL     1      -2.894  -1.459   8.881  1.00  0.00     0.053 C 
BRANCH  14  15
ATOM     15  C   UNL     1      -2.182  -2.621   8.265  1.00  0.00     0.041 C 
ATOM     16  O   UNL     1      -1.151  -2.432   7.565  1.00  0.00    -0.550 OA
ATOM     17  O   UNL     1      -2.680  -3.907   8.423  1.00  0.00    -0.550 OA
ENDBRANCH  14  15
ENDBRANCH  13  14
ENDBRANCH  12  13
ENDBRANCH  11  12
ENDBRANCH  10  11
ENDBRANCH   9  10
ENDBRANCH   8   9
ENDBRANCH   7   8
ENDBRANCH   6   7
ENDBRANCH   5   6
ENDBRANCH   4   5
ENDBRANCH   3   4
ENDBRANCH   2   3
ENDBRANCH   1   2
BRANCH   1  18
ATOM     18  C   UNL     1      -6.933   2.939  16.633  1.00  0.00     0.000 C 
BRANCH  18  19
ATOM     19  C   UNL     1      -7.611   4.202  16.073  1.00  0.00     0.000 C 
BRANCH  19  20
ATOM     20  C   UNL     1      -7.163   5.525  16.718  1.00  0.00     0.000 C 
BRANCH  20  21
ATOM     21  C   UNL     1      -6.256   6.364  15.804  1.00  0.00     0.000 C 
BRANCH  21  22
ATOM     22  C   UNL     1      -6.404   5.973  14.324  1.00  0.00     0.000 C 
BRANCH  22  23
ATOM     23  C   UNL     1      -5.051   5.642  13.669  1.00  0.00     0.000 C 
BRANCH  23  24
ATOM     24  C   UNL     1      -3.887   5.590  14.682  1.00  0.00    -0.000 C 
BRANCH  24  25
ATOM     25  C   UNL     1      -2.708   4.694  14.251  1.00  0.00    -0.000 C 
BRANCH  25  26
ATOM     26  C   UNL     1      -2.176   3.725  15.326  1.00  0.00    -0.000 C 
BRANCH  26  27
ATOM     27  C   UNL     1      -1.353   2.540  14.787  1.00  0.00    -0.000 C 
BRANCH  27  28
ATOM     28  C   UNL     1      -1.541   1.256  15.613  1.00  0.00    -0.000 C 
BRANCH  28  29
ATOM     29  C   UNL     1      -0.306   0.917  16.465  1.00  0.00    -0.000 C 
BRANCH  29  30
ATOM     30  C   UNL     1      -0.521   1.227  17.958  1.00  0.00    -0.000 C 
BRANCH  30  31
ATOM     31  C   UNL     1      -0.389  -0.021  18.846  1.00  0.00    -0.003 C 
ATOM     32  C   UNL     1       0.703   0.121  19.906  1.00  0.00     0.004 C 
ENDBRANCH  30  31
ENDBRANCH  29  30
ENDBRANCH  28  29
ENDBRANCH  27  28
ENDBRANCH  26  27
ENDBRANCH  25  26
ENDBRANCH  24  25
ENDBRANCH  23  24
ENDBRANCH  22  23
ENDBRANCH  21  22
ENDBRANCH  20  21
ENDBRANCH  19  20
ENDBRANCH  18  19
ENDBRANCH   1  18
TORSDOF 28
ENDMDL
MODEL 3
REMARK VINA RESULT:    -4.877      1.937      5.520
REMARK INTER + INTRA:         -17.247
REMARK INTER:                 -11.565
REMARK INTRA:                  -5.683
REMARK UNBOUND:                -4.387
REMARK SMILES CCCCCCCCCCCCCCCCCCCCCCCCCCCCCC(=O)[O-]
REMARK SMILES IDX 16 1 17 2 18 3 19 4 20 5 21 6 22 7 23 8 24 9 25 10 26 11
REMARK SMILES IDX 27 12 28 13 29 14 30 15 31 16 32 17 15 18 14 19 13 20 12 21
REMARK SMILES IDX 11 22 10 23 9 24 8 25 7 26 6 27 5 28 4 29 3 30 2 31 1 32
REMARK H PARENT
REMARK Flexibility Score: inf
ROOT
ATOM      1  C   UNL     1      -4.539   1.874  15.027  1.00  0.00     0.000 C 
ENDROOT
BRANCH   1   2
ATOM      2  C   UNL     1      -5.195   1.715  13.646  1.00  0.00     0.000 C 
BRANCH   2   3
ATOM      3  C   UNL     1      -4.748   0.430  12.921  1.00  0.00     0.000 C 
BRANCH   3   4
ATOM      4  C   UNL     1      -4.116   0.678  11.539  1.00  0.00     0.000 C 
BRANCH   4   5
ATOM      5  C   UNL     1      -4.103   2.163  11.146  1.00  0.00     0.000 C 
BRANCH   5   6
ATOM      6  C   UNL     1      -3.324   2.426   9.846  1.00  0.00     0.000 C 
BRANCH   6   7
ATOM      7  C   UNL     1      -2.653   3.811   9.829  1.00  0.00     0.000 C 
BRANCH   7   8
ATOM      8  C   UNL     1      -2.611   4.463  11.221  1.00  0.00     0.000 C 
BRANCH   8   9
ATOM      9  C   UNL     1      -3.251   5.861  11.235  1.00  0.00     0.000 C 
BRANCH   9  10
ATOM     10  C   UNL     1      -3.765   6.267  12.626  1.00  0.00     0.000 C 
BRANCH  10  11
ATOM     11  C   UNL     1      -4.491   5.126  13.371  1.00  0.00     0.000 C 
BRANCH  11  12
ATOM     12  C   UNL     1      -5.004   5.572  14.750  1.00  0.00     0.000 C 
BRANCH  12  13
ATOM     13  C   UNL     1      -6.516   5.832  14.719  1.00  0.00     0.006 C 
BRANCH  13  14
ATOM     14  C   UNL     1      -7.189   5.335  16.001  1.00  0.00     0.053 C 
BRANCH  14  15
ATOM     15  C   UNL     1      -7.914   4.050  15.750  1.00  0.00     0.041 C 
ATOM     16  O   UNL     1      -8.947   4.037  15.029  1.00  0.00    -0.550 OA
ATOM     17  O   UNL     1      -7.477   2.876  16.349  1.00  0.00    -0.550 OA
ENDBRANCH  14  15
ENDBRANCH  13  14
ENDBRANCH  12  13
ENDBRANCH  11  12
ENDBRANCH  10  11
ENDBRANCH   9  10
ENDBRANCH   8   9
ENDBRANCH   7   8
ENDBRANCH   6   7
ENDBRANCH   5   6
ENDBRANCH   4   5
ENDBRANCH   3   4
ENDBRANCH   2   3
ENDBRANCH   1   2
BRANCH   1  18
ATOM     18  C   UNL     1      -3.021   1.646  14.945  1.00  0.00     0.000 C 
BRANCH  18  19
ATOM     19  C   UNL     1      -2.249   2.881  14.449  1.00  0.00     0.000 C 
BRANCH  19  20
ATOM     20  C   UNL     1      -0.883   2.583  13.807  1.00  0.00     0.000 C 
BRANCH  20  21
ATOM     21  C   UNL     1      -0.759   1.137  13.299  1.00  0.00     0.000 C 
BRANCH  21  22
ATOM     22  C   UNL     1      -0.432   1.077  11.798  1.00  0.00     0.000 C 
BRANCH  22  23
ATOM     23  C   UNL     1      -0.329  -0.369  11.279  1.00  0.00     0.000 C 
BRANCH  23  24
ATOM     24  C   UNL     1      -1.039  -1.389  12.195  1.00  0.00    -0.000 C 
BRANCH  24  25
ATOM     25  C   UNL     1      -0.958  -2.849  11.704  1.00  0.00    -0.000 C 
BRANCH  25  26
ATOM     26  C   UNL     1      -2.195  -3.723  11.994  1.00  0.00    -0.000 C 
BRANCH  26  27
ATOM     27  C   UNL     1      -3.470  -3.323  11.230  1.00  0.00    -0.000 C 
BRANCH  27  28
ATOM     28  C   UNL     1      -3.709  -4.178   9.974  1.00  0.00    -0.000 C 
BRANCH  28  29
ATOM     29  C   UNL     1      -3.614  -3.359   8.676  1.00  0.00    -0.000 C 
BRANCH  29  30
ATOM     30  C   UNL     1      -3.842  -1.856   8.914  1.00  0.00    -0.000 C 
BRANCH  30  31
ATOM     31  C   UNL     1      -2.612  -1.006   8.552  1.00  0.00    -0.003 C 
ATOM     32  C   UNL     1      -1.567  -1.787   7.757  1.00  0.00     0.004 C 
ENDBRANCH  30  31
ENDBRANCH  29  30
ENDBRANCH  28  29
ENDBRANCH  27  28
ENDBRANCH  26  27
ENDBRANCH  25  26
ENDBRANCH  24  25
ENDBRANCH  23  24
ENDBRANCH  22  23
ENDBRANCH  21  22
ENDBRANCH  20  21
ENDBRANCH  19  20
ENDBRANCH  18  19
ENDBRANCH   1  18
TORSDOF 28
ENDMDL
MODEL 4
REMARK VINA RESULT:    -4.877      2.011      4.851
REMARK INTER + INTRA:         -17.246
REMARK INTER:                 -11.503
REMARK INTRA:                  -5.743
REMARK UNBOUND:                -4.387
REMARK SMILES CCCCCCCCCCCCCCCCCCCCCCCCCCCCCC(=O)[O-]
REMARK SMILES IDX 16 1 17 2 18 3 19 4 20 5 21 6 22 7 23 8 24 9 25 10 26 11
REMARK SMILES IDX 27 12 28 13 29 14 30 15 31 16 32 17 15 18 14 19 13 20 12 21
REMARK SMILES IDX 11 22 10 23 9 24 8 25 7 26 6 27 5 28 4 29 3 30 2 31 1 32
REMARK H PARENT
REMARK Flexibility Score: inf
ROOT
ATOM      1  C   UNL     1      -3.962  -0.549  11.069  1.00  0.00     0.000 C 
ENDROOT
BRANCH   1   2
ATOM      2  C   UNL     1      -3.723   0.636  12.018  1.00  0.00     0.000 C 
BRANCH   2   3
ATOM      3  C   UNL     1      -4.166   1.982  11.410  1.00  0.00     0.000 C 
BRANCH   3   4
ATOM      4  C   UNL     1      -3.286   3.176  11.823  1.00  0.00     0.000 C 
BRANCH   4   5
ATOM      5  C   UNL     1      -1.789   2.830  11.857  1.00  0.00     0.000 C 
BRANCH   5   6
ATOM      6  C   UNL     1      -1.140   3.137  13.217  1.00  0.00     0.000 C 
BRANCH   6   7
ATOM      7  C   UNL     1      -0.842   1.864  14.029  1.00  0.00     0.000 C 
BRANCH   7   8
ATOM      8  C   UNL     1      -1.883   1.611  15.132  1.00  0.00     0.000 C 
BRANCH   8   9
ATOM      9  C   UNL     1      -2.249   2.893  15.898  1.00  0.00     0.000 C 
BRANCH   9  10
ATOM     10  C   UNL     1      -3.702   3.336  15.656  1.00  0.00     0.000 C 
BRANCH  10  11
ATOM     11  C   UNL     1      -4.633   2.184  15.221  1.00  0.00     0.000 C 
BRANCH  11  12
ATOM     12  C   UNL     1      -5.922   2.700  14.562  1.00  0.00     0.000 C 
BRANCH  12  13
ATOM     13  C   UNL     1      -5.991   4.232  14.611  1.00  0.00     0.006 C 
BRANCH  13  14
ATOM     14  C   UNL     1      -7.434   4.725  14.478  1.00  0.00     0.053 C 
BRANCH  14  15
ATOM     15  C   UNL     1      -8.222   4.383  15.703  1.00  0.00     0.041 C 
ATOM     16  O   UNL     1      -7.876   4.841  16.825  1.00  0.00    -0.550 OA
ATOM     17  O   UNL     1      -9.309   3.523  15.615  1.00  0.00    -0.550 OA
ENDBRANCH  14  15
ENDBRANCH  13  14
ENDBRANCH  12  13
ENDBRANCH  11  12
ENDBRANCH  10  11
ENDBRANCH   9  10
ENDBRANCH   8   9
ENDBRANCH   7   8
ENDBRANCH   6   7
ENDBRANCH   5   6
ENDBRANCH   4   5
ENDBRANCH   3   4
ENDBRANCH   2   3
ENDBRANCH   1   2
BRANCH   1  18
ATOM     18  C   UNL     1      -4.054  -0.076   9.610  1.00  0.00     0.000 C 
BRANCH  18  19
ATOM     19  C   UNL     1      -2.845  -0.500   8.757  1.00  0.00     0.000 C 
BRANCH  19  20
ATOM     20  C   UNL     1      -1.610   0.410   8.874  1.00  0.00     0.000 C 
BRANCH  20  21
ATOM     21  C   UNL     1      -0.284  -0.348   8.700  1.00  0.00     0.000 C 
BRANCH  21  22
ATOM     22  C   UNL     1       0.587  -0.288   9.966  1.00  0.00     0.000 C 
BRANCH  22  23
ATOM     23  C   UNL     1      -0.250  -0.379  11.255  1.00  0.00     0.000 C 
BRANCH  23  24
ATOM     24  C   UNL     1       0.333  -1.370  12.284  1.00  0.00    -0.000 C 
BRANCH  24  25
ATOM     25  C   UNL     1       1.089  -2.563  11.662  1.00  0.00    -0.000 C 
BRANCH  25  26
ATOM     26  C   UNL     1       0.238  -3.814  11.365  1.00  0.00    -0.000 C 
BRANCH  26  27
ATOM     27  C   UNL     1      -0.283  -3.921   9.920  1.00  0.00    -0.000 C 
BRANCH  27  28
ATOM     28  C   UNL     1      -1.814  -3.799   9.825  1.00  0.00    -0.000 C 
BRANCH  28  29
ATOM     29  C   UNL     1      -2.480  -3.644  11.202  1.00  0.00    -0.000 C 
BRANCH  29  30
ATOM     30  C   UNL     1      -3.903  -4.228  11.234  1.00  0.00    -0.000 C 
BRANCH  30  31
ATOM     31  C   UNL     1      -4.527  -4.345   9.833  1.00  0.00    -0.003 C 
ATOM     32  C   UNL     1      -5.770  -5.233   9.811  1.00  0.00     0.004 C 
ENDBRANCH  30  31
ENDBRANCH  29  30
ENDBRANCH  28  29
ENDBRANCH  27  28
ENDBRANCH  26  27
ENDBRANCH  25  26
ENDBRANCH  24  25
ENDBRANCH  23  24
ENDBRANCH  22  23
ENDBRANCH  21  22
ENDBRANCH  20  21
ENDBRANCH  19  20
ENDBRANCH  18  19
ENDBRANCH   1  18
TORSDOF 28
ENDMDL
MODEL 5
REMARK VINA RESULT:    -4.841      3.096      7.719
REMARK INTER + INTRA:         -17.153
REMARK INTER:                 -11.170
REMARK INTRA:                  -5.983
REMARK UNBOUND:                -4.387
REMARK SMILES CCCCCCCCCCCCCCCCCCCCCCCCCCCCCC(=O)[O-]
REMARK SMILES IDX 16 1 17 2 18 3 19 4 20 5 21 6 22 7 23 8 24 9 25 10 26 11
REMARK SMILES IDX 27 12 28 13 29 14 30 15 31 16 32 17 15 18 14 19 13 20 12 21
REMARK SMILES IDX 11 22 10 23 9 24 8 25 7 26 6 27 5 28 4 29 3 30 2 31 1 32
REMARK H PARENT
REMARK Flexibility Score: inf
ROOT
ATOM      1  C   UNL     1      -1.760   2.305  14.771  1.00  0.00     0.000 C 
ENDROOT
BRANCH   1   2
ATOM      2  C   UNL     1      -1.078   1.000  14.331  1.00  0.00     0.000 C 
BRANCH   2   3
ATOM      3  C   UNL     1      -0.274   1.162  13.025  1.00  0.00     0.000 C 
BRANCH   3   4
ATOM      4  C   UNL     1      -0.141  -0.136  12.207  1.00  0.00     0.000 C 
BRANCH   4   5
ATOM      5  C   UNL     1      -1.356  -1.064  12.356  1.00  0.00     0.000 C 
BRANCH   5   6
ATOM      6  C   UNL     1      -1.213  -2.363  11.545  1.00  0.00     0.000 C 
BRANCH   6   7
ATOM      7  C   UNL     1      -2.044  -3.519  12.132  1.00  0.00     0.000 C 
BRANCH   7   8
ATOM      8  C   UNL     1      -3.441  -3.620  11.500  1.00  0.00     0.000 C 
BRANCH   8   9
ATOM      9  C   UNL     1      -3.396  -3.568   9.964  1.00  0.00     0.000 C 
BRANCH   9  10
ATOM     10  C   UNL     1      -4.237  -2.419   9.383  1.00  0.00     0.000 C 
BRANCH  10  11
ATOM     11  C   UNL     1      -3.404  -1.382   8.598  1.00  0.00     0.000 C 
BRANCH  11  12
ATOM     12  C   UNL     1      -2.096  -1.981   8.059  1.00  0.00     0.000 C 
BRANCH  12  13
ATOM     13  C   UNL     1      -1.014  -0.904   7.914  1.00  0.00     0.006 C 
BRANCH  13  14
ATOM     14  C   UNL     1      -1.325   0.314   8.788  1.00  0.00     0.053 C 
BRANCH  14  15
ATOM     15  C   UNL     1      -0.157   1.246   8.827  1.00  0.00     0.041 C 
ATOM     16  O   UNL     1      -0.310   2.437   9.210  1.00  0.00    -0.550 OA
ATOM     17  O   UNL     1       1.092   0.818   8.397  1.00  0.00    -0.550 OA
ENDBRANCH  14  15
ENDBRANCH  13  14
ENDBRANCH  12  13
ENDBRANCH  11  12
ENDBRANCH  10  11
ENDBRANCH   9  10
ENDBRANCH   8   9
ENDBRANCH   7   8
ENDBRANCH   6   7
ENDBRANCH   5   6
ENDBRANCH   4   5
ENDBRANCH   3   4
ENDBRANCH   2   3
ENDBRANCH   1   2
BRANCH   1  18
ATOM     18  C   UNL     1      -1.587   3.402  13.709  1.00  0.00     0.000 C 
BRANCH  18  19
ATOM     19  C   UNL     1      -2.691   4.472  13.757  1.00  0.00     0.000 C 
BRANCH  19  20
ATOM     20  C   UNL     1      -3.351   4.792  12.404  1.00  0.00     0.000 C 
BRANCH  20  21
ATOM     21  C   UNL     1      -2.607   4.171  11.210  1.00  0.00     0.000 C 
BRANCH  21  22
ATOM     22  C   UNL     1      -3.536   3.940  10.007  1.00  0.00     0.000 C 
BRANCH  22  23
ATOM     23  C   UNL     1      -4.222   2.562  10.054  1.00  0.00     0.000 C 
BRANCH  23  24
ATOM     24  C   UNL     1      -3.534   1.579  11.026  1.00  0.00    -0.000 C 
BRANCH  24  25
ATOM     25  C   UNL     1      -4.500   0.622  11.754  1.00  0.00    -0.000 C 
BRANCH  25  26
ATOM     26  C   UNL     1      -4.576   0.783  13.285  1.00  0.00    -0.000 C 
BRANCH  26  27
ATOM     27  C   UNL     1      -5.401   1.986  13.775  1.00  0.00    -0.000 C 
BRANCH  27  28
ATOM     28  C   UNL     1      -5.511   2.052  15.308  1.00  0.00    -0.000 C 
BRANCH  28  29
ATOM     29  C   UNL     1      -5.332   3.480  15.852  1.00  0.00    -0.000 C 
BRANCH  29  30
ATOM     30  C   UNL     1      -6.664   4.105  16.305  1.00  0.00    -0.000 C 
BRANCH  30  31
ATOM     31  C   UNL     1      -7.508   4.620  15.127  1.00  0.00    -0.003 C 
ATOM     32  C   UNL     1      -6.716   5.526  14.185  1.00  0.00     0.004 C 
ENDBRANCH  30  31
ENDBRANCH  29  30
ENDBRANCH  28  29
ENDBRANCH  27  28
ENDBRANCH  26  27
ENDBRANCH  25  26
ENDBRANCH  24  25
ENDBRANCH  23  24
ENDBRANCH  22  23
ENDBRANCH  21  22
ENDBRANCH  20  21
ENDBRANCH  19  20
ENDBRANCH  18  19
ENDBRANCH   1  18
TORSDOF 28
ENDMDL
MODEL 6
REMARK VINA RESULT:    -4.818      2.110      4.312
REMARK INTER + INTRA:         -17.091
REMARK INTER:                 -10.989
REMARK INTRA:                  -6.103
REMARK UNBOUND:                -4.387
REMARK SMILES CCCCCCCCCCCCCCCCCCCCCCCCCCCCCC(=O)[O-]
REMARK SMILES IDX 16 1 17 2 18 3 19 4 20 5 21 6 22 7 23 8 24 9 25 10 26 11
REMARK SMILES IDX 27 12 28 13 29 14 30 15 31 16 32 17 15 18 14 19 13 20 12 21
REMARK SMILES IDX 11 22 10 23 9 24 8 25 7 26 6 27 5 28 4 29 3 30 2 31 1 32
REMARK H PARENT
REMARK Flexibility Score: inf
ROOT
ATOM      1  C   UNL     1      -4.531   1.744  11.190  1.00  0.00     0.000 C 
ENDROOT
BRANCH   1   2
ATOM      2  C   UNL     1      -3.967   2.587  10.035  1.00  0.00     0.000 C 
BRANCH   2   3
ATOM      3  C   UNL     1      -3.668   4.041  10.453  1.00  0.00     0.000 C 
BRANCH   3   4
ATOM      4  C   UNL     1      -3.644   4.263  11.976  1.00  0.00     0.000 C 
BRANCH   4   5
ATOM      5  C   UNL     1      -2.668   5.371  12.403  1.00  0.00     0.000 C 
BRANCH   5   6
ATOM      6  C   UNL     1      -1.409   4.819  13.094  1.00  0.00     0.000 C 
BRANCH   6   7
ATOM      7  C   UNL     1      -1.244   3.302  12.894  1.00  0.00     0.000 C 
BRANCH   7   8
ATOM      8  C   UNL     1      -1.186   2.535  14.224  1.00  0.00     0.000 C 
BRANCH   8   9
ATOM      9  C   UNL     1      -2.126   1.318  14.241  1.00  0.00     0.000 C 
BRANCH   9  10
ATOM     10  C   UNL     1      -3.531   1.659  14.765  1.00  0.00     0.000 C 
BRANCH  10  11
ATOM     11  C   UNL     1      -3.568   2.922  15.652  1.00  0.00     0.000 C 
BRANCH  11  12
ATOM     12  C   UNL     1      -5.006   3.374  15.954  1.00  0.00     0.000 C 
BRANCH  12  13
ATOM     13  C   UNL     1      -5.909   3.198  14.727  1.00  0.00     0.006 C 
BRANCH  13  14
ATOM     14  C   UNL     1      -6.768   4.443  14.489  1.00  0.00     0.053 C 
BRANCH  14  15
ATOM     15  C   UNL     1      -8.106   4.291  15.140  1.00  0.00     0.041 C 
ATOM     16  O   UNL     1      -8.219   4.421  16.389  1.00  0.00    -0.550 OA
ATOM     17  O   UNL     1      -9.218   3.962  14.378  1.00  0.00    -0.550 OA
ENDBRANCH  14  15
ENDBRANCH  13  14
ENDBRANCH  12  13
ENDBRANCH  11  12
ENDBRANCH  10  11
ENDBRANCH   9  10
ENDBRANCH   8   9
ENDBRANCH   7   8
ENDBRANCH   6   7
ENDBRANCH   5   6
ENDBRANCH   4   5
ENDBRANCH   3   4
ENDBRANCH   2   3
ENDBRANCH   1   2
BRANCH   1  18
ATOM     18  C   UNL     1      -3.889   0.348  11.218  1.00  0.00     0.000 C 
BRANCH  18  19
ATOM     19  C   UNL     1      -3.474  -0.157   9.825  1.00  0.00     0.000 C 
BRANCH  19  20
ATOM     20  C   UNL     1      -4.057  -1.524   9.426  1.00  0.00     0.000 C 
BRANCH  20  21
ATOM     21  C   UNL     1      -3.185  -2.275   8.405  1.00  0.00     0.000 C 
BRANCH  21  22
ATOM     22  C   UNL     1      -1.907  -1.496   8.052  1.00  0.00     0.000 C 
BRANCH  22  23
ATOM     23  C   UNL     1      -0.836  -2.394   7.406  1.00  0.00     0.000 C 
BRANCH  23  24
ATOM     24  C   UNL     1       0.230  -2.879   8.412  1.00  0.00    -0.000 C 
BRANCH  24  25
ATOM     25  C   UNL     1      -0.243  -4.011   9.346  1.00  0.00    -0.000 C 
BRANCH  25  26
ATOM     26  C   UNL     1      -0.099  -3.738  10.856  1.00  0.00    -0.000 C 
BRANCH  26  27
ATOM     27  C   UNL     1      -1.367  -3.205  11.547  1.00  0.00    -0.000 C 
BRANCH  27  28
ATOM     28  C   UNL     1      -1.161  -1.826  12.196  1.00  0.00    -0.000 C 
BRANCH  28  29
ATOM     29  C   UNL     1       0.091  -1.107  11.668  1.00  0.00    -0.000 C 
BRANCH  29  30
ATOM     30  C   UNL     1      -0.202   0.342  11.239  1.00  0.00    -0.000 C 
BRANCH  30  31
ATOM     31  C   UNL     1       0.331   0.662   9.832  1.00  0.00    -0.003 C 
ATOM     32  C   UNL     1      -0.358   1.871   9.200  1.00  0.00     0.004 C 
ENDBRANCH  30  31
ENDBRANCH  29  30
ENDBRANCH  28  29
ENDBRANCH  27  28
ENDBRANCH  26  27
ENDBRANCH  25  26
ENDBRANCH  24  25
ENDBRANCH  23  24
ENDBRANCH  22  23
ENDBRANCH  21  22
ENDBRANCH  20  21
ENDBRANCH  19  20
ENDBRANCH  18  19
ENDBRANCH   1  18
TORSDOF 28
ENDMDL
MODEL 7
REMARK VINA RESULT:    -4.812      3.098      7.463
REMARK INTER + INTRA:         -17.077
REMARK INTER:                 -11.784
REMARK INTRA:                  -5.293
REMARK UNBOUND:                -4.387
REMARK SMILES CCCCCCCCCCCCCCCCCCCCCCCCCCCCCC(=O)[O-]
REMARK SMILES IDX 16 1 17 2 18 3 19 4 20 5 21 6 22 7 23 8 24 9 25 10 26 11
REMARK SMILES IDX 27 12 28 13 29 14 30 15 31 16 32 17 15 18 14 19 13 20 12 21
REMARK SMILES IDX 11 22 10 23 9 24 8 25 7 26 6 27 5 28 4 29 3 30 2 31 1 32
REMARK H PARENT
REMARK Flexibility Score: inf
ROOT
ATOM      1  C   UNL     1      -5.030   1.650  13.060  1.00  0.00     0.000 C 
ENDROOT
BRANCH   1   2
ATOM      2  C   UNL     1      -4.571   1.298  14.484  1.00  0.00     0.000 C 
BRANCH   2   3
ATOM      3  C   UNL     1      -3.693   2.400  15.113  1.00  0.00     0.000 C 
BRANCH   3   4
ATOM      4  C   UNL     1      -2.180   2.150  14.976  1.00  0.00     0.000 C 
BRANCH   4   5
ATOM      5  C   UNL     1      -1.560   2.881  13.775  1.00  0.00     0.000 C 
BRANCH   5   6
ATOM      6  C   UNL     1      -0.932   1.917  12.754  1.00  0.00     0.000 C 
BRANCH   6   7
ATOM      7  C   UNL     1      -1.178   0.439  13.108  1.00  0.00     0.000 C 
BRANCH   7   8
ATOM      8  C   UNL     1      -0.312  -0.518  12.274  1.00  0.00     0.000 C 
BRANCH   8   9
ATOM      9  C   UNL     1      -1.119  -1.237  11.180  1.00  0.00     0.000 C 
BRANCH   9  10
ATOM     10  C   UNL     1      -0.950  -0.590   9.795  1.00  0.00     0.000 C 
BRANCH  10  11
ATOM     11  C   UNL     1      -2.094  -0.928   8.814  1.00  0.00     0.000 C 
BRANCH  11  12
ATOM     12  C   UNL     1      -1.990  -2.364   8.278  1.00  0.00     0.000 C 
BRANCH  12  13
ATOM     13  C   UNL     1      -3.273  -3.155   8.564  1.00  0.00     0.006 C 
BRANCH  13  14
ATOM     14  C   UNL     1      -3.114  -4.035   9.807  1.00  0.00     0.053 C 
BRANCH  14  15
ATOM     15  C   UNL     1      -4.444  -4.545  10.264  1.00  0.00     0.041 C 
ATOM     16  O   UNL     1      -5.356  -4.773   9.425  1.00  0.00    -0.550 OA
ATOM     17  O   UNL     1      -4.694  -4.725  11.618  1.00  0.00    -0.550 OA
ENDBRANCH  14  15
ENDBRANCH  13  14
ENDBRANCH  12  13
ENDBRANCH  11  12
ENDBRANCH  10  11
ENDBRANCH   9  10
ENDBRANCH   8   9
ENDBRANCH   7   8
ENDBRANCH   6   7
ENDBRANCH   5   6
ENDBRANCH   4   5
ENDBRANCH   3   4
ENDBRANCH   2   3
ENDBRANCH   1   2
BRANCH   1  18
ATOM     18  C   UNL     1      -4.478   0.643  12.039  1.00  0.00     0.000 C 
BRANCH  18  19
ATOM     19  C   UNL     1      -4.059   1.295  10.710  1.00  0.00     0.000 C 
BRANCH  19  20
ATOM     20  C   UNL     1      -4.040   2.834  10.714  1.00  0.00     0.000 C 
BRANCH  20  21
ATOM     21  C   UNL     1      -2.839   3.424   9.957  1.00  0.00     0.000 C 
BRANCH  21  22
ATOM     22  C   UNL     1      -3.198   4.731   9.231  1.00  0.00     0.000 C 
BRANCH  22  23
ATOM     23  C   UNL     1      -2.523   5.958   9.871  1.00  0.00     0.000 C 
BRANCH  23  24
ATOM     24  C   UNL     1      -1.598   5.591  11.051  1.00  0.00    -0.000 C 
BRANCH  24  25
ATOM     25  C   UNL     1      -2.037   6.174  12.410  1.00  0.00    -0.000 C 
BRANCH  25  26
ATOM     26  C   UNL     1      -3.537   6.505  12.544  1.00  0.00    -0.000 C 
BRANCH  26  27
ATOM     27  C   UNL     1      -4.418   5.349  13.051  1.00  0.00    -0.000 C 
BRANCH  27  28
ATOM     28  C   UNL     1      -5.181   5.699  14.341  1.00  0.00    -0.000 C 
BRANCH  28  29
ATOM     29  C   UNL     1      -6.706   5.673  14.149  1.00  0.00    -0.000 C 
BRANCH  29  30
ATOM     30  C   UNL     1      -7.317   4.303  14.494  1.00  0.00    -0.000 C 
BRANCH  30  31
ATOM     31  C   UNL     1      -7.672   4.170  15.984  1.00  0.00    -0.003 C 
ATOM     32  C   UNL     1      -7.041   2.940  16.635  1.00  0.00     0.004 C 
ENDBRANCH  30  31
ENDBRANCH  29  30
ENDBRANCH  28  29
ENDBRANCH  27  28
ENDBRANCH  26  27
ENDBRANCH  25  26
ENDBRANCH  24  25
ENDBRANCH  23  24
ENDBRANCH  22  23
ENDBRANCH  21  22
ENDBRANCH  20  21
ENDBRANCH  19  20
ENDBRANCH  18  19
ENDBRANCH   1  18
TORSDOF 28
ENDMDL
MODEL 8
REMARK VINA RESULT:    -4.803      1.458      5.037
REMARK INTER + INTRA:         -17.053
REMARK INTER:                 -10.887
REMARK INTRA:                  -6.166
REMARK UNBOUND:                -4.387
REMARK SMILES CCCCCCCCCCCCCCCCCCCCCCCCCCCCCC(=O)[O-]
REMARK SMILES IDX 16 1 17 2 18 3 19 4 20 5 21 6 22 7 23 8 24 9 25 10 26 11
REMARK SMILES IDX 27 12 28 13 29 14 30 15 31 16 32 17 15 18 14 19 13 20 12 21
REMARK SMILES IDX 11 22 10 23 9 24 8 25 7 26 6 27 5 28 4 29 3 30 2 31 1 32
REMARK H PARENT
REMARK Flexibility Score: inf
ROOT
ATOM      1  C   UNL     1      -3.448   2.855  15.639  1.00  0.00     0.000 C 
ENDROOT
BRANCH   1   2
ATOM      2  C   UNL     1      -1.931   2.874  15.882  1.00  0.00     0.000 C 
BRANCH   2   3
ATOM      3  C   UNL     1      -1.340   1.459  16.052  1.00  0.00     0.000 C 
BRANCH   3   4
ATOM      4  C   UNL     1      -0.193   1.139  15.076  1.00  0.00     0.000 C 
BRANCH   4   5
ATOM      5  C   UNL     1      -0.541   1.468  13.616  1.00  0.00     0.000 C 
BRANCH   5   6
ATOM      6  C   UNL     1       0.469   2.431  12.968  1.00  0.00     0.000 C 
BRANCH   6   7
ATOM      7  C   UNL     1      -0.201   3.432  12.010  1.00  0.00     0.000 C 
BRANCH   7   8
ATOM      8  C   UNL     1      -1.572   3.906  12.517  1.00  0.00     0.000 C 
BRANCH   8   9
ATOM      9  C   UNL     1      -2.668   3.784  11.446  1.00  0.00     0.000 C 
BRANCH   9  10
ATOM     10  C   UNL     1      -3.909   4.635  11.764  1.00  0.00     0.000 C 
BRANCH  10  11
ATOM     11  C   UNL     1      -3.850   5.315  13.149  1.00  0.00     0.000 C 
BRANCH  11  12
ATOM     12  C   UNL     1      -5.050   6.245  13.387  1.00  0.00     0.000 C 
BRANCH  12  13
ATOM     13  C   UNL     1      -5.657   6.019  14.778  1.00  0.00     0.006 C 
BRANCH  13  14
ATOM     14  C   UNL     1      -6.728   4.926  14.743  1.00  0.00     0.053 C 
BRANCH  14  15
ATOM     15  C   UNL     1      -7.104   4.513  16.130  1.00  0.00     0.041 C 
ATOM     16  O   UNL     1      -7.105   5.360  17.063  1.00  0.00    -0.550 OA
ATOM     17  O   UNL     1      -7.409   3.186  16.404  1.00  0.00    -0.550 OA
ENDBRANCH  14  15
ENDBRANCH  13  14
ENDBRANCH  12  13
ENDBRANCH  11  12
ENDBRANCH  10  11
ENDBRANCH   9  10
ENDBRANCH   8   9
ENDBRANCH   7   8
ENDBRANCH   6   7
ENDBRANCH   5   6
ENDBRANCH   4   5
ENDBRANCH   3   4
ENDBRANCH   2   3
ENDBRANCH   1   2
BRANCH   1  18
ATOM     18  C   UNL     1      -3.855   1.642  14.788  1.00  0.00     0.000 C 
BRANCH  18  19
ATOM     19  C   UNL     1      -5.137   1.878  13.970  1.00  0.00     0.000 C 
BRANCH  19  20
ATOM     20  C   UNL     1      -5.245   1.057  12.673  1.00  0.00     0.000 C 
BRANCH  20  21
ATOM     21  C   UNL     1      -3.896   0.487  12.207  1.00  0.00     0.000 C 
BRANCH  21  22
ATOM     22  C   UNL     1      -3.994  -0.170  10.820  1.00  0.00     0.000 C 
BRANCH  22  23
ATOM     23  C   UNL     1      -3.295   0.661   9.729  1.00  0.00     0.000 C 
BRANCH  23  24
ATOM     24  C   UNL     1      -2.550  -0.208   8.693  1.00  0.00    -0.000 C 
BRANCH  24  25
ATOM     25  C   UNL     1      -1.013  -0.175   8.821  1.00  0.00    -0.000 C 
BRANCH  25  26
ATOM     26  C   UNL     1      -0.464   0.058  10.242  1.00  0.00    -0.000 C 
BRANCH  26  27
ATOM     27  C   UNL     1       0.167  -1.177  10.910  1.00  0.00    -0.000 C 
BRANCH  27  28
ATOM     28  C   UNL     1      -0.704  -1.760  12.036  1.00  0.00    -0.000 C 
BRANCH  28  29
ATOM     29  C   UNL     1      -1.116  -3.217  11.770  1.00  0.00    -0.000 C 
BRANCH  29  30
ATOM     30  C   UNL     1      -2.626  -3.359  11.505  1.00  0.00    -0.000 C 
BRANCH  30  31
ATOM     31  C   UNL     1      -2.939  -3.719  10.043  1.00  0.00    -0.003 C 
ATOM     32  C   UNL     1      -1.681  -3.877   9.191  1.00  0.00     0.004 C 
ENDBRANCH  30  31
ENDBRANCH  29  30
ENDBRANCH  28  29
ENDBRANCH  27  28
ENDBRANCH  26  27
ENDBRANCH  25  26
ENDBRANCH  24  25
ENDBRANCH  23  24
ENDBRANCH  22  23
ENDBRANCH  21  22
ENDBRANCH  20  21
ENDBRANCH  19  20
ENDBRANCH  18  19
ENDBRANCH   1  18
TORSDOF 28
ENDMDL
MODEL 9
REMARK VINA RESULT:    -4.766      2.035      4.602
REMARK INTER + INTRA:         -16.955
REMARK INTER:                 -11.117
REMARK INTRA:                  -5.837
REMARK UNBOUND:                -4.387
REMARK SMILES CCCCCCCCCCCCCCCCCCCCCCCCCCCCCC(=O)[O-]
REMARK SMILES IDX 16 1 17 2 18 3 19 4 20 5 21 6 22 7 23 8 24 9 25 10 26 11
REMARK SMILES IDX 27 12 28 13 29 14 30 15 31 16 32 17 15 18 14 19 13 20 12 21
REMARK SMILES IDX 11 22 10 23 9 24 8 25 7 26 6 27 5 28 4 29 3 30 2 31 1 32
REMARK H PARENT
REMARK Flexibility Score: inf
ROOT
ATOM      1  C   UNL     1      -1.772   0.995  14.557  1.00  0.00     0.000 C 
ENDROOT
BRANCH   1   2
ATOM      2  C   UNL     1      -2.867   1.978  14.114  1.00  0.00     0.000 C 
BRANCH   2   3
ATOM      3  C   UNL     1      -4.283   1.375  14.216  1.00  0.00     0.000 C 
BRANCH   3   4
ATOM      4  C   UNL     1      -5.030   1.300  12.872  1.00  0.00     0.000 C 
BRANCH   4   5
ATOM      5  C   UNL     1      -4.389   0.311  11.887  1.00  0.00     0.000 C 
BRANCH   5   6
ATOM      6  C   UNL     1      -4.138   0.932  10.502  1.00  0.00     0.000 C 
BRANCH   6   7
ATOM      7  C   UNL     1      -4.378   2.452  10.485  1.00  0.00     0.000 C 
BRANCH   7   8
ATOM      8  C   UNL     1      -3.221   3.224   9.830  1.00  0.00     0.000 C 
BRANCH   8   9
ATOM      9  C   UNL     1      -2.882   4.523  10.581  1.00  0.00     0.000 C 
BRANCH   9  10
ATOM     10  C   UNL     1      -3.582   4.621  11.947  1.00  0.00     0.000 C 
BRANCH  10  11
ATOM     11  C   UNL     1      -3.642   6.058  12.507  1.00  0.00     0.000 C 
BRANCH  11  12
ATOM     12  C   UNL     1      -4.696   6.203  13.616  1.00  0.00     0.000 C 
BRANCH  12  13
ATOM     13  C   UNL     1      -5.492   4.904  13.793  1.00  0.00     0.006 C 
BRANCH  13  14
ATOM     14  C   UNL     1      -6.674   5.105  14.746  1.00  0.00     0.053 C 
BRANCH  14  15
ATOM     15  C   UNL     1      -6.262   4.836  16.158  1.00  0.00     0.041 C 
ATOM     16  O   UNL     1      -6.877   5.385  17.111  1.00  0.00    -0.550 OA
ATOM     17  O   UNL     1      -5.173   4.017  16.423  1.00  0.00    -0.550 OA
ENDBRANCH  14  15
ENDBRANCH  13  14
ENDBRANCH  12  13
ENDBRANCH  11  12
ENDBRANCH  10  11
ENDBRANCH   9  10
ENDBRANCH   8   9
ENDBRANCH   7   8
ENDBRANCH   6   7
ENDBRANCH   5   6
ENDBRANCH   4   5
ENDBRANCH   3   4
ENDBRANCH   2   3
ENDBRANCH   1   2
BRANCH   1  18
ATOM     18  C   UNL     1      -1.075   0.362  13.342  1.00  0.00     0.000 C 
BRANCH  18  19
ATOM     19  C   UNL     1      -0.833   1.358  12.195  1.00  0.00     0.000 C 
BRANCH  19  20
ATOM     20  C   UNL     1       0.013   0.819  11.028  1.00  0.00     0.000 C 
BRANCH  20  21
ATOM     21  C   UNL     1      -0.837   0.333   9.842  1.00  0.00     0.000 C 
BRANCH  21  22
ATOM     22  C   UNL     1      -0.152  -0.804   9.067  1.00  0.00     0.000 C 
BRANCH  22  23
ATOM     23  C   UNL     1      -0.975  -1.258   7.847  1.00  0.00     0.000 C 
BRANCH  23  24
ATOM     24  C   UNL     1      -1.770  -2.556   8.105  1.00  0.00    -0.000 C 
BRANCH  24  25
ATOM     25  C   UNL     1      -3.163  -2.337   8.729  1.00  0.00    -0.000 C 
BRANCH  25  26
ATOM     26  C   UNL     1      -3.716  -3.510   9.562  1.00  0.00    -0.000 C 
BRANCH  26  27
ATOM     27  C   UNL     1      -3.626  -3.328  11.088  1.00  0.00    -0.000 C 
BRANCH  27  28
ATOM     28  C   UNL     1      -2.343  -2.603  11.530  1.00  0.00    -0.000 C 
BRANCH  28  29
ATOM     29  C   UNL     1      -1.375  -3.527  12.287  1.00  0.00    -0.000 C 
BRANCH  29  30
ATOM     30  C   UNL     1       0.039  -3.519  11.679  1.00  0.00    -0.000 C 
BRANCH  30  31
ATOM     31  C   UNL     1       0.989  -2.549  12.400  1.00  0.00    -0.003 C 
ATOM     32  C   UNL     1       2.194  -2.158  11.546  1.00  0.00     0.004 C 
ENDBRANCH  30  31
ENDBRANCH  29  30
ENDBRANCH  28  29
ENDBRANCH  27  28
ENDBRANCH  26  27
ENDBRANCH  25  26
ENDBRANCH  24  25
ENDBRANCH  23  24
ENDBRANCH  22  23
ENDBRANCH  21  22
ENDBRANCH  20  21
ENDBRANCH  19  20
ENDBRANCH  18  19
ENDBRANCH   1  18
TORSDOF 28
ENDMDL
