MODEL 1
REMARK VINA RESULT:    -4.142      0.000      0.000
REMARK INTER + INTRA:          -8.560
REMARK INTER:                  -7.047
REMARK INTRA:                  -1.513
REMARK UNBOUND:                -1.513
REMARK SMILES CCCCCCCCCCCCCC(=O)[O-]
REMARK SMILES IDX 8 1 9 2 10 3 11 4 12 5 13 6 14 7 15 8 16 9 7 10 6 11 5 12
REMARK SMILES IDX 4 13 3 14 2 15 1 16
REMARK H PARENT
REMARK Flexibility Score: inf
ROOT
ATOM      1  C   UNL     1      -3.444  61.122  45.495  1.00  0.00     0.000 C 
ENDROOT
BRANCH   1   2
ATOM      2  C   UNL     1      -3.047  59.683  45.125  1.00  0.00     0.000 C 
BRANCH   2   3
ATOM      3  C   UNL     1      -1.534  59.439  45.229  1.00  0.00     0.000 C 
BRANCH   3   4
ATOM      4  C   UNL     1      -1.145  58.116  44.551  1.00  0.00     0.000 C 
BRANCH   4   5
ATOM      5  C   UNL     1       0.374  57.969  44.370  1.00  0.00     0.006 C 
BRANCH   5   6
ATOM      6  C   UNL     1       0.928  58.873  43.261  1.00  0.00     0.053 C 
BRANCH   6   7
ATOM      7  C   UNL     1       2.052  59.710  43.784  1.00  0.00     0.041 C 
ATOM      8  O   UNL     1       1.827  60.625  44.618  1.00  0.00    -0.550 OA
ATOM      9  O   UNL     1       3.345  59.511  43.313  1.00  0.00    -0.550 OA
ENDBRANCH   6   7
ENDBRANCH   5   6
ENDBRANCH   4   5
ENDBRANCH   3   4
ENDBRANCH   2   3
ENDBRANCH   1   2
BRANCH   1  10
ATOM     10  C   UNL     1      -3.749  61.282  46.995  1.00  0.00     0.000 C 
BRANCH  10  11
ATOM     11  C   UNL     1      -4.123  59.953  47.676  1.00  0.00    -0.000 C 
BRANCH  11  12
ATOM     12  C   UNL     1      -3.406  59.680  49.011  1.00  0.00    -0.000 C 
BRANCH  12  13
ATOM     13  C   UNL     1      -2.108  58.872  48.838  1.00  0.00    -0.000 C 
BRANCH  13  14
ATOM     14  C   UNL     1      -2.307  57.372  49.101  1.00  0.00    -0.000 C 
BRANCH  14  15
ATOM     15  C   UNL     1      -2.075  56.517  47.846  1.00  0.00    -0.003 C 
ATOM     16  C   UNL     1      -3.328  56.466  46.977  1.00  0.00     0.004 C 
ENDBRANCH  14  15
ENDBRANCH  13  14
ENDBRANCH  12  13
ENDBRANCH  11  12
ENDBRANCH  10  11
ENDBRANCH   1  10
TORSDOF 12
ENDMDL
MODEL 2
REMARK VINA RESULT:    -4.114      2.088      4.668
REMARK INTER + INTRA:          -8.513
REMARK INTER:                  -6.645
REMARK INTRA:                  -1.868
REMARK UNBOUND:                -1.513
REMARK SMILES CCCCCCCCCCCCCC(=O)[O-]
REMARK SMILES IDX 8 1 9 2 10 3 11 4 12 5 13 6 14 7 15 8 16 9 7 10 6 11 5 12
REMARK SMILES IDX 4 13 3 14 2 15 1 16
REMARK H PARENT
REMARK Flexibility Score: inf
ROOT
ATOM      1  C   UNL     1      -1.967  57.825  49.134  1.00  0.00     0.000 C 
ENDROOT
BRANCH   1   2
ATOM      2  C   UNL     1      -2.174  59.258  48.617  1.00  0.00     0.000 C 
BRANCH   2   3
ATOM      3  C   UNL     1      -3.649  59.689  48.635  1.00  0.00     0.000 C 
BRANCH   3   4
ATOM      4  C   UNL     1      -4.001  60.491  47.372  1.00  0.00     0.000 C 
BRANCH   4   5
ATOM      5  C   UNL     1      -2.761  60.867  46.544  1.00  0.00     0.006 C 
BRANCH   5   6
ATOM      6  C   UNL     1      -3.104  61.212  45.089  1.00  0.00     0.053 C 
BRANCH   6   7
ATOM      7  C   UNL     1      -2.295  62.381  44.627  1.00  0.00     0.041 C 
ATOM      8  O   UNL     1      -1.415  62.880  45.376  1.00  0.00    -0.550 OA
ATOM      9  O   UNL     1      -2.546  62.953  43.385  1.00  0.00    -0.550 OA
ENDBRANCH   6   7
ENDBRANCH   5   6
ENDBRANCH   4   5
ENDBRANCH   3   4
ENDBRANCH   2   3
ENDBRANCH   1   2
BRANCH   1  10
ATOM     10  C   UNL     1      -3.022  56.845  48.594  1.00  0.00     0.000 C 
BRANCH  10  11
ATOM     11  C   UNL     1      -2.696  56.333  47.179  1.00  0.00    -0.000 C 
BRANCH  11  12
ATOM     12  C   UNL     1      -3.490  57.005  46.043  1.00  0.00    -0.000 C 
BRANCH  12  13
ATOM     13  C   UNL     1      -2.584  57.652  44.981  1.00  0.00    -0.000 C 
BRANCH  13  14
ATOM     14  C   UNL     1      -1.109  57.693  45.410  1.00  0.00    -0.000 C 
BRANCH  14  15
ATOM     15  C   UNL     1      -0.300  58.749  44.642  1.00  0.00    -0.003 C 
ATOM     16  C   UNL     1       0.621  58.096  43.616  1.00  0.00     0.004 C 
ENDBRANCH  14  15
ENDBRANCH  13  14
ENDBRANCH  12  13
ENDBRANCH  11  12
ENDBRANCH  10  11
ENDBRANCH   1  10
TORSDOF 12
ENDMDL
MODEL 3
REMARK VINA RESULT:    -4.042      1.262      2.225
REMARK INTER + INTRA:          -8.390
REMARK INTER:                  -7.316
REMARK INTRA:                  -1.074
REMARK UNBOUND:                -1.513
REMARK SMILES CCCCCCCCCCCCCC(=O)[O-]
REMARK SMILES IDX 8 1 9 2 10 3 11 4 12 5 13 6 14 7 15 8 16 9 7 10 6 11 5 12
REMARK SMILES IDX 4 13 3 14 2 15 1 16
REMARK H PARENT
REMARK Flexibility Score: inf
ROOT
ATOM      1  C   UNL     1      -3.142  57.626  44.891  1.00  0.00     0.000 C 
ENDROOT
BRANCH   1   2
ATOM      2  C   UNL     1      -1.666  58.011  45.082  1.00  0.00     0.000 C 
BRANCH   2   3
ATOM      3  C   UNL     1      -0.835  57.829  43.803  1.00  0.00     0.000 C 
BRANCH   3   4
ATOM      4  C   UNL     1       0.668  57.806  44.125  1.00  0.00     0.000 C 
BRANCH   4   5
ATOM      5  C   UNL     1       1.531  58.311  42.958  1.00  0.00     0.006 C 
BRANCH   5   6
ATOM      6  C   UNL     1       2.453  59.469  43.362  1.00  0.00     0.053 C 
BRANCH   6   7
ATOM      7  C   UNL     1       3.878  59.016  43.388  1.00  0.00     0.041 C 
ATOM      8  O   UNL     1       4.812  59.858  43.343  1.00  0.00    -0.550 OA
ATOM      9  O   UNL     1       4.176  57.659  43.411  1.00  0.00    -0.550 OA
ENDBRANCH   6   7
ENDBRANCH   5   6
ENDBRANCH   4   5
ENDBRANCH   3   4
ENDBRANCH   2   3
ENDBRANCH   1   2
BRANCH   1  10
ATOM     10  C   UNL     1      -4.099  58.563  45.649  1.00  0.00     0.000 C 
BRANCH  10  11
ATOM     11  C   UNL     1      -3.520  59.974  45.853  1.00  0.00    -0.000 C 
BRANCH  11  12
ATOM     12  C   UNL     1      -3.564  60.494  47.303  1.00  0.00    -0.000 C 
BRANCH  12  13
ATOM     13  C   UNL     1      -3.733  59.368  48.337  1.00  0.00    -0.000 C 
BRANCH  13  14
ATOM     14  C   UNL     1      -2.391  58.756  48.768  1.00  0.00    -0.000 C 
BRANCH  14  15
ATOM     15  C   UNL     1      -2.526  57.291  49.211  1.00  0.00    -0.003 C 
ATOM     16  C   UNL     1      -1.946  56.344  48.165  1.00  0.00     0.004 C 
ENDBRANCH  14  15
ENDBRANCH  13  14
ENDBRANCH  12  13
ENDBRANCH  11  12
ENDBRANCH  10  11
ENDBRANCH   1  10
TORSDOF 12
ENDMDL
MODEL 4
REMARK VINA RESULT:    -4.027      1.862      2.646
REMARK INTER + INTRA:          -8.365
REMARK INTER:                  -6.671
REMARK INTRA:                  -1.694
REMARK UNBOUND:                -1.513
REMARK SMILES CCCCCCCCCCCCCC(=O)[O-]
REMARK SMILES IDX 8 1 9 2 10 3 11 4 12 5 13 6 14 7 15 8 16 9 7 10 6 11 5 12
REMARK SMILES IDX 4 13 3 14 2 15 1 16
REMARK H PARENT
REMARK Flexibility Score: inf
ROOT
ATOM      1  C   UNL     1      -3.710  60.947  47.287  1.00  0.00     0.000 C 
ENDROOT
BRANCH   1   2
ATOM      2  C   UNL     1      -4.084  60.856  45.799  1.00  0.00     0.000 C 
BRANCH   2   3
ATOM      3  C   UNL     1      -2.975  61.380  44.874  1.00  0.00     0.000 C 
BRANCH   3   4
ATOM      4  C   UNL     1      -1.617  61.379  45.593  1.00  0.00     0.000 C 
BRANCH   4   5
ATOM      5  C   UNL     1      -0.475  60.868  44.700  1.00  0.00     0.006 C 
BRANCH   5   6
ATOM      6  C   UNL     1       0.891  60.925  45.396  1.00  0.00     0.053 C 
BRANCH   6   7
ATOM      7  C   UNL     1       1.509  62.276  45.219  1.00  0.00     0.041 C 
ATOM      8  O   UNL     1       2.244  62.760  46.118  1.00  0.00    -0.550 OA
ATOM      9  O   UNL     1       1.233  63.023  44.080  1.00  0.00    -0.550 OA
ENDBRANCH   6   7
ENDBRANCH   5   6
ENDBRANCH   4   5
ENDBRANCH   3   4
ENDBRANCH   2   3
ENDBRANCH   1   2
BRANCH   1  10
ATOM     10  C   UNL     1      -3.813  59.590  48.006  1.00  0.00     0.000 C 
BRANCH  10  11
ATOM     11  C   UNL     1      -2.593  59.288  48.894  1.00  0.00    -0.000 C 
BRANCH  11  12
ATOM     12  C   UNL     1      -2.227  57.797  49.015  1.00  0.00    -0.000 C 
BRANCH  12  13
ATOM     13  C   UNL     1      -2.788  56.948  47.861  1.00  0.00    -0.000 C 
BRANCH  13  14
ATOM     14  C   UNL     1      -1.701  56.511  46.868  1.00  0.00    -0.000 C 
BRANCH  14  15
ATOM     15  C   UNL     1      -1.452  57.554  45.769  1.00  0.00    -0.003 C 
ATOM     16  C   UNL     1      -2.651  57.663  44.832  1.00  0.00     0.004 C 
ENDBRANCH  14  15
ENDBRANCH  13  14
ENDBRANCH  12  13
ENDBRANCH  11  12
ENDBRANCH  10  11
ENDBRANCH   1  10
TORSDOF 12
ENDMDL
MODEL 5
REMARK VINA RESULT:    -3.950      2.891      6.373
REMARK INTER + INTRA:          -8.234
REMARK INTER:                  -6.787
REMARK INTRA:                  -1.446
REMARK UNBOUND:                -1.513
REMARK SMILES CCCCCCCCCCCCCC(=O)[O-]
REMARK SMILES IDX 8 1 9 2 10 3 11 4 12 5 13 6 14 7 15 8 16 9 7 10 6 11 5 12
REMARK SMILES IDX 4 13 3 14 2 15 1 16
REMARK H PARENT
REMARK Flexibility Score: inf
ROOT
ATOM      1  C   UNL     1      -0.593  57.783  44.673  1.00  0.00     0.000 C 
ENDROOT
BRANCH   1   2
ATOM      2  C   UNL     1      -1.163  59.132  45.141  1.00  0.00     0.000 C 
BRANCH   2   3
ATOM      3  C   UNL     1      -2.695  59.126  45.246  1.00  0.00     0.000 C 
BRANCH   3   4
ATOM      4  C   UNL     1      -3.255  57.715  45.008  1.00  0.00     0.000 C 
BRANCH   4   5
ATOM      5  C   UNL     1      -3.875  57.103  46.275  1.00  0.00     0.006 C 
BRANCH   5   6
ATOM      6  C   UNL     1      -3.364  57.763  47.562  1.00  0.00     0.053 C 
BRANCH   6   7
ATOM      7  C   UNL     1      -2.457  56.830  48.300  1.00  0.00     0.041 C 
ATOM      8  O   UNL     1      -1.491  56.283  47.709  1.00  0.00    -0.550 OA
ATOM      9  O   UNL     1      -2.709  56.526  49.633  1.00  0.00    -0.550 OA
ENDBRANCH   6   7
ENDBRANCH   5   6
ENDBRANCH   4   5
ENDBRANCH   3   4
ENDBRANCH   2   3
ENDBRANCH   1   2
BRANCH   1  10
ATOM     10  C   UNL     1       0.036  57.862  43.271  1.00  0.00     0.000 C 
BRANCH  10  11
ATOM     11  C   UNL     1       1.501  57.390  43.244  1.00  0.00    -0.000 C 
BRANCH  11  12
ATOM     12  C   UNL     1       2.547  58.514  43.130  1.00  0.00    -0.000 C 
BRANCH  12  13
ATOM     13  C   UNL     1       1.913  59.910  43.004  1.00  0.00    -0.000 C 
BRANCH  13  14
ATOM     14  C   UNL     1       2.121  60.768  44.261  1.00  0.00    -0.000 C 
BRANCH  14  15
ATOM     15  C   UNL     1       1.161  61.966  44.324  1.00  0.00    -0.003 C 
ATOM     16  C   UNL     1       0.216  61.976  43.127  1.00  0.00     0.004 C 
ENDBRANCH  14  15
ENDBRANCH  13  14
ENDBRANCH  12  13
ENDBRANCH  11  12
ENDBRANCH  10  11
ENDBRANCH   1  10
TORSDOF 12
ENDMDL
MODEL 6
REMARK VINA RESULT:    -3.945      1.691      4.281
REMARK INTER + INTRA:          -8.226
REMARK INTER:                  -6.797
REMARK INTRA:                  -1.429
REMARK UNBOUND:                -1.513
REMARK SMILES CCCCCCCCCCCCCC(=O)[O-]
REMARK SMILES IDX 8 1 9 2 10 3 11 4 12 5 13 6 14 7 15 8 16 9 7 10 6 11 5 12
REMARK SMILES IDX 4 13 3 14 2 15 1 16
REMARK H PARENT
REMARK Flexibility Score: inf
ROOT
ATOM      1  C   UNL     1      -2.255  58.706  48.845  1.00  0.00     0.000 C 
ENDROOT
BRANCH   1   2
ATOM      2  C   UNL     1      -2.628  57.215  48.859  1.00  0.00     0.000 C 
BRANCH   2   3
ATOM      3  C   UNL     1      -2.293  56.506  47.538  1.00  0.00     0.000 C 
BRANCH   3   4
ATOM      4  C   UNL     1      -3.226  56.977  46.412  1.00  0.00     0.000 C 
BRANCH   4   5
ATOM      5  C   UNL     1      -2.459  57.522  45.196  1.00  0.00     0.006 C 
BRANCH   5   6
ATOM      6  C   UNL     1      -0.974  57.768  45.495  1.00  0.00     0.053 C 
BRANCH   6   7
ATOM      7  C   UNL     1      -0.248  58.151  44.246  1.00  0.00     0.041 C 
ATOM      8  O   UNL     1       0.498  59.164  44.230  1.00  0.00    -0.550 OA
ATOM      9  O   UNL     1      -0.433  57.415  43.081  1.00  0.00    -0.550 OA
ENDBRANCH   6   7
ENDBRANCH   5   6
ENDBRANCH   4   5
ENDBRANCH   3   4
ENDBRANCH   2   3
ENDBRANCH   1   2
BRANCH   1  10
ATOM     10  C   UNL     1      -3.490  59.624  48.872  1.00  0.00     0.000 C 
BRANCH  10  11
ATOM     11  C   UNL     1      -3.389  60.793  47.875  1.00  0.00    -0.000 C 
BRANCH  11  12
ATOM     12  C   UNL     1      -4.124  60.576  46.539  1.00  0.00    -0.000 C 
BRANCH  12  13
ATOM     13  C   UNL     1      -3.295  61.021  45.322  1.00  0.00    -0.000 C 
BRANCH  13  14
ATOM     14  C   UNL     1      -3.608  62.461  44.889  1.00  0.00    -0.000 C 
BRANCH  14  15
ATOM     15  C   UNL     1      -2.388  63.174  44.287  1.00  0.00    -0.003 C 
ATOM     16  C   UNL     1      -1.145  62.293  44.360  1.00  0.00     0.004 C 
ENDBRANCH  14  15
ENDBRANCH  13  14
ENDBRANCH  12  13
ENDBRANCH  11  12
ENDBRANCH  10  11
ENDBRANCH   1  10
TORSDOF 12
ENDMDL
MODEL 7
REMARK VINA RESULT:    -3.943      2.904      6.819
REMARK INTER + INTRA:          -8.222
REMARK INTER:                  -7.313
REMARK INTRA:                  -0.909
REMARK UNBOUND:                -1.513
REMARK SMILES CCCCCCCCCCCCCC(=O)[O-]
REMARK SMILES IDX 8 1 9 2 10 3 11 4 12 5 13 6 14 7 15 8 16 9 7 10 6 11 5 12
REMARK SMILES IDX 4 13 3 14 2 15 1 16
REMARK H PARENT
REMARK Flexibility Score: inf
ROOT
ATOM      1  C   UNL     1      -0.683  57.854  44.718  1.00  0.00     0.000 C 
ENDROOT
BRANCH   1   2
ATOM      2  C   UNL     1      -0.885  59.325  45.119  1.00  0.00     0.000 C 
BRANCH   2   3
ATOM      3  C   UNL     1      -2.342  59.647  45.481  1.00  0.00     0.000 C 
BRANCH   3   4
ATOM      4  C   UNL     1      -3.273  58.486  45.096  1.00  0.00     0.000 C 
BRANCH   4   5
ATOM      5  C   UNL     1      -4.123  57.992  46.277  1.00  0.00     0.006 C 
BRANCH   5   6
ATOM      6  C   UNL     1      -3.659  56.630  46.810  1.00  0.00     0.053 C 
BRANCH   6   7
ATOM      7  C   UNL     1      -2.638  56.813  47.887  1.00  0.00     0.041 C 
ATOM      8  O   UNL     1      -2.887  57.544  48.880  1.00  0.00    -0.550 OA
ATOM      9  O   UNL     1      -1.389  56.213  47.771  1.00  0.00    -0.550 OA
ENDBRANCH   6   7
ENDBRANCH   5   6
ENDBRANCH   4   5
ENDBRANCH   3   4
ENDBRANCH   2   3
ENDBRANCH   1   2
BRANCH   1  10
ATOM     10  C   UNL     1      -0.158  57.702  43.279  1.00  0.00     0.000 C 
BRANCH  10  11
ATOM     11  C   UNL     1       1.259  58.275  43.094  1.00  0.00    -0.000 C 
BRANCH  11  12
ATOM     12  C   UNL     1       2.393  57.233  43.128  1.00  0.00    -0.000 C 
BRANCH  12  13
ATOM     13  C   UNL     1       3.791  57.872  43.195  1.00  0.00    -0.000 C 
BRANCH  13  14
ATOM     14  C   UNL     1       3.735  59.385  43.458  1.00  0.00    -0.000 C 
BRANCH  14  15
ATOM     15  C   UNL     1       4.962  60.125  42.903  1.00  0.00    -0.003 C 
ATOM     16  C   UNL     1       5.018  61.560  43.419  1.00  0.00     0.004 C 
ENDBRANCH  14  15
ENDBRANCH  13  14
ENDBRANCH  12  13
ENDBRANCH  11  12
ENDBRANCH  10  11
ENDBRANCH   1  10
TORSDOF 12
ENDMDL
MODEL 8
REMARK VINA RESULT:    -3.909      2.327      3.839
REMARK INTER + INTRA:          -8.164
REMARK INTER:                  -6.783
REMARK INTRA:                  -1.380
REMARK UNBOUND:                -1.513
REMARK SMILES CCCCCCCCCCCCCC(=O)[O-]
REMARK SMILES IDX 8 1 9 2 10 3 11 4 12 5 13 6 14 7 15 8 16 9 7 10 6 11 5 12
REMARK SMILES IDX 4 13 3 14 2 15 1 16
REMARK H PARENT
REMARK Flexibility Score: inf
ROOT
ATOM      1  C   UNL     1      -1.437  58.365  45.327  1.00  0.00     0.000 C 
ENDROOT
BRANCH   1   2
ATOM      2  C   UNL     1      -0.365  57.805  44.378  1.00  0.00     0.000 C 
BRANCH   2   3
ATOM      3  C   UNL     1       0.516  58.903  43.764  1.00  0.00     0.000 C 
BRANCH   3   4
ATOM      4  C   UNL     1       0.743  60.048  44.764  1.00  0.00     0.000 C 
BRANCH   4   5
ATOM      5  C   UNL     1       0.235  61.400  44.241  1.00  0.00     0.006 C 
BRANCH   5   6
ATOM      6  C   UNL     1      -0.797  62.046  45.176  1.00  0.00     0.053 C 
BRANCH   6   7
ATOM      7  C   UNL     1      -2.004  62.473  44.405  1.00  0.00     0.041 C 
ATOM      8  O   UNL     1      -3.052  61.776  44.428  1.00  0.00    -0.550 OA
ATOM      9  O   UNL     1      -1.958  63.618  43.618  1.00  0.00    -0.550 OA
ENDBRANCH   6   7
ENDBRANCH   5   6
ENDBRANCH   4   5
ENDBRANCH   3   4
ENDBRANCH   2   3
ENDBRANCH   1   2
BRANCH   1  10
ATOM     10  C   UNL     1      -2.828  57.759  45.070  1.00  0.00     0.000 C 
BRANCH  10  11
ATOM     11  C   UNL     1      -3.360  56.949  46.266  1.00  0.00    -0.000 C 
BRANCH  11  12
ATOM     12  C   UNL     1      -2.318  56.635  47.356  1.00  0.00    -0.000 C 
BRANCH  12  13
ATOM     13  C   UNL     1      -2.688  57.229  48.726  1.00  0.00    -0.000 C 
BRANCH  13  14
ATOM     14  C   UNL     1      -2.258  58.697  48.868  1.00  0.00    -0.000 C 
BRANCH  14  15
ATOM     15  C   UNL     1      -3.452  59.664  48.868  1.00  0.00    -0.003 C 
ATOM     16  C   UNL     1      -3.529  60.444  47.560  1.00  0.00     0.004 C 
ENDBRANCH  14  15
ENDBRANCH  13  14
ENDBRANCH  12  13
ENDBRANCH  11  12
ENDBRANCH  10  11
ENDBRANCH   1  10
TORSDOF 12
ENDMDL
MODEL 9
REMARK VINA RESULT:    -3.887      3.046      5.168
REMARK INTER + INTRA:          -8.126
REMARK INTER:                  -6.733
REMARK INTRA:                  -1.393
REMARK UNBOUND:                -1.513
REMARK SMILES CCCCCCCCCCCCCC(=O)[O-]
REMARK SMILES IDX 8 1 9 2 10 3 11 4 12 5 13 6 14 7 15 8 16 9 7 10 6 11 5 12
REMARK SMILES IDX 4 13 3 14 2 15 1 16
REMARK H PARENT
REMARK Flexibility Score: inf
ROOT
ATOM      1  C   UNL     1      -3.802  61.608  46.670  1.00  0.00     0.000 C 
ENDROOT
BRANCH   1   2
ATOM      2  C   UNL     1      -4.066  60.100  46.535  1.00  0.00     0.000 C 
BRANCH   2   3
ATOM      3  C   UNL     1      -3.597  59.533  45.186  1.00  0.00     0.000 C 
BRANCH   3   4
ATOM      4  C   UNL     1      -3.344  58.020  45.285  1.00  0.00     0.000 C 
BRANCH   4   5
ATOM      5  C   UNL     1      -3.826  57.425  46.618  1.00  0.00     0.006 C 
BRANCH   5   6
ATOM      6  C   UNL     1      -2.721  56.662  47.360  1.00  0.00     0.053 C 
BRANCH   6   7
ATOM      7  C   UNL     1      -2.557  57.199  48.746  1.00  0.00     0.041 C 
ATOM      8  O   UNL     1      -2.275  58.412  48.928  1.00  0.00    -0.550 OA
ATOM      9  O   UNL     1      -2.668  56.347  49.839  1.00  0.00    -0.550 OA
ENDBRANCH   6   7
ENDBRANCH   5   6
ENDBRANCH   4   5
ENDBRANCH   3   4
ENDBRANCH   2   3
ENDBRANCH   1   2
BRANCH   1  10
ATOM     10  C   UNL     1      -3.423  62.264  45.330  1.00  0.00     0.000 C 
BRANCH  10  11
ATOM     11  C   UNL     1      -2.060  62.978  45.377  1.00  0.00    -0.000 C 
BRANCH  11  12
ATOM     12  C   UNL     1      -0.971  62.362  44.478  1.00  0.00    -0.000 C 
BRANCH  12  13
ATOM     13  C   UNL     1       0.426  62.402  45.120  1.00  0.00    -0.000 C 
BRANCH  13  14
ATOM     14  C   UNL     1       0.977  60.999  45.421  1.00  0.00    -0.000 C 
BRANCH  14  15
ATOM     15  C   UNL     1      -0.105  59.912  45.346  1.00  0.00    -0.003 C 
ATOM     16  C   UNL     1       0.285  58.815  44.360  1.00  0.00     0.004 C 
ENDBRANCH  14  15
ENDBRANCH  13  14
ENDBRANCH  12  13
ENDBRANCH  11  12
ENDBRANCH  10  11
ENDBRANCH   1  10
TORSDOF 12
ENDMDL
