MODEL 1
REMARK VINA RESULT:    -2.339      0.000      0.000
REMARK INTER + INTRA:          -5.360
REMARK INTER:                  -4.527
REMARK INTRA:                  -0.833
REMARK UNBOUND:                -0.833
REMARK SMILES CCCCCCCCCCCCCCCCCC(=O)[O-]
REMARK SMILES IDX 10 1 11 2 12 3 13 4 14 5 15 6 16 7 17 8 18 9 19 10 20 11
REMARK SMILES IDX 9 12 8 13 7 14 6 15 5 16 4 17 3 18 2 19 1 20
REMARK H PARENT
REMARK Flexibility Score: inf
ROOT
ATOM      1  C   UNL     1      13.011   8.661  15.220  1.00  0.00     0.000 C 
ENDROOT
BRANCH   1   2
ATOM      2  C   UNL     1      13.295  10.158  15.012  1.00  0.00     0.000 C 
BRANCH   2   3
ATOM      3  C   UNL     1      12.075  10.922  14.469  1.00  0.00     0.000 C 
BRANCH   3   4
ATOM      4  C   UNL     1      12.059  12.397  14.902  1.00  0.00     0.000 C 
BRANCH   4   5
ATOM      5  C   UNL     1      13.268  12.768  15.779  1.00  0.00     0.000 C 
BRANCH   5   6
ATOM      6  C   UNL     1      13.600  14.268  15.724  1.00  0.00     0.000 C 
BRANCH   6   7
ATOM      7  C   UNL     1      12.687  15.044  14.762  1.00  0.00     0.006 C 
BRANCH   7   8
ATOM      8  C   UNL     1      13.513  15.888  13.786  1.00  0.00     0.053 C 
BRANCH   8   9
ATOM      9  C   UNL     1      13.204  15.508  12.373  1.00  0.00     0.041 C 
ATOM     10  O   UNL     1      12.859  14.331  12.094  1.00  0.00    -0.550 OA
ATOM     11  O   UNL     1      13.251  16.467  11.369  1.00  0.00    -0.550 OA
ENDBRANCH   8   9
ENDBRANCH   7   8
ENDBRANCH   6   7
ENDBRANCH   5   6
ENDBRANCH   4   5
ENDBRANCH   3   4
ENDBRANCH   2   3
ENDBRANCH   1   2
BRANCH   1  12
ATOM     12  C   UNL     1      14.272   7.795  15.060  1.00  0.00     0.000 C 
BRANCH  12  13
ATOM     13  C   UNL     1      13.952   6.358  14.617  1.00  0.00    -0.000 C 
BRANCH  13  14
ATOM     14  C   UNL     1      14.440   5.302  15.621  1.00  0.00    -0.000 C 
BRANCH  14  15
ATOM     15  C   UNL     1      13.263   4.711  16.411  1.00  0.00    -0.000 C 
BRANCH  15  16
ATOM     16  C   UNL     1      12.405   5.790  17.090  1.00  0.00    -0.000 C 
BRANCH  16  17
ATOM     17  C   UNL     1      12.528   5.765  18.624  1.00  0.00    -0.000 C 
BRANCH  17  18
ATOM     18  C   UNL     1      12.478   4.340  19.197  1.00  0.00    -0.000 C 
BRANCH  18  19
ATOM     19  C   UNL     1      11.340   4.152  20.211  1.00  0.00    -0.003 C 
ATOM     20  C   UNL     1      11.708   3.108  21.263  1.00  0.00     0.004 C 
ENDBRANCH  18  19
ENDBRANCH  17  18
ENDBRANCH  16  17
ENDBRANCH  15  16
ENDBRANCH  14  15
ENDBRANCH  13  14
ENDBRANCH  12  13
ENDBRANCH   1  12
TORSDOF 16
ENDMDL
MODEL 2
REMARK VINA RESULT:    -2.076      1.121      1.557
REMARK INTER + INTRA:          -4.851
REMARK INTER:                  -4.305
REMARK INTRA:                  -0.546
REMARK UNBOUND:                -0.833
REMARK SMILES CCCCCCCCCCCCCCCCCC(=O)[O-]
REMARK SMILES IDX 10 1 11 2 12 3 13 4 14 5 15 6 16 7 17 8 18 9 19 10 20 11
REMARK SMILES IDX 9 12 8 13 7 14 6 15 5 16 4 17 3 18 2 19 1 20
REMARK H PARENT
REMARK Flexibility Score: inf
ROOT
ATOM      1  C   UNL     1      13.301   7.606  15.058  1.00  0.00     0.000 C 
ENDROOT
BRANCH   1   2
ATOM      2  C   UNL     1      13.662   9.054  15.426  1.00  0.00     0.000 C 
BRANCH   2   3
ATOM      3  C   UNL     1      12.807  10.088  14.670  1.00  0.00     0.000 C 
BRANCH   3   4
ATOM      4  C   UNL     1      12.785  11.459  15.364  1.00  0.00     0.000 C 
BRANCH   4   5
ATOM      5  C   UNL     1      11.751  12.416  14.747  1.00  0.00     0.000 C 
BRANCH   5   6
ATOM      6  C   UNL     1      11.660  12.282  13.218  1.00  0.00     0.000 C 
BRANCH   6   7
ATOM      7  C   UNL     1      12.634  13.213  12.480  1.00  0.00     0.006 C 
BRANCH   7   8
ATOM      8  C   UNL     1      13.292  14.197  13.453  1.00  0.00     0.053 C 
BRANCH   8   9
ATOM      9  C   UNL     1      13.286  15.580  12.883  1.00  0.00     0.041 C 
ATOM     10  O   UNL     1      13.566  16.567  13.611  1.00  0.00    -0.550 OA
ATOM     11  O   UNL     1      13.019  15.774  11.533  1.00  0.00    -0.550 OA
ENDBRANCH   8   9
ENDBRANCH   7   8
ENDBRANCH   6   7
ENDBRANCH   5   6
ENDBRANCH   4   5
ENDBRANCH   3   4
ENDBRANCH   2   3
ENDBRANCH   1   2
BRANCH   1  12
ATOM     12  C   UNL     1      14.532   6.774  14.663  1.00  0.00     0.000 C 
BRANCH  12  13
ATOM     13  C   UNL     1      14.255   5.262  14.670  1.00  0.00    -0.000 C 
BRANCH  13  14
ATOM     14  C   UNL     1      14.422   4.632  16.060  1.00  0.00    -0.000 C 
BRANCH  14  15
ATOM     15  C   UNL     1      13.060   4.436  16.743  1.00  0.00    -0.000 C 
BRANCH  15  16
ATOM     16  C   UNL     1      12.650   5.642  17.603  1.00  0.00    -0.000 C 
BRANCH  16  17
ATOM     17  C   UNL     1      12.599   5.307  19.104  1.00  0.00    -0.000 C 
BRANCH  17  18
ATOM     18  C   UNL     1      12.237   3.837  19.368  1.00  0.00    -0.000 C 
BRANCH  18  19
ATOM     19  C   UNL     1      11.251   3.674  20.534  1.00  0.00    -0.003 C 
ATOM     20  C   UNL     1      11.919   2.996  21.728  1.00  0.00     0.004 C 
ENDBRANCH  18  19
ENDBRANCH  17  18
ENDBRANCH  16  17
ENDBRANCH  15  16
ENDBRANCH  14  15
ENDBRANCH  13  14
ENDBRANCH  12  13
ENDBRANCH   1  12
TORSDOF 16
ENDMDL
MODEL 3
REMARK VINA RESULT:    -1.978      4.706     10.097
REMARK INTER + INTRA:          -4.662
REMARK INTER:                  -3.498
REMARK INTRA:                  -1.164
REMARK UNBOUND:                -0.833
REMARK SMILES CCCCCCCCCCCCCCCCCC(=O)[O-]
REMARK SMILES IDX 10 1 11 2 12 3 13 4 14 5 15 6 16 7 17 8 18 9 19 10 20 11
REMARK SMILES IDX 9 12 8 13 7 14 6 15 5 16 4 17 3 18 2 19 1 20
REMARK H PARENT
REMARK Flexibility Score: inf
ROOT
ATOM      1  C   UNL     1      11.714  11.201  14.647  1.00  0.00     0.000 C 
ENDROOT
BRANCH   1   2
ATOM      2  C   UNL     1      12.964  10.346  14.913  1.00  0.00     0.000 C 
BRANCH   2   3
ATOM      3  C   UNL     1      12.618   8.933  15.417  1.00  0.00     0.000 C 
BRANCH   3   4
ATOM      4  C   UNL     1      13.635   7.876  14.958  1.00  0.00     0.000 C 
BRANCH   4   5
ATOM      5  C   UNL     1      13.841   6.764  16.001  1.00  0.00     0.000 C 
BRANCH   5   6
ATOM      6  C   UNL     1      12.566   6.464  16.806  1.00  0.00     0.000 C 
BRANCH   6   7
ATOM      7  C   UNL     1      12.583   5.069  17.449  1.00  0.00     0.006 C 
BRANCH   7   8
ATOM      8  C   UNL     1      12.426   5.167  18.970  1.00  0.00     0.053 C 
BRANCH   8   9
ATOM      9  C   UNL     1      11.979   3.856  19.535  1.00  0.00     0.041 C 
ATOM     10  O   UNL     1      12.392   2.777  19.037  1.00  0.00    -0.550 OA
ATOM     11  O   UNL     1      11.143   3.826  20.645  1.00  0.00    -0.550 OA
ENDBRANCH   8   9
ENDBRANCH   7   8
ENDBRANCH   6   7
ENDBRANCH   5   6
ENDBRANCH   4   5
ENDBRANCH   3   4
ENDBRANCH   2   3
ENDBRANCH   1   2
BRANCH   1  12
ATOM     12  C   UNL     1      11.863  12.640  15.169  1.00  0.00     0.000 C 
BRANCH  12  13
ATOM     13  C   UNL     1      13.281  12.943  15.678  1.00  0.00    -0.000 C 
BRANCH  13  14
ATOM     14  C   UNL     1      13.627  14.439  15.621  1.00  0.00    -0.000 C 
BRANCH  14  15
ATOM     15  C   UNL     1      12.736  15.170  14.606  1.00  0.00    -0.000 C 
BRANCH  15  16
ATOM     16  C   UNL     1      13.536  16.096  13.676  1.00  0.00    -0.000 C 
BRANCH  16  17
ATOM     17  C   UNL     1      13.354  15.742  12.189  1.00  0.00    -0.000 C 
BRANCH  17  18
ATOM     18  C   UNL     1      12.242  14.706  11.962  1.00  0.00    -0.000 C 
BRANCH  18  19
ATOM     19  C   UNL     1      12.782  13.272  11.868  1.00  0.00    -0.003 C 
ATOM     20  C   UNL     1      11.749  12.335  11.248  1.00  0.00     0.004 C 
ENDBRANCH  18  19
ENDBRANCH  17  18
ENDBRANCH  16  17
ENDBRANCH  15  16
ENDBRANCH  14  15
ENDBRANCH  13  14
ENDBRANCH  12  13
ENDBRANCH   1  12
TORSDOF 16
ENDMDL
MODEL 4
REMARK VINA RESULT:    -1.767      2.095      4.395
REMARK INTER + INTRA:          -4.253
REMARK INTER:                  -3.345
REMARK INTRA:                  -0.907
REMARK UNBOUND:                -0.833
REMARK SMILES CCCCCCCCCCCCCCCCCC(=O)[O-]
REMARK SMILES IDX 10 1 11 2 12 3 13 4 14 5 15 6 16 7 17 8 18 9 19 10 20 11
REMARK SMILES IDX 9 12 8 13 7 14 6 15 5 16 4 17 3 18 2 19 1 20
REMARK H PARENT
REMARK Flexibility Score: inf
ROOT
ATOM      1  C   UNL     1      12.792   7.729  16.702  1.00  0.00     0.000 C 
ENDROOT
BRANCH   1   2
ATOM      2  C   UNL     1      13.154   8.352  15.344  1.00  0.00     0.000 C 
BRANCH   2   3
ATOM      3  C   UNL     1      13.208   9.889  15.394  1.00  0.00     0.000 C 
BRANCH   3   4
ATOM      4  C   UNL     1      12.194  10.548  14.445  1.00  0.00     0.000 C 
BRANCH   4   5
ATOM      5  C   UNL     1      11.921  12.019  14.802  1.00  0.00     0.000 C 
BRANCH   5   6
ATOM      6  C   UNL     1      13.144  12.713  15.424  1.00  0.00     0.000 C 
BRANCH   6   7
ATOM      7  C   UNL     1      13.292  14.174  14.972  1.00  0.00     0.006 C 
BRANCH   7   8
ATOM      8  C   UNL     1      13.043  14.308  13.466  1.00  0.00     0.053 C 
BRANCH   8   9
ATOM      9  C   UNL     1      13.385  15.688  13.000  1.00  0.00     0.041 C 
ATOM     10  O   UNL     1      13.756  16.562  13.825  1.00  0.00    -0.550 OA
ATOM     11  O   UNL     1      13.339  15.995  11.646  1.00  0.00    -0.550 OA
ENDBRANCH   8   9
ENDBRANCH   7   8
ENDBRANCH   6   7
ENDBRANCH   5   6
ENDBRANCH   4   5
ENDBRANCH   3   4
ENDBRANCH   2   3
ENDBRANCH   1   2
BRANCH   1  12
ATOM     12  C   UNL     1      12.241   6.299  16.566  1.00  0.00     0.000 C 
BRANCH  12  13
ATOM     13  C   UNL     1      13.127   5.253  17.260  1.00  0.00    -0.000 C 
BRANCH  13  14
ATOM     14  C   UNL     1      13.523   4.095  16.330  1.00  0.00    -0.000 C 
BRANCH  14  15
ATOM     15  C   UNL     1      14.898   4.348  15.694  1.00  0.00    -0.000 C 
BRANCH  15  16
ATOM     16  C   UNL     1      14.825   5.283  14.477  1.00  0.00    -0.000 C 
BRANCH  16  17
ATOM     17  C   UNL     1      15.811   4.884  13.365  1.00  0.00    -0.000 C 
BRANCH  17  18
ATOM     18  C   UNL     1      17.195   4.500  13.913  1.00  0.00    -0.000 C 
BRANCH  18  19
ATOM     19  C   UNL     1      18.113   3.910  12.834  1.00  0.00    -0.003 C 
ATOM     20  C   UNL     1      17.355   3.687  11.527  1.00  0.00     0.004 C 
ENDBRANCH  18  19
ENDBRANCH  17  18
ENDBRANCH  16  17
ENDBRANCH  15  16
ENDBRANCH  14  15
ENDBRANCH  13  14
ENDBRANCH  12  13
ENDBRANCH   1  12
TORSDOF 16
ENDMDL
MODEL 5
REMARK VINA RESULT:    -1.622      1.228      2.427
REMARK INTER + INTRA:          -3.972
REMARK INTER:                  -2.939
REMARK INTRA:                  -1.032
REMARK UNBOUND:                -0.833
REMARK SMILES CCCCCCCCCCCCCCCCCC(=O)[O-]
REMARK SMILES IDX 10 1 11 2 12 3 13 4 14 5 15 6 16 7 17 8 18 9 19 10 20 11
REMARK SMILES IDX 9 12 8 13 7 14 6 15 5 16 4 17 3 18 2 19 1 20
REMARK H PARENT
REMARK Flexibility Score: inf
ROOT
ATOM      1  C   UNL     1      11.802  11.095  14.590  1.00  0.00     0.000 C 
ENDROOT
BRANCH   1   2
ATOM      2  C   UNL     1      11.892  12.483  15.244  1.00  0.00     0.000 C 
BRANCH   2   3
ATOM      3  C   UNL     1      13.316  12.821  15.720  1.00  0.00     0.000 C 
BRANCH   3   4
ATOM      4  C   UNL     1      13.569  14.335  15.802  1.00  0.00     0.000 C 
BRANCH   4   5
ATOM      5  C   UNL     1      12.693  15.134  14.822  1.00  0.00     0.000 C 
BRANCH   5   6
ATOM      6  C   UNL     1      13.514  15.805  13.708  1.00  0.00     0.000 C 
BRANCH   6   7
ATOM      7  C   UNL     1      13.170  15.269  12.310  1.00  0.00     0.006 C 
BRANCH   7   8
ATOM      8  C   UNL     1      12.970  13.750  12.342  1.00  0.00     0.053 C 
BRANCH   8   9
ATOM      9  C   UNL     1      11.914  13.340  11.364  1.00  0.00     0.041 C 
ATOM     10  O   UNL     1      11.861  12.154  10.949  1.00  0.00    -0.550 OA
ATOM     11  O   UNL     1      10.958  14.258  10.949  1.00  0.00    -0.550 OA
ENDBRANCH   8   9
ENDBRANCH   7   8
ENDBRANCH   6   7
ENDBRANCH   5   6
ENDBRANCH   4   5
ENDBRANCH   3   4
ENDBRANCH   2   3
ENDBRANCH   1   2
BRANCH   1  12
ATOM     12  C   UNL     1      13.075  10.259  14.802  1.00  0.00     0.000 C 
BRANCH  12  13
ATOM     13  C   UNL     1      12.791   8.901  15.463  1.00  0.00    -0.000 C 
BRANCH  13  14
ATOM     14  C   UNL     1      13.812   7.822  15.070  1.00  0.00    -0.000 C 
BRANCH  14  15
ATOM     15  C   UNL     1      13.585   6.533  15.875  1.00  0.00    -0.000 C 
BRANCH  15  16
ATOM     16  C   UNL     1      12.564   6.715  17.009  1.00  0.00    -0.000 C 
BRANCH  16  17
ATOM     17  C   UNL     1      12.728   5.669  18.126  1.00  0.00    -0.000 C 
BRANCH  17  18
ATOM     18  C   UNL     1      12.761   4.231  17.587  1.00  0.00    -0.000 C 
BRANCH  18  19
ATOM     19  C   UNL     1      12.457   3.187  18.671  1.00  0.00    -0.003 C 
ATOM     20  C   UNL     1      11.736   3.823  19.858  1.00  0.00     0.004 C 
ENDBRANCH  18  19
ENDBRANCH  17  18
ENDBRANCH  16  17
ENDBRANCH  15  16
ENDBRANCH  14  15
ENDBRANCH  13  14
ENDBRANCH  12  13
ENDBRANCH   1  12
TORSDOF 16
ENDMDL
MODEL 6
REMARK VINA RESULT:    -1.567      4.800     10.164
REMARK INTER + INTRA:          -3.867
REMARK INTER:                  -2.937
REMARK INTRA:                  -0.930
REMARK UNBOUND:                -0.833
REMARK SMILES CCCCCCCCCCCCCCCCCC(=O)[O-]
REMARK SMILES IDX 10 1 11 2 12 3 13 4 14 5 15 6 16 7 17 8 18 9 19 10 20 11
REMARK SMILES IDX 9 12 8 13 7 14 6 15 5 16 4 17 3 18 2 19 1 20
REMARK H PARENT
REMARK Flexibility Score: inf
ROOT
ATOM      1  C   UNL     1      14.289   7.930  15.149  1.00  0.00     0.000 C 
ENDROOT
BRANCH   1   2
ATOM      2  C   UNL     1      14.065   6.686  14.275  1.00  0.00     0.000 C 
BRANCH   2   3
ATOM      3  C   UNL     1      14.742   5.429  14.850  1.00  0.00     0.000 C 
BRANCH   3   4
ATOM      4  C   UNL     1      13.729   4.377  15.330  1.00  0.00     0.000 C 
BRANCH   4   5
ATOM      5  C   UNL     1      13.581   4.355  16.861  1.00  0.00     0.000 C 
BRANCH   5   6
ATOM      6  C   UNL     1      12.770   5.547  17.394  1.00  0.00     0.000 C 
BRANCH   6   7
ATOM      7  C   UNL     1      12.700   5.579  18.929  1.00  0.00     0.006 C 
BRANCH   7   8
ATOM      8  C   UNL     1      11.437   4.872  19.433  1.00  0.00     0.053 C 
BRANCH   8   9
ATOM      9  C   UNL     1      11.793   3.597  20.127  1.00  0.00     0.041 C 
ATOM     10  O   UNL     1      11.588   3.469  21.362  1.00  0.00    -0.550 OA
ATOM     11  O   UNL     1      12.307   2.530  19.401  1.00  0.00    -0.550 OA
ENDBRANCH   8   9
ENDBRANCH   7   8
ENDBRANCH   6   7
ENDBRANCH   5   6
ENDBRANCH   4   5
ENDBRANCH   3   4
ENDBRANCH   2   3
ENDBRANCH   1   2
BRANCH   1  12
ATOM     12  C   UNL     1      13.005   8.755  15.340  1.00  0.00     0.000 C 
BRANCH  12  13
ATOM     13  C   UNL     1      13.241  10.266  15.185  1.00  0.00    -0.000 C 
BRANCH  13  14
ATOM     14  C   UNL     1      12.129  10.964  14.389  1.00  0.00    -0.000 C 
BRANCH  14  15
ATOM     15  C   UNL     1      11.805  12.341  14.990  1.00  0.00    -0.000 C 
BRANCH  15  16
ATOM     16  C   UNL     1      13.023  12.993  15.663  1.00  0.00    -0.000 C 
BRANCH  16  17
ATOM     17  C   UNL     1      13.181  14.478  15.289  1.00  0.00    -0.000 C 
BRANCH  17  18
ATOM     18  C   UNL     1      13.246  14.699  13.769  1.00  0.00    -0.000 C 
BRANCH  18  19
ATOM     19  C   UNL     1      13.246  16.187  13.390  1.00  0.00    -0.003 C 
ATOM     20  C   UNL     1      13.416  16.370  11.884  1.00  0.00     0.004 C 
ENDBRANCH  18  19
ENDBRANCH  17  18
ENDBRANCH  16  17
ENDBRANCH  15  16
ENDBRANCH  14  15
ENDBRANCH  13  14
ENDBRANCH  12  13
ENDBRANCH   1  12
TORSDOF 16
ENDMDL
MODEL 7
REMARK VINA RESULT:    -1.535      1.937      4.291
REMARK INTER + INTRA:          -3.805
REMARK INTER:                  -2.893
REMARK INTRA:                  -0.912
REMARK UNBOUND:                -0.833
REMARK SMILES CCCCCCCCCCCCCCCCCC(=O)[O-]
REMARK SMILES IDX 10 1 11 2 12 3 13 4 14 5 15 6 16 7 17 8 18 9 19 10 20 11
REMARK SMILES IDX 9 12 8 13 7 14 6 15 5 16 4 17 3 18 2 19 1 20
REMARK H PARENT
REMARK Flexibility Score: inf
ROOT
ATOM      1  C   UNL     1      13.203   7.391  15.361  1.00  0.00     0.000 C 
ENDROOT
BRANCH   1   2
ATOM      2  C   UNL     1      13.667   8.856  15.402  1.00  0.00     0.000 C 
BRANCH   2   3
ATOM      3  C   UNL     1      12.550   9.842  15.017  1.00  0.00     0.000 C 
BRANCH   3   4
ATOM      4  C   UNL     1      12.989  11.310  15.134  1.00  0.00     0.000 C 
BRANCH   4   5
ATOM      5  C   UNL     1      11.931  12.288  14.594  1.00  0.00     0.000 C 
BRANCH   5   6
ATOM      6  C   UNL     1      11.796  12.226  13.064  1.00  0.00     0.000 C 
BRANCH   6   7
ATOM      7  C   UNL     1      12.564  13.350  12.353  1.00  0.00     0.006 C 
BRANCH   7   8
ATOM      8  C   UNL     1      13.315  14.223  13.364  1.00  0.00     0.053 C 
BRANCH   8   9
ATOM      9  C   UNL     1      13.318  15.652  12.922  1.00  0.00     0.041 C 
ATOM     10  O   UNL     1      13.417  16.577  13.770  1.00  0.00    -0.550 OA
ATOM     11  O   UNL     1      13.259  15.962  11.570  1.00  0.00    -0.550 OA
ENDBRANCH   8   9
ENDBRANCH   7   8
ENDBRANCH   6   7
ENDBRANCH   5   6
ENDBRANCH   4   5
ENDBRANCH   3   4
ENDBRANCH   2   3
ENDBRANCH   1   2
BRANCH   1  12
ATOM     12  C   UNL     1      12.502   6.959  16.660  1.00  0.00     0.000 C 
BRANCH  12  13
ATOM     13  C   UNL     1      12.982   5.590  17.166  1.00  0.00    -0.000 C 
BRANCH  13  14
ATOM     14  C   UNL     1      13.295   4.609  16.026  1.00  0.00    -0.000 C 
BRANCH  14  15
ATOM     15  C   UNL     1      14.618   3.872  16.284  1.00  0.00    -0.000 C 
BRANCH  15  16
ATOM     16  C   UNL     1      15.716   4.260  15.281  1.00  0.00    -0.000 C 
BRANCH  16  17
ATOM     17  C   UNL     1      15.145   4.746  13.937  1.00  0.00    -0.000 C 
BRANCH  17  18
ATOM     18  C   UNL     1      16.180   4.693  12.803  1.00  0.00    -0.000 C 
BRANCH  18  19
ATOM     19  C   UNL     1      15.584   4.177  11.485  1.00  0.00    -0.003 C 
ATOM     20  C   UNL     1      14.164   4.699  11.282  1.00  0.00     0.004 C 
ENDBRANCH  18  19
ENDBRANCH  17  18
ENDBRANCH  16  17
ENDBRANCH  15  16
ENDBRANCH  14  15
ENDBRANCH  13  14
ENDBRANCH  12  13
ENDBRANCH   1  12
TORSDOF 16
ENDMDL
MODEL 8
REMARK VINA RESULT:    -1.531      4.216      9.510
REMARK INTER + INTRA:          -3.796
REMARK INTER:                  -3.234
REMARK INTRA:                  -0.562
REMARK UNBOUND:                -0.833
REMARK SMILES CCCCCCCCCCCCCCCCCC(=O)[O-]
REMARK SMILES IDX 10 1 11 2 12 3 13 4 14 5 15 6 16 7 17 8 18 9 19 10 20 11
REMARK SMILES IDX 9 12 8 13 7 14 6 15 5 16 4 17 3 18 2 19 1 20
REMARK H PARENT
REMARK Flexibility Score: inf
ROOT
ATOM      1  C   UNL     1      12.188   6.969  16.612  1.00  0.00     0.000 C 
ENDROOT
BRANCH   1   2
ATOM      2  C   UNL     1      12.551   6.321  17.958  1.00  0.00     0.000 C 
BRANCH   2   3
ATOM      3  C   UNL     1      13.304   4.989  17.790  1.00  0.00     0.000 C 
BRANCH   3   4
ATOM      4  C   UNL     1      13.201   4.427  16.363  1.00  0.00     0.000 C 
BRANCH   4   5
ATOM      5  C   UNL     1      14.573   4.299  15.678  1.00  0.00     0.000 C 
BRANCH   5   6
ATOM      6  C   UNL     1      14.803   5.381  14.610  1.00  0.00     0.000 C 
BRANCH   6   7
ATOM      7  C   UNL     1      15.482   4.833  13.346  1.00  0.00     0.006 C 
BRANCH   7   8
ATOM      8  C   UNL     1      17.000   4.751  13.532  1.00  0.00     0.053 C 
BRANCH   8   9
ATOM      9  C   UNL     1      17.614   3.897  12.468  1.00  0.00     0.041 C 
ATOM     10  O   UNL     1      18.764   3.413  12.629  1.00  0.00    -0.550 OA
ATOM     11  O   UNL     1      16.895   3.597  11.318  1.00  0.00    -0.550 OA
ENDBRANCH   8   9
ENDBRANCH   7   8
ENDBRANCH   6   7
ENDBRANCH   5   6
ENDBRANCH   4   5
ENDBRANCH   3   4
ENDBRANCH   2   3
ENDBRANCH   1   2
BRANCH   1  12
ATOM     12  C   UNL     1      13.331   7.827  16.045  1.00  0.00     0.000 C 
BRANCH  12  13
ATOM     13  C   UNL     1      12.852   8.822  14.975  1.00  0.00    -0.000 C 
BRANCH  13  14
ATOM     14  C   UNL     1      13.131  10.284  15.354  1.00  0.00    -0.000 C 
BRANCH  14  15
ATOM     15  C   UNL     1      12.132  11.229  14.668  1.00  0.00    -0.000 C 
BRANCH  15  16
ATOM     16  C   UNL     1      12.797  12.507  14.134  1.00  0.00    -0.000 C 
BRANCH  16  17
ATOM     17  C   UNL     1      12.914  13.605  15.205  1.00  0.00    -0.000 C 
BRANCH  17  18
ATOM     18  C   UNL     1      13.152  14.997  14.600  1.00  0.00    -0.000 C 
BRANCH  18  19
ATOM     19  C   UNL     1      13.154  14.980  13.064  1.00  0.00    -0.003 C 
ATOM     20  C   UNL     1      13.611  16.323  12.500  1.00  0.00     0.004 C 
ENDBRANCH  18  19
ENDBRANCH  17  18
ENDBRANCH  16  17
ENDBRANCH  15  16
ENDBRANCH  14  15
ENDBRANCH  13  14
ENDBRANCH  12  13
ENDBRANCH   1  12
TORSDOF 16
ENDMDL
MODEL 9
REMARK VINA RESULT:    -1.371      3.788      9.515
REMARK INTER + INTRA:          -3.487
REMARK INTER:                  -2.701
REMARK INTRA:                  -0.786
REMARK UNBOUND:                -0.833
REMARK SMILES CCCCCCCCCCCCCCCCCC(=O)[O-]
REMARK SMILES IDX 10 1 11 2 12 3 13 4 14 5 15 6 16 7 17 8 18 9 19 10 20 11
REMARK SMILES IDX 9 12 8 13 7 14 6 15 5 16 4 17 3 18 2 19 1 20
REMARK H PARENT
REMARK Flexibility Score: inf
ROOT
ATOM      1  C   UNL     1      13.426   7.465  15.430  1.00  0.00     0.000 C 
ENDROOT
BRANCH   1   2
ATOM      2  C   UNL     1      12.707   7.305  16.779  1.00  0.00     0.000 C 
BRANCH   2   3
ATOM      3  C   UNL     1      12.880   5.898  17.379  1.00  0.00     0.000 C 
BRANCH   3   4
ATOM      4  C   UNL     1      12.871   4.794  16.309  1.00  0.00     0.000 C 
BRANCH   4   5
ATOM      5  C   UNL     1      14.025   3.792  16.486  1.00  0.00     0.000 C 
BRANCH   5   6
ATOM      6  C   UNL     1      15.230   4.113  15.586  1.00  0.00     0.000 C 
BRANCH   6   7
ATOM      7  C   UNL     1      14.822   4.786  14.266  1.00  0.00     0.006 C 
BRANCH   7   8
ATOM      8  C   UNL     1      16.007   4.850  13.297  1.00  0.00     0.053 C 
BRANCH   8   9
ATOM      9  C   UNL     1      15.587   4.424  11.926  1.00  0.00     0.041 C 
ATOM     10  O   UNL     1      16.335   3.684  11.235  1.00  0.00    -0.550 OA
ATOM     11  O   UNL     1      14.347   4.804  11.430  1.00  0.00    -0.550 OA
ENDBRANCH   8   9
ENDBRANCH   7   8
ENDBRANCH   6   7
ENDBRANCH   5   6
ENDBRANCH   4   5
ENDBRANCH   3   4
ENDBRANCH   2   3
ENDBRANCH   1   2
BRANCH   1  12
ATOM     12  C   UNL     1      13.682   8.938  15.070  1.00  0.00     0.000 C 
BRANCH  12  13
ATOM     13  C   UNL     1      12.467   9.837  15.349  1.00  0.00    -0.000 C 
BRANCH  13  14
ATOM     14  C   UNL     1      12.470  11.121  14.505  1.00  0.00    -0.000 C 
BRANCH  14  15
ATOM     15  C   UNL     1      12.062  12.336  15.353  1.00  0.00    -0.000 C 
BRANCH  15  16
ATOM     16  C   UNL     1      13.164  13.406  15.423  1.00  0.00    -0.000 C 
BRANCH  16  17
ATOM     17  C   UNL     1      13.397  14.103  14.071  1.00  0.00    -0.000 C 
BRANCH  17  18
ATOM     18  C   UNL     1      13.207  15.626  14.152  1.00  0.00    -0.000 C 
BRANCH  18  19
ATOM     19  C   UNL     1      13.679  16.347  12.881  1.00  0.00    -0.003 C 
ATOM     20  C   UNL     1      12.988  15.785  11.641  1.00  0.00     0.004 C 
ENDBRANCH  18  19
ENDBRANCH  17  18
ENDBRANCH  16  17
ENDBRANCH  15  16
ENDBRANCH  14  15
ENDBRANCH  13  14
ENDBRANCH  12  13
ENDBRANCH   1  12
TORSDOF 16
ENDMDL
