MODEL 1
REMARK VINA RESULT:    -4.079      0.000      0.000
REMARK INTER + INTRA:          -5.246
REMARK INTER:                  -4.913
REMARK INTRA:                  -0.333
REMARK UNBOUND:                -0.333
REMARK SMILES O=c1c(O)c(-c2ccc(O)c(O)c2)oc2cc(O)cc(O)c12
REMARK SMILES IDX 5 1 3 2 2 3 1 4 22 5 20 6 19 7 17 8 16 9 15 10 14 11 6 12
REMARK SMILES IDX 7 13 8 14 9 15 13 16 11 17 10 18 12 20 4 22 21 24 18 26
REMARK H PARENT 10 19 12 21 4 23 21 25 18 27
REMARK Flexibility Score: inf
ROOT
ATOM      1  C   UNL     1      73.197  75.514  78.920  1.00  0.00     0.180 A 
ATOM      2  C   UNL     1      73.391  74.127  78.806  1.00  0.00     0.208 A 
ATOM      3  C   UNL     1      73.301  73.330  79.958  1.00  0.00     0.238 A 
ATOM      4  O   UNL     1      73.423  72.083  79.841  1.00  0.00    -0.285 OA
ATOM      5  C   UNL     1      73.034  73.931  81.212  1.00  0.00     0.111 A 
ATOM      6  C   UNL     1      72.959  73.225  82.449  1.00  0.00     0.134 A 
ATOM      7  C   UNL     1      72.559  73.902  83.607  1.00  0.00     0.093 A 
ATOM      8  C   UNL     1      72.294  75.274  83.585  1.00  0.00     0.123 A 
ATOM      9  C   UNL     1      72.421  75.983  82.393  1.00  0.00     0.094 A 
ATOM     10  C   UNL     1      72.783  75.328  81.214  1.00  0.00     0.146 A 
ATOM     11  O   UNL     1      72.882  76.039  80.098  1.00  0.00    -0.452 OA
ENDROOT
BRANCH   1  12
ATOM     12  C   UNL     1      73.301  76.422  77.754  1.00  0.00     0.025 A 
ATOM     13  C   UNL     1      72.138  76.787  77.057  1.00  0.00     0.016 A 
ATOM     14  C   UNL     1      72.210  77.660  75.968  1.00  0.00     0.051 A 
ATOM     15  C   UNL     1      73.439  78.192  75.568  1.00  0.00     0.157 A 
ATOM     16  C   UNL     1      74.534  76.976  77.364  1.00  0.00     0.062 A 
ATOM     17  C   UNL     1      74.608  77.853  76.272  1.00  0.00     0.158 A 
BRANCH  15  18
ATOM     18  O   UNL     1      73.481  79.058  74.477  1.00  0.00    -0.504 OA
ATOM     19  H   UNL     1      74.052  79.895  74.475  1.00  0.00     0.293 HD
ENDBRANCH  15  18
BRANCH  17  20
ATOM     20  O   UNL     1      75.835  78.392  75.889  1.00  0.00    -0.504 OA
ATOM     21  H   UNL     1      75.924  79.360  75.604  1.00  0.00     0.293 HD
ENDBRANCH  17  20
ENDBRANCH   1  12
BRANCH   2  22
ATOM     22  O   UNL     1      73.633  73.552  77.555  1.00  0.00    -0.502 OA
ATOM     23  H   UNL     1      74.566  73.450  77.174  1.00  0.00     0.293 HD
ENDBRANCH   2  22
BRANCH   6  24
ATOM     24  O   UNL     1      73.293  71.875  82.600  1.00  0.00    -0.507 OA
ATOM     25  H   UNL     1      73.083  71.320  83.415  1.00  0.00     0.293 HD
ENDBRANCH   6  24
BRANCH   8  26
ATOM     26  O   UNL     1      71.911  75.942  84.745  1.00  0.00    -0.508 OA
ATOM     27  H   UNL     1      71.031  75.743  85.206  1.00  0.00     0.293 HD
ENDBRANCH   8  26
TORSDOF 6
ENDMDL
MODEL 2
REMARK VINA RESULT:    -4.000      3.296      5.301
REMARK INTER + INTRA:          -5.151
REMARK INTER:                  -4.981
REMARK INTRA:                  -0.171
REMARK UNBOUND:                -0.333
REMARK SMILES O=c1c(O)c(-c2ccc(O)c(O)c2)oc2cc(O)cc(O)c12
REMARK SMILES IDX 5 1 3 2 2 3 1 4 22 5 20 6 19 7 17 8 16 9 15 10 14 11 6 12
REMARK SMILES IDX 7 13 8 14 9 15 13 16 11 17 10 18 12 20 4 22 21 24 18 26
REMARK H PARENT 10 19 12 21 4 23 21 25 18 27
REMARK Flexibility Score: inf
ROOT
ATOM      1  C   UNL     1      74.570  74.684  82.054  1.00  0.00     0.180 A 
ATOM      2  C   UNL     1      73.989  74.251  83.258  1.00  0.00     0.208 A 
ATOM      3  C   UNL     1      74.419  74.823  84.466  1.00  0.00     0.238 A 
ATOM      4  O   UNL     1      73.857  74.470  85.535  1.00  0.00    -0.285 OA
ATOM      5  C   UNL     1      75.436  75.808  84.457  1.00  0.00     0.111 A 
ATOM      6  C   UNL     1      75.975  76.426  85.624  1.00  0.00     0.134 A 
ATOM      7  C   UNL     1      76.885  77.482  85.489  1.00  0.00     0.093 A 
ATOM      8  C   UNL     1      77.323  77.898  84.229  1.00  0.00     0.123 A 
ATOM      9  C   UNL     1      76.846  77.262  83.086  1.00  0.00     0.094 A 
ATOM     10  C   UNL     1      75.911  76.229  83.188  1.00  0.00     0.146 A 
ATOM     11  O   UNL     1      75.474  75.657  82.073  1.00  0.00    -0.452 OA
ENDROOT
BRANCH   1  12
ATOM     12  C   UNL     1      74.187  74.111  80.743  1.00  0.00     0.025 A 
ATOM     13  C   UNL     1      74.455  72.759  80.475  1.00  0.00     0.016 A 
ATOM     14  C   UNL     1      74.083  72.192  79.254  1.00  0.00     0.051 A 
ATOM     15  C   UNL     1      73.424  72.960  78.289  1.00  0.00     0.157 A 
ATOM     16  C   UNL     1      73.505  74.876  79.780  1.00  0.00     0.062 A 
ATOM     17  C   UNL     1      73.128  74.308  78.555  1.00  0.00     0.158 A 
BRANCH  15  18
ATOM     18  O   UNL     1      73.066  72.367  77.079  1.00  0.00    -0.504 OA
ATOM     19  H   UNL     1      73.571  72.551  76.220  1.00  0.00     0.293 HD
ENDBRANCH  15  18
BRANCH  17  20
ATOM     20  O   UNL     1      72.458  75.076  77.603  1.00  0.00    -0.504 OA
ATOM     21  H   UNL     1      72.110  76.002  77.818  1.00  0.00     0.293 HD
ENDBRANCH  17  20
ENDBRANCH   1  12
BRANCH   2  22
ATOM     22  O   UNL     1      72.972  73.293  83.243  1.00  0.00    -0.502 OA
ATOM     23  H   UNL     1      72.291  73.234  82.495  1.00  0.00     0.293 HD
ENDBRANCH   2  22
BRANCH   6  24
ATOM     24  O   UNL     1      75.676  76.025  86.930  1.00  0.00    -0.507 OA
ATOM     25  H   UNL     1      74.787  76.167  87.384  1.00  0.00     0.293 HD
ENDBRANCH   6  24
BRANCH   8  26
ATOM     26  O   UNL     1      78.240  78.939  84.104  1.00  0.00    -0.508 OA
ATOM     27  H   UNL     1      79.140  78.913  84.570  1.00  0.00     0.293 HD
ENDBRANCH   8  26
TORSDOF 6
ENDMDL
MODEL 3
REMARK VINA RESULT:    -3.999      3.700      6.835
REMARK INTER + INTRA:          -5.150
REMARK INTER:                  -4.854
REMARK INTRA:                  -0.296
REMARK UNBOUND:                -0.333
REMARK SMILES O=c1c(O)c(-c2ccc(O)c(O)c2)oc2cc(O)cc(O)c12
REMARK SMILES IDX 5 1 3 2 2 3 1 4 22 5 20 6 19 7 17 8 16 9 15 10 14 11 6 12
REMARK SMILES IDX 7 13 8 14 9 15 13 16 11 17 10 18 12 20 4 22 21 24 18 26
REMARK H PARENT 10 19 12 21 4 23 21 25 18 27
REMARK Flexibility Score: inf
ROOT
ATOM      1  C   UNL     1      74.559  74.477  82.393  1.00  0.00     0.180 A 
ATOM      2  C   UNL     1      75.936  74.195  82.386  1.00  0.00     0.208 A 
ATOM      3  C   UNL     1      76.488  73.526  81.283  1.00  0.00     0.238 A 
ATOM      4  O   UNL     1      77.731  73.324  81.259  1.00  0.00    -0.285 OA
ATOM      5  C   UNL     1      75.656  73.131  80.208  1.00  0.00     0.111 A 
ATOM      6  C   UNL     1      76.102  72.413  79.059  1.00  0.00     0.134 A 
ATOM      7  C   UNL     1      75.217  72.191  77.997  1.00  0.00     0.093 A 
ATOM      8  C   UNL     1      73.884  72.605  78.071  1.00  0.00     0.123 A 
ATOM      9  C   UNL     1      73.425  73.255  79.214  1.00  0.00     0.094 A 
ATOM     10  C   UNL     1      74.293  73.522  80.274  1.00  0.00     0.146 A 
ATOM     11  O   UNL     1      73.817  74.154  81.340  1.00  0.00    -0.452 OA
ENDROOT
BRANCH   1  12
ATOM     12  C   UNL     1      73.900  75.158  83.531  1.00  0.00     0.025 A 
ATOM     13  C   UNL     1      73.256  74.391  84.516  1.00  0.00     0.016 A 
ATOM     14  C   UNL     1      72.647  75.011  85.610  1.00  0.00     0.051 A 
ATOM     15  C   UNL     1      72.683  76.403  85.745  1.00  0.00     0.157 A 
ATOM     16  C   UNL     1      73.954  76.556  83.680  1.00  0.00     0.062 A 
ATOM     17  C   UNL     1      73.344  77.180  84.778  1.00  0.00     0.158 A 
BRANCH  15  18
ATOM     18  O   UNL     1      72.064  76.994  86.845  1.00  0.00    -0.504 OA
ATOM     19  H   UNL     1      71.593  77.888  86.781  1.00  0.00     0.293 HD
ENDBRANCH  15  18
BRANCH  17  20
ATOM     20  O   UNL     1      73.397  78.566  84.914  1.00  0.00    -0.504 OA
ATOM     21  H   UNL     1      72.746  79.067  85.507  1.00  0.00     0.293 HD
ENDBRANCH  17  20
ENDBRANCH   1  12
BRANCH   2  22
ATOM     22  O   UNL     1      76.743  74.612  83.448  1.00  0.00    -0.502 OA
ATOM     23  H   UNL     1      77.352  73.978  83.951  1.00  0.00     0.293 HD
ENDBRANCH   2  22
BRANCH   6  24
ATOM     24  O   UNL     1      77.385  71.875  78.924  1.00  0.00    -0.507 OA
ATOM     25  H   UNL     1      77.938  71.511  79.685  1.00  0.00     0.293 HD
ENDBRANCH   6  24
BRANCH   8  26
ATOM     26  O   UNL     1      73.007  72.366  77.016  1.00  0.00    -0.508 OA
ATOM     27  H   UNL     1      73.143  72.791  76.106  1.00  0.00     0.293 HD
ENDBRANCH   8  26
TORSDOF 6
ENDMDL
MODEL 4
REMARK VINA RESULT:    -3.970      3.220      4.520
REMARK INTER + INTRA:          -5.115
REMARK INTER:                  -4.793
REMARK INTRA:                  -0.323
REMARK UNBOUND:                -0.333
REMARK SMILES O=c1c(O)c(-c2ccc(O)c(O)c2)oc2cc(O)cc(O)c12
REMARK SMILES IDX 5 1 3 2 2 3 1 4 22 5 20 6 19 7 17 8 16 9 15 10 14 11 6 12
REMARK SMILES IDX 7 13 8 14 9 15 13 16 11 17 10 18 12 20 4 22 21 24 18 26
REMARK H PARENT 10 19 12 21 4 23 21 25 18 27
REMARK Flexibility Score: inf
ROOT
ATOM      1  C   UNL     1      75.058  73.664  81.079  1.00  0.00     0.180 A 
ATOM      2  C   UNL     1      73.815  73.127  81.455  1.00  0.00     0.208 A 
ATOM      3  C   UNL     1      73.279  73.463  82.708  1.00  0.00     0.238 A 
ATOM      4  O   UNL     1      72.141  73.021  83.016  1.00  0.00    -0.285 OA
ATOM      5  C   UNL     1      73.998  74.318  83.577  1.00  0.00     0.111 A 
ATOM      6  C   UNL     1      73.569  74.692  84.885  1.00  0.00     0.134 A 
ATOM      7  C   UNL     1      74.297  75.648  85.604  1.00  0.00     0.093 A 
ATOM      8  C   UNL     1      75.475  76.193  85.088  1.00  0.00     0.123 A 
ATOM      9  C   UNL     1      75.934  75.790  83.837  1.00  0.00     0.094 A 
ATOM     10  C   UNL     1      75.210  74.865  83.081  1.00  0.00     0.146 A 
ATOM     11  O   UNL     1      75.677  74.516  81.888  1.00  0.00    -0.452 OA
ENDROOT
BRANCH   1  12
ATOM     12  C   UNL     1      75.699  73.337  79.785  1.00  0.00     0.025 A 
ATOM     13  C   UNL     1      76.537  72.215  79.693  1.00  0.00     0.016 A 
ATOM     14  C   UNL     1      77.135  71.875  78.477  1.00  0.00     0.051 A 
ATOM     15  C   UNL     1      76.893  72.641  77.332  1.00  0.00     0.157 A 
ATOM     16  C   UNL     1      75.440  74.094  78.627  1.00  0.00     0.062 A 
ATOM     17  C   UNL     1      76.038  73.753  77.405  1.00  0.00     0.158 A 
BRANCH  15  18
ATOM     18  O   UNL     1      77.506  72.279  76.133  1.00  0.00    -0.504 OA
ATOM     19  H   UNL     1      78.278  71.625  76.099  1.00  0.00     0.293 HD
ENDBRANCH  15  18
BRANCH  17  20
ATOM     20  O   UNL     1      75.781  74.513  76.265  1.00  0.00    -0.504 OA
ATOM     21  H   UNL     1      76.353  75.311  76.018  1.00  0.00     0.293 HD
ENDBRANCH  17  20
ENDBRANCH   1  12
BRANCH   2  22
ATOM     22  O   UNL     1      73.111  72.302  80.574  1.00  0.00    -0.502 OA
ATOM     23  H   UNL     1      73.210  72.370  79.568  1.00  0.00     0.293 HD
ENDBRANCH   2  22
BRANCH   6  24
ATOM     24  O   UNL     1      72.458  74.139  85.530  1.00  0.00    -0.507 OA
ATOM     25  H   UNL     1      72.446  73.236  85.978  1.00  0.00     0.293 HD
ENDBRANCH   6  24
BRANCH   8  26
ATOM     26  O   UNL     1      76.202  77.132  85.817  1.00  0.00    -0.508 OA
ATOM     27  H   UNL     1      76.444  76.977  86.789  1.00  0.00     0.293 HD
ENDBRANCH   8  26
TORSDOF 6
ENDMDL
MODEL 5
REMARK VINA RESULT:    -3.838      3.233      5.018
REMARK INTER + INTRA:          -4.957
REMARK INTER:                  -4.663
REMARK INTRA:                  -0.294
REMARK UNBOUND:                -0.333
REMARK SMILES O=c1c(O)c(-c2ccc(O)c(O)c2)oc2cc(O)cc(O)c12
REMARK SMILES IDX 5 1 3 2 2 3 1 4 22 5 20 6 19 7 17 8 16 9 15 10 14 11 6 12
REMARK SMILES IDX 7 13 8 14 9 15 13 16 11 17 10 18 12 20 4 22 21 24 18 26
REMARK H PARENT 10 19 12 21 4 23 21 25 18 27
REMARK Flexibility Score: inf
ROOT
ATOM      1  C   UNL     1      74.862  74.755  82.021  1.00  0.00     0.180 A 
ATOM      2  C   UNL     1      76.246  74.882  82.231  1.00  0.00     0.208 A 
ATOM      3  C   UNL     1      76.702  75.494  83.410  1.00  0.00     0.238 A 
ATOM      4  O   UNL     1      77.942  75.556  83.617  1.00  0.00    -0.285 OA
ATOM      5  C   UNL     1      75.770  75.985  84.356  1.00  0.00     0.111 A 
ATOM      6  C   UNL     1      76.120  76.656  85.564  1.00  0.00     0.134 A 
ATOM      7  C   UNL     1      75.119  76.982  86.488  1.00  0.00     0.093 A 
ATOM      8  C   UNL     1      73.774  76.719  86.216  1.00  0.00     0.123 A 
ATOM      9  C   UNL     1      73.417  76.116  85.012  1.00  0.00     0.094 A 
ATOM     10  C   UNL     1      74.396  75.747  84.087  1.00  0.00     0.146 A 
ATOM     11  O   UNL     1      74.014  75.165  82.957  1.00  0.00    -0.452 OA
ENDROOT
BRANCH   1  12
ATOM     12  C   UNL     1      74.305  74.144  80.792  1.00  0.00     0.025 A 
ATOM     13  C   UNL     1      74.233  72.746  80.687  1.00  0.00     0.016 A 
ATOM     14  C   UNL     1      73.692  72.148  79.546  1.00  0.00     0.051 A 
ATOM     15  C   UNL     1      73.201  72.936  78.500  1.00  0.00     0.157 A 
ATOM     16  C   UNL     1      73.791  74.935  79.748  1.00  0.00     0.062 A 
ATOM     17  C   UNL     1      73.246  74.337  78.603  1.00  0.00     0.158 A 
BRANCH  15  18
ATOM     18  O   UNL     1      72.669  72.312  77.373  1.00  0.00    -0.504 OA
ATOM     19  H   UNL     1      71.732  72.508  77.042  1.00  0.00     0.293 HD
ENDBRANCH  15  18
BRANCH  17  20
ATOM     20  O   UNL     1      72.745  75.129  77.571  1.00  0.00    -0.504 OA
ATOM     21  H   UNL     1      72.542  76.112  77.706  1.00  0.00     0.293 HD
ENDBRANCH  17  20
ENDBRANCH   1  12
BRANCH   2  22
ATOM     22  O   UNL     1      77.149  74.371  81.295  1.00  0.00    -0.502 OA
ATOM     23  H   UNL     1      77.617  73.482  81.420  1.00  0.00     0.293 HD
ENDBRANCH   2  22
BRANCH   6  24
ATOM     24  O   UNL     1      77.421  77.049  85.891  1.00  0.00    -0.507 OA
ATOM     25  H   UNL     1      78.251  76.746  85.406  1.00  0.00     0.293 HD
ENDBRANCH   6  24
BRANCH   8  26
ATOM     26  O   UNL     1      72.783  77.060  87.133  1.00  0.00    -0.508 OA
ATOM     27  H   UNL     1      72.013  76.434  87.340  1.00  0.00     0.293 HD
ENDBRANCH   8  26
TORSDOF 6
ENDMDL
MODEL 6
REMARK VINA RESULT:    -3.804     22.402     24.028
REMARK INTER + INTRA:          -4.916
REMARK INTER:                  -4.882
REMARK INTRA:                  -0.033
REMARK UNBOUND:                -0.333
REMARK SMILES O=c1c(O)c(-c2ccc(O)c(O)c2)oc2cc(O)cc(O)c12
REMARK SMILES IDX 5 1 3 2 2 3 1 4 22 5 20 6 19 7 17 8 16 9 15 10 14 11 6 12
REMARK SMILES IDX 7 13 8 14 9 15 13 16 11 17 10 18 12 20 4 22 21 24 18 26
REMARK H PARENT 10 19 12 21 4 23 21 25 18 27
REMARK Flexibility Score: inf
ROOT
ATOM      1  C   UNL     1      90.877  85.277  90.624  1.00  0.00     0.180 A 
ATOM      2  C   UNL     1      90.888  85.628  89.263  1.00  0.00     0.208 A 
ATOM      3  C   UNL     1      90.755  86.979  88.908  1.00  0.00     0.238 A 
ATOM      4  O   UNL     1      90.819  87.292  87.690  1.00  0.00    -0.285 OA
ATOM      5  C   UNL     1      90.596  87.961  89.915  1.00  0.00     0.111 A 
ATOM      6  C   UNL     1      90.412  89.354  89.667  1.00  0.00     0.134 A 
ATOM      7  C   UNL     1      90.397  90.250  90.742  1.00  0.00     0.093 A 
ATOM      8  C   UNL     1      90.493  89.797  92.060  1.00  0.00     0.123 A 
ATOM      9  C   UNL     1      90.613  88.433  92.315  1.00  0.00     0.094 A 
ATOM     10  C   UNL     1      90.668  87.517  91.261  1.00  0.00     0.146 A 
ATOM     11  O   UNL     1      90.794  86.227  91.547  1.00  0.00    -0.452 OA
ENDROOT
BRANCH   1  12
ATOM     12  C   UNL     1      90.989  83.871  91.076  1.00  0.00     0.025 A 
ATOM     13  C   UNL     1      91.903  83.541  92.089  1.00  0.00     0.016 A 
ATOM     14  C   UNL     1      92.010  82.225  92.546  1.00  0.00     0.051 A 
ATOM     15  C   UNL     1      91.196  81.222  92.010  1.00  0.00     0.157 A 
ATOM     16  C   UNL     1      90.155  82.865  90.553  1.00  0.00     0.062 A 
ATOM     17  C   UNL     1      90.260  81.544  91.012  1.00  0.00     0.158 A 
BRANCH  15  18
ATOM     18  O   UNL     1      91.326  79.918  92.483  1.00  0.00    -0.504 OA
ATOM     19  H   UNL     1      91.649  79.716  93.422  1.00  0.00     0.293 HD
ENDBRANCH  15  18
BRANCH  17  20
ATOM     20  O   UNL     1      89.434  80.552  90.483  1.00  0.00    -0.504 OA
ATOM     21  H   UNL     1      89.550  80.215  89.535  1.00  0.00     0.293 HD
ENDBRANCH  17  20
ENDBRANCH   1  12
BRANCH   2  22
ATOM     22  O   UNL     1      91.068  84.645  88.286  1.00  0.00    -0.502 OA
ATOM     23  H   UNL     1      91.980  84.274  88.049  1.00  0.00     0.293 HD
ENDBRANCH   2  22
BRANCH   6  24
ATOM     24  O   UNL     1      90.213  89.901  88.396  1.00  0.00    -0.507 OA
ATOM     25  H   UNL     1      89.722  89.443  87.644  1.00  0.00     0.293 HD
ENDBRANCH   6  24
BRANCH   8  26
ATOM     26  O   UNL     1      90.461  90.694  93.125  1.00  0.00    -0.508 OA
ATOM     27  H   UNL     1      91.229  90.763  93.783  1.00  0.00     0.293 HD
ENDBRANCH   8  26
TORSDOF 6
ENDMDL
MODEL 7
REMARK VINA RESULT:    -3.776     17.240     18.890
REMARK INTER + INTRA:          -4.882
REMARK INTER:                  -4.553
REMARK INTRA:                  -0.329
REMARK UNBOUND:                -0.333
REMARK SMILES O=c1c(O)c(-c2ccc(O)c(O)c2)oc2cc(O)cc(O)c12
REMARK SMILES IDX 5 1 3 2 2 3 1 4 22 5 20 6 19 7 17 8 16 9 15 10 14 11 6 12
REMARK SMILES IDX 7 13 8 14 9 15 13 16 11 17 10 18 12 20 4 22 21 24 18 26
REMARK H PARENT 10 19 12 21 4 23 21 25 18 27
REMARK Flexibility Score: inf
ROOT
ATOM      1  C   UNL     1      85.715  87.525  75.090  1.00  0.00     0.180 A 
ATOM      2  C   UNL     1      85.663  87.806  76.466  1.00  0.00     0.208 A 
ATOM      3  C   UNL     1      84.976  88.951  76.902  1.00  0.00     0.238 A 
ATOM      4  O   UNL     1      84.887  89.168  78.139  1.00  0.00    -0.285 OA
ATOM      5  C   UNL     1      84.363  89.808  75.956  1.00  0.00     0.111 A 
ATOM      6  C   UNL     1      83.676  91.014  76.283  1.00  0.00     0.134 A 
ATOM      7  C   UNL     1      82.995  91.715  75.279  1.00  0.00     0.093 A 
ATOM      8  C   UNL     1      83.033  91.287  73.950  1.00  0.00     0.123 A 
ATOM      9  C   UNL     1      83.751  90.142  73.612  1.00  0.00     0.094 A 
ATOM     10  C   UNL     1      84.410  89.403  74.597  1.00  0.00     0.146 A 
ATOM     11  O   UNL     1      85.074  88.312  74.234  1.00  0.00    -0.452 OA
ENDROOT
BRANCH   1  12
ATOM     12  C   UNL     1      86.441  86.351  74.553  1.00  0.00     0.025 A 
ATOM     13  C   UNL     1      85.757  85.138  74.376  1.00  0.00     0.016 A 
ATOM     14  C   UNL     1      86.416  84.024  73.851  1.00  0.00     0.051 A 
ATOM     15  C   UNL     1      87.762  84.107  73.480  1.00  0.00     0.157 A 
ATOM     16  C   UNL     1      87.788  86.440  74.159  1.00  0.00     0.062 A 
ATOM     17  C   UNL     1      88.451  85.323  73.630  1.00  0.00     0.158 A 
BRANCH  15  18
ATOM     18  O   UNL     1      88.394  82.979  72.962  1.00  0.00    -0.504 OA
ATOM     19  H   UNL     1      87.879  82.238  72.501  1.00  0.00     0.293 HD
ENDBRANCH  15  18
BRANCH  17  20
ATOM     20  O   UNL     1      89.789  85.419  73.249  1.00  0.00    -0.504 OA
ATOM     21  H   UNL     1      90.263  86.312  73.196  1.00  0.00     0.293 HD
ENDBRANCH  17  20
ENDBRANCH   1  12
BRANCH   2  22
ATOM     22  O   UNL     1      86.256  86.936  77.384  1.00  0.00    -0.502 OA
ATOM     23  H   UNL     1      85.842  86.731  78.286  1.00  0.00     0.293 HD
ENDBRANCH   2  22
BRANCH   6  24
ATOM     24  O   UNL     1      83.653  91.579  77.562  1.00  0.00    -0.507 OA
ATOM     25  H   UNL     1      82.838  91.626  78.155  1.00  0.00     0.293 HD
ENDBRANCH   6  24
BRANCH   8  26
ATOM     26  O   UNL     1      82.367  91.998  72.955  1.00  0.00    -0.508 OA
ATOM     27  H   UNL     1      81.375  91.873  72.788  1.00  0.00     0.293 HD
ENDBRANCH   8  26
TORSDOF 6
ENDMDL
MODEL 8
REMARK VINA RESULT:    -3.733      3.679      4.377
REMARK INTER + INTRA:          -4.830
REMARK INTER:                  -4.507
REMARK INTRA:                  -0.322
REMARK UNBOUND:                -0.333
REMARK SMILES O=c1c(O)c(-c2ccc(O)c(O)c2)oc2cc(O)cc(O)c12
REMARK SMILES IDX 5 1 3 2 2 3 1 4 22 5 20 6 19 7 17 8 16 9 15 10 14 11 6 12
REMARK SMILES IDX 7 13 8 14 9 15 13 16 11 17 10 18 12 20 4 22 21 24 18 26
REMARK H PARENT 10 19 12 21 4 23 21 25 18 27
REMARK Flexibility Score: inf
ROOT
ATOM      1  C   UNL     1      75.670  73.635  78.181  1.00  0.00     0.180 A 
ATOM      2  C   UNL     1      74.292  73.611  78.452  1.00  0.00     0.208 A 
ATOM      3  C   UNL     1      73.853  73.803  79.772  1.00  0.00     0.238 A 
ATOM      4  O   UNL     1      72.615  73.834  79.999  1.00  0.00    -0.285 OA
ATOM      5  C   UNL     1      74.799  74.000  80.807  1.00  0.00     0.111 A 
ATOM      6  C   UNL     1      74.468  74.165  82.185  1.00  0.00     0.134 A 
ATOM      7  C   UNL     1      75.476  74.485  83.103  1.00  0.00     0.093 A 
ATOM      8  C   UNL     1      76.811  74.581  82.703  1.00  0.00     0.123 A 
ATOM      9  C   UNL     1      77.151  74.363  81.370  1.00  0.00     0.094 A 
ATOM     10  C   UNL     1      76.163  74.078  80.424  1.00  0.00     0.146 A 
ATOM     11  O   UNL     1      76.528  73.889  79.162  1.00  0.00    -0.452 OA
ENDROOT
BRANCH   1  12
ATOM     12  C   UNL     1      76.210  73.416  76.819  1.00  0.00     0.025 A 
ATOM     13  C   UNL     1      76.460  72.106  76.378  1.00  0.00     0.016 A 
ATOM     14  C   UNL     1      76.948  71.875  75.089  1.00  0.00     0.051 A 
ATOM     15  C   UNL     1      77.179  72.944  74.218  1.00  0.00     0.157 A 
ATOM     16  C   UNL     1      76.422  74.488  75.935  1.00  0.00     0.062 A 
ATOM     17  C   UNL     1      76.911  74.257  74.640  1.00  0.00     0.158 A 
BRANCH  15  18
ATOM     18  O   UNL     1      77.669  72.683  72.940  1.00  0.00    -0.504 OA
ATOM     19  H   UNL     1      77.892  73.425  72.287  1.00  0.00     0.293 HD
ENDBRANCH  15  18
BRANCH  17  20
ATOM     20  O   UNL     1      77.125  75.327  73.772  1.00  0.00    -0.504 OA
ATOM     21  H   UNL     1      77.184  76.281  74.109  1.00  0.00     0.293 HD
ENDBRANCH  17  20
ENDBRANCH   1  12
BRANCH   2  22
ATOM     22  O   UNL     1      73.374  73.435  77.412  1.00  0.00    -0.502 OA
ATOM     23  H   UNL     1      73.213  72.536  76.974  1.00  0.00     0.293 HD
ENDBRANCH   2  22
BRANCH   6  24
ATOM     24  O   UNL     1      73.181  73.999  82.705  1.00  0.00    -0.507 OA
ATOM     25  H   UNL     1      72.909  74.233  83.648  1.00  0.00     0.293 HD
ENDBRANCH   6  24
BRANCH   8  26
ATOM     26  O   UNL     1      77.810  74.885  83.625  1.00  0.00    -0.508 OA
ATOM     27  H   UNL     1      78.312  74.157  84.122  1.00  0.00     0.293 HD
ENDBRANCH   8  26
TORSDOF 6
ENDMDL
MODEL 9
REMARK VINA RESULT:    -3.682      4.234      8.437
REMARK INTER + INTRA:          -4.769
REMARK INTER:                  -4.452
REMARK INTRA:                  -0.316
REMARK UNBOUND:                -0.333
REMARK SMILES O=c1c(O)c(-c2ccc(O)c(O)c2)oc2cc(O)cc(O)c12
REMARK SMILES IDX 5 1 3 2 2 3 1 4 22 5 20 6 19 7 17 8 16 9 15 10 14 11 6 12
REMARK SMILES IDX 7 13 8 14 9 15 13 16 11 17 10 18 12 20 4 22 21 24 18 26
REMARK H PARENT 10 19 12 21 4 23 21 25 18 27
REMARK Flexibility Score: inf
ROOT
ATOM      1  C   UNL     1      76.319  74.000  77.044  1.00  0.00     0.180 A 
ATOM      2  C   UNL     1      76.109  75.311  76.582  1.00  0.00     0.208 A 
ATOM      3  C   UNL     1      76.806  75.751  75.445  1.00  0.00     0.238 A 
ATOM      4  O   UNL     1      76.574  76.908  75.005  1.00  0.00    -0.285 OA
ATOM      5  C   UNL     1      77.714  74.883  74.794  1.00  0.00     0.111 A 
ATOM      6  C   UNL     1      78.502  75.237  73.659  1.00  0.00     0.134 A 
ATOM      7  C   UNL     1      79.269  74.257  73.018  1.00  0.00     0.093 A 
ATOM      8  C   UNL     1      79.327  72.950  73.510  1.00  0.00     0.123 A 
ATOM      9  C   UNL     1      78.607  72.610  74.653  1.00  0.00     0.094 A 
ATOM     10  C   UNL     1      77.805  73.557  75.293  1.00  0.00     0.146 A 
ATOM     11  O   UNL     1      77.127  73.188  76.373  1.00  0.00    -0.452 OA
ENDROOT
BRANCH   1  12
ATOM     12  C   UNL     1      75.640  73.473  78.250  1.00  0.00     0.025 A 
ATOM     13  C   UNL     1      74.365  72.898  78.129  1.00  0.00     0.016 A 
ATOM     14  C   UNL     1      73.714  72.374  79.249  1.00  0.00     0.051 A 
ATOM     15  C   UNL     1      74.332  72.403  80.503  1.00  0.00     0.157 A 
ATOM     16  C   UNL     1      76.269  73.481  79.508  1.00  0.00     0.062 A 
ATOM     17  C   UNL     1      75.619  72.954  80.633  1.00  0.00     0.158 A 
BRANCH  15  18
ATOM     18  O   UNL     1      73.659  71.875  81.603  1.00  0.00    -0.504 OA
ATOM     19  H   UNL     1      72.648  71.876  81.666  1.00  0.00     0.293 HD
ENDBRANCH  15  18
BRANCH  17  20
ATOM     20  O   UNL     1      76.247  72.973  81.878  1.00  0.00    -0.504 OA
ATOM     21  H   UNL     1      75.724  72.867  82.739  1.00  0.00     0.293 HD
ENDBRANCH  17  20
ENDBRANCH   1  12
BRANCH   2  22
ATOM     22  O   UNL     1      75.192  76.145  77.227  1.00  0.00    -0.502 OA
ATOM     23  H   UNL     1      75.470  76.817  77.932  1.00  0.00     0.293 HD
ENDBRANCH   2  22
BRANCH   6  24
ATOM     24  O   UNL     1      78.589  76.533  73.142  1.00  0.00    -0.507 OA
ATOM     25  H   UNL     1      79.223  77.243  73.476  1.00  0.00     0.293 HD
ENDBRANCH   6  24
BRANCH   8  26
ATOM     26  O   UNL     1      80.105  71.985  72.875  1.00  0.00    -0.508 OA
ATOM     27  H   UNL     1      80.475  71.187  73.378  1.00  0.00     0.293 HD
ENDBRANCH   8  26
TORSDOF 6
ENDMDL
