MODEL 1
REMARK VINA RESULT:     1.992      0.000      0.000
REMARK INTER + INTRA:           2.955
REMARK INTER:                   3.739
REMARK INTRA:                  -0.785
REMARK UNBOUND:                -0.785
REMARK SMILES CCCCCCCCC=CCCCCCCCC(=O)[O-]
REMARK SMILES IDX 10 1 9 2 11 3 12 4 13 5 14 6 15 7 16 8 17 9 18 10 19 11
REMARK SMILES IDX 20 12 8 13 7 14 6 15 5 16 4 17 3 18 2 19 1 20
REMARK H PARENT
REMARK Flexibility Score: inf
ROOT
ATOM      1  C   UNL     1      10.139  11.018  26.467  1.00  0.00    -0.031 C 
ATOM      2  C   UNL     1       9.692  10.098  25.601  1.00  0.00    -0.031 C 
ENDROOT
BRANCH   1   3
ATOM      3  C   UNL     1      11.330  10.758  27.350  1.00  0.00     0.027 C 
BRANCH   3   4
ATOM      4  C   UNL     1      12.668  10.947  26.614  1.00  0.00     0.004 C 
BRANCH   4   5
ATOM      5  C   UNL     1      13.909  10.944  27.533  1.00  0.00     0.000 C 
BRANCH   5   6
ATOM      6  C   UNL     1      13.878   9.899  28.662  1.00  0.00     0.000 C 
BRANCH   6   7
ATOM      7  C   UNL     1      14.207  10.446  30.063  1.00  0.00     0.000 C 
BRANCH   7   8
ATOM      8  C   UNL     1      12.963  10.654  30.955  1.00  0.00     0.006 C 
BRANCH   8   9
ATOM      9  C   UNL     1      11.742   9.875  30.451  1.00  0.00     0.053 C 
BRANCH   9  10
ATOM     10  C   UNL     1      10.481  10.612  30.778  1.00  0.00     0.041 C 
ATOM     11  O   UNL     1      10.522  11.830  31.092  1.00  0.00    -0.550 OA
ATOM     12  O   UNL     1       9.265   9.939  30.784  1.00  0.00    -0.550 OA
ENDBRANCH   9  10
ENDBRANCH   8   9
ENDBRANCH   7   8
ENDBRANCH   6   7
ENDBRANCH   5   6
ENDBRANCH   4   5
ENDBRANCH   3   4
ENDBRANCH   1   3
BRANCH   2  13
ATOM     13  C   UNL     1       8.495  10.377  24.734  1.00  0.00     0.027 C 
BRANCH  13  14
ATOM     14  C   UNL     1       8.918  10.687  23.291  1.00  0.00     0.004 C 
BRANCH  14  15
ATOM     15  C   UNL     1      10.144   9.876  22.843  1.00  0.00     0.000 C 
BRANCH  15  16
ATOM     16  C   UNL     1      11.467  10.631  23.059  1.00  0.00     0.000 C 
BRANCH  16  17
ATOM     17  C   UNL     1      12.660   9.921  22.383  1.00  0.00    -0.000 C 
BRANCH  17  18
ATOM     18  C   UNL     1      13.996  10.120  23.125  1.00  0.00    -0.000 C 
BRANCH  18  19
ATOM     19  C   UNL     1      14.756  11.401  22.742  1.00  0.00    -0.003 C 
ATOM     20  C   UNL     1      13.992  12.265  21.739  1.00  0.00     0.004 C 
ENDBRANCH  18  19
ENDBRANCH  17  18
ENDBRANCH  16  17
ENDBRANCH  15  16
ENDBRANCH  14  15
ENDBRANCH  13  14
ENDBRANCH   2  13
TORSDOF 15
ENDMDL
MODEL 2
REMARK VINA RESULT:     2.975     20.165     21.569
REMARK INTER + INTRA:           4.799
REMARK INTER:                   6.103
REMARK INTRA:                  -1.304
REMARK UNBOUND:                -0.785
REMARK SMILES CCCCCCCCC=CCCCCCCCC(=O)[O-]
REMARK SMILES IDX 10 1 9 2 11 3 12 4 13 5 14 6 15 7 16 8 17 9 18 10 19 11
REMARK SMILES IDX 20 12 8 13 7 14 6 15 5 16 4 17 3 18 2 19 1 20
REMARK H PARENT
REMARK Flexibility Score: inf
ROOT
ATOM      1  C   UNL     1      -2.537  26.812  26.477  1.00  0.00    -0.031 C 
ATOM      2  C   UNL     1      -1.485  27.554  26.852  1.00  0.00    -0.031 C 
ENDROOT
BRANCH   1   3
ATOM      3  C   UNL     1      -3.669  26.512  27.422  1.00  0.00     0.027 C 
BRANCH   3   4
ATOM      4  C   UNL     1      -4.803  27.548  27.340  1.00  0.00     0.004 C 
BRANCH   4   5
ATOM      5  C   UNL     1      -4.369  28.997  27.649  1.00  0.00     0.000 C 
BRANCH   5   6
ATOM      6  C   UNL     1      -4.345  29.363  29.144  1.00  0.00     0.000 C 
BRANCH   6   7
ATOM      7  C   UNL     1      -2.941  29.434  29.772  1.00  0.00     0.000 C 
BRANCH   7   8
ATOM      8  C   UNL     1      -2.827  28.691  31.121  1.00  0.00     0.006 C 
BRANCH   8   9
ATOM      9  C   UNL     1      -3.356  27.254  31.046  1.00  0.00     0.053 C 
BRANCH   9  10
ATOM     10  C   UNL     1      -2.220  26.282  30.974  1.00  0.00     0.041 C 
ATOM     11  O   UNL     1      -2.446  25.044  30.974  1.00  0.00    -0.550 OA
ATOM     12  O   UNL     1      -0.910  26.744  30.958  1.00  0.00    -0.550 OA
ENDBRANCH   9  10
ENDBRANCH   8   9
ENDBRANCH   7   8
ENDBRANCH   6   7
ENDBRANCH   5   6
ENDBRANCH   4   5
ENDBRANCH   3   4
ENDBRANCH   1   3
BRANCH   2  13
ATOM     13  C   UNL     1      -0.362  27.835  25.892  1.00  0.00     0.027 C 
BRANCH  13  14
ATOM     14  C   UNL     1       0.871  26.982  26.219  1.00  0.00     0.004 C 
BRANCH  14  15
ATOM     15  C   UNL     1       2.124  27.430  25.449  1.00  0.00     0.000 C 
BRANCH  15  16
ATOM     16  C   UNL     1       1.969  28.827  24.823  1.00  0.00     0.000 C 
BRANCH  16  17
ATOM     17  C   UNL     1       2.796  28.980  23.528  1.00  0.00    -0.000 C 
BRANCH  17  18
ATOM     18  C   UNL     1       3.940  27.956  23.402  1.00  0.00    -0.000 C 
BRANCH  18  19
ATOM     19  C   UNL     1       4.926  28.236  22.255  1.00  0.00    -0.003 C 
ATOM     20  C   UNL     1       4.239  28.323  20.893  1.00  0.00     0.004 C 
ENDBRANCH  18  19
ENDBRANCH  17  18
ENDBRANCH  16  17
ENDBRANCH  15  16
ENDBRANCH  14  15
ENDBRANCH  13  14
ENDBRANCH   2  13
TORSDOF 15
ENDMDL
MODEL 3
REMARK VINA RESULT:     3.589     20.260     22.294
REMARK INTER + INTRA:           5.951
REMARK INTER:                   7.294
REMARK INTRA:                  -1.343
REMARK UNBOUND:                -0.785
REMARK SMILES CCCCCCCCC=CCCCCCCCC(=O)[O-]
REMARK SMILES IDX 10 1 9 2 11 3 12 4 13 5 14 6 15 7 16 8 17 9 18 10 19 11
REMARK SMILES IDX 20 12 8 13 7 14 6 15 5 16 4 17 3 18 2 19 1 20
REMARK H PARENT
REMARK Flexibility Score: inf
ROOT
ATOM      1  C   UNL     1      -2.997  27.468  26.971  1.00  0.00    -0.031 C 
ATOM      2  C   UNL     1      -3.577  28.668  27.124  1.00  0.00    -0.031 C 
ENDROOT
BRANCH   1   3
ATOM      3  C   UNL     1      -2.129  27.156  25.781  1.00  0.00     0.027 C 
BRANCH   3   4
ATOM      4  C   UNL     1      -0.777  27.889  25.822  1.00  0.00     0.004 C 
BRANCH   4   5
ATOM      5  C   UNL     1       0.419  27.001  26.225  1.00  0.00     0.000 C 
BRANCH   5   6
ATOM      6  C   UNL     1       1.762  27.389  25.582  1.00  0.00     0.000 C 
BRANCH   6   7
ATOM      7  C   UNL     1       1.841  28.838  25.067  1.00  0.00     0.000 C 
BRANCH   7   8
ATOM      8  C   UNL     1       2.691  28.996  23.788  1.00  0.00     0.006 C 
BRANCH   8   9
ATOM      9  C   UNL     1       3.854  27.998  23.728  1.00  0.00     0.053 C 
BRANCH   9  10
ATOM     10  C   UNL     1       4.512  28.042  22.385  1.00  0.00     0.041 C 
ATOM     11  O   UNL     1       5.680  28.498  22.266  1.00  0.00    -0.550 OA
ATOM     12  O   UNL     1       3.817  27.625  21.257  1.00  0.00    -0.550 OA
ENDBRANCH   9  10
ENDBRANCH   8   9
ENDBRANCH   7   8
ENDBRANCH   6   7
ENDBRANCH   5   6
ENDBRANCH   4   5
ENDBRANCH   3   4
ENDBRANCH   1   3
BRANCH   2  13
ATOM     13  C   UNL     1      -4.445  28.954  28.317  1.00  0.00     0.027 C 
BRANCH  13  14
ATOM     14  C   UNL     1      -3.636  29.607  29.446  1.00  0.00     0.004 C 
BRANCH  14  15
ATOM     15  C   UNL     1      -3.860  28.929  30.807  1.00  0.00     0.000 C 
BRANCH  15  16
ATOM     16  C   UNL     1      -4.433  27.508  30.675  1.00  0.00     0.000 C 
BRANCH  16  17
ATOM     17  C   UNL     1      -3.426  26.428  31.125  1.00  0.00    -0.000 C 
BRANCH  17  18
ATOM     18  C   UNL     1      -2.190  26.318  30.210  1.00  0.00    -0.000 C 
BRANCH  18  19
ATOM     19  C   UNL     1      -0.864  26.720  30.875  1.00  0.00    -0.003 C 
ATOM     20  C   UNL     1       0.061  25.527  31.118  1.00  0.00     0.004 C 
ENDBRANCH  18  19
ENDBRANCH  17  18
ENDBRANCH  16  17
ENDBRANCH  15  16
ENDBRANCH  14  15
ENDBRANCH  13  14
ENDBRANCH   2  13
TORSDOF 15
ENDMDL
MODEL 4
REMARK VINA RESULT:     3.815      3.907      5.952
REMARK INTER + INTRA:           6.375
REMARK INTER:                   7.093
REMARK INTRA:                  -0.718
REMARK UNBOUND:                -0.785
REMARK SMILES CCCCCCCCC=CCCCCCCCC(=O)[O-]
REMARK SMILES IDX 10 1 9 2 11 3 12 4 13 5 14 6 15 7 16 8 17 9 18 10 19 11
REMARK SMILES IDX 20 12 8 13 7 14 6 15 5 16 4 17 3 18 2 19 1 20
REMARK H PARENT
REMARK Flexibility Score: inf
ROOT
ATOM      1  C   UNL     1       9.452  10.626  24.026  1.00  0.00    -0.031 C 
ATOM      2  C   UNL     1       8.552  10.052  23.215  1.00  0.00    -0.031 C 
ENDROOT
BRANCH   1   3
ATOM      3  C   UNL     1      10.676   9.887  24.497  1.00  0.00     0.027 C 
BRANCH   3   4
ATOM      4  C   UNL     1      10.843   9.925  26.026  1.00  0.00     0.004 C 
BRANCH   4   5
ATOM      5  C   UNL     1      12.308   9.896  26.510  1.00  0.00     0.000 C 
BRANCH   5   6
ATOM      6  C   UNL     1      13.338  10.422  25.495  1.00  0.00     0.000 C 
BRANCH   6   7
ATOM      7  C   UNL     1      14.751  10.653  26.062  1.00  0.00     0.000 C 
BRANCH   7   8
ATOM      8  C   UNL     1      14.800  10.697  27.605  1.00  0.00     0.006 C 
BRANCH   8   9
ATOM      9  C   UNL     1      15.123  12.096  28.143  1.00  0.00     0.053 C 
BRANCH   9  10
ATOM     10  C   UNL     1      14.256  13.123  27.486  1.00  0.00     0.041 C 
ATOM     11  O   UNL     1      14.774  14.106  26.895  1.00  0.00    -0.550 OA
ATOM     12  O   UNL     1      12.873  13.021  27.570  1.00  0.00    -0.550 OA
ENDBRANCH   9  10
ENDBRANCH   8   9
ENDBRANCH   7   8
ENDBRANCH   6   7
ENDBRANCH   5   6
ENDBRANCH   4   5
ENDBRANCH   3   4
ENDBRANCH   1   3
BRANCH   2  13
ATOM     13  C   UNL     1       7.334  10.809  22.763  1.00  0.00     0.027 C 
BRANCH  13  14
ATOM     14  C   UNL     1       7.587  12.323  22.772  1.00  0.00     0.004 C 
BRANCH  14  15
ATOM     15  C   UNL     1       6.886  13.050  21.614  1.00  0.00     0.000 C 
BRANCH  15  16
ATOM     16  C   UNL     1       6.392  12.087  20.520  1.00  0.00     0.000 C 
BRANCH  16  17
ATOM     17  C   UNL     1       5.605  12.819  19.412  1.00  0.00    -0.000 C 
BRANCH  17  18
ATOM     18  C   UNL     1       5.394  11.971  18.143  1.00  0.00    -0.000 C 
BRANCH  18  19
ATOM     19  C   UNL     1       4.209  10.994  18.214  1.00  0.00    -0.003 C 
ATOM     20  C   UNL     1       2.962  11.525  17.508  1.00  0.00     0.004 C 
ENDBRANCH  18  19
ENDBRANCH  17  18
ENDBRANCH  16  17
ENDBRANCH  15  16
ENDBRANCH  14  15
ENDBRANCH  13  14
ENDBRANCH   2  13
TORSDOF 15
ENDMDL
MODEL 5
REMARK VINA RESULT:     4.031     21.002     22.785
REMARK INTER + INTRA:           6.781
REMARK INTER:                   3.614
REMARK INTRA:                   3.166
REMARK UNBOUND:                -0.785
REMARK SMILES CCCCCCCCC=CCCCCCCCC(=O)[O-]
REMARK SMILES IDX 10 1 9 2 11 3 12 4 13 5 14 6 15 7 16 8 17 9 18 10 19 11
REMARK SMILES IDX 20 12 8 13 7 14 6 15 5 16 4 17 3 18 2 19 1 20
REMARK H PARENT
REMARK Flexibility Score: inf
ROOT
ATOM      1  C   UNL     1      -1.626  27.808  30.887  1.00  0.00    -0.031 C 
ATOM      2  C   UNL     1      -2.787  27.164  31.070  1.00  0.00    -0.031 C 
ENDROOT
BRANCH   1   3
ATOM      3  C   UNL     1      -1.500  29.291  31.114  1.00  0.00     0.027 C 
BRANCH   3   4
ATOM      4  C   UNL     1      -2.491  30.109  30.267  1.00  0.00     0.004 C 
BRANCH   4   5
ATOM      5  C   UNL     1      -3.936  30.120  30.808  1.00  0.00     0.000 C 
BRANCH   5   6
ATOM      6  C   UNL     1      -4.996  29.560  29.842  1.00  0.00     0.000 C 
BRANCH   6   7
ATOM      7  C   UNL     1      -4.450  28.611  28.759  1.00  0.00     0.000 C 
BRANCH   7   8
ATOM      8  C   UNL     1      -4.825  29.031  27.321  1.00  0.00     0.006 C 
BRANCH   8   9
ATOM      9  C   UNL     1      -4.594  27.908  26.302  1.00  0.00     0.053 C 
BRANCH   9  10
ATOM     10  C   UNL     1      -4.227  26.636  26.999  1.00  0.00     0.041 C 
ATOM     11  O   UNL     1      -4.729  26.361  28.120  1.00  0.00    -0.550 OA
ATOM     12  O   UNL     1      -3.291  25.779  26.434  1.00  0.00    -0.550 OA
ENDBRANCH   9  10
ENDBRANCH   8   9
ENDBRANCH   7   8
ENDBRANCH   6   7
ENDBRANCH   5   6
ENDBRANCH   4   5
ENDBRANCH   3   4
ENDBRANCH   1   3
BRANCH   2  13
ATOM     13  C   UNL     1      -2.890  25.683  30.831  1.00  0.00     0.027 C 
BRANCH  13  14
ATOM     14  C   UNL     1      -1.516  25.008  30.943  1.00  0.00     0.004 C 
BRANCH  14  15
ATOM     15  C   UNL     1      -0.551  25.437  29.826  1.00  0.00     0.000 C 
BRANCH  15  16
ATOM     16  C   UNL     1      -1.281  25.966  28.580  1.00  0.00     0.000 C 
BRANCH  16  17
ATOM     17  C   UNL     1      -0.770  27.359  28.153  1.00  0.00    -0.000 C 
BRANCH  17  18
ATOM     18  C   UNL     1      -1.171  27.749  26.717  1.00  0.00    -0.000 C 
BRANCH  18  19
ATOM     19  C   UNL     1      -0.024  27.696  25.694  1.00  0.00    -0.003 C 
ATOM     20  C   UNL     1       1.171  26.882  26.188  1.00  0.00     0.004 C 
ENDBRANCH  18  19
ENDBRANCH  17  18
ENDBRANCH  16  17
ENDBRANCH  15  16
ENDBRANCH  14  15
ENDBRANCH  13  14
ENDBRANCH   2  13
TORSDOF 15
ENDMDL
MODEL 6
REMARK VINA RESULT:     4.078     20.413     21.788
REMARK INTER + INTRA:           6.869
REMARK INTER:                   7.710
REMARK INTRA:                  -0.841
REMARK UNBOUND:                -0.785
REMARK SMILES CCCCCCCCC=CCCCCCCCC(=O)[O-]
REMARK SMILES IDX 10 1 9 2 11 3 12 4 13 5 14 6 15 7 16 8 17 9 18 10 19 11
REMARK SMILES IDX 20 12 8 13 7 14 6 15 5 16 4 17 3 18 2 19 1 20
REMARK H PARENT
REMARK Flexibility Score: inf
ROOT
ATOM      1  C   UNL     1      -0.734  26.701  28.712  1.00  0.00    -0.031 C 
ATOM      2  C   UNL     1      -1.427  26.832  27.571  1.00  0.00    -0.031 C 
ENDROOT
BRANCH   1   3
ATOM      3  C   UNL     1      -1.342  26.073  29.937  1.00  0.00     0.027 C 
BRANCH   3   4
ATOM      4  C   UNL     1      -2.875  26.189  29.968  1.00  0.00     0.004 C 
BRANCH   4   5
ATOM      5  C   UNL     1      -3.420  27.187  31.011  1.00  0.00     0.000 C 
BRANCH   5   6
ATOM      6  C   UNL     1      -2.768  28.581  30.980  1.00  0.00     0.000 C 
BRANCH   6   7
ATOM      7  C   UNL     1      -3.679  29.714  30.475  1.00  0.00     0.000 C 
BRANCH   7   8
ATOM      8  C   UNL     1      -4.487  29.345  29.212  1.00  0.00     0.006 C 
BRANCH   8   9
ATOM      9  C   UNL     1      -3.595  29.150  27.980  1.00  0.00     0.053 C 
BRANCH   9  10
ATOM     10  C   UNL     1      -4.314  28.358  26.934  1.00  0.00     0.041 C 
ATOM     11  O   UNL     1      -4.730  27.198  27.192  1.00  0.00    -0.550 OA
ATOM     12  O   UNL     1      -4.478  28.881  25.657  1.00  0.00    -0.550 OA
ENDBRANCH   9  10
ENDBRANCH   8   9
ENDBRANCH   7   8
ENDBRANCH   6   7
ENDBRANCH   5   6
ENDBRANCH   4   5
ENDBRANCH   3   4
ENDBRANCH   1   3
BRANCH   2  13
ATOM     13  C   UNL     1      -0.801  27.469  26.362  1.00  0.00     0.027 C 
BRANCH  13  14
ATOM     14  C   UNL     1       0.654  27.012  26.186  1.00  0.00     0.004 C 
BRANCH  14  15
ATOM     15  C   UNL     1       1.518  28.051  25.453  1.00  0.00     0.000 C 
BRANCH  15  16
ATOM     16  C   UNL     1       2.743  27.424  24.765  1.00  0.00     0.000 C 
BRANCH  16  17
ATOM     17  C   UNL     1       3.305  28.323  23.642  1.00  0.00    -0.000 C 
BRANCH  17  18
ATOM     18  C   UNL     1       4.703  27.899  23.154  1.00  0.00    -0.000 C 
BRANCH  18  19
ATOM     19  C   UNL     1       5.077  28.414  21.755  1.00  0.00    -0.003 C 
ATOM     20  C   UNL     1       4.110  27.937  20.671  1.00  0.00     0.004 C 
ENDBRANCH  18  19
ENDBRANCH  17  18
ENDBRANCH  16  17
ENDBRANCH  15  16
ENDBRANCH  14  15
ENDBRANCH  13  14
ENDBRANCH   2  13
TORSDOF 15
ENDMDL
MODEL 7
REMARK VINA RESULT:     4.189     20.282     21.661
REMARK INTER + INTRA:           7.078
REMARK INTER:                   8.085
REMARK INTRA:                  -1.006
REMARK UNBOUND:                -0.785
REMARK SMILES CCCCCCCCC=CCCCCCCCC(=O)[O-]
REMARK SMILES IDX 10 1 9 2 11 3 12 4 13 5 14 6 15 7 16 8 17 9 18 10 19 11
REMARK SMILES IDX 20 12 8 13 7 14 6 15 5 16 4 17 3 18 2 19 1 20
REMARK H PARENT
REMARK Flexibility Score: inf
ROOT
ATOM      1  C   UNL     1      -3.532  28.388  27.813  1.00  0.00    -0.031 C 
ATOM      2  C   UNL     1      -3.483  28.118  26.501  1.00  0.00    -0.031 C 
ENDROOT
BRANCH   1   3
ATOM      3  C   UNL     1      -4.744  29.018  28.445  1.00  0.00     0.027 C 
BRANCH   3   4
ATOM      4  C   UNL     1      -4.383  30.017  29.558  1.00  0.00     0.004 C 
BRANCH   4   5
ATOM      5  C   UNL     1      -4.124  29.373  30.936  1.00  0.00     0.000 C 
BRANCH   5   6
ATOM      6  C   UNL     1      -4.552  27.899  31.055  1.00  0.00     0.000 C 
BRANCH   6   7
ATOM      7  C   UNL     1      -3.392  26.889  31.124  1.00  0.00     0.000 C 
BRANCH   7   8
ATOM      8  C   UNL     1      -1.998  27.534  30.966  1.00  0.00     0.006 C 
BRANCH   8   9
ATOM      9  C   UNL     1      -1.090  26.745  30.016  1.00  0.00     0.053 C 
BRANCH   9  10
ATOM     10  C   UNL     1      -0.260  25.762  30.781  1.00  0.00     0.041 C 
ATOM     11  O   UNL     1       0.922  26.048  31.106  1.00  0.00    -0.550 OA
ATOM     12  O   UNL     1      -0.776  24.510  31.091  1.00  0.00    -0.550 OA
ENDBRANCH   9  10
ENDBRANCH   8   9
ENDBRANCH   7   8
ENDBRANCH   6   7
ENDBRANCH   5   6
ENDBRANCH   4   5
ENDBRANCH   3   4
ENDBRANCH   1   3
BRANCH   2  13
ATOM     13  C   UNL     1      -2.258  27.494  25.890  1.00  0.00     0.027 C 
BRANCH  13  14
ATOM     14  C   UNL     1      -1.182  27.233  26.953  1.00  0.00     0.004 C 
BRANCH  14  15
ATOM     15  C   UNL     1       0.227  27.104  26.353  1.00  0.00     0.000 C 
BRANCH  15  16
ATOM     16  C   UNL     1       0.512  28.162  25.273  1.00  0.00     0.000 C 
BRANCH  16  17
ATOM     17  C   UNL     1       1.993  28.600  25.263  1.00  0.00    -0.000 C 
BRANCH  17  18
ATOM     18  C   UNL     1       2.869  27.791  24.288  1.00  0.00    -0.000 C 
BRANCH  18  19
ATOM     19  C   UNL     1       3.555  28.629  23.197  1.00  0.00    -0.003 C 
ATOM     20  C   UNL     1       4.765  27.925  22.584  1.00  0.00     0.004 C 
ENDBRANCH  18  19
ENDBRANCH  17  18
ENDBRANCH  16  17
ENDBRANCH  15  16
ENDBRANCH  14  15
ENDBRANCH  13  14
ENDBRANCH   2  13
TORSDOF 15
ENDMDL
