MODEL 1
REMARK VINA RESULT:    -6.547      0.000      0.000
REMARK INTER + INTRA:          -8.186
REMARK INTER:                  -7.887
REMARK INTRA:                  -0.299
REMARK UNBOUND:                -0.299
REMARK SMILES O=c1c(O)c(-c2ccc(O)c(O)c2)oc2cc(O)cc(O)c12
REMARK SMILES IDX 5 1 3 2 2 3 1 4 22 5 20 6 19 7 17 8 16 9 15 10 14 11 6 12
REMARK SMILES IDX 7 13 8 14 9 15 13 16 11 17 10 18 12 20 4 22 21 24 18 26
REMARK H PARENT 10 19 12 21 4 23 21 25 18 27
REMARK Flexibility Score: inf
ROOT
ATOM      1  C   UNL     1     -33.066   9.418   8.479  1.00  0.00     0.180 A 
ATOM      2  C   UNL     1     -32.124   8.689   9.231  1.00  0.00     0.208 A 
ATOM      3  C   UNL     1     -32.036   7.301   9.046  1.00  0.00     0.238 A 
ATOM      4  O   UNL     1     -31.205   6.636   9.722  1.00  0.00    -0.285 OA
ATOM      5  C   UNL     1     -32.872   6.669   8.102  1.00  0.00     0.111 A 
ATOM      6  C   UNL     1     -32.844   5.276   7.853  1.00  0.00     0.134 A 
ATOM      7  C   UNL     1     -33.703   4.724   6.890  1.00  0.00     0.093 A 
ATOM      8  C   UNL     1     -34.586   5.539   6.173  1.00  0.00     0.123 A 
ATOM      9  C   UNL     1     -34.618   6.913   6.416  1.00  0.00     0.094 A 
ATOM     10  C   UNL     1     -33.772   7.482   7.373  1.00  0.00     0.146 A 
ATOM     11  O   UNL     1     -33.827   8.791   7.588  1.00  0.00    -0.452 OA
ENDROOT
BRANCH   1  12
ATOM     12  C   UNL     1     -33.231  10.881   8.631  1.00  0.00     0.025 A 
ATOM     13  C   UNL     1     -34.287  11.425   9.385  1.00  0.00     0.016 A 
ATOM     14  C   UNL     1     -34.436  12.810   9.494  1.00  0.00     0.051 A 
ATOM     15  C   UNL     1     -33.544  13.670   8.842  1.00  0.00     0.157 A 
ATOM     16  C   UNL     1     -32.352  11.750   7.962  1.00  0.00     0.062 A 
ATOM     17  C   UNL     1     -32.502  13.139   8.072  1.00  0.00     0.158 A 
BRANCH  15  18
ATOM     18  O   UNL     1     -33.690  15.053   8.950  1.00  0.00    -0.504 OA
ATOM     19  H   UNL     1     -34.604  15.488   8.988  1.00  0.00     0.293 HD
ENDBRANCH  15  18
BRANCH  17  20
ATOM     20  O   UNL     1     -31.620  13.998   7.418  1.00  0.00    -0.504 OA
ATOM     21  H   UNL     1     -31.954  14.759   6.837  1.00  0.00     0.293 HD
ENDBRANCH  17  20
ENDBRANCH   1  12
BRANCH   2  22
ATOM     22  O   UNL     1     -31.273   9.346  10.125  1.00  0.00    -0.502 OA
ATOM     23  H   UNL     1     -31.111   9.008  11.066  1.00  0.00     0.293 HD
ENDBRANCH   2  22
BRANCH   6  24
ATOM     24  O   UNL     1     -31.973   4.438   8.551  1.00  0.00    -0.507 OA
ATOM     25  H   UNL     1     -32.143   4.175   9.514  1.00  0.00     0.293 HD
ENDBRANCH   6  24
BRANCH   8  26
ATOM     26  O   UNL     1     -35.438   4.991   5.216  1.00  0.00    -0.508 OA
ATOM     27  H   UNL     1     -35.320   5.185   4.229  1.00  0.00     0.293 HD
ENDBRANCH   8  26
TORSDOF 6
ENDMDL
MODEL 2
REMARK VINA RESULT:    -6.026      3.048      4.423
REMARK INTER + INTRA:          -7.559
REMARK INTER:                  -7.229
REMARK INTRA:                  -0.330
REMARK UNBOUND:                -0.299
REMARK SMILES O=c1c(O)c(-c2ccc(O)c(O)c2)oc2cc(O)cc(O)c12
REMARK SMILES IDX 5 1 3 2 2 3 1 4 22 5 20 6 19 7 17 8 16 9 15 10 14 11 6 12
REMARK SMILES IDX 7 13 8 14 9 15 13 16 11 17 10 18 12 20 4 22 21 24 18 26
REMARK H PARENT 10 19 12 21 4 23 21 25 18 27
REMARK Flexibility Score: inf
ROOT
ATOM      1  C   UNL     1     -33.123   8.771   6.423  1.00  0.00     0.180 A 
ATOM      2  C   UNL     1     -34.357   9.115   7.008  1.00  0.00     0.208 A 
ATOM      3  C   UNL     1     -34.875   8.302   8.028  1.00  0.00     0.238 A 
ATOM      4  O   UNL     1     -35.985   8.594   8.551  1.00  0.00    -0.285 OA
ATOM      5  C   UNL     1     -34.146   7.174   8.458  1.00  0.00     0.111 A 
ATOM      6  C   UNL     1     -34.595   6.306   9.481  1.00  0.00     0.134 A 
ATOM      7  C   UNL     1     -33.806   5.209   9.859  1.00  0.00     0.093 A 
ATOM      8  C   UNL     1     -32.578   4.966   9.235  1.00  0.00     0.123 A 
ATOM      9  C   UNL     1     -32.131   5.820   8.225  1.00  0.00     0.094 A 
ATOM     10  C   UNL     1     -32.903   6.916   7.832  1.00  0.00     0.146 A 
ATOM     11  O   UNL     1     -32.456   7.709   6.865  1.00  0.00    -0.452 OA
ENDROOT
BRANCH   1  12
ATOM     12  C   UNL     1     -32.521   9.568   5.331  1.00  0.00     0.025 A 
ATOM     13  C   UNL     1     -32.874   9.354   3.987  1.00  0.00     0.016 A 
ATOM     14  C   UNL     1     -32.274  10.102   2.971  1.00  0.00     0.051 A 
ATOM     15  C   UNL     1     -31.304  11.064   3.280  1.00  0.00     0.157 A 
ATOM     16  C   UNL     1     -31.532  10.519   5.633  1.00  0.00     0.062 A 
ATOM     17  C   UNL     1     -30.930  11.271   4.614  1.00  0.00     0.158 A 
BRANCH  15  18
ATOM     18  O   UNL     1     -30.704  11.813   2.269  1.00  0.00    -0.504 OA
ATOM     19  H   UNL     1     -31.214  12.083   1.436  1.00  0.00     0.293 HD
ENDBRANCH  15  18
BRANCH  17  20
ATOM     20  O   UNL     1     -29.959  12.223   4.918  1.00  0.00    -0.504 OA
ATOM     21  H   UNL     1     -29.123  11.981   5.438  1.00  0.00     0.293 HD
ENDBRANCH  17  20
ENDBRANCH   1  12
BRANCH   2  22
ATOM     22  O   UNL     1     -35.037  10.265   6.597  1.00  0.00    -0.502 OA
ATOM     23  H   UNL     1     -34.671  11.196   6.754  1.00  0.00     0.293 HD
ENDBRANCH   2  22
BRANCH   6  24
ATOM     24  O   UNL     1     -35.815   6.522  10.124  1.00  0.00    -0.507 OA
ATOM     25  H   UNL     1     -35.887   7.106  10.949  1.00  0.00     0.293 HD
ENDBRANCH   6  24
BRANCH   8  26
ATOM     26  O   UNL     1     -31.794   3.877   9.611  1.00  0.00    -0.508 OA
ATOM     27  H   UNL     1     -31.500   3.743  10.571  1.00  0.00     0.293 HD
ENDBRANCH   8  26
TORSDOF 6
ENDMDL
MODEL 3
REMARK VINA RESULT:    -5.803      1.298      3.152
REMARK INTER + INTRA:          -7.290
REMARK INTER:                  -7.004
REMARK INTRA:                  -0.286
REMARK UNBOUND:                -0.299
REMARK SMILES O=c1c(O)c(-c2ccc(O)c(O)c2)oc2cc(O)cc(O)c12
REMARK SMILES IDX 5 1 3 2 2 3 1 4 22 5 20 6 19 7 17 8 16 9 15 10 14 11 6 12
REMARK SMILES IDX 7 13 8 14 9 15 13 16 11 17 10 18 12 20 4 22 21 24 18 26
REMARK H PARENT 10 19 12 21 4 23 21 25 18 27
REMARK Flexibility Score: inf
ROOT
ATOM      1  C   UNL     1     -33.216   9.576   8.009  1.00  0.00     0.180 A 
ATOM      2  C   UNL     1     -34.018   9.083   6.962  1.00  0.00     0.208 A 
ATOM      3  C   UNL     1     -34.047   7.701   6.721  1.00  0.00     0.238 A 
ATOM      4  O   UNL     1     -34.752   7.249   5.779  1.00  0.00    -0.285 OA
ATOM      5  C   UNL     1     -33.293   6.835   7.541  1.00  0.00     0.111 A 
ATOM      6  C   UNL     1     -33.269   5.431   7.367  1.00  0.00     0.134 A 
ATOM      7  C   UNL     1     -32.500   4.636   8.231  1.00  0.00     0.093 A 
ATOM      8  C   UNL     1     -31.756   5.219   9.263  1.00  0.00     0.123 A 
ATOM      9  C   UNL     1     -31.776   6.605   9.437  1.00  0.00     0.094 A 
ATOM     10  C   UNL     1     -32.534   7.414   8.586  1.00  0.00     0.146 A 
ATOM     11  O   UNL     1     -32.531   8.729   8.771  1.00  0.00    -0.452 OA
ENDROOT
BRANCH   1  12
ATOM     12  C   UNL     1     -33.120  11.021   8.313  1.00  0.00     0.025 A 
ATOM     13  C   UNL     1     -31.995  11.776   7.935  1.00  0.00     0.016 A 
ATOM     14  C   UNL     1     -31.915  13.134   8.254  1.00  0.00     0.051 A 
ATOM     15  C   UNL     1     -32.950  13.754   8.966  1.00  0.00     0.157 A 
ATOM     16  C   UNL     1     -34.144  11.644   9.046  1.00  0.00     0.062 A 
ATOM     17  C   UNL     1     -34.065  13.007   9.366  1.00  0.00     0.158 A 
BRANCH  15  18
ATOM     18  O   UNL     1     -32.874  15.109   9.285  1.00  0.00    -0.504 OA
ATOM     19  H   UNL     1     -33.056  15.827   8.594  1.00  0.00     0.293 HD
ENDBRANCH  15  18
BRANCH  17  20
ATOM     20  O   UNL     1     -35.089  13.625  10.080  1.00  0.00    -0.504 OA
ATOM     21  H   UNL     1     -35.208  14.632  10.074  1.00  0.00     0.293 HD
ENDBRANCH  17  20
ENDBRANCH   1  12
BRANCH   2  22
ATOM     22  O   UNL     1     -34.794   9.957   6.195  1.00  0.00    -0.502 OA
ATOM     23  H   UNL     1     -34.612  10.952   6.157  1.00  0.00     0.293 HD
ENDBRANCH   2  22
BRANCH   6  24
ATOM     24  O   UNL     1     -34.001   4.819   6.349  1.00  0.00    -0.507 OA
ATOM     25  H   UNL     1     -33.885   5.081   5.377  1.00  0.00     0.293 HD
ENDBRANCH   6  24
BRANCH   8  26
ATOM     26  O   UNL     1     -30.993   4.431  10.121  1.00  0.00    -0.508 OA
ATOM     27  H   UNL     1     -30.831   3.448   9.935  1.00  0.00     0.293 HD
ENDBRANCH   8  26
TORSDOF 6
ENDMDL
MODEL 4
REMARK VINA RESULT:    -5.769      1.707      7.157
REMARK INTER + INTRA:          -7.248
REMARK INTER:                  -6.974
REMARK INTRA:                  -0.275
REMARK UNBOUND:                -0.299
REMARK SMILES O=c1c(O)c(-c2ccc(O)c(O)c2)oc2cc(O)cc(O)c12
REMARK SMILES IDX 5 1 3 2 2 3 1 4 22 5 20 6 19 7 17 8 16 9 15 10 14 11 6 12
REMARK SMILES IDX 7 13 8 14 9 15 13 16 11 17 10 18 12 20 4 22 21 24 18 26
REMARK H PARENT 10 19 12 21 4 23 21 25 18 27
REMARK Flexibility Score: inf
ROOT
ATOM      1  C   UNL     1     -32.587  10.247   7.101  1.00  0.00     0.180 A 
ATOM      2  C   UNL     1     -31.426  10.691   6.440  1.00  0.00     0.208 A 
ATOM      3  C   UNL     1     -31.000  12.015   6.632  1.00  0.00     0.238 A 
ATOM      4  O   UNL     1     -29.968  12.427   6.036  1.00  0.00    -0.285 OA
ATOM      5  C   UNL     1     -31.727  12.863   7.492  1.00  0.00     0.111 A 
ATOM      6  C   UNL     1     -31.364  14.208   7.742  1.00  0.00     0.134 A 
ATOM      7  C   UNL     1     -32.135  14.985   8.620  1.00  0.00     0.093 A 
ATOM      8  C   UNL     1     -33.260  14.443   9.251  1.00  0.00     0.123 A 
ATOM      9  C   UNL     1     -33.622  13.117   9.007  1.00  0.00     0.094 A 
ATOM     10  C   UNL     1     -32.869  12.327   8.134  1.00  0.00     0.146 A 
ATOM     11  O   UNL     1     -33.239  11.070   7.917  1.00  0.00    -0.452 OA
ENDROOT
BRANCH   1  12
ATOM     12  C   UNL     1     -33.109   8.872   6.936  1.00  0.00     0.025 A 
ATOM     13  C   UNL     1     -34.245   8.609   6.148  1.00  0.00     0.016 A 
ATOM     14  C   UNL     1     -34.734   7.306   6.026  1.00  0.00     0.051 A 
ATOM     15  C   UNL     1     -34.105   6.250   6.699  1.00  0.00     0.157 A 
ATOM     16  C   UNL     1     -32.497   7.812   7.625  1.00  0.00     0.062 A 
ATOM     17  C   UNL     1     -32.987   6.504   7.502  1.00  0.00     0.158 A 
BRANCH  15  18
ATOM     18  O   UNL     1     -34.590   4.948   6.578  1.00  0.00    -0.504 OA
ATOM     19  H   UNL     1     -35.150   4.522   7.307  1.00  0.00     0.293 HD
ENDBRANCH  15  18
BRANCH  17  20
ATOM     20  O   UNL     1     -32.368   5.452   8.176  1.00  0.00    -0.504 OA
ATOM     21  H   UNL     1     -31.920   4.692   7.675  1.00  0.00     0.293 HD
ENDBRANCH  17  20
ENDBRANCH   1  12
BRANCH   2  22
ATOM     22  O   UNL     1     -30.695   9.816   5.631  1.00  0.00    -0.502 OA
ATOM     23  H   UNL     1     -29.979  10.139   4.992  1.00  0.00     0.293 HD
ENDBRANCH   2  22
BRANCH   6  24
ATOM     24  O   UNL     1     -30.247  14.777   7.129  1.00  0.00    -0.507 OA
ATOM     25  H   UNL     1     -29.316  14.401   7.263  1.00  0.00     0.293 HD
ENDBRANCH   6  24
BRANCH   8  26
ATOM     26  O   UNL     1     -34.025  15.214  10.124  1.00  0.00    -0.508 OA
ATOM     27  H   UNL     1     -33.766  16.165  10.356  1.00  0.00     0.293 HD
ENDBRANCH   8  26
TORSDOF 6
ENDMDL
MODEL 5
REMARK VINA RESULT:    -5.425      1.540      7.133
REMARK INTER + INTRA:          -6.835
REMARK INTER:                  -6.667
REMARK INTRA:                  -0.168
REMARK UNBOUND:                -0.299
REMARK SMILES O=c1c(O)c(-c2ccc(O)c(O)c2)oc2cc(O)cc(O)c12
REMARK SMILES IDX 5 1 3 2 2 3 1 4 22 5 20 6 19 7 17 8 16 9 15 10 14 11 6 12
REMARK SMILES IDX 7 13 8 14 9 15 13 16 11 17 10 18 12 20 4 22 21 24 18 26
REMARK H PARENT 10 19 12 21 4 23 21 25 18 27
REMARK Flexibility Score: inf
ROOT
ATOM      1  C   UNL     1     -33.439   9.475   8.058  1.00  0.00     0.180 A 
ATOM      2  C   UNL     1     -34.555  10.103   8.643  1.00  0.00     0.208 A 
ATOM      3  C   UNL     1     -34.513  11.487   8.871  1.00  0.00     0.238 A 
ATOM      4  O   UNL     1     -35.503  12.058   9.405  1.00  0.00    -0.285 OA
ATOM      5  C   UNL     1     -33.370  12.221   8.494  1.00  0.00     0.111 A 
ATOM      6  C   UNL     1     -33.249  13.618   8.685  1.00  0.00     0.134 A 
ATOM      7  C   UNL     1     -32.081  14.278   8.274  1.00  0.00     0.093 A 
ATOM      8  C   UNL     1     -31.035  13.568   7.675  1.00  0.00     0.123 A 
ATOM      9  C   UNL     1     -31.149  12.190   7.485  1.00  0.00     0.094 A 
ATOM     10  C   UNL     1     -32.304  11.513   7.890  1.00  0.00     0.146 A 
ATOM     11  O   UNL     1     -32.384  10.201   7.701  1.00  0.00    -0.452 OA
ENDROOT
BRANCH   1  12
ATOM     12  C   UNL     1     -33.400   8.017   7.803  1.00  0.00     0.025 A 
ATOM     13  C   UNL     1     -32.472   7.184   8.454  1.00  0.00     0.016 A 
ATOM     14  C   UNL     1     -32.438   5.814   8.179  1.00  0.00     0.051 A 
ATOM     15  C   UNL     1     -33.319   5.260   7.241  1.00  0.00     0.157 A 
ATOM     16  C   UNL     1     -34.266   7.459   6.848  1.00  0.00     0.062 A 
ATOM     17  C   UNL     1     -34.232   6.084   6.572  1.00  0.00     0.158 A 
BRANCH  15  18
ATOM     18  O   UNL     1     -33.289   3.894   6.965  1.00  0.00    -0.504 OA
ATOM     19  H   UNL     1     -34.140   3.353   6.873  1.00  0.00     0.293 HD
ENDBRANCH  15  18
BRANCH  17  20
ATOM     20  O   UNL     1     -35.102   5.532   5.634  1.00  0.00    -0.504 OA
ATOM     21  H   UNL     1     -35.909   6.043   5.293  1.00  0.00     0.293 HD
ENDBRANCH  17  20
ENDBRANCH   1  12
BRANCH   2  22
ATOM     22  O   UNL     1     -35.696   9.361   8.963  1.00  0.00    -0.502 OA
ATOM     23  H   UNL     1     -36.606   9.568   8.570  1.00  0.00     0.293 HD
ENDBRANCH   2  22
BRANCH   6  24
ATOM     24  O   UNL     1     -34.276  14.354   9.278  1.00  0.00    -0.507 OA
ATOM     25  H   UNL     1     -34.694  15.154   8.817  1.00  0.00     0.293 HD
ENDBRANCH   6  24
BRANCH   8  26
ATOM     26  O   UNL     1     -29.876  14.224   7.266  1.00  0.00    -0.508 OA
ATOM     27  H   UNL     1     -29.913  15.071   6.713  1.00  0.00     0.293 HD
ENDBRANCH   8  26
TORSDOF 6
ENDMDL
MODEL 6
REMARK VINA RESULT:    -5.416      1.659      3.413
REMARK INTER + INTRA:          -6.823
REMARK INTER:                  -6.504
REMARK INTRA:                  -0.319
REMARK UNBOUND:                -0.299
REMARK SMILES O=c1c(O)c(-c2ccc(O)c(O)c2)oc2cc(O)cc(O)c12
REMARK SMILES IDX 5 1 3 2 2 3 1 4 22 5 20 6 19 7 17 8 16 9 15 10 14 11 6 12
REMARK SMILES IDX 7 13 8 14 9 15 13 16 11 17 10 18 12 20 4 22 21 24 18 26
REMARK H PARENT 10 19 12 21 4 23 21 25 18 27
REMARK Flexibility Score: inf
ROOT
ATOM      1  C   UNL     1     -32.303   9.732   7.395  1.00  0.00     0.180 A 
ATOM      2  C   UNL     1     -33.328   9.409   6.483  1.00  0.00     0.208 A 
ATOM      3  C   UNL     1     -33.824   8.097   6.457  1.00  0.00     0.238 A 
ATOM      4  O   UNL     1     -34.734   7.794   5.637  1.00  0.00    -0.285 OA
ATOM      5  C   UNL     1     -33.306   7.137   7.352  1.00  0.00     0.111 A 
ATOM      6  C   UNL     1     -33.754   5.796   7.392  1.00  0.00     0.134 A 
ATOM      7  C   UNL     1     -33.194   4.903   8.319  1.00  0.00     0.093 A 
ATOM      8  C   UNL     1     -32.197   5.327   9.204  1.00  0.00     0.123 A 
ATOM      9  C   UNL     1     -31.752   6.650   9.167  1.00  0.00     0.094 A 
ATOM     10  C   UNL     1     -32.295   7.554   8.250  1.00  0.00     0.146 A 
ATOM     11  O   UNL     1     -31.850   8.805   8.233  1.00  0.00    -0.452 OA
ENDROOT
BRANCH   1  12
ATOM     12  C   UNL     1     -31.716  11.088   7.470  1.00  0.00     0.025 A 
ATOM     13  C   UNL     1     -30.713  11.503   6.574  1.00  0.00     0.016 A 
ATOM     14  C   UNL     1     -30.156  12.780   6.680  1.00  0.00     0.051 A 
ATOM     15  C   UNL     1     -30.581  13.655   7.688  1.00  0.00     0.157 A 
ATOM     16  C   UNL     1     -32.122  11.962   8.492  1.00  0.00     0.062 A 
ATOM     17  C   UNL     1     -31.563  13.244   8.597  1.00  0.00     0.158 A 
BRANCH  15  18
ATOM     18  O   UNL     1     -30.028  14.930   7.795  1.00  0.00    -0.504 OA
ATOM     19  H   UNL     1     -29.896  15.521   6.983  1.00  0.00     0.293 HD
ENDBRANCH  15  18
BRANCH  17  20
ATOM     20  O   UNL     1     -31.979  14.114   9.604  1.00  0.00    -0.504 OA
ATOM     21  H   UNL     1     -31.344  14.427  10.330  1.00  0.00     0.293 HD
ENDBRANCH  17  20
ENDBRANCH   1  12
BRANCH   2  22
ATOM     22  O   UNL     1     -33.858  10.390   5.641  1.00  0.00    -0.502 OA
ATOM     23  H   UNL     1     -34.122  11.309   5.977  1.00  0.00     0.293 HD
ENDBRANCH   2  22
BRANCH   6  24
ATOM     24  O   UNL     1     -34.747   5.343   6.523  1.00  0.00    -0.507 OA
ATOM     25  H   UNL     1     -35.372   4.585   6.775  1.00  0.00     0.293 HD
ENDBRANCH   6  24
BRANCH   8  26
ATOM     26  O   UNL     1     -31.641   4.442  10.125  1.00  0.00    -0.508 OA
ATOM     27  H   UNL     1     -31.068   3.661   9.829  1.00  0.00     0.293 HD
ENDBRANCH   8  26
TORSDOF 6
ENDMDL
MODEL 7
REMARK VINA RESULT:    -5.044      2.403      3.692
REMARK INTER + INTRA:          -6.375
REMARK INTER:                  -6.478
REMARK INTRA:                   0.103
REMARK UNBOUND:                -0.299
REMARK SMILES O=c1c(O)c(-c2ccc(O)c(O)c2)oc2cc(O)cc(O)c12
REMARK SMILES IDX 5 1 3 2 2 3 1 4 22 5 20 6 19 7 17 8 16 9 15 10 14 11 6 12
REMARK SMILES IDX 7 13 8 14 9 15 13 16 11 17 10 18 12 20 4 22 21 24 18 26
REMARK H PARENT 10 19 12 21 4 23 21 25 18 27
REMARK Flexibility Score: inf
ROOT
ATOM      1  C   UNL     1     -32.460  11.173   7.279  1.00  0.00     0.180 A 
ATOM      2  C   UNL     1     -32.410  10.592   5.997  1.00  0.00     0.208 A 
ATOM      3  C   UNL     1     -33.061   9.368   5.781  1.00  0.00     0.238 A 
ATOM      4  O   UNL     1     -33.015   8.833   4.640  1.00  0.00    -0.285 OA
ATOM      5  C   UNL     1     -33.765   8.756   6.839  1.00  0.00     0.111 A 
ATOM      6  C   UNL     1     -34.450   7.525   6.704  1.00  0.00     0.134 A 
ATOM      7  C   UNL     1     -35.135   6.986   7.803  1.00  0.00     0.093 A 
ATOM      8  C   UNL     1     -35.147   7.654   9.033  1.00  0.00     0.123 A 
ATOM      9  C   UNL     1     -34.472   8.868   9.171  1.00  0.00     0.094 A 
ATOM     10  C   UNL     1     -33.782   9.421   8.088  1.00  0.00     0.146 A 
ATOM     11  O   UNL     1     -33.145  10.575   8.249  1.00  0.00    -0.452 OA
ENDROOT
BRANCH   1  12
ATOM     12  C   UNL     1     -31.783  12.452   7.590  1.00  0.00     0.025 A 
ATOM     13  C   UNL     1     -30.504  12.747   7.083  1.00  0.00     0.016 A 
ATOM     14  C   UNL     1     -29.875  13.951   7.410  1.00  0.00     0.051 A 
ATOM     15  C   UNL     1     -30.506  14.870   8.257  1.00  0.00     0.157 A 
ATOM     16  C   UNL     1     -32.401  13.369   8.456  1.00  0.00     0.062 A 
ATOM     17  C   UNL     1     -31.770  14.578   8.784  1.00  0.00     0.158 A 
BRANCH  15  18
ATOM     18  O   UNL     1     -29.882  16.073   8.584  1.00  0.00    -0.504 OA
ATOM     19  H   UNL     1     -28.896  16.113   8.813  1.00  0.00     0.293 HD
ENDBRANCH  15  18
BRANCH  17  20
ATOM     20  O   UNL     1     -32.393  15.491   9.632  1.00  0.00    -0.504 OA
ATOM     21  H   UNL     1     -33.294  15.295  10.054  1.00  0.00     0.293 HD
ENDBRANCH  17  20
ENDBRANCH   1  12
BRANCH   2  22
ATOM     22  O   UNL     1     -31.748  11.243   4.952  1.00  0.00    -0.502 OA
ATOM     23  H   UNL     1     -31.685  10.849   4.021  1.00  0.00     0.293 HD
ENDBRANCH   2  22
BRANCH   6  24
ATOM     24  O   UNL     1     -34.457   6.836   5.491  1.00  0.00    -0.507 OA
ATOM     25  H   UNL     1     -35.319   6.526   5.058  1.00  0.00     0.293 HD
ENDBRANCH   6  24
BRANCH   8  26
ATOM     26  O   UNL     1     -35.828   7.119  10.124  1.00  0.00    -0.508 OA
ATOM     27  H   UNL     1     -36.783   6.789  10.043  1.00  0.00     0.293 HD
ENDBRANCH   8  26
TORSDOF 6
ENDMDL
MODEL 8
REMARK VINA RESULT:    -4.859      3.430      6.086
REMARK INTER + INTRA:          -6.153
REMARK INTER:                  -6.222
REMARK INTRA:                   0.069
REMARK UNBOUND:                -0.299
REMARK SMILES O=c1c(O)c(-c2ccc(O)c(O)c2)oc2cc(O)cc(O)c12
REMARK SMILES IDX 5 1 3 2 2 3 1 4 22 5 20 6 19 7 17 8 16 9 15 10 14 11 6 12
REMARK SMILES IDX 7 13 8 14 9 15 13 16 11 17 10 18 12 20 4 22 21 24 18 26
REMARK H PARENT 10 19 12 21 4 23 21 25 18 27
REMARK Flexibility Score: inf
ROOT
ATOM      1  C   UNL     1     -32.893   9.484   6.839  1.00  0.00     0.180 A 
ATOM      2  C   UNL     1     -32.508  10.778   7.241  1.00  0.00     0.208 A 
ATOM      3  C   UNL     1     -31.651  11.519   6.413  1.00  0.00     0.238 A 
ATOM      4  O   UNL     1     -31.290  12.675   6.768  1.00  0.00    -0.285 OA
ATOM      5  C   UNL     1     -31.210  10.966   5.193  1.00  0.00     0.111 A 
ATOM      6  C   UNL     1     -30.348  11.647   4.301  1.00  0.00     0.134 A 
ATOM      7  C   UNL     1     -29.962  11.032   3.101  1.00  0.00     0.093 A 
ATOM      8  C   UNL     1     -30.421   9.750   2.777  1.00  0.00     0.123 A 
ATOM      9  C   UNL     1     -31.270   9.074   3.655  1.00  0.00     0.094 A 
ATOM     10  C   UNL     1     -31.665   9.669   4.857  1.00  0.00     0.146 A 
ATOM     11  O   UNL     1     -32.470   9.001   5.675  1.00  0.00    -0.452 OA
ENDROOT
BRANCH   1  12
ATOM     12  C   UNL     1     -33.779   8.635   7.666  1.00  0.00     0.025 A 
ATOM     13  C   UNL     1     -34.948   9.152   8.255  1.00  0.00     0.016 A 
ATOM     14  C   UNL     1     -35.756   8.337   9.052  1.00  0.00     0.051 A 
ATOM     15  C   UNL     1     -35.404   7.002   9.283  1.00  0.00     0.157 A 
ATOM     16  C   UNL     1     -33.420   7.301   7.919  1.00  0.00     0.062 A 
ATOM     17  C   UNL     1     -34.232   6.483   8.719  1.00  0.00     0.158 A 
BRANCH  15  18
ATOM     18  O   UNL     1     -36.209   6.186  10.077  1.00  0.00    -0.504 OA
ATOM     19  H   UNL     1     -37.189   6.392  10.225  1.00  0.00     0.293 HD
ENDBRANCH  15  18
BRANCH  17  20
ATOM     20  O   UNL     1     -33.879   5.156   8.956  1.00  0.00    -0.504 OA
ATOM     21  H   UNL     1     -32.979   4.909   9.351  1.00  0.00     0.293 HD
ENDBRANCH  17  20
ENDBRANCH   1  12
BRANCH   2  22
ATOM     22  O   UNL     1     -32.998  11.323   8.431  1.00  0.00    -0.502 OA
ATOM     23  H   UNL     1     -33.720  10.870   8.978  1.00  0.00     0.293 HD
ENDBRANCH   2  22
BRANCH   6  24
ATOM     24  O   UNL     1     -29.875  12.927   4.594  1.00  0.00    -0.507 OA
ATOM     25  H   UNL     1     -29.613  13.196   5.536  1.00  0.00     0.293 HD
ENDBRANCH   6  24
BRANCH   8  26
ATOM     26  O   UNL     1     -30.038   9.139   1.585  1.00  0.00    -0.508 OA
ATOM     27  H   UNL     1     -29.409   9.594   0.934  1.00  0.00     0.293 HD
ENDBRANCH   8  26
TORSDOF 6
ENDMDL
