MODEL 1
REMARK VINA RESULT:    59.384      0.000      0.000
REMARK INTER + INTRA:          79.443
REMARK INTER:                  78.478
REMARK INTRA:                   0.965
REMARK UNBOUND:                 0.965
REMARK SMILES CC[C@@H](C=C[C@H](C)[C@H]1CC[C@H]2C3=CC[C@@H]4C[C@@H](O)CC[C@@]4(C)[C@@H]3CC[C@@]12C)C(C)C
REMARK SMILES IDX 6 1 7 2 5 3 4 4 3 5 2 6 1 7 28 8 29 9 30 10 8 11 9 12 26 13
REMARK SMILES IDX 10 14 11 15 25 16 27 17 12 18 24 19 23 20 13 21 21 22 14 23
REMARK SMILES IDX 15 24 20 25 22 26 16 27 19 28 17 29 18 30
REMARK H PARENT 18 31
REMARK Flexibility Score: inf
ROOT
ATOM      1  C   UNL     1     -30.895  25.536   7.047  1.00  0.00     0.012 C 
ATOM      2  C   UNL     1     -30.081  24.344   7.581  1.00  0.00     0.012 C 
ENDROOT
BRANCH   1   3
ATOM      3  C   UNL     1     -29.935  26.593   6.546  1.00  0.00    -0.028 C 
ATOM      4  C   UNL     1     -28.611  26.359   6.492  1.00  0.00    -0.027 C 
BRANCH   4   5
ATOM      5  C   UNL     1     -27.587  27.414   6.115  1.00  0.00     0.014 C 
BRANCH   5   6
ATOM      6  C   UNL     1     -28.295  28.731   5.696  1.00  0.00     0.004 C 
ATOM      7  C   UNL     1     -27.991  29.214   4.275  1.00  0.00     0.004 C 
ENDBRANCH   5   6
BRANCH   5   8
ATOM      8  C   UNL     1     -26.499  26.900   5.118  1.00  0.00    -0.011 C 
ATOM      9  C   UNL     1     -26.755  27.397   3.684  1.00  0.00     0.008 C 
ATOM     10  C   UNL     1     -25.092  27.347   5.557  1.00  0.00     0.008 C 
ENDBRANCH   5   8
ENDBRANCH   4   5
ENDBRANCH   1   3
BRANCH   1  11
ATOM     11  C   UNL     1     -31.947  25.194   5.931  1.00  0.00     0.002 C 
ATOM     12  C   UNL     1     -31.950  23.756   5.394  1.00  0.00     0.005 C 
ATOM     13  C   UNL     1     -33.434  25.522   6.230  1.00  0.00    -0.023 C 
ATOM     14  C   UNL     1     -33.332  23.549   4.767  1.00  0.00     0.009 C 
ATOM     15  C   UNL     1     -34.143  24.822   5.050  1.00  0.00     0.021 C 
ATOM     16  C   UNL     1     -33.902  24.926   7.588  1.00  0.00     0.008 C 
ATOM     17  C   UNL     1     -33.681  27.052   6.188  1.00  0.00     0.012 C 
ATOM     18  C   UNL     1     -35.622  24.529   5.265  1.00  0.00    -0.067 C 
ATOM     19  C   UNL     1     -35.422  24.955   7.749  1.00  0.00     0.009 C 
ATOM     20  C   UNL     1     -36.117  24.116   6.653  1.00  0.00     0.021 C 
ATOM     21  C   UNL     1     -36.405  24.398   4.169  1.00  0.00    -0.027 C 
ATOM     22  C   UNL     1     -37.688  24.107   6.768  1.00  0.00    -0.023 C 
ATOM     23  C   UNL     1     -37.863  24.028   4.221  1.00  0.00     0.031 C 
ATOM     24  C   UNL     1     -38.227  23.316   5.531  1.00  0.00     0.002 C 
ATOM     25  C   UNL     1     -38.120  23.350   8.062  1.00  0.00     0.010 C 
ATOM     26  C   UNL     1     -38.242  25.563   6.812  1.00  0.00     0.012 C 
ATOM     27  C   UNL     1     -39.742  23.026   5.597  1.00  0.00     0.036 C 
ATOM     28  C   UNL     1     -39.632  23.079   8.123  1.00  0.00     0.032 C 
ATOM     29  C   UNL     1     -40.123  22.298   6.893  1.00  0.00     0.114 C 
BRANCH  29  30
ATOM     30  O   UNL     1     -39.580  21.003   6.884  1.00  0.00    -0.393 OA
ATOM     31  H   UNL     1     -39.758  20.610   7.778  1.00  0.00     0.210 HD
ENDBRANCH  29  30
ENDBRANCH   1  11
TORSDOF 6
ENDMDL
