MODEL 1
REMARK VINA RESULT:    -3.199      0.000      0.000
REMARK INTER + INTRA:          -6.928
REMARK INTER:                  -5.444
REMARK INTRA:                  -1.484
REMARK UNBOUND:                -1.484
REMARK SMILES CCCCCCCCCCCCCC(=O)[O-]
REMARK SMILES IDX 8 1 9 2 10 3 11 4 12 5 13 6 14 7 15 8 16 9 7 10 6 11 5 12
REMARK SMILES IDX 4 13 3 14 2 15 1 16
REMARK H PARENT
REMARK Flexibility Score: inf
ROOT
ATOM      1  C   UNL     1      50.354  31.793  89.005  1.00  0.00     0.000 C 
ENDROOT
BRANCH   1   2
ATOM      2  C   UNL     1      50.414  30.405  89.664  1.00  0.00     0.000 C 
BRANCH   2   3
ATOM      3  C   UNL     1      49.108  30.039  90.390  1.00  0.00     0.000 C 
BRANCH   3   4
ATOM      4  C   UNL     1      48.178  31.249  90.579  1.00  0.00     0.000 C 
BRANCH   4   5
ATOM      5  C   UNL     1      46.769  31.010  90.016  1.00  0.00     0.006 C 
BRANCH   5   6
ATOM      6  C   UNL     1      45.701  31.592  90.945  1.00  0.00     0.053 C 
BRANCH   6   7
ATOM      7  C   UNL     1      45.024  30.504  91.715  1.00  0.00     0.041 C 
ATOM      8  O   UNL     1      45.638  29.436  91.977  1.00  0.00    -0.550 OA
ATOM      9  O   UNL     1      43.730  30.687  92.186  1.00  0.00    -0.550 OA
ENDBRANCH   6   7
ENDBRANCH   5   6
ENDBRANCH   4   5
ENDBRANCH   3   4
ENDBRANCH   2   3
ENDBRANCH   1   2
BRANCH   1  10
ATOM     10  C   UNL     1      50.190  31.714  87.477  1.00  0.00     0.000 C 
BRANCH  10  11
ATOM     11  C   UNL     1      48.783  32.127  87.012  1.00  0.00    -0.000 C 
BRANCH  11  12
ATOM     12  C   UNL     1      48.383  33.527  87.500  1.00  0.00    -0.000 C 
BRANCH  12  13
ATOM     13  C   UNL     1      48.900  34.609  86.545  1.00  0.00    -0.000 C 
BRANCH  13  14
ATOM     14  C   UNL     1      49.758  35.641  87.294  1.00  0.00    -0.000 C 
BRANCH  14  15
ATOM     15  C   UNL     1      51.249  35.270  87.307  1.00  0.00    -0.003 C 
ATOM     16  C   UNL     1      51.726  34.687  85.978  1.00  0.00     0.004 C 
ENDBRANCH  14  15
ENDBRANCH  13  14
ENDBRANCH  12  13
ENDBRANCH  11  12
ENDBRANCH  10  11
ENDBRANCH   1  10
TORSDOF 12
ENDMDL
MODEL 2
REMARK VINA RESULT:    -3.081     16.425     17.563
REMARK INTER + INTRA:          -6.727
REMARK INTER:                  -5.578
REMARK INTRA:                  -1.149
REMARK UNBOUND:                -1.484
REMARK SMILES CCCCCCCCCCCCCC(=O)[O-]
REMARK SMILES IDX 8 1 9 2 10 3 11 4 12 5 13 6 14 7 15 8 16 9 7 10 6 11 5 12
REMARK SMILES IDX 4 13 3 14 2 15 1 16
REMARK H PARENT
REMARK Flexibility Score: inf
ROOT
ATOM      1  C   UNL     1      43.070  21.096  77.656  1.00  0.00     0.000 C 
ENDROOT
BRANCH   1   2
ATOM      2  C   UNL     1      41.782  21.921  77.818  1.00  0.00     0.000 C 
BRANCH   2   3
ATOM      3  C   UNL     1      40.661  21.136  78.520  1.00  0.00     0.000 C 
BRANCH   3   4
ATOM      4  C   UNL     1      41.203  20.096  79.515  1.00  0.00     0.000 C 
BRANCH   4   5
ATOM      5  C   UNL     1      40.088  19.339  80.250  1.00  0.00     0.006 C 
BRANCH   5   6
ATOM      6  C   UNL     1      38.760  20.096  80.161  1.00  0.00     0.053 C 
BRANCH   6   7
ATOM      7  C   UNL     1      37.656  19.296  80.777  1.00  0.00     0.041 C 
ATOM      8  O   UNL     1      37.158  19.645  81.879  1.00  0.00    -0.550 OA
ATOM      9  O   UNL     1      37.142  18.191  80.109  1.00  0.00    -0.550 OA
ENDBRANCH   6   7
ENDBRANCH   5   6
ENDBRANCH   4   5
ENDBRANCH   3   4
ENDBRANCH   2   3
ENDBRANCH   1   2
BRANCH   1  10
ATOM     10  C   UNL     1      44.298  21.794  78.267  1.00  0.00     0.000 C 
BRANCH  10  11
ATOM     11  C   UNL     1      45.429  20.807  78.605  1.00  0.00    -0.000 C 
BRANCH  11  12
ATOM     12  C   UNL     1      45.139  19.381  78.117  1.00  0.00    -0.000 C 
BRANCH  12  13
ATOM     13  C   UNL     1      46.327  18.819  77.326  1.00  0.00    -0.000 C 
BRANCH  13  14
ATOM     14  C   UNL     1      45.989  18.703  75.832  1.00  0.00    -0.000 C 
BRANCH  14  15
ATOM     15  C   UNL     1      46.377  19.960  75.039  1.00  0.00    -0.003 C 
ATOM     16  C   UNL     1      45.164  20.728  74.516  1.00  0.00     0.004 C 
ENDBRANCH  14  15
ENDBRANCH  13  14
ENDBRANCH  12  13
ENDBRANCH  11  12
ENDBRANCH  10  11
ENDBRANCH   1  10
TORSDOF 12
ENDMDL
MODEL 3
REMARK VINA RESULT:    -3.078     16.014     17.261
REMARK INTER + INTRA:          -6.721
REMARK INTER:                  -4.780
REMARK INTRA:                  -1.942
REMARK UNBOUND:                -1.484
REMARK SMILES CCCCCCCCCCCCCC(=O)[O-]
REMARK SMILES IDX 8 1 9 2 10 3 11 4 12 5 13 6 14 7 15 8 16 9 7 10 6 11 5 12
REMARK SMILES IDX 4 13 3 14 2 15 1 16
REMARK H PARENT
REMARK Flexibility Score: inf
ROOT
ATOM      1  C   UNL     1      42.166  22.502  75.634  1.00  0.00     0.000 C 
ENDROOT
BRANCH   1   2
ATOM      2  C   UNL     1      41.009  21.809  76.374  1.00  0.00     0.000 C 
BRANCH   2   3
ATOM      3  C   UNL     1      40.453  22.661  77.529  1.00  0.00     0.000 C 
BRANCH   3   4
ATOM      4  C   UNL     1      39.865  21.805  78.663  1.00  0.00     0.000 C 
BRANCH   4   5
ATOM      5  C   UNL     1      40.389  20.361  78.651  1.00  0.00     0.006 C 
BRANCH   5   6
ATOM      6  C   UNL     1      40.261  19.720  80.036  1.00  0.00     0.053 C 
BRANCH   6   7
ATOM      7  C   UNL     1      38.866  19.229  80.260  1.00  0.00     0.041 C 
ATOM      8  O   UNL     1      38.464  18.179  79.693  1.00  0.00    -0.550 OA
ATOM      9  O   UNL     1      38.023  19.904  81.134  1.00  0.00    -0.550 OA
ENDBRANCH   6   7
ENDBRANCH   5   6
ENDBRANCH   4   5
ENDBRANCH   3   4
ENDBRANCH   2   3
ENDBRANCH   1   2
BRANCH   1  10
ATOM     10  C   UNL     1      43.047  21.508  74.856  1.00  0.00     0.000 C 
BRANCH  10  11
ATOM     11  C   UNL     1      44.532  21.606  75.244  1.00  0.00    -0.000 C 
BRANCH  11  12
ATOM     12  C   UNL     1      44.740  21.772  76.757  1.00  0.00    -0.000 C 
BRANCH  12  13
ATOM     13  C   UNL     1      44.564  20.434  77.485  1.00  0.00    -0.000 C 
BRANCH  13  14
ATOM     14  C   UNL     1      44.010  20.647  78.902  1.00  0.00    -0.000 C 
BRANCH  14  15
ATOM     15  C   UNL     1      43.733  22.126  79.212  1.00  0.00    -0.003 C 
ATOM     16  C   UNL     1      43.019  22.327  80.548  1.00  0.00     0.004 C 
ENDBRANCH  14  15
ENDBRANCH  13  14
ENDBRANCH  12  13
ENDBRANCH  11  12
ENDBRANCH  10  11
ENDBRANCH   1  10
TORSDOF 12
ENDMDL
MODEL 4
REMARK VINA RESULT:    -3.072     16.852     18.329
REMARK INTER + INTRA:          -6.712
REMARK INTER:                  -5.330
REMARK INTRA:                  -1.382
REMARK UNBOUND:                -1.484
REMARK SMILES CCCCCCCCCCCCCC(=O)[O-]
REMARK SMILES IDX 8 1 9 2 10 3 11 4 12 5 13 6 14 7 15 8 16 9 7 10 6 11 5 12
REMARK SMILES IDX 4 13 3 14 2 15 1 16
REMARK H PARENT
REMARK Flexibility Score: inf
ROOT
ATOM      1  C   UNL     1      42.795  21.012  79.433  1.00  0.00     0.000 C 
ENDROOT
BRANCH   1   2
ATOM      2  C   UNL     1      43.789  20.250  78.540  1.00  0.00     0.000 C 
BRANCH   2   3
ATOM      3  C   UNL     1      45.235  20.748  78.707  1.00  0.00     0.000 C 
BRANCH   3   4
ATOM      4  C   UNL     1      45.940  20.976  77.360  1.00  0.00     0.000 C 
BRANCH   4   5
ATOM      5  C   UNL     1      46.670  19.723  76.852  1.00  0.00     0.006 C 
BRANCH   5   6
ATOM      6  C   UNL     1      46.033  19.203  75.560  1.00  0.00     0.053 C 
BRANCH   6   7
ATOM      7  C   UNL     1      46.572  19.938  74.375  1.00  0.00     0.041 C 
ATOM      8  O   UNL     1      47.762  20.351  74.373  1.00  0.00    -0.550 OA
ATOM      9  O   UNL     1      45.777  20.124  73.251  1.00  0.00    -0.550 OA
ENDBRANCH   6   7
ENDBRANCH   5   6
ENDBRANCH   4   5
ENDBRANCH   3   4
ENDBRANCH   2   3
ENDBRANCH   1   2
BRANCH   1  10
ATOM     10  C   UNL     1      41.502  20.218  79.689  1.00  0.00     0.000 C 
BRANCH  10  11
ATOM     11  C   UNL     1      40.480  20.372  78.549  1.00  0.00    -0.000 C 
BRANCH  11  12
ATOM     12  C   UNL     1      40.490  21.777  77.929  1.00  0.00    -0.000 C 
BRANCH  12  13
ATOM     13  C   UNL     1      40.808  21.712  76.430  1.00  0.00    -0.000 C 
BRANCH  13  14
ATOM     14  C   UNL     1      42.090  22.494  76.104  1.00  0.00    -0.000 C 
BRANCH  14  15
ATOM     15  C   UNL     1      43.022  21.730  75.151  1.00  0.00    -0.003 C 
ATOM     16  C   UNL     1      42.386  21.466  73.787  1.00  0.00     0.004 C 
ENDBRANCH  14  15
ENDBRANCH  13  14
ENDBRANCH  12  13
ENDBRANCH  11  12
ENDBRANCH  10  11
ENDBRANCH   1  10
TORSDOF 12
ENDMDL
MODEL 5
REMARK VINA RESULT:    -3.054     16.873     18.744
REMARK INTER + INTRA:          -6.681
REMARK INTER:                  -5.542
REMARK INTRA:                  -1.140
REMARK UNBOUND:                -1.484
REMARK SMILES CCCCCCCCCCCCCC(=O)[O-]
REMARK SMILES IDX 8 1 9 2 10 3 11 4 12 5 13 6 14 7 15 8 16 9 7 10 6 11 5 12
REMARK SMILES IDX 4 13 3 14 2 15 1 16
REMARK H PARENT
REMARK Flexibility Score: inf
ROOT
ATOM      1  C   UNL     1      51.402  21.561  78.433  1.00  0.00     0.000 C 
ENDROOT
BRANCH   1   2
ATOM      2  C   UNL     1      52.386  21.829  77.282  1.00  0.00     0.000 C 
BRANCH   2   3
ATOM      3  C   UNL     1      51.761  22.672  76.156  1.00  0.00     0.000 C 
BRANCH   3   4
ATOM      4  C   UNL     1      51.772  21.947  74.800  1.00  0.00     0.000 C 
BRANCH   4   5
ATOM      5  C   UNL     1      53.180  21.838  74.195  1.00  0.00     0.006 C 
BRANCH   5   6
ATOM      6  C   UNL     1      53.366  20.500  73.476  1.00  0.00     0.053 C 
BRANCH   6   7
ATOM      7  C   UNL     1      54.334  19.635  74.218  1.00  0.00     0.041 C 
ATOM      8  O   UNL     1      54.629  18.491  73.780  1.00  0.00    -0.550 OA
ATOM      9  O   UNL     1      54.951  20.110  75.369  1.00  0.00    -0.550 OA
ENDBRANCH   6   7
ENDBRANCH   5   6
ENDBRANCH   4   5
ENDBRANCH   3   4
ENDBRANCH   2   3
ENDBRANCH   1   2
BRANCH   1  10
ATOM     10  C   UNL     1      49.939  21.816  78.031  1.00  0.00     0.000 C 
BRANCH  10  11
ATOM     11  C   UNL     1      49.055  20.568  78.198  1.00  0.00    -0.000 C 
BRANCH  11  12
ATOM     12  C   UNL     1      47.923  20.498  77.163  1.00  0.00    -0.000 C 
BRANCH  12  13
ATOM     13  C   UNL     1      48.276  21.305  75.908  1.00  0.00    -0.000 C 
BRANCH  13  14
ATOM     14  C   UNL     1      47.777  20.597  74.639  1.00  0.00    -0.000 C 
BRANCH  14  15
ATOM     15  C   UNL     1      46.444  19.865  74.857  1.00  0.00    -0.003 C 
ATOM     16  C   UNL     1      45.232  20.777  74.679  1.00  0.00     0.004 C 
ENDBRANCH  14  15
ENDBRANCH  13  14
ENDBRANCH  12  13
ENDBRANCH  11  12
ENDBRANCH  10  11
ENDBRANCH   1  10
TORSDOF 12
ENDMDL
MODEL 6
REMARK VINA RESULT:    -3.032     16.106     17.286
REMARK INTER + INTRA:          -6.643
REMARK INTER:                  -5.109
REMARK INTRA:                  -1.534
REMARK UNBOUND:                -1.484
REMARK SMILES CCCCCCCCCCCCCC(=O)[O-]
REMARK SMILES IDX 8 1 9 2 10 3 11 4 12 5 13 6 14 7 15 8 16 9 7 10 6 11 5 12
REMARK SMILES IDX 4 13 3 14 2 15 1 16
REMARK H PARENT
REMARK Flexibility Score: inf
ROOT
ATOM      1  C   UNL     1      44.506  22.096  77.624  1.00  0.00     0.000 C 
ENDROOT
BRANCH   1   2
ATOM      2  C   UNL     1      43.283  21.560  76.861  1.00  0.00     0.000 C 
BRANCH   2   3
ATOM      3  C   UNL     1      41.963  22.186  77.346  1.00  0.00     0.000 C 
BRANCH   3   4
ATOM      4  C   UNL     1      40.901  21.130  77.692  1.00  0.00     0.000 C 
BRANCH   4   5
ATOM      5  C   UNL     1      41.243  20.336  78.961  1.00  0.00     0.006 C 
BRANCH   5   6
ATOM      6  C   UNL     1      39.978  19.993  79.752  1.00  0.00     0.053 C 
BRANCH   6   7
ATOM      7  C   UNL     1      39.253  21.240  80.150  1.00  0.00     0.041 C 
ATOM      8  O   UNL     1      39.822  22.102  80.870  1.00  0.00    -0.550 OA
ATOM      9  O   UNL     1      37.965  21.473  79.686  1.00  0.00    -0.550 OA
ENDBRANCH   6   7
ENDBRANCH   5   6
ENDBRANCH   4   5
ENDBRANCH   3   4
ENDBRANCH   2   3
ENDBRANCH   1   2
BRANCH   1  10
ATOM     10  C   UNL     1      45.118  21.047  78.569  1.00  0.00     0.000 C 
BRANCH  10  11
ATOM     11  C   UNL     1      44.770  19.607  78.156  1.00  0.00    -0.000 C 
BRANCH  11  12
ATOM     12  C   UNL     1      45.999  18.805  77.703  1.00  0.00    -0.000 C 
BRANCH  12  13
ATOM     13  C   UNL     1      45.955  18.540  76.193  1.00  0.00    -0.000 C 
BRANCH  13  14
ATOM     14  C   UNL     1      46.641  19.673  75.414  1.00  0.00    -0.000 C 
BRANCH  14  15
ATOM     15  C   UNL     1      45.720  20.307  74.360  1.00  0.00    -0.003 C 
ATOM     16  C   UNL     1      45.957  21.807  74.194  1.00  0.00     0.004 C 
ENDBRANCH  14  15
ENDBRANCH  13  14
ENDBRANCH  12  13
ENDBRANCH  11  12
ENDBRANCH  10  11
ENDBRANCH   1  10
TORSDOF 12
ENDMDL
MODEL 7
REMARK VINA RESULT:    -3.029     16.884     17.830
REMARK INTER + INTRA:          -6.638
REMARK INTER:                  -5.625
REMARK INTRA:                  -1.013
REMARK UNBOUND:                -1.484
REMARK SMILES CCCCCCCCCCCCCC(=O)[O-]
REMARK SMILES IDX 8 1 9 2 10 3 11 4 12 5 13 6 14 7 15 8 16 9 7 10 6 11 5 12
REMARK SMILES IDX 4 13 3 14 2 15 1 16
REMARK H PARENT
REMARK Flexibility Score: inf
ROOT
ATOM      1  C   UNL     1      40.725  21.143  76.392  1.00  0.00     0.000 C 
ENDROOT
BRANCH   1   2
ATOM      2  C   UNL     1      41.217  21.756  77.714  1.00  0.00     0.000 C 
BRANCH   2   3
ATOM      3  C   UNL     1      41.985  20.746  78.584  1.00  0.00     0.000 C 
BRANCH   3   4
ATOM      4  C   UNL     1      41.273  20.451  79.914  1.00  0.00     0.000 C 
BRANCH   4   5
ATOM      5  C   UNL     1      40.011  19.593  79.735  1.00  0.00     0.006 C 
BRANCH   5   6
ATOM      6  C   UNL     1      38.764  20.348  80.202  1.00  0.00     0.053 C 
BRANCH   6   7
ATOM      7  C   UNL     1      37.768  19.402  80.794  1.00  0.00     0.041 C 
ATOM      8  O   UNL     1      37.352  18.419  80.126  1.00  0.00    -0.550 OA
ATOM      9  O   UNL     1      37.334  19.578  82.102  1.00  0.00    -0.550 OA
ENDBRANCH   6   7
ENDBRANCH   5   6
ENDBRANCH   4   5
ENDBRANCH   3   4
ENDBRANCH   2   3
ENDBRANCH   1   2
BRANCH   1  10
ATOM     10  C   UNL     1      41.173  21.953  75.163  1.00  0.00     0.000 C 
BRANCH  10  11
ATOM     11  C   UNL     1      42.623  22.453  75.283  1.00  0.00    -0.000 C 
BRANCH  11  12
ATOM     12  C   UNL     1      43.647  21.436  74.760  1.00  0.00    -0.000 C 
BRANCH  12  13
ATOM     13  C   UNL     1      44.675  21.086  75.843  1.00  0.00    -0.000 C 
BRANCH  13  14
ATOM     14  C   UNL     1      45.515  19.867  75.433  1.00  0.00    -0.000 C 
BRANCH  14  15
ATOM     15  C   UNL     1      46.191  19.184  76.632  1.00  0.00    -0.003 C 
ATOM     16  C   UNL     1      45.269  19.070  77.845  1.00  0.00     0.004 C 
ENDBRANCH  14  15
ENDBRANCH  13  14
ENDBRANCH  12  13
ENDBRANCH  11  12
ENDBRANCH  10  11
ENDBRANCH   1  10
TORSDOF 12
ENDMDL
MODEL 8
REMARK VINA RESULT:    -3.029     16.905     18.745
REMARK INTER + INTRA:          -6.638
REMARK INTER:                  -5.715
REMARK INTRA:                  -0.923
REMARK UNBOUND:                -1.484
REMARK SMILES CCCCCCCCCCCCCC(=O)[O-]
REMARK SMILES IDX 8 1 9 2 10 3 11 4 12 5 13 6 14 7 15 8 16 9 7 10 6 11 5 12
REMARK SMILES IDX 4 13 3 14 2 15 1 16
REMARK H PARENT
REMARK Flexibility Score: inf
ROOT
ATOM      1  C   UNL     1      42.921  22.261  78.216  1.00  0.00     0.000 C 
ENDROOT
BRANCH   1   2
ATOM      2  C   UNL     1      44.353  21.839  77.845  1.00  0.00     0.000 C 
BRANCH   2   3
ATOM      3  C   UNL     1      44.790  20.546  78.554  1.00  0.00     0.000 C 
BRANCH   3   4
ATOM      4  C   UNL     1      45.190  19.437  77.567  1.00  0.00     0.000 C 
BRANCH   4   5
ATOM      5  C   UNL     1      45.167  19.907  76.105  1.00  0.00     0.006 C 
BRANCH   5   6
ATOM      6  C   UNL     1      46.274  19.229  75.293  1.00  0.00     0.053 C 
BRANCH   6   7
ATOM      7  C   UNL     1      47.129  20.252  74.614  1.00  0.00     0.041 C 
ATOM      8  O   UNL     1      48.163  20.692  75.182  1.00  0.00    -0.550 OA
ATOM      9  O   UNL     1      46.811  20.683  73.332  1.00  0.00    -0.550 OA
ENDBRANCH   6   7
ENDBRANCH   5   6
ENDBRANCH   4   5
ENDBRANCH   3   4
ENDBRANCH   2   3
ENDBRANCH   1   2
BRANCH   1  10
ATOM     10  C   UNL     1      41.890  21.849  77.150  1.00  0.00     0.000 C 
BRANCH  10  11
ATOM     11  C   UNL     1      40.750  20.995  77.730  1.00  0.00    -0.000 C 
BRANCH  11  12
ATOM     12  C   UNL     1      41.033  20.522  79.164  1.00  0.00    -0.000 C 
BRANCH  12  13
ATOM     13  C   UNL     1      39.941  19.560  79.650  1.00  0.00    -0.000 C 
BRANCH  13  14
ATOM     14  C   UNL     1      38.765  20.330  80.270  1.00  0.00    -0.000 C 
BRANCH  14  15
ATOM     15  C   UNL     1      37.539  19.438  80.517  1.00  0.00    -0.003 C 
ATOM     16  C   UNL     1      37.730  18.014  79.997  1.00  0.00     0.004 C 
ENDBRANCH  14  15
ENDBRANCH  13  14
ENDBRANCH  12  13
ENDBRANCH  11  12
ENDBRANCH  10  11
ENDBRANCH   1  10
TORSDOF 12
ENDMDL
MODEL 9
REMARK VINA RESULT:    -3.022     17.057     18.987
REMARK INTER + INTRA:          -6.626
REMARK INTER:                  -5.414
REMARK INTRA:                  -1.212
REMARK UNBOUND:                -1.484
REMARK SMILES CCCCCCCCCCCCCC(=O)[O-]
REMARK SMILES IDX 8 1 9 2 10 3 11 4 12 5 13 6 14 7 15 8 16 9 7 10 6 11 5 12
REMARK SMILES IDX 4 13 3 14 2 15 1 16
REMARK H PARENT
REMARK Flexibility Score: inf
ROOT
ATOM      1  C   UNL     1      48.102  22.694  76.163  1.00  0.00     0.000 C 
ENDROOT
BRANCH   1   2
ATOM      2  C   UNL     1      49.053  21.533  76.499  1.00  0.00     0.000 C 
BRANCH   2   3
ATOM      3  C   UNL     1      50.535  21.938  76.405  1.00  0.00     0.000 C 
BRANCH   3   4
ATOM      4  C   UNL     1      51.057  21.937  74.959  1.00  0.00     0.000 C 
BRANCH   4   5
ATOM      5  C   UNL     1      52.565  22.214  74.871  1.00  0.00     0.006 C 
BRANCH   5   6
ATOM      6  C   UNL     1      53.265  21.169  73.999  1.00  0.00     0.053 C 
BRANCH   6   7
ATOM      7  C   UNL     1      54.181  20.324  74.826  1.00  0.00     0.041 C 
ATOM      8  O   UNL     1      54.576  19.208  74.396  1.00  0.00    -0.550 OA
ATOM      9  O   UNL     1      54.640  20.790  76.052  1.00  0.00    -0.550 OA
ENDBRANCH   6   7
ENDBRANCH   5   6
ENDBRANCH   4   5
ENDBRANCH   3   4
ENDBRANCH   2   3
ENDBRANCH   1   2
BRANCH   1  10
ATOM     10  C   UNL     1      46.985  22.278  75.190  1.00  0.00     0.000 C 
BRANCH  10  11
ATOM     11  C   UNL     1      47.491  21.351  74.071  1.00  0.00    -0.000 C 
BRANCH  11  12
ATOM     12  C   UNL     1      46.720  20.025  74.003  1.00  0.00    -0.000 C 
BRANCH  12  13
ATOM     13  C   UNL     1      45.813  19.855  75.229  1.00  0.00    -0.000 C 
BRANCH  13  14
ATOM     14  C   UNL     1      46.027  18.482  75.886  1.00  0.00    -0.000 C 
BRANCH  14  15
ATOM     15  C   UNL     1      45.720  18.493  77.391  1.00  0.00    -0.003 C 
ATOM     16  C   UNL     1      46.177  19.779  78.079  1.00  0.00     0.004 C 
ENDBRANCH  14  15
ENDBRANCH  13  14
ENDBRANCH  12  13
ENDBRANCH  11  12
ENDBRANCH  10  11
ENDBRANCH   1  10
TORSDOF 12
ENDMDL
