MODEL 1
REMARK VINA RESULT:     3.642      0.000      0.000
REMARK INTER + INTRA:           4.217
REMARK INTER:                   3.961
REMARK INTRA:                   0.255
REMARK UNBOUND:                 0.255
REMARK SMILES C[C@@H]1[C@H](C)CC[C@@]2(C(=O)[O-])CC[C@]3(C)C(=CC[C@H]4[C@@]5(C)CC[C@@H](O)C(C)(C)[C@H]5CC[C@]43C)[C@@H]12
REMARK SMILES IDX 7 1 6 2 11 3 33 4 5 5 12 6 15 7 2 8 3 9 13 10 16 11 1 12
REMARK SMILES IDX 4 13 14 14 31 15 17 16 18 17 30 18 32 19 19 20 29 21 28 22
REMARK SMILES IDX 21 23 20 24 25 25 22 26 23 27 26 28 27 29 8 30 9 31 10 32
REMARK SMILES IDX 24 33
REMARK H PARENT 24 34
REMARK Flexibility Score: inf
ROOT
ATOM      1  C   UNL     1     -17.633  22.476   9.187  1.00  0.00     0.017 C 
ATOM      2  C   UNL     1     -17.144  21.008   9.337  1.00  0.00     0.014 C 
ATOM      3  C   UNL     1     -19.184  22.510   9.330  1.00  0.00     0.014 C 
ATOM      4  C   UNL     1     -16.908  23.379  10.264  1.00  0.00     0.030 C 
ATOM      5  C   UNL     1     -15.626  20.876   9.173  1.00  0.00     0.004 C 
ATOM      6  C   UNL     1     -19.722  22.442  10.768  1.00  0.00     0.013 C 
ATOM      7  C   UNL     1     -17.577  23.213  11.658  1.00  0.00    -0.063 C 
ATOM      8  C   UNL     1     -15.336  23.207  10.228  1.00  0.00    -0.003 C 
ATOM      9  C   UNL     1     -14.891  21.704  10.234  1.00  0.00    -0.011 C 
ATOM     10  C   UNL     1     -19.089  23.483  11.752  1.00  0.00    -0.006 C 
ATOM     11  C   UNL     1     -16.909  22.681  12.701  1.00  0.00    -0.027 C 
ATOM     12  C   UNL     1     -14.688  24.003   9.070  1.00  0.00     0.008 C 
ATOM     13  C   UNL     1     -13.370  21.526  10.105  1.00  0.00     0.008 C 
ATOM     14  C   UNL     1     -19.366  24.937  11.230  1.00  0.00     0.017 C 
ATOM     15  C   UNL     1     -19.696  23.334  13.255  1.00  0.00    -0.020 C 
ATOM     16  C   UNL     1     -17.519  22.244  13.987  1.00  0.00     0.032 C 
ATOM     17  C   UNL     1     -19.066  22.106  14.000  1.00  0.00     0.006 C 
ATOM     18  C   UNL     1     -19.389  24.600  14.130  1.00  0.00     0.008 C 
ATOM     19  C   UNL     1     -21.250  23.171  13.126  1.00  0.00     0.012 C 
ATOM     20  C   UNL     1     -19.666  21.825  15.481  1.00  0.00    -0.025 C 
ATOM     21  C   UNL     1     -19.328  24.398  15.670  1.00  0.00     0.005 C 
ATOM     22  C   UNL     1     -20.118  23.177  16.212  1.00  0.00     0.003 C 
ATOM     23  C   UNL     1     -18.617  21.039  16.351  1.00  0.00     0.010 C 
ATOM     24  C   UNL     1     -20.902  20.875  15.315  1.00  0.00     0.012 C 
ATOM     25  C   UNL     1     -20.242  23.124  17.808  1.00  0.00    -0.006 C 
ATOM     26  C   UNL     1     -18.954  20.920  17.837  1.00  0.00     0.033 C 
ATOM     27  C   UNL     1     -19.096  22.304  18.468  1.00  0.00     0.120 C 
ATOM     28  C   UNL     1     -21.613  22.508  18.218  1.00  0.00     0.014 C 
ATOM     29  C   UNL     1     -20.249  24.541  18.449  1.00  0.00     0.014 C 
ENDROOT
BRANCH   1  30
ATOM     30  C   UNL     1     -17.361  22.977   7.771  1.00  0.00     0.048 C 
ATOM     31  O   UNL     1     -16.961  22.181   6.880  1.00  0.00    -0.550 OA
ATOM     32  O   UNL     1     -17.413  24.335   7.475  1.00  0.00    -0.550 OA
ENDBRANCH   1  30
BRANCH  27  33
ATOM     33  O   UNL     1     -17.867  22.984  18.361  1.00  0.00    -0.393 OA
ATOM     34  H   UNL     1     -17.192  22.465  18.873  1.00  0.00     0.210 HD
ENDBRANCH  27  33
TORSDOF 2
ENDMDL
