MODEL 1
REMARK VINA RESULT:    -1.720      0.000      0.000
REMARK INTER + INTRA:          -1.720
REMARK INTER:                  -1.720
REMARK INTRA:                   0.000
REMARK UNBOUND:                 0.000
REMARK SMILES CC1(C)O[C@]2(C)CC[C@H]1CC2
REMARK SMILES IDX 1 1 2 2 9 3 8 4 7 5 5 6 4 7 11 8 10 9 6 10 3 11
REMARK H PARENT
REMARK Flexibility Score: inf
ROOT
ATOM      1  C   UNL     1      -9.353  25.988 -14.088  1.00  0.00     0.042 C 
ATOM      2  C   UNL     1     -10.148  25.523 -12.849  1.00  0.00     0.066 C 
ATOM      3  C   UNL     1     -11.607  26.122 -12.864  1.00  0.00     0.021 C 
ATOM      4  C   UNL     1     -12.372  25.584 -11.631  1.00  0.00     0.009 C 
ATOM      5  C   UNL     1     -12.250  24.040 -11.592  1.00  0.00     0.035 C 
ATOM      6  C   UNL     1     -11.482  23.540 -12.849  1.00  0.00     0.066 C 
ATOM      7  O   UNL     1     -10.162  24.087 -12.841  1.00  0.00    -0.369 OA
ATOM      8  C   UNL     1     -12.228  24.026 -14.125  1.00  0.00     0.035 C 
ATOM      9  C   UNL     1     -12.350  25.570 -14.104  1.00  0.00     0.009 C 
ATOM     10  C   UNL     1     -11.383  22.011 -12.840  1.00  0.00     0.042 C 
ATOM     11  C   UNL     1      -9.375  26.002 -11.601  1.00  0.00     0.042 C 
ENDROOT
TORSDOF 0
ENDMDL
MODEL 2
REMARK VINA RESULT:     1.146      0.980      3.299
REMARK INTER + INTRA:           1.146
REMARK INTER:                   1.146
REMARK INTRA:                   0.000
REMARK UNBOUND:                 0.000
REMARK SMILES CC1(C)O[C@]2(C)CC[C@H]1CC2
REMARK SMILES IDX 1 1 2 2 9 3 8 4 7 5 5 6 4 7 11 8 10 9 6 10 3 11
REMARK H PARENT
REMARK Flexibility Score: inf
ROOT
ATOM      1  C   UNL     1     -11.455  22.516 -11.466  1.00  0.00     0.042 C 
ATOM      2  C   UNL     1     -11.526  23.389 -12.737  1.00  0.00     0.066 C 
ATOM      3  C   UNL     1     -12.688  24.450 -12.623  1.00  0.00     0.021 C 
ATOM      4  C   UNL     1     -12.678  25.328 -13.898  1.00  0.00     0.009 C 
ATOM      5  C   UNL     1     -11.249  25.878 -14.124  1.00  0.00     0.035 C 
ATOM      6  C   UNL     1     -10.324  25.444 -12.951  1.00  0.00     0.066 C 
ATOM      7  O   UNL     1     -10.247  24.017 -12.918  1.00  0.00    -0.369 OA
ATOM      8  C   UNL     1     -10.932  25.954 -11.613  1.00  0.00     0.035 C 
ATOM      9  C   UNL     1     -12.368  25.401 -11.445  1.00  0.00     0.009 C 
ATOM     10  C   UNL     1      -8.914  26.010 -13.145  1.00  0.00     0.042 C 
ATOM     11  C   UNL     1     -11.767  22.442 -13.933  1.00  0.00     0.042 C 
ENDROOT
TORSDOF 0
ENDMDL
