MODEL 1
REMARK VINA RESULT:    -4.992      0.000      0.000
REMARK INTER + INTRA:         -10.268
REMARK INTER:                  -9.370
REMARK INTRA:                  -0.898
REMARK UNBOUND:                -0.898
REMARK SMILES CCCCCCCCC=CCCCCCCCC(=O)[O-]
REMARK SMILES IDX 10 1 9 2 11 3 12 4 13 5 14 6 15 7 16 8 17 9 18 10 19 11
REMARK SMILES IDX 20 12 8 13 7 14 6 15 5 16 4 17 3 18 2 19 1 20
REMARK H PARENT
REMARK Flexibility Score: inf
ROOT
ATOM      1  C   UNL     1     147.864 146.804 156.202  1.00  0.00    -0.031 C 
ATOM      2  C   UNL     1     148.186 148.096 156.398  1.00  0.00    -0.031 C 
ENDROOT
BRANCH   1   3
ATOM      3  C   UNL     1     148.104 145.698 157.201  1.00  0.00     0.027 C 
BRANCH   3   4
ATOM      4  C   UNL     1     146.796 145.020 157.638  1.00  0.00     0.004 C 
BRANCH   4   5
ATOM      5  C   UNL     1     146.967 143.564 158.111  1.00  0.00     0.000 C 
BRANCH   5   6
ATOM      6  C   UNL     1     148.422 143.052 158.027  1.00  0.00     0.000 C 
BRANCH   6   7
ATOM      7  C   UNL     1     148.504 141.518 158.106  1.00  0.00     0.000 C 
BRANCH   7   8
ATOM      8  C   UNL     1     147.120 140.845 158.125  1.00  0.00     0.006 C 
BRANCH   8   9
ATOM      9  C   UNL     1     146.778 140.066 156.844  1.00  0.00     0.053 C 
BRANCH   9  10
ATOM     10  C   UNL     1     145.340 139.650 156.806  1.00  0.00     0.041 C 
ATOM     11  O   UNL     1     145.004 138.499 157.189  1.00  0.00    -0.550 OA
ATOM     12  O   UNL     1     144.369 140.537 156.359  1.00  0.00    -0.550 OA
ENDBRANCH   9  10
ENDBRANCH   8   9
ENDBRANCH   7   8
ENDBRANCH   6   7
ENDBRANCH   5   6
ENDBRANCH   4   5
ENDBRANCH   3   4
ENDBRANCH   1   3
BRANCH   2  13
ATOM     13  C   UNL     1     148.750 148.654 157.680  1.00  0.00     0.027 C 
BRANCH  13  14
ATOM     14  C   UNL     1     148.415 150.147 157.815  1.00  0.00     0.004 C 
BRANCH  14  15
ATOM     15  C   UNL     1     147.024 150.494 157.263  1.00  0.00     0.000 C 
BRANCH  15  16
ATOM     16  C   UNL     1     146.700 151.992 157.378  1.00  0.00     0.000 C 
BRANCH  16  17
ATOM     17  C   UNL     1     147.788 152.783 158.124  1.00  0.00    -0.000 C 
BRANCH  17  18
ATOM     18  C   UNL     1     147.908 154.252 157.666  1.00  0.00    -0.000 C 
BRANCH  18  19
ATOM     19  C   UNL     1     149.181 154.500 156.842  1.00  0.00    -0.003 C 
ATOM     20  C   UNL     1     149.749 155.890 157.110  1.00  0.00     0.004 C 
ENDBRANCH  18  19
ENDBRANCH  17  18
ENDBRANCH  16  17
ENDBRANCH  15  16
ENDBRANCH  14  15
ENDBRANCH  13  14
ENDBRANCH   2  13
TORSDOF 15
ENDMDL
MODEL 2
REMARK VINA RESULT:    -4.874      5.214     11.362
REMARK INTER + INTRA:         -10.047
REMARK INTER:                  -9.319
REMARK INTRA:                  -0.728
REMARK UNBOUND:                -0.898
REMARK SMILES CCCCCCCCC=CCCCCCCCC(=O)[O-]
REMARK SMILES IDX 10 1 9 2 11 3 12 4 13 5 14 6 15 7 16 8 17 9 18 10 19 11
REMARK SMILES IDX 20 12 8 13 7 14 6 15 5 16 4 17 3 18 2 19 1 20
REMARK H PARENT
REMARK Flexibility Score: inf
ROOT
ATOM      1  C   UNL     1     148.514 147.675 156.275  1.00  0.00    -0.031 C 
ATOM      2  C   UNL     1     148.970 146.551 156.859  1.00  0.00    -0.031 C 
ENDROOT
BRANCH   1   3
ATOM      3  C   UNL     1     147.058 148.060 156.171  1.00  0.00     0.027 C 
BRANCH   3   4
ATOM      4  C   UNL     1     146.783 149.448 156.771  1.00  0.00     0.004 C 
BRANCH   4   5
ATOM      5  C   UNL     1     147.721 149.831 157.932  1.00  0.00     0.000 C 
BRANCH   5   6
ATOM      6  C   UNL     1     148.324 151.247 157.800  1.00  0.00     0.000 C 
BRANCH   6   7
ATOM      7  C   UNL     1     147.295 152.348 158.108  1.00  0.00     0.000 C 
BRANCH   7   8
ATOM      8  C   UNL     1     147.818 153.761 157.793  1.00  0.00     0.006 C 
BRANCH   8   9
ATOM      9  C   UNL     1     149.306 153.972 158.118  1.00  0.00     0.053 C 
BRANCH   9  10
ATOM     10  C   UNL     1     149.954 154.943 157.181  1.00  0.00     0.041 C 
ATOM     11  O   UNL     1     150.713 154.530 156.266  1.00  0.00    -0.550 OA
ATOM     12  O   UNL     1     149.711 156.305 157.310  1.00  0.00    -0.550 OA
ENDBRANCH   9  10
ENDBRANCH   8   9
ENDBRANCH   7   8
ENDBRANCH   6   7
ENDBRANCH   5   6
ENDBRANCH   4   5
ENDBRANCH   3   4
ENDBRANCH   1   3
BRANCH   2  13
ATOM     13  C   UNL     1     148.105 145.550 157.581  1.00  0.00     0.027 C 
BRANCH  13  14
ATOM     14  C   UNL     1     148.347 144.133 157.037  1.00  0.00     0.004 C 
BRANCH  14  15
ATOM     15  C   UNL     1     148.165 143.050 158.111  1.00  0.00     0.000 C 
BRANCH  15  16
ATOM     16  C   UNL     1     146.830 142.301 157.974  1.00  0.00     0.000 C 
BRANCH  16  17
ATOM     17  C   UNL     1     147.009 140.781 157.828  1.00  0.00    -0.000 C 
BRANCH  17  18
ATOM     18  C   UNL     1     146.027 140.135 156.828  1.00  0.00    -0.000 C 
BRANCH  18  19
ATOM     19  C   UNL     1     145.128 139.084 157.495  1.00  0.00    -0.003 C 
ATOM     20  C   UNL     1     143.979 138.678 156.576  1.00  0.00     0.004 C 
ENDBRANCH  18  19
ENDBRANCH  17  18
ENDBRANCH  16  17
ENDBRANCH  15  16
ENDBRANCH  14  15
ENDBRANCH  13  14
ENDBRANCH   2  13
TORSDOF 15
ENDMDL
MODEL 3
REMARK VINA RESULT:    -4.383      6.005     11.807
REMARK INTER + INTRA:          -9.125
REMARK INTER:                  -8.489
REMARK INTRA:                  -0.636
REMARK UNBOUND:                -0.898
REMARK SMILES CCCCCCCCC=CCCCCCCCC(=O)[O-]
REMARK SMILES IDX 10 1 9 2 11 3 12 4 13 5 14 6 15 7 16 8 17 9 18 10 19 11
REMARK SMILES IDX 20 12 8 13 7 14 6 15 5 16 4 17 3 18 2 19 1 20
REMARK H PARENT
REMARK Flexibility Score: inf
ROOT
ATOM      1  C   UNL     1     147.575 148.673 156.350  1.00  0.00    -0.031 C 
ATOM      2  C   UNL     1     147.351 147.365 156.570  1.00  0.00    -0.031 C 
ENDROOT
BRANCH   1   3
ATOM      3  C   UNL     1     147.984 149.665 157.413  1.00  0.00     0.027 C 
BRANCH   3   4
ATOM      4  C   UNL     1     146.967 150.808 157.557  1.00  0.00     0.004 C 
BRANCH   4   5
ATOM      5  C   UNL     1     147.561 152.114 158.120  1.00  0.00     0.000 C 
BRANCH   5   6
ATOM      6  C   UNL     1     147.802 153.198 157.047  1.00  0.00     0.000 C 
BRANCH   6   7
ATOM      7  C   UNL     1     148.271 154.529 157.660  1.00  0.00     0.000 C 
BRANCH   7   8
ATOM      8  C   UNL     1     149.791 154.576 157.899  1.00  0.00     0.006 C 
BRANCH   8   9
ATOM      9  C   UNL     1     150.580 155.312 156.804  1.00  0.00     0.053 C 
BRANCH   9  10
ATOM     10  C   UNL     1     150.827 156.746 157.157  1.00  0.00     0.041 C 
ATOM     11  O   UNL     1     151.910 157.300 156.833  1.00  0.00    -0.550 OA
ATOM     12  O   UNL     1     149.857 157.476 157.832  1.00  0.00    -0.550 OA
ENDBRANCH   9  10
ENDBRANCH   8   9
ENDBRANCH   7   8
ENDBRANCH   6   7
ENDBRANCH   5   6
ENDBRANCH   4   5
ENDBRANCH   3   4
ENDBRANCH   1   3
BRANCH   2  13
ATOM     13  C   UNL     1     147.564 146.669 157.890  1.00  0.00     0.027 C 
BRANCH  13  14
ATOM     14  C   UNL     1     147.368 145.152 157.741  1.00  0.00     0.004 C 
BRANCH  14  15
ATOM     15  C   UNL     1     148.548 144.471 157.030  1.00  0.00     0.000 C 
BRANCH  15  16
ATOM     16  C   UNL     1     148.863 143.083 157.608  1.00  0.00     0.000 C 
BRANCH  16  17
ATOM     17  C   UNL     1     147.607 142.341 158.099  1.00  0.00    -0.000 C 
BRANCH  17  18
ATOM     18  C   UNL     1     147.767 140.805 158.125  1.00  0.00    -0.000 C 
BRANCH  18  19
ATOM     19  C   UNL     1     146.421 140.081 157.974  1.00  0.00    -0.003 C 
ATOM     20  C   UNL     1     145.274 141.074 157.818  1.00  0.00     0.004 C 
ENDBRANCH  18  19
ENDBRANCH  17  18
ENDBRANCH  16  17
ENDBRANCH  15  16
ENDBRANCH  14  15
ENDBRANCH  13  14
ENDBRANCH   2  13
TORSDOF 15
ENDMDL
MODEL 4
REMARK VINA RESULT:    -4.192      5.762     11.197
REMARK INTER + INTRA:          -8.766
REMARK INTER:                  -8.646
REMARK INTRA:                  -0.120
REMARK UNBOUND:                -0.898
REMARK SMILES CCCCCCCCC=CCCCCCCCC(=O)[O-]
REMARK SMILES IDX 10 1 9 2 11 3 12 4 13 5 14 6 15 7 16 8 17 9 18 10 19 11
REMARK SMILES IDX 20 12 8 13 7 14 6 15 5 16 4 17 3 18 2 19 1 20
REMARK H PARENT
REMARK Flexibility Score: inf
ROOT
ATOM      1  C   UNL     1     148.752 148.769 157.183  1.00  0.00    -0.031 C 
ATOM      2  C   UNL     1     149.055 147.767 156.337  1.00  0.00    -0.031 C 
ENDROOT
BRANCH   1   3
ATOM      3  C   UNL     1     147.546 149.669 157.052  1.00  0.00     0.027 C 
BRANCH   3   4
ATOM      4  C   UNL     1     147.585 150.836 158.051  1.00  0.00     0.004 C 
BRANCH   4   5
ATOM      5  C   UNL     1     146.896 152.119 157.548  1.00  0.00     0.000 C 
BRANCH   5   6
ATOM      6  C   UNL     1     147.538 153.418 158.085  1.00  0.00     0.000 C 
BRANCH   6   7
ATOM      7  C   UNL     1     148.357 154.150 157.007  1.00  0.00     0.000 C 
BRANCH   7   8
ATOM      8  C   UNL     1     148.383 155.676 157.208  1.00  0.00     0.006 C 
BRANCH   8   9
ATOM      9  C   UNL     1     149.555 156.181 158.066  1.00  0.00     0.053 C 
BRANCH   9  10
ATOM     10  C   UNL     1     150.655 156.758 157.231  1.00  0.00     0.041 C 
ATOM     11  O   UNL     1     151.134 156.098 156.271  1.00  0.00    -0.550 OA
ATOM     12  O   UNL     1     151.143 158.030 157.503  1.00  0.00    -0.550 OA
ENDBRANCH   9  10
ENDBRANCH   8   9
ENDBRANCH   7   8
ENDBRANCH   6   7
ENDBRANCH   5   6
ENDBRANCH   4   5
ENDBRANCH   3   4
ENDBRANCH   1   3
BRANCH   2  13
ATOM     13  C   UNL     1     148.189 147.328 155.185  1.00  0.00     0.027 C 
BRANCH  13  14
ATOM     14  C   UNL     1     147.250 146.190 155.615  1.00  0.00     0.004 C 
BRANCH  14  15
ATOM     15  C   UNL     1     146.203 146.645 156.644  1.00  0.00     0.000 C 
BRANCH  15  16
ATOM     16  C   UNL     1     146.516 146.146 158.063  1.00  0.00     0.000 C 
BRANCH  16  17
ATOM     17  C   UNL     1     146.752 144.627 158.124  1.00  0.00    -0.000 C 
BRANCH  17  18
ATOM     18  C   UNL     1     148.127 144.192 157.574  1.00  0.00    -0.000 C 
BRANCH  18  19
ATOM     19  C   UNL     1     148.412 142.705 157.837  1.00  0.00    -0.003 C 
ATOM     20  C   UNL     1     147.126 141.885 157.814  1.00  0.00     0.004 C 
ENDBRANCH  18  19
ENDBRANCH  17  18
ENDBRANCH  16  17
ENDBRANCH  15  16
ENDBRANCH  14  15
ENDBRANCH  13  14
ENDBRANCH   2  13
TORSDOF 15
ENDMDL
MODEL 5
REMARK VINA RESULT:    -4.144      5.700     11.353
REMARK INTER + INTRA:          -8.677
REMARK INTER:                  -7.838
REMARK INTRA:                  -0.839
REMARK UNBOUND:                -0.898
REMARK SMILES CCCCCCCCC=CCCCCCCCC(=O)[O-]
REMARK SMILES IDX 10 1 9 2 11 3 12 4 13 5 14 6 15 7 16 8 17 9 18 10 19 11
REMARK SMILES IDX 20 12 8 13 7 14 6 15 5 16 4 17 3 18 2 19 1 20
REMARK H PARENT
REMARK Flexibility Score: inf
ROOT
ATOM      1  C   UNL     1     146.337 148.453 155.718  1.00  0.00    -0.031 C 
ATOM      2  C   UNL     1     145.847 147.241 156.038  1.00  0.00    -0.031 C 
ENDROOT
BRANCH   1   3
ATOM      3  C   UNL     1     147.630 149.024 156.249  1.00  0.00     0.027 C 
BRANCH   3   4
ATOM      4  C   UNL     1     147.408 149.900 157.491  1.00  0.00     0.004 C 
BRANCH   4   5
ATOM      5  C   UNL     1     146.481 151.107 157.254  1.00  0.00     0.000 C 
BRANCH   5   6
ATOM      6  C   UNL     1     146.838 152.342 158.111  1.00  0.00     0.000 C 
BRANCH   6   7
ATOM      7  C   UNL     1     148.331 152.701 158.019  1.00  0.00     0.000 C 
BRANCH   7   8
ATOM      8  C   UNL     1     148.588 154.217 158.099  1.00  0.00     0.006 C 
BRANCH   8   9
ATOM      9  C   UNL     1     148.369 154.966 156.775  1.00  0.00     0.053 C 
BRANCH   9  10
ATOM     10  C   UNL     1     147.873 156.361 156.993  1.00  0.00     0.041 C 
ATOM     11  O   UNL     1     148.487 157.138 157.771  1.00  0.00    -0.550 OA
ATOM     12  O   UNL     1     146.738 156.810 156.327  1.00  0.00    -0.550 OA
ENDBRANCH   9  10
ENDBRANCH   8   9
ENDBRANCH   7   8
ENDBRANCH   6   7
ENDBRANCH   5   6
ENDBRANCH   4   5
ENDBRANCH   3   4
ENDBRANCH   1   3
BRANCH   2  13
ATOM     13  C   UNL     1     146.559 146.229 156.900  1.00  0.00     0.027 C 
BRANCH  13  14
ATOM     14  C   UNL     1     145.638 145.732 158.025  1.00  0.00     0.004 C 
BRANCH  14  15
ATOM     15  C   UNL     1     144.419 144.962 157.494  1.00  0.00     0.000 C 
BRANCH  15  16
ATOM     16  C   UNL     1     144.283 143.567 158.124  1.00  0.00     0.000 C 
BRANCH  16  17
ATOM     17  C   UNL     1     145.565 142.726 157.997  1.00  0.00    -0.000 C 
BRANCH  17  18
ATOM     18  C   UNL     1     145.300 141.211 157.863  1.00  0.00    -0.000 C 
BRANCH  18  19
ATOM     19  C   UNL     1     146.414 140.495 157.085  1.00  0.00    -0.003 C 
ATOM     20  C   UNL     1     146.442 139.004 157.408  1.00  0.00     0.004 C 
ENDBRANCH  18  19
ENDBRANCH  17  18
ENDBRANCH  16  17
ENDBRANCH  15  16
ENDBRANCH  14  15
ENDBRANCH  13  14
ENDBRANCH   2  13
TORSDOF 15
ENDMDL
MODEL 6
REMARK VINA RESULT:    -4.143      1.213      2.162
REMARK INTER + INTRA:          -8.674
REMARK INTER:                  -7.936
REMARK INTRA:                  -0.737
REMARK UNBOUND:                -0.898
REMARK SMILES CCCCCCCCC=CCCCCCCCC(=O)[O-]
REMARK SMILES IDX 10 1 9 2 11 3 12 4 13 5 14 6 15 7 16 8 17 9 18 10 19 11
REMARK SMILES IDX 20 12 8 13 7 14 6 15 5 16 4 17 3 18 2 19 1 20
REMARK H PARENT
REMARK Flexibility Score: inf
ROOT
ATOM      1  C   UNL     1     146.681 148.143 155.915  1.00  0.00    -0.031 C 
ATOM      2  C   UNL     1     146.494 149.381 156.407  1.00  0.00    -0.031 C 
ENDROOT
BRANCH   1   3
ATOM      3  C   UNL     1     147.996 147.401 155.934  1.00  0.00     0.027 C 
BRANCH   3   4
ATOM      4  C   UNL     1     148.221 146.656 157.259  1.00  0.00     0.004 C 
BRANCH   4   5
ATOM      5  C   UNL     1     146.930 146.127 157.911  1.00  0.00     0.000 C 
BRANCH   5   6
ATOM      6  C   UNL     1     146.871 144.587 158.010  1.00  0.00     0.000 C 
BRANCH   6   7
ATOM      7  C   UNL     1     148.270 143.948 157.964  1.00  0.00     0.000 C 
BRANCH   7   8
ATOM      8  C   UNL     1     148.230 142.412 158.068  1.00  0.00     0.006 C 
BRANCH   8   9
ATOM      9  C   UNL     1     147.219 141.741 157.124  1.00  0.00     0.053 C 
BRANCH   9  10
ATOM     10  C   UNL     1     146.622 140.507 157.725  1.00  0.00     0.041 C 
ATOM     11  O   UNL     1     147.325 139.475 157.883  1.00  0.00    -0.550 OA
ATOM     12  O   UNL     1     145.291 140.500 158.125  1.00  0.00    -0.550 OA
ENDBRANCH   9  10
ENDBRANCH   8   9
ENDBRANCH   7   8
ENDBRANCH   6   7
ENDBRANCH   5   6
ENDBRANCH   4   5
ENDBRANCH   3   4
ENDBRANCH   1   3
BRANCH   2  13
ATOM     13  C   UNL     1     147.542 150.182 157.135  1.00  0.00     0.027 C 
BRANCH  13  14
ATOM     14  C   UNL     1     146.921 151.429 157.783  1.00  0.00     0.004 C 
BRANCH  14  15
ATOM     15  C   UNL     1     147.967 152.501 158.125  1.00  0.00     0.000 C 
BRANCH  15  16
ATOM     16  C   UNL     1     147.535 153.908 157.683  1.00  0.00     0.000 C 
BRANCH  16  17
ATOM     17  C   UNL     1     148.666 154.691 156.993  1.00  0.00    -0.000 C 
BRANCH  17  18
ATOM     18  C   UNL     1     149.491 155.567 157.959  1.00  0.00    -0.000 C 
BRANCH  18  19
ATOM     19  C   UNL     1     149.979 156.862 157.293  1.00  0.00    -0.003 C 
ATOM     20  C   UNL     1     151.451 156.762 156.906  1.00  0.00     0.004 C 
ENDBRANCH  18  19
ENDBRANCH  17  18
ENDBRANCH  16  17
ENDBRANCH  15  16
ENDBRANCH  14  15
ENDBRANCH  13  14
ENDBRANCH   2  13
TORSDOF 15
ENDMDL
MODEL 7
REMARK VINA RESULT:    -3.687      1.301      2.669
REMARK INTER + INTRA:          -7.818
REMARK INTER:                  -8.456
REMARK INTRA:                   0.637
REMARK UNBOUND:                -0.898
REMARK SMILES CCCCCCCCC=CCCCCCCCC(=O)[O-]
REMARK SMILES IDX 10 1 9 2 11 3 12 4 13 5 14 6 15 7 16 8 17 9 18 10 19 11
REMARK SMILES IDX 20 12 8 13 7 14 6 15 5 16 4 17 3 18 2 19 1 20
REMARK H PARENT
REMARK Flexibility Score: inf
ROOT
ATOM      1  C   UNL     1     147.166 145.156 158.005  1.00  0.00    -0.031 C 
ATOM      2  C   UNL     1     146.169 146.059 158.049  1.00  0.00    -0.031 C 
ENDROOT
BRANCH   1   3
ATOM      3  C   UNL     1     148.238 145.113 156.943  1.00  0.00     0.027 C 
BRANCH   3   4
ATOM      4  C   UNL     1     148.835 143.705 156.781  1.00  0.00     0.004 C 
BRANCH   4   5
ATOM      5  C   UNL     1     148.968 142.922 158.101  1.00  0.00     0.000 C 
BRANCH   5   6
ATOM      6  C   UNL     1     148.159 141.606 158.125  1.00  0.00     0.000 C 
BRANCH   6   7
ATOM      7  C   UNL     1     146.769 141.766 157.487  1.00  0.00     0.000 C 
BRANCH   7   8
ATOM      8  C   UNL     1     146.425 140.630 156.506  1.00  0.00     0.006 C 
BRANCH   8   9
ATOM      9  C   UNL     1     146.096 139.290 157.183  1.00  0.00     0.053 C 
BRANCH   9  10
ATOM     10  C   UNL     1     144.668 138.890 156.975  1.00  0.00     0.041 C 
ATOM     11  O   UNL     1     144.108 138.102 157.781  1.00  0.00    -0.550 OA
ATOM     12  O   UNL     1     143.951 139.398 155.898  1.00  0.00    -0.550 OA
ENDBRANCH   9  10
ENDBRANCH   8   9
ENDBRANCH   7   8
ENDBRANCH   6   7
ENDBRANCH   5   6
ENDBRANCH   4   5
ENDBRANCH   3   4
ENDBRANCH   1   3
BRANCH   2  13
ATOM     13  C   UNL     1     146.023 147.222 157.102  1.00  0.00     0.027 C 
BRANCH  13  14
ATOM     14  C   UNL     1     147.046 147.123 155.960  1.00  0.00     0.004 C 
BRANCH  14  15
ATOM     15  C   UNL     1     148.153 148.184 156.063  1.00  0.00     0.000 C 
BRANCH  15  16
ATOM     16  C   UNL     1     148.484 148.550 157.519  1.00  0.00     0.000 C 
BRANCH  16  17
ATOM     17  C   UNL     1     148.102 149.997 157.873  1.00  0.00    -0.000 C 
BRANCH  17  18
ATOM     18  C   UNL     1     146.789 150.469 157.213  1.00  0.00    -0.000 C 
BRANCH  18  19
ATOM     19  C   UNL     1     146.502 151.953 157.490  1.00  0.00    -0.003 C 
ATOM     20  C   UNL     1     147.786 152.712 157.811  1.00  0.00     0.004 C 
ENDBRANCH  18  19
ENDBRANCH  17  18
ENDBRANCH  16  17
ENDBRANCH  15  16
ENDBRANCH  14  15
ENDBRANCH  13  14
ENDBRANCH   2  13
TORSDOF 15
ENDMDL
MODEL 8
REMARK VINA RESULT:    -3.664      5.604     11.403
REMARK INTER + INTRA:          -7.776
REMARK INTER:                  -6.940
REMARK INTRA:                  -0.835
REMARK UNBOUND:                -0.898
REMARK SMILES CCCCCCCCC=CCCCCCCCC(=O)[O-]
REMARK SMILES IDX 10 1 9 2 11 3 12 4 13 5 14 6 15 7 16 8 17 9 18 10 19 11
REMARK SMILES IDX 20 12 8 13 7 14 6 15 5 16 4 17 3 18 2 19 1 20
REMARK H PARENT
REMARK Flexibility Score: inf
ROOT
ATOM      1  C   UNL     1     147.457 153.400 158.010  1.00  0.00    -0.031 C 
ATOM      2  C   UNL     1     147.613 152.085 157.773  1.00  0.00    -0.031 C 
ENDROOT
BRANCH   1   3
ATOM      3  C   UNL     1     146.189 154.177 157.747  1.00  0.00     0.027 C 
BRANCH   3   4
ATOM      4  C   UNL     1     146.473 155.551 157.120  1.00  0.00     0.004 C 
BRANCH   4   5
ATOM      5  C   UNL     1     147.264 156.509 158.032  1.00  0.00     0.000 C 
BRANCH   5   6
ATOM      6  C   UNL     1     148.079 157.569 157.259  1.00  0.00     0.000 C 
BRANCH   6   7
ATOM      7  C   UNL     1     149.401 157.916 157.966  1.00  0.00     0.000 C 
BRANCH   7   8
ATOM      8  C   UNL     1     150.343 156.706 158.099  1.00  0.00     0.006 C 
BRANCH   8   9
ATOM      9  C   UNL     1     151.252 156.476 156.881  1.00  0.00     0.053 C 
BRANCH   9  10
ATOM     10  C   UNL     1     150.815 155.298 156.067  1.00  0.00     0.041 C 
ATOM     11  O   UNL     1     151.500 154.920 155.081  1.00  0.00    -0.550 OA
ATOM     12  O   UNL     1     149.657 154.608 156.405  1.00  0.00    -0.550 OA
ENDBRANCH   9  10
ENDBRANCH   8   9
ENDBRANCH   7   8
ENDBRANCH   6   7
ENDBRANCH   5   6
ENDBRANCH   4   5
ENDBRANCH   3   4
ENDBRANCH   1   3
BRANCH   2  13
ATOM     13  C   UNL     1     146.518 151.165 157.297  1.00  0.00     0.027 C 
BRANCH  13  14
ATOM     14  C   UNL     1     146.968 149.698 157.379  1.00  0.00     0.004 C 
BRANCH  14  15
ATOM     15  C   UNL     1     146.116 148.769 156.501  1.00  0.00     0.000 C 
BRANCH  15  16
ATOM     16  C   UNL     1     146.964 147.931 155.531  1.00  0.00     0.000 C 
BRANCH  16  17
ATOM     17  C   UNL     1     148.445 147.859 155.942  1.00  0.00    -0.000 C 
BRANCH  17  18
ATOM     18  C   UNL     1     148.738 146.784 157.011  1.00  0.00    -0.000 C 
BRANCH  18  19
ATOM     19  C   UNL     1     147.893 145.518 156.808  1.00  0.00    -0.003 C 
ATOM     20  C   UNL     1     147.199 145.105 158.102  1.00  0.00     0.004 C 
ENDBRANCH  18  19
ENDBRANCH  17  18
ENDBRANCH  16  17
ENDBRANCH  15  16
ENDBRANCH  14  15
ENDBRANCH  13  14
ENDBRANCH   2  13
TORSDOF 15
ENDMDL
MODEL 9
REMARK VINA RESULT:    -3.362      1.296      2.266
REMARK INTER + INTRA:          -7.209
REMARK INTER:                  -7.549
REMARK INTRA:                   0.339
REMARK UNBOUND:                -0.898
REMARK SMILES CCCCCCCCC=CCCCCCCCC(=O)[O-]
REMARK SMILES IDX 10 1 9 2 11 3 12 4 13 5 14 6 15 7 16 8 17 9 18 10 19 11
REMARK SMILES IDX 20 12 8 13 7 14 6 15 5 16 4 17 3 18 2 19 1 20
REMARK H PARENT
REMARK Flexibility Score: inf
ROOT
ATOM      1  C   UNL     1     146.043 147.126 155.920  1.00  0.00    -0.031 C 
ATOM      2  C   UNL     1     147.133 147.809 155.525  1.00  0.00    -0.031 C 
ENDROOT
BRANCH   1   3
ATOM      3  C   UNL     1     145.448 147.184 157.306  1.00  0.00     0.027 C 
BRANCH   3   4
ATOM      4  C   UNL     1     145.706 145.894 158.100  1.00  0.00     0.004 C 
BRANCH   4   5
ATOM      5  C   UNL     1     146.959 145.118 157.652  1.00  0.00     0.000 C 
BRANCH   5   6
ATOM      6  C   UNL     1     146.965 143.639 158.098  1.00  0.00     0.000 C 
BRANCH   6   7
ATOM      7  C   UNL     1     148.359 143.000 157.976  1.00  0.00     0.000 C 
BRANCH   7   8
ATOM      8  C   UNL     1     148.326 141.465 158.083  1.00  0.00     0.006 C 
BRANCH   8   9
ATOM      9  C   UNL     1     147.002 140.829 157.632  1.00  0.00     0.053 C 
BRANCH   9  10
ATOM     10  C   UNL     1     147.159 139.379 157.296  1.00  0.00     0.041 C 
ATOM     11  O   UNL     1     146.167 138.706 156.912  1.00  0.00    -0.550 OA
ATOM     12  O   UNL     1     148.406 138.772 157.394  1.00  0.00    -0.550 OA
ENDBRANCH   9  10
ENDBRANCH   8   9
ENDBRANCH   7   8
ENDBRANCH   6   7
ENDBRANCH   5   6
ENDBRANCH   4   5
ENDBRANCH   3   4
ENDBRANCH   1   3
BRANCH   2  13
ATOM     13  C   UNL     1     147.872 148.809 156.377  1.00  0.00     0.027 C 
BRANCH  13  14
ATOM     14  C   UNL     1     149.069 148.147 157.076  1.00  0.00     0.004 C 
BRANCH  14  15
ATOM     15  C   UNL     1     149.721 149.061 158.125  1.00  0.00     0.000 C 
BRANCH  15  16
ATOM     16  C   UNL     1     149.217 150.511 158.038  1.00  0.00     0.000 C 
BRANCH  16  17
ATOM     17  C   UNL     1     147.682 150.611 158.032  1.00  0.00    -0.000 C 
BRANCH  17  18
ATOM     18  C   UNL     1     147.154 151.993 157.592  1.00  0.00    -0.000 C 
BRANCH  18  19
ATOM     19  C   UNL     1     148.023 153.142 158.125  1.00  0.00    -0.003 C 
ATOM     20  C   UNL     1     147.389 154.497 157.827  1.00  0.00     0.004 C 
ENDBRANCH  18  19
ENDBRANCH  17  18
ENDBRANCH  16  17
ENDBRANCH  15  16
ENDBRANCH  14  15
ENDBRANCH  13  14
ENDBRANCH   2  13
TORSDOF 15
ENDMDL
