MODEL 1
REMARK VINA RESULT:    -5.439      0.000      0.000
REMARK INTER + INTRA:         -13.026
REMARK INTER:                 -10.209
REMARK INTRA:                  -2.818
REMARK UNBOUND:                -2.818
REMARK SMILES CCCCCCCCC=CCCCCCCCC(=O)[O-]
REMARK SMILES IDX 10 1 9 2 11 3 12 4 13 5 14 6 15 7 16 8 17 9 18 10 19 11
REMARK SMILES IDX 20 12 8 13 7 14 6 15 5 16 4 17 3 18 2 19 1 20
REMARK H PARENT
REMARK Flexibility Score: inf
ROOT
ATOM      1  C   UNL     1      -3.117   5.173 -20.510  1.00  0.00    -0.031 C 
ATOM      2  C   UNL     1      -1.897   4.747 -20.145  1.00  0.00    -0.031 C 
ENDROOT
BRANCH   1   3
ATOM      3  C   UNL     1      -3.334   5.959 -21.774  1.00  0.00     0.027 C 
BRANCH   3   4
ATOM      4  C   UNL     1      -4.445   7.004 -21.591  1.00  0.00     0.004 C 
BRANCH   4   5
ATOM      5  C   UNL     1      -5.480   6.975 -22.726  1.00  0.00     0.000 C 
BRANCH   5   6
ATOM      6  C   UNL     1      -6.923   7.099 -22.218  1.00  0.00     0.000 C 
BRANCH   6   7
ATOM      7  C   UNL     1      -6.964   7.077 -20.683  1.00  0.00     0.000 C 
BRANCH   7   8
ATOM      8  C   UNL     1      -7.835   8.198 -20.094  1.00  0.00     0.006 C 
BRANCH   8   9
ATOM      9  C   UNL     1      -7.529   9.571 -20.708  1.00  0.00     0.053 C 
BRANCH   9  10
ATOM     10  C   UNL     1      -6.295  10.154 -20.097  1.00  0.00     0.041 C 
ATOM     11  O   UNL     1      -5.231  10.229 -20.767  1.00  0.00    -0.550 OA
ATOM     12  O   UNL     1      -6.303  10.566 -18.772  1.00  0.00    -0.550 OA
ENDBRANCH   9  10
ENDBRANCH   8   9
ENDBRANCH   7   8
ENDBRANCH   6   7
ENDBRANCH   5   6
ENDBRANCH   4   5
ENDBRANCH   3   4
ENDBRANCH   1   3
BRANCH   2  13
ATOM     13  C   UNL     1      -1.690   3.934 -18.897  1.00  0.00     0.027 C 
BRANCH  13  14
ATOM     14  C   UNL     1      -1.135   4.798 -17.756  1.00  0.00     0.004 C 
BRANCH  14  15
ATOM     15  C   UNL     1      -0.311   5.995 -18.262  1.00  0.00     0.000 C 
BRANCH  15  16
ATOM     16  C   UNL     1      -0.966   7.375 -18.051  1.00  0.00     0.000 C 
BRANCH  16  17
ATOM     17  C   UNL     1      -2.322   7.349 -17.323  1.00  0.00    -0.000 C 
BRANCH  17  18
ATOM     18  C   UNL     1      -3.431   8.071 -18.102  1.00  0.00    -0.000 C 
BRANCH  18  19
ATOM     19  C   UNL     1      -4.782   7.373 -17.907  1.00  0.00    -0.003 C 
ATOM     20  C   UNL     1      -4.606   6.004 -17.258  1.00  0.00     0.004 C 
ENDBRANCH  18  19
ENDBRANCH  17  18
ENDBRANCH  16  17
ENDBRANCH  15  16
ENDBRANCH  14  15
ENDBRANCH  13  14
ENDBRANCH   2  13
TORSDOF 15
ENDMDL
MODEL 2
REMARK VINA RESULT:    -5.423      1.816      5.510
REMARK INTER + INTRA:         -12.995
REMARK INTER:                 -10.583
REMARK INTRA:                  -2.412
REMARK UNBOUND:                -2.818
REMARK SMILES CCCCCCCCC=CCCCCCCCC(=O)[O-]
REMARK SMILES IDX 10 1 9 2 11 3 12 4 13 5 14 6 15 7 16 8 17 9 18 10 19 11
REMARK SMILES IDX 20 12 8 13 7 14 6 15 5 16 4 17 3 18 2 19 1 20
REMARK H PARENT
REMARK Flexibility Score: inf
ROOT
ATOM      1  C   UNL     1      -3.219   5.642 -20.518  1.00  0.00    -0.031 C 
ATOM      2  C   UNL     1      -3.491   5.696 -21.832  1.00  0.00    -0.031 C 
ENDROOT
BRANCH   1   3
ATOM      3  C   UNL     1      -2.754   4.372 -19.859  1.00  0.00     0.027 C 
BRANCH   3   4
ATOM      4  C   UNL     1      -1.240   4.408 -19.594  1.00  0.00     0.004 C 
BRANCH   4   5
ATOM      5  C   UNL     1      -0.895   4.267 -18.104  1.00  0.00     0.000 C 
BRANCH   5   6
ATOM      6  C   UNL     1      -1.059   5.582 -17.329  1.00  0.00     0.000 C 
BRANCH   6   7
ATOM      7  C   UNL     1      -0.413   6.748 -18.091  1.00  0.00     0.000 C 
BRANCH   7   8
ATOM      8  C   UNL     1      -1.137   8.084 -17.861  1.00  0.00     0.006 C 
BRANCH   8   9
ATOM      9  C   UNL     1      -2.651   7.914 -17.677  1.00  0.00     0.053 C 
BRANCH   9  10
ATOM     10  C   UNL     1      -3.123   8.686 -16.486  1.00  0.00     0.041 C 
ATOM     11  O   UNL     1      -3.111   9.945 -16.502  1.00  0.00    -0.550 OA
ATOM     12  O   UNL     1      -3.529   8.016 -15.340  1.00  0.00    -0.550 OA
ENDBRANCH   9  10
ENDBRANCH   8   9
ENDBRANCH   7   8
ENDBRANCH   6   7
ENDBRANCH   5   6
ENDBRANCH   4   5
ENDBRANCH   3   4
ENDBRANCH   1   3
BRANCH   2  13
ATOM     13  C   UNL     1      -3.924   6.976 -22.491  1.00  0.00     0.027 C 
BRANCH  13  14
ATOM     14  C   UNL     1      -5.213   6.775 -23.301  1.00  0.00     0.004 C 
BRANCH  14  15
ATOM     15  C   UNL     1      -6.475   6.775 -22.422  1.00  0.00     0.000 C 
BRANCH  15  16
ATOM     16  C   UNL     1      -6.657   8.029 -21.541  1.00  0.00     0.000 C 
BRANCH  16  17
ATOM     17  C   UNL     1      -6.742   7.756 -20.028  1.00  0.00    -0.000 C 
BRANCH  17  18
ATOM     18  C   UNL     1      -5.890   8.728 -19.199  1.00  0.00    -0.000 C 
BRANCH  18  19
ATOM     19  C   UNL     1      -5.006   9.591 -20.105  1.00  0.00    -0.003 C 
ATOM     20  C   UNL     1      -4.777  10.972 -19.498  1.00  0.00     0.004 C 
ENDBRANCH  18  19
ENDBRANCH  17  18
ENDBRANCH  16  17
ENDBRANCH  15  16
ENDBRANCH  14  15
ENDBRANCH  13  14
ENDBRANCH   2  13
TORSDOF 15
ENDMDL
MODEL 3
REMARK VINA RESULT:    -5.413      2.400      5.262
REMARK INTER + INTRA:         -12.976
REMARK INTER:                 -10.213
REMARK INTRA:                  -2.763
REMARK UNBOUND:                -2.818
REMARK SMILES CCCCCCCCC=CCCCCCCCC(=O)[O-]
REMARK SMILES IDX 10 1 9 2 11 3 12 4 13 5 14 6 15 7 16 8 17 9 18 10 19 11
REMARK SMILES IDX 20 12 8 13 7 14 6 15 5 16 4 17 3 18 2 19 1 20
REMARK H PARENT
REMARK Flexibility Score: inf
ROOT
ATOM      1  C   UNL     1      -6.707   7.186 -20.753  1.00  0.00    -0.031 C 
ATOM      2  C   UNL     1      -7.710   7.502 -19.919  1.00  0.00    -0.031 C 
ENDROOT
BRANCH   1   3
ATOM      3  C   UNL     1      -6.882   7.217 -22.247  1.00  0.00     0.027 C 
BRANCH   3   4
ATOM      4  C   UNL     1      -5.600   6.770 -22.965  1.00  0.00     0.004 C 
BRANCH   4   5
ATOM      5  C   UNL     1      -4.333   7.031 -22.135  1.00  0.00     0.000 C 
BRANCH   5   6
ATOM      6  C   UNL     1      -3.488   5.767 -21.928  1.00  0.00     0.000 C 
BRANCH   6   7
ATOM      7  C   UNL     1      -3.273   5.492 -20.433  1.00  0.00     0.000 C 
BRANCH   7   8
ATOM      8  C   UNL     1      -2.007   4.667 -20.154  1.00  0.00     0.006 C 
BRANCH   8   9
ATOM      9  C   UNL     1      -1.881   4.253 -18.681  1.00  0.00     0.053 C 
BRANCH   9  10
ATOM     10  C   UNL     1      -1.341   5.383 -17.865  1.00  0.00     0.041 C 
ATOM     11  O   UNL     1      -1.999   5.831 -16.889  1.00  0.00    -0.550 OA
ATOM     12  O   UNL     1      -0.136   5.977 -18.212  1.00  0.00    -0.550 OA
ENDBRANCH   9  10
ENDBRANCH   8   9
ENDBRANCH   7   8
ENDBRANCH   6   7
ENDBRANCH   5   6
ENDBRANCH   4   5
ENDBRANCH   3   4
ENDBRANCH   1   3
BRANCH   2  13
ATOM     13  C   UNL     1      -7.519   7.500 -18.427  1.00  0.00     0.027 C 
BRANCH  13  14
ATOM     14  C   UNL     1      -6.771   6.242 -17.964  1.00  0.00     0.004 C 
BRANCH  14  15
ATOM     15  C   UNL     1      -5.339   6.541 -17.489  1.00  0.00     0.000 C 
BRANCH  15  16
ATOM     16  C   UNL     1      -4.945   8.033 -17.500  1.00  0.00     0.000 C 
BRANCH  16  17
ATOM     17  C   UNL     1      -3.891   8.422 -18.552  1.00  0.00    -0.000 C 
BRANCH  17  18
ATOM     18  C   UNL     1      -3.932   9.913 -18.914  1.00  0.00    -0.000 C 
BRANCH  18  19
ATOM     19  C   UNL     1      -4.625  10.131 -20.264  1.00  0.00    -0.003 C 
ATOM     20  C   UNL     1      -5.994  10.780 -20.082  1.00  0.00     0.004 C 
ENDBRANCH  18  19
ENDBRANCH  17  18
ENDBRANCH  16  17
ENDBRANCH  15  16
ENDBRANCH  14  15
ENDBRANCH  13  14
ENDBRANCH   2  13
TORSDOF 15
ENDMDL
MODEL 4
REMARK VINA RESULT:    -5.383      1.454      2.790
REMARK INTER + INTRA:         -12.922
REMARK INTER:                 -10.545
REMARK INTRA:                  -2.377
REMARK UNBOUND:                -2.818
REMARK SMILES CCCCCCCCC=CCCCCCCCC(=O)[O-]
REMARK SMILES IDX 10 1 9 2 11 3 12 4 13 5 14 6 15 7 16 8 17 9 18 10 19 11
REMARK SMILES IDX 20 12 8 13 7 14 6 15 5 16 4 17 3 18 2 19 1 20
REMARK H PARENT
REMARK Flexibility Score: inf
ROOT
ATOM      1  C   UNL     1      -4.299   6.865 -22.385  1.00  0.00    -0.031 C 
ATOM      2  C   UNL     1      -3.909   5.770 -21.712  1.00  0.00    -0.031 C 
ENDROOT
BRANCH   1   3
ATOM      3  C   UNL     1      -5.498   6.849 -23.292  1.00  0.00     0.027 C 
BRANCH   3   4
ATOM      4  C   UNL     1      -6.802   6.762 -22.484  1.00  0.00     0.004 C 
BRANCH   4   5
ATOM      5  C   UNL     1      -6.916   7.864 -21.419  1.00  0.00     0.000 C 
BRANCH   5   6
ATOM      6  C   UNL     1      -7.018   7.303 -19.994  1.00  0.00     0.000 C 
BRANCH   6   7
ATOM      7  C   UNL     1      -5.883   7.844 -19.112  1.00  0.00     0.000 C 
BRANCH   7   8
ATOM      8  C   UNL     1      -5.734   9.371 -19.204  1.00  0.00     0.006 C 
BRANCH   8   9
ATOM      9  C   UNL     1      -4.298   9.808 -19.529  1.00  0.00     0.053 C 
BRANCH   9  10
ATOM     10  C   UNL     1      -3.861  10.897 -18.602  1.00  0.00     0.041 C 
ATOM     11  O   UNL     1      -3.334  11.945 -19.059  1.00  0.00    -0.550 OA
ATOM     12  O   UNL     1      -3.988  10.734 -17.229  1.00  0.00    -0.550 OA
ENDBRANCH   9  10
ENDBRANCH   8   9
ENDBRANCH   7   8
ENDBRANCH   6   7
ENDBRANCH   5   6
ENDBRANCH   4   5
ENDBRANCH   3   4
ENDBRANCH   1   3
BRANCH   2  13
ATOM     13  C   UNL     1      -2.728   5.801 -20.781  1.00  0.00     0.027 C 
BRANCH  13  14
ATOM     14  C   UNL     1      -2.659   4.525 -19.930  1.00  0.00     0.004 C 
BRANCH  14  15
ATOM     15  C   UNL     1      -1.215   4.071 -19.654  1.00  0.00     0.000 C 
BRANCH  15  16
ATOM     16  C   UNL     1      -0.804   4.068 -18.167  1.00  0.00     0.000 C 
BRANCH  16  17
ATOM     17  C   UNL     1      -1.136   5.358 -17.397  1.00  0.00    -0.000 C 
BRANCH  17  18
ATOM     18  C   UNL     1      -0.412   6.591 -17.958  1.00  0.00    -0.000 C 
BRANCH  18  19
ATOM     19  C   UNL     1      -1.295   7.839 -17.854  1.00  0.00    -0.003 C 
ATOM     20  C   UNL     1      -2.619   7.522 -17.166  1.00  0.00     0.004 C 
ENDBRANCH  18  19
ENDBRANCH  17  18
ENDBRANCH  16  17
ENDBRANCH  15  16
ENDBRANCH  14  15
ENDBRANCH  13  14
ENDBRANCH   2  13
TORSDOF 15
ENDMDL
MODEL 5
REMARK VINA RESULT:    -5.381      1.904      2.795
REMARK INTER + INTRA:         -12.917
REMARK INTER:                 -10.523
REMARK INTRA:                  -2.394
REMARK UNBOUND:                -2.818
REMARK SMILES CCCCCCCCC=CCCCCCCCC(=O)[O-]
REMARK SMILES IDX 10 1 9 2 11 3 12 4 13 5 14 6 15 7 16 8 17 9 18 10 19 11
REMARK SMILES IDX 20 12 8 13 7 14 6 15 5 16 4 17 3 18 2 19 1 20
REMARK H PARENT
REMARK Flexibility Score: inf
ROOT
ATOM      1  C   UNL     1      -3.801   5.717 -21.645  1.00  0.00    -0.031 C 
ATOM      2  C   UNL     1      -2.931   5.640 -20.626  1.00  0.00    -0.031 C 
ENDROOT
BRANCH   1   3
ATOM      3  C   UNL     1      -3.993   6.989 -22.425  1.00  0.00     0.027 C 
BRANCH   3   4
ATOM      4  C   UNL     1      -5.320   6.968 -23.199  1.00  0.00     0.004 C 
BRANCH   4   5
ATOM      5  C   UNL     1      -6.528   6.663 -22.300  1.00  0.00     0.000 C 
BRANCH   5   6
ATOM      6  C   UNL     1      -7.036   7.902 -21.549  1.00  0.00     0.000 C 
BRANCH   6   7
ATOM      7  C   UNL     1      -7.456   7.539 -20.117  1.00  0.00     0.000 C 
BRANCH   7   8
ATOM      8  C   UNL     1      -6.344   7.794 -19.087  1.00  0.00     0.006 C 
BRANCH   8   9
ATOM      9  C   UNL     1      -5.823   6.500 -18.445  1.00  0.00     0.053 C 
BRANCH   9  10
ATOM     10  C   UNL     1      -6.222   6.434 -17.006  1.00  0.00     0.041 C 
ATOM     11  O   UNL     1      -7.289   6.978 -16.618  1.00  0.00    -0.550 OA
ATOM     12  O   UNL     1      -5.391   5.815 -16.082  1.00  0.00    -0.550 OA
ENDBRANCH   9  10
ENDBRANCH   8   9
ENDBRANCH   7   8
ENDBRANCH   6   7
ENDBRANCH   5   6
ENDBRANCH   4   5
ENDBRANCH   3   4
ENDBRANCH   1   3
BRANCH   2  13
ATOM     13  C   UNL     1      -2.719   4.357 -19.871  1.00  0.00     0.027 C 
BRANCH  13  14
ATOM     14  C   UNL     1      -1.244   4.177 -19.483  1.00  0.00     0.004 C 
BRANCH  14  15
ATOM     15  C   UNL     1      -0.925   4.734 -18.084  1.00  0.00     0.000 C 
BRANCH  15  16
ATOM     16  C   UNL     1      -0.122   6.052 -18.074  1.00  0.00     0.000 C 
BRANCH  16  17
ATOM     17  C   UNL     1      -0.971   7.332 -17.974  1.00  0.00    -0.000 C 
BRANCH  17  18
ATOM     18  C   UNL     1      -2.302   7.108 -17.241  1.00  0.00    -0.000 C 
BRANCH  18  19
ATOM     19  C   UNL     1      -3.030   8.437 -17.011  1.00  0.00    -0.003 C 
ATOM     20  C   UNL     1      -2.650   9.465 -18.072  1.00  0.00     0.004 C 
ENDBRANCH  18  19
ENDBRANCH  17  18
ENDBRANCH  16  17
ENDBRANCH  15  16
ENDBRANCH  14  15
ENDBRANCH  13  14
ENDBRANCH   2  13
TORSDOF 15
ENDMDL
MODEL 6
REMARK VINA RESULT:    -5.327      1.834      5.376
REMARK INTER + INTRA:         -12.815
REMARK INTER:                 -10.403
REMARK INTRA:                  -2.413
REMARK UNBOUND:                -2.818
REMARK SMILES CCCCCCCCC=CCCCCCCCC(=O)[O-]
REMARK SMILES IDX 10 1 9 2 11 3 12 4 13 5 14 6 15 7 16 8 17 9 18 10 19 11
REMARK SMILES IDX 20 12 8 13 7 14 6 15 5 16 4 17 3 18 2 19 1 20
REMARK H PARENT
REMARK Flexibility Score: inf
ROOT
ATOM      1  C   UNL     1      -2.362   4.602 -20.539  1.00  0.00    -0.031 C 
ATOM      2  C   UNL     1      -3.165   5.621 -20.887  1.00  0.00    -0.031 C 
ENDROOT
BRANCH   1   3
ATOM      3  C   UNL     1      -2.252   4.134 -19.115  1.00  0.00     0.027 C 
BRANCH   3   4
ATOM      4  C   UNL     1      -0.891   4.512 -18.510  1.00  0.00     0.004 C 
BRANCH   4   5
ATOM      5  C   UNL     1      -0.995   5.638 -17.471  1.00  0.00     0.000 C 
BRANCH   5   6
ATOM      6  C   UNL     1      -0.848   7.034 -18.092  1.00  0.00     0.000 C 
BRANCH   6   7
ATOM      7  C   UNL     1      -1.929   7.986 -17.559  1.00  0.00     0.000 C 
BRANCH   7   8
ATOM      8  C   UNL     1      -3.181   8.023 -18.449  1.00  0.00     0.006 C 
BRANCH   8   9
ATOM      9  C   UNL     1      -4.481   7.838 -17.653  1.00  0.00     0.053 C 
BRANCH   9  10
ATOM     10  C   UNL     1      -4.663   6.402 -17.277  1.00  0.00     0.041 C 
ATOM     11  O   UNL     1      -5.284   5.620 -18.044  1.00  0.00    -0.550 OA
ATOM     12  O   UNL     1      -4.193   5.939 -16.055  1.00  0.00    -0.550 OA
ENDBRANCH   9  10
ENDBRANCH   8   9
ENDBRANCH   7   8
ENDBRANCH   6   7
ENDBRANCH   5   6
ENDBRANCH   4   5
ENDBRANCH   3   4
ENDBRANCH   1   3
BRANCH   2  13
ATOM     13  C   UNL     1      -3.294   6.064 -22.318  1.00  0.00     0.027 C 
BRANCH  13  14
ATOM     14  C   UNL     1      -4.311   7.205 -22.457  1.00  0.00     0.004 C 
BRANCH  14  15
ATOM     15  C   UNL     1      -5.645   6.744 -23.070  1.00  0.00     0.000 C 
BRANCH  15  16
ATOM     16  C   UNL     1      -6.891   7.016 -22.202  1.00  0.00     0.000 C 
BRANCH  16  17
ATOM     17  C   UNL     1      -6.610   7.705 -20.854  1.00  0.00    -0.000 C 
BRANCH  17  18
ATOM     18  C   UNL     1      -7.620   8.815 -20.530  1.00  0.00    -0.000 C 
BRANCH  18  19
ATOM     19  C   UNL     1      -6.903  10.126 -20.187  1.00  0.00    -0.003 C 
ATOM     20  C   UNL     1      -5.440  10.082 -20.617  1.00  0.00     0.004 C 
ENDBRANCH  18  19
ENDBRANCH  17  18
ENDBRANCH  16  17
ENDBRANCH  15  16
ENDBRANCH  14  15
ENDBRANCH  13  14
ENDBRANCH   2  13
TORSDOF 15
ENDMDL
MODEL 7
REMARK VINA RESULT:    -5.284      1.414      4.578
REMARK INTER + INTRA:         -12.735
REMARK INTER:                 -10.179
REMARK INTRA:                  -2.556
REMARK UNBOUND:                -2.818
REMARK SMILES CCCCCCCCC=CCCCCCCCC(=O)[O-]
REMARK SMILES IDX 10 1 9 2 11 3 12 4 13 5 14 6 15 7 16 8 17 9 18 10 19 11
REMARK SMILES IDX 20 12 8 13 7 14 6 15 5 16 4 17 3 18 2 19 1 20
REMARK H PARENT
REMARK Flexibility Score: inf
ROOT
ATOM      1  C   UNL     1      -6.642   7.473 -20.513  1.00  0.00    -0.031 C 
ATOM      2  C   UNL     1      -6.972   7.103 -21.761  1.00  0.00    -0.031 C 
ENDROOT
BRANCH   1   3
ATOM      3  C   UNL     1      -7.688   7.791 -19.480  1.00  0.00     0.027 C 
BRANCH   3   4
ATOM      4  C   UNL     1      -7.190   7.455 -18.066  1.00  0.00     0.004 C 
BRANCH   4   5
ATOM      5  C   UNL     1      -6.211   6.271 -18.047  1.00  0.00     0.000 C 
BRANCH   5   6
ATOM      6  C   UNL     1      -4.892   6.603 -17.334  1.00  0.00     0.000 C 
BRANCH   6   7
ATOM      7  C   UNL     1      -4.668   8.121 -17.279  1.00  0.00     0.000 C 
BRANCH   7   8
ATOM      8  C   UNL     1      -3.485   8.581 -18.146  1.00  0.00     0.006 C 
BRANCH   8   9
ATOM      9  C   UNL     1      -3.925   9.425 -19.350  1.00  0.00     0.053 C 
BRANCH   9  10
ATOM     10  C   UNL     1      -3.984  10.873 -18.979  1.00  0.00     0.041 C 
ATOM     11  O   UNL     1      -4.831  11.632 -19.520  1.00  0.00    -0.550 OA
ATOM     12  O   UNL     1      -3.071  11.396 -18.074  1.00  0.00    -0.550 OA
ENDBRANCH   9  10
ENDBRANCH   8   9
ENDBRANCH   7   8
ENDBRANCH   6   7
ENDBRANCH   5   6
ENDBRANCH   4   5
ENDBRANCH   3   4
ENDBRANCH   1   3
BRANCH   2  13
ATOM     13  C   UNL     1      -5.923   6.754 -22.779  1.00  0.00     0.027 C 
BRANCH  13  14
ATOM     14  C   UNL     1      -4.540   7.263 -22.350  1.00  0.00     0.004 C 
BRANCH  14  15
ATOM     15  C   UNL     1      -3.542   6.124 -22.083  1.00  0.00     0.000 C 
BRANCH  15  16
ATOM     16  C   UNL     1      -3.416   5.698 -20.605  1.00  0.00     0.000 C 
BRANCH  16  17
ATOM     17  C   UNL     1      -1.974   5.596 -20.076  1.00  0.00    -0.000 C 
BRANCH  17  18
ATOM     18  C   UNL     1      -1.696   4.269 -19.356  1.00  0.00    -0.000 C 
BRANCH  18  19
ATOM     19  C   UNL     1      -0.925   4.504 -18.052  1.00  0.00    -0.003 C 
ATOM     20  C   UNL     1      -0.475   5.957 -17.933  1.00  0.00     0.004 C 
ENDBRANCH  18  19
ENDBRANCH  17  18
ENDBRANCH  16  17
ENDBRANCH  15  16
ENDBRANCH  14  15
ENDBRANCH  13  14
ENDBRANCH   2  13
TORSDOF 15
ENDMDL
MODEL 8
REMARK VINA RESULT:    -5.274      1.779      5.279
REMARK INTER + INTRA:         -12.716
REMARK INTER:                 -10.676
REMARK INTRA:                  -2.040
REMARK UNBOUND:                -2.818
REMARK SMILES CCCCCCCCC=CCCCCCCCC(=O)[O-]
REMARK SMILES IDX 10 1 9 2 11 3 12 4 13 5 14 6 15 7 16 8 17 9 18 10 19 11
REMARK SMILES IDX 20 12 8 13 7 14 6 15 5 16 4 17 3 18 2 19 1 20
REMARK H PARENT
REMARK Flexibility Score: inf
ROOT
ATOM      1  C   UNL     1      -3.073   5.517 -20.529  1.00  0.00    -0.031 C 
ATOM      2  C   UNL     1      -3.535   5.561 -21.788  1.00  0.00    -0.031 C 
ENDROOT
BRANCH   1   3
ATOM      3  C   UNL     1      -2.739   4.214 -19.856  1.00  0.00     0.027 C 
BRANCH   3   4
ATOM      4  C   UNL     1      -1.238   4.123 -19.541  1.00  0.00     0.004 C 
BRANCH   4   5
ATOM      5  C   UNL     1      -0.868   4.794 -18.209  1.00  0.00     0.000 C 
BRANCH   5   6
ATOM      6  C   UNL     1      -0.094   6.105 -18.399  1.00  0.00     0.000 C 
BRANCH   6   7
ATOM      7  C   UNL     1      -0.932   7.306 -17.938  1.00  0.00     0.000 C 
BRANCH   7   8
ATOM      8  C   UNL     1      -2.233   6.889 -17.233  1.00  0.00     0.006 C 
BRANCH   8   9
ATOM      9  C   UNL     1      -3.408   7.823 -17.556  1.00  0.00     0.053 C 
BRANCH   9  10
ATOM     10  C   UNL     1      -3.626   8.793 -16.439  1.00  0.00     0.041 C 
ATOM     11  O   UNL     1      -3.978   8.383 -15.302  1.00  0.00    -0.550 OA
ATOM     12  O   UNL     1      -3.490  10.156 -16.666  1.00  0.00    -0.550 OA
ENDBRANCH   9  10
ENDBRANCH   8   9
ENDBRANCH   7   8
ENDBRANCH   6   7
ENDBRANCH   5   6
ENDBRANCH   4   5
ENDBRANCH   3   4
ENDBRANCH   1   3
BRANCH   2  13
ATOM     13  C   UNL     1      -3.838   6.869 -22.467  1.00  0.00     0.027 C 
BRANCH  13  14
ATOM     14  C   UNL     1      -5.162   6.800 -23.241  1.00  0.00     0.004 C 
BRANCH  14  15
ATOM     15  C   UNL     1      -6.392   6.797 -22.317  1.00  0.00     0.000 C 
BRANCH  15  16
ATOM     16  C   UNL     1      -6.334   7.802 -21.148  1.00  0.00     0.000 C 
BRANCH  16  17
ATOM     17  C   UNL     1      -6.391   7.173 -19.744  1.00  0.00    -0.000 C 
BRANCH  17  18
ATOM     18  C   UNL     1      -7.612   7.632 -18.936  1.00  0.00    -0.000 C 
BRANCH  18  19
ATOM     19  C   UNL     1      -7.182   8.301 -17.625  1.00  0.00    -0.003 C 
ATOM     20  C   UNL     1      -7.517   7.425 -16.423  1.00  0.00     0.004 C 
ENDBRANCH  18  19
ENDBRANCH  17  18
ENDBRANCH  16  17
ENDBRANCH  15  16
ENDBRANCH  14  15
ENDBRANCH  13  14
ENDBRANCH   2  13
TORSDOF 15
ENDMDL
MODEL 9
REMARK VINA RESULT:    -5.254      2.334      5.452
REMARK INTER + INTRA:         -12.679
REMARK INTER:                 -10.113
REMARK INTRA:                  -2.566
REMARK UNBOUND:                -2.818
REMARK SMILES CCCCCCCCC=CCCCCCCCC(=O)[O-]
REMARK SMILES IDX 10 1 9 2 11 3 12 4 13 5 14 6 15 7 16 8 17 9 18 10 19 11
REMARK SMILES IDX 20 12 8 13 7 14 6 15 5 16 4 17 3 18 2 19 1 20
REMARK H PARENT
REMARK Flexibility Score: inf
ROOT
ATOM      1  C   UNL     1      -3.261   5.659 -20.600  1.00  0.00    -0.031 C 
ATOM      2  C   UNL     1      -3.393   6.033 -21.883  1.00  0.00    -0.031 C 
ENDROOT
BRANCH   1   3
ATOM      3  C   UNL     1      -2.386   4.504 -20.200  1.00  0.00     0.027 C 
BRANCH   3   4
ATOM      4  C   UNL     1      -1.384   4.919 -19.112  1.00  0.00     0.004 C 
BRANCH   4   5
ATOM      5  C   UNL     1      -1.816   6.187 -18.359  1.00  0.00     0.000 C 
BRANCH   5   6
ATOM      6  C   UNL     1      -2.346   5.888 -16.949  1.00  0.00     0.000 C 
BRANCH   6   7
ATOM      7  C   UNL     1      -3.880   5.812 -16.947  1.00  0.00     0.000 C 
BRANCH   7   8
ATOM      8  C   UNL     1      -4.512   6.559 -15.762  1.00  0.00     0.006 C 
BRANCH   8   9
ATOM      9  C   UNL     1      -3.757   7.847 -15.403  1.00  0.00     0.053 C 
BRANCH   9  10
ATOM     10  C   UNL     1      -4.361   8.486 -14.194  1.00  0.00     0.041 C 
ATOM     11  O   UNL     1      -3.666   9.239 -13.461  1.00  0.00    -0.550 OA
ATOM     12  O   UNL     1      -5.676   8.211 -13.845  1.00  0.00    -0.550 OA
ENDBRANCH   9  10
ENDBRANCH   8   9
ENDBRANCH   7   8
ENDBRANCH   6   7
ENDBRANCH   5   6
ENDBRANCH   4   5
ENDBRANCH   3   4
ENDBRANCH   1   3
BRANCH   2  13
ATOM     13  C   UNL     1      -4.244   7.209 -22.274  1.00  0.00     0.027 C 
BRANCH  13  14
ATOM     14  C   UNL     1      -5.376   6.786 -23.220  1.00  0.00     0.004 C 
BRANCH  14  15
ATOM     15  C   UNL     1      -6.749   6.750 -22.527  1.00  0.00     0.000 C 
BRANCH  15  16
ATOM     16  C   UNL     1      -6.974   7.847 -21.466  1.00  0.00     0.000 C 
BRANCH  16  17
ATOM     17  C   UNL     1      -7.356   7.333 -20.066  1.00  0.00    -0.000 C 
BRANCH  17  18
ATOM     18  C   UNL     1      -6.241   7.542 -19.031  1.00  0.00    -0.000 C 
BRANCH  18  19
ATOM     19  C   UNL     1      -5.682   8.967 -19.109  1.00  0.00    -0.003 C 
ATOM     20  C   UNL     1      -4.159   8.967 -19.009  1.00  0.00     0.004 C 
ENDBRANCH  18  19
ENDBRANCH  17  18
ENDBRANCH  16  17
ENDBRANCH  15  16
ENDBRANCH  14  15
ENDBRANCH  13  14
ENDBRANCH   2  13
TORSDOF 15
ENDMDL
