MODEL 1
REMARK VINA RESULT:    -7.471      0.000      0.000
REMARK INTER + INTRA:          -8.558
REMARK INTER:                  -9.000
REMARK INTRA:                   0.442
REMARK UNBOUND:                 0.442
REMARK SMILES O=c1c(O)c(-c2ccc(O)c(O)c2)oc2cc(O)cc(O)c12
REMARK SMILES IDX 5 1 3 2 2 3 1 4 22 5 20 6 19 7 17 8 16 9 15 10 14 11 6 12
REMARK SMILES IDX 7 13 8 14 9 15 13 16 11 17 10 18 12 20 4 22 21 24 18 26
REMARK H PARENT 10 19 12 21 4 23 21 25 18 27
REMARK Flexibility Score: inf
ROOT
ATOM      1  C   UNL     1     -18.004  52.571  21.696  1.00  0.00     0.180 A 
ATOM      2  C   UNL     1     -18.382  52.308  20.369  1.00  0.00     0.208 A 
ATOM      3  C   UNL     1     -18.037  53.229  19.367  1.00  0.00     0.238 A 
ATOM      4  O   UNL     1     -18.425  53.016  18.190  1.00  0.00    -0.285 OA
ATOM      5  C   UNL     1     -17.303  54.392  19.703  1.00  0.00     0.111 A 
ATOM      6  C   UNL     1     -16.864  55.374  18.763  1.00  0.00     0.134 A 
ATOM      7  C   UNL     1     -16.260  56.550  19.223  1.00  0.00     0.093 A 
ATOM      8  C   UNL     1     -16.019  56.752  20.581  1.00  0.00     0.123 A 
ATOM      9  C   UNL     1     -16.390  55.772  21.504  1.00  0.00     0.094 A 
ATOM     10  C   UNL     1     -17.027  54.605  21.079  1.00  0.00     0.146 A 
ATOM     11  O   UNL     1     -17.374  53.702  21.989  1.00  0.00    -0.452 OA
ENDROOT
BRANCH   1  12
ATOM     12  C   UNL     1     -18.310  51.635  22.803  1.00  0.00     0.025 A 
ATOM     13  C   UNL     1     -18.838  50.358  22.556  1.00  0.00     0.016 A 
ATOM     14  C   UNL     1     -19.096  49.485  23.614  1.00  0.00     0.051 A 
ATOM     15  C   UNL     1     -18.822  49.859  24.933  1.00  0.00     0.157 A 
ATOM     16  C   UNL     1     -18.013  52.006  24.124  1.00  0.00     0.062 A 
ATOM     17  C   UNL     1     -18.268  51.136  25.192  1.00  0.00     0.158 A 
BRANCH  15  18
ATOM     18  O   UNL     1     -19.107  48.941  25.945  1.00  0.00    -0.504 OA
ATOM     19  H   UNL     1     -20.037  48.613  26.165  1.00  0.00     0.293 HD
ENDBRANCH  15  18
BRANCH  17  20
ATOM     20  O   UNL     1     -17.958  51.576  26.480  1.00  0.00    -0.504 OA
ATOM     21  H   UNL     1     -17.457  52.429  26.680  1.00  0.00     0.293 HD
ENDBRANCH  17  20
ENDBRANCH   1  12
BRANCH   2  22
ATOM     22  O   UNL     1     -19.125  51.164  20.063  1.00  0.00    -0.502 OA
ATOM     23  H   UNL     1     -18.922  50.259  20.471  1.00  0.00     0.293 HD
ENDBRANCH   2  22
BRANCH   6  24
ATOM     24  O   UNL     1     -16.974  55.230  17.377  1.00  0.00    -0.507 OA
ATOM     25  H   UNL     1     -17.588  55.775  16.789  1.00  0.00     0.293 HD
ENDBRANCH   6  24
BRANCH   8  26
ATOM     26  O   UNL     1     -15.401  57.927  21.003  1.00  0.00    -0.508 OA
ATOM     27  H   UNL     1     -14.759  58.432  20.402  1.00  0.00     0.293 HD
ENDBRANCH   8  26
TORSDOF 6
ENDMDL
MODEL 2
REMARK VINA RESULT:    -7.388      6.009      8.523
REMARK INTER + INTRA:          -8.457
REMARK INTER:                  -8.147
REMARK INTRA:                  -0.311
REMARK UNBOUND:                 0.442
REMARK SMILES O=c1c(O)c(-c2ccc(O)c(O)c2)oc2cc(O)cc(O)c12
REMARK SMILES IDX 5 1 3 2 2 3 1 4 22 5 20 6 19 7 17 8 16 9 15 10 14 11 6 12
REMARK SMILES IDX 7 13 8 14 9 15 13 16 11 17 10 18 12 20 4 22 21 24 18 26
REMARK H PARENT 10 19 12 21 4 23 21 25 18 27
REMARK Flexibility Score: inf
ROOT
ATOM      1  C   UNL     1     -12.049  55.707  17.680  1.00  0.00     0.180 A 
ATOM      2  C   UNL     1     -11.873  54.479  17.021  1.00  0.00     0.208 A 
ATOM      3  C   UNL     1     -10.922  54.387  15.992  1.00  0.00     0.238 A 
ATOM      4  O   UNL     1     -10.808  53.300  15.370  1.00  0.00    -0.285 OA
ATOM      5  C   UNL     1     -10.147  55.520  15.648  1.00  0.00     0.111 A 
ATOM      6  C   UNL     1      -9.126  55.531  14.649  1.00  0.00     0.134 A 
ATOM      7  C   UNL     1      -8.513  56.741  14.300  1.00  0.00     0.093 A 
ATOM      8  C   UNL     1      -8.836  57.927  14.957  1.00  0.00     0.123 A 
ATOM      9  C   UNL     1      -9.790  57.917  15.976  1.00  0.00     0.094 A 
ATOM     10  C   UNL     1     -10.444  56.733  16.322  1.00  0.00     0.146 A 
ATOM     11  O   UNL     1     -11.353  56.769  17.289  1.00  0.00    -0.452 OA
ENDROOT
BRANCH   1  12
ATOM     12  C   UNL     1     -13.014  55.875  18.790  1.00  0.00     0.025 A 
ATOM     13  C   UNL     1     -12.706  55.461  20.096  1.00  0.00     0.016 A 
ATOM     14  C   UNL     1     -13.623  55.651  21.131  1.00  0.00     0.051 A 
ATOM     15  C   UNL     1     -14.855  56.267  20.890  1.00  0.00     0.157 A 
ATOM     16  C   UNL     1     -14.241  56.513  18.550  1.00  0.00     0.062 A 
ATOM     17  C   UNL     1     -15.167  56.709  19.582  1.00  0.00     0.158 A 
BRANCH  15  18
ATOM     18  O   UNL     1     -15.729  56.423  21.968  1.00  0.00    -0.504 OA
ATOM     19  H   UNL     1     -16.020  57.317  22.335  1.00  0.00     0.293 HD
ENDBRANCH  15  18
BRANCH  17  20
ATOM     20  O   UNL     1     -16.372  57.340  19.267  1.00  0.00    -0.504 OA
ATOM     21  H   UNL     1     -16.746  57.409  18.332  1.00  0.00     0.293 HD
ENDBRANCH  17  20
ENDBRANCH   1  12
BRANCH   2  22
ATOM     22  O   UNL     1     -12.665  53.378  17.363  1.00  0.00    -0.502 OA
ATOM     23  H   UNL     1     -13.233  53.357  18.201  1.00  0.00     0.293 HD
ENDBRANCH   2  22
BRANCH   6  24
ATOM     24  O   UNL     1      -8.662  54.386  13.995  1.00  0.00    -0.507 OA
ATOM     25  H   UNL     1      -7.891  53.816  14.310  1.00  0.00     0.293 HD
ENDBRANCH   6  24
BRANCH   8  26
ATOM     26  O   UNL     1      -8.195  59.110  14.595  1.00  0.00    -0.508 OA
ATOM     27  H   UNL     1      -8.624  60.014  14.755  1.00  0.00     0.293 HD
ENDBRANCH   8  26
TORSDOF 6
ENDMDL
MODEL 3
REMARK VINA RESULT:    -7.382      4.333      8.573
REMARK INTER + INTRA:          -8.451
REMARK INTER:                  -8.698
REMARK INTRA:                   0.247
REMARK UNBOUND:                 0.442
REMARK SMILES O=c1c(O)c(-c2ccc(O)c(O)c2)oc2cc(O)cc(O)c12
REMARK SMILES IDX 5 1 3 2 2 3 1 4 22 5 20 6 19 7 17 8 16 9 15 10 14 11 6 12
REMARK SMILES IDX 7 13 8 14 9 15 13 16 11 17 10 18 12 20 4 22 21 24 18 26
REMARK H PARENT 10 19 12 21 4 23 21 25 18 27
REMARK Flexibility Score: inf
ROOT
ATOM      1  C   UNL     1     -13.373  54.832  18.374  1.00  0.00     0.180 A 
ATOM      2  C   UNL     1     -13.385  55.515  19.602  1.00  0.00     0.208 A 
ATOM      3  C   UNL     1     -14.498  55.378  20.447  1.00  0.00     0.238 A 
ATOM      4  O   UNL     1     -14.527  56.035  21.519  1.00  0.00    -0.285 OA
ATOM      5  C   UNL     1     -15.576  54.546  20.062  1.00  0.00     0.111 A 
ATOM      6  C   UNL     1     -16.736  54.301  20.858  1.00  0.00     0.134 A 
ATOM      7  C   UNL     1     -17.799  53.565  20.322  1.00  0.00     0.093 A 
ATOM      8  C   UNL     1     -17.720  53.010  19.046  1.00  0.00     0.123 A 
ATOM      9  C   UNL     1     -16.566  53.193  18.282  1.00  0.00     0.094 A 
ATOM     10  C   UNL     1     -15.504  53.952  18.775  1.00  0.00     0.146 A 
ATOM     11  O   UNL     1     -14.428  54.111  18.012  1.00  0.00    -0.452 OA
ENDROOT
BRANCH   1  12
ATOM     12  C   UNL     1     -12.226  54.907  17.441  1.00  0.00     0.025 A 
ATOM     13  C   UNL     1     -11.848  53.806  16.656  1.00  0.00     0.016 A 
ATOM     14  C   UNL     1     -10.777  53.909  15.767  1.00  0.00     0.051 A 
ATOM     15  C   UNL     1     -10.072  55.109  15.631  1.00  0.00     0.157 A 
ATOM     16  C   UNL     1     -11.534  56.119  17.292  1.00  0.00     0.062 A 
ATOM     17  C   UNL     1     -10.458  56.232  16.402  1.00  0.00     0.158 A 
BRANCH  15  18
ATOM     18  O   UNL     1      -9.009  55.143  14.728  1.00  0.00    -0.504 OA
ATOM     19  H   UNL     1      -8.046  54.971  14.981  1.00  0.00     0.293 HD
ENDBRANCH  15  18
BRANCH  17  20
ATOM     20  O   UNL     1      -9.810  57.465  16.315  1.00  0.00    -0.504 OA
ATOM     21  H   UNL     1      -9.281  57.770  15.510  1.00  0.00     0.293 HD
ENDBRANCH  17  20
ENDBRANCH   1  12
BRANCH   2  22
ATOM     22  O   UNL     1     -12.319  56.349  19.952  1.00  0.00    -0.502 OA
ATOM     23  H   UNL     1     -11.710  56.151  20.737  1.00  0.00     0.293 HD
ENDBRANCH   2  22
BRANCH   6  24
ATOM     24  O   UNL     1     -16.880  54.733  22.180  1.00  0.00    -0.507 OA
ATOM     25  H   UNL     1     -17.496  54.310  22.859  1.00  0.00     0.293 HD
ENDBRANCH   6  24
BRANCH   8  26
ATOM     26  O   UNL     1     -18.791  52.270  18.550  1.00  0.00    -0.508 OA
ATOM     27  H   UNL     1     -18.760  51.258  18.507  1.00  0.00     0.293 HD
ENDBRANCH   8  26
TORSDOF 6
ENDMDL
MODEL 4
REMARK VINA RESULT:    -7.331      4.768      6.898
REMARK INTER + INTRA:          -8.389
REMARK INTER:                  -8.465
REMARK INTRA:                   0.076
REMARK UNBOUND:                 0.442
REMARK SMILES O=c1c(O)c(-c2ccc(O)c(O)c2)oc2cc(O)cc(O)c12
REMARK SMILES IDX 5 1 3 2 2 3 1 4 22 5 20 6 19 7 17 8 16 9 15 10 14 11 6 12
REMARK SMILES IDX 7 13 8 14 9 15 13 16 11 17 10 18 12 20 4 22 21 24 18 26
REMARK H PARENT 10 19 12 21 4 23 21 25 18 27
REMARK Flexibility Score: inf
ROOT
ATOM      1  C   UNL     1     -13.487  55.407  18.202  1.00  0.00     0.180 A 
ATOM      2  C   UNL     1     -12.677  54.365  17.718  1.00  0.00     0.208 A 
ATOM      3  C   UNL     1     -11.590  54.677  16.885  1.00  0.00     0.238 A 
ATOM      4  O   UNL     1     -10.903  53.737  16.411  1.00  0.00    -0.285 OA
ATOM      5  C   UNL     1     -11.317  56.028  16.561  1.00  0.00     0.111 A 
ATOM      6  C   UNL     1     -10.219  56.463  15.759  1.00  0.00     0.134 A 
ATOM      7  C   UNL     1     -10.121  57.811  15.394  1.00  0.00     0.093 A 
ATOM      8  C   UNL     1     -11.042  58.751  15.855  1.00  0.00     0.123 A 
ATOM      9  C   UNL     1     -12.086  58.346  16.689  1.00  0.00     0.094 A 
ATOM     10  C   UNL     1     -12.231  57.003  17.040  1.00  0.00     0.146 A 
ATOM     11  O   UNL     1     -13.244  56.658  17.826  1.00  0.00    -0.452 OA
ENDROOT
BRANCH   1  12
ATOM     12  C   UNL     1     -14.634  55.159  19.104  1.00  0.00     0.025 A 
ATOM     13  C   UNL     1     -15.556  54.131  18.850  1.00  0.00     0.016 A 
ATOM     14  C   UNL     1     -16.616  53.902  19.728  1.00  0.00     0.051 A 
ATOM     15  C   UNL     1     -16.773  54.680  20.879  1.00  0.00     0.157 A 
ATOM     16  C   UNL     1     -14.776  55.928  20.270  1.00  0.00     0.062 A 
ATOM     17  C   UNL     1     -15.837  55.705  21.157  1.00  0.00     0.158 A 
BRANCH  15  18
ATOM     18  O   UNL     1     -17.857  54.403  21.713  1.00  0.00    -0.504 OA
ATOM     19  H   UNL     1     -18.013  53.511  22.160  1.00  0.00     0.293 HD
ENDBRANCH  15  18
BRANCH  17  20
ATOM     20  O   UNL     1     -15.922  56.516  22.289  1.00  0.00    -0.504 OA
ATOM     21  H   UNL     1     -16.414  57.398  22.319  1.00  0.00     0.293 HD
ENDBRANCH  17  20
ENDBRANCH   1  12
BRANCH   2  22
ATOM     22  O   UNL     1     -12.978  53.037  18.033  1.00  0.00    -0.502 OA
ATOM     23  H   UNL     1     -12.328  52.278  17.866  1.00  0.00     0.293 HD
ENDBRANCH   2  22
BRANCH   6  24
ATOM     24  O   UNL     1      -9.192  55.622  15.321  1.00  0.00    -0.507 OA
ATOM     25  H   UNL     1      -8.696  54.966  15.906  1.00  0.00     0.293 HD
ENDBRANCH   6  24
BRANCH   8  26
ATOM     26  O   UNL     1     -10.905  60.086  15.485  1.00  0.00    -0.508 OA
ATOM     27  H   UNL     1     -11.123  60.839  16.128  1.00  0.00     0.293 HD
ENDBRANCH   8  26
TORSDOF 6
ENDMDL
MODEL 5
REMARK VINA RESULT:    -7.225      4.862      9.536
REMARK INTER + INTRA:          -8.262
REMARK INTER:                  -7.951
REMARK INTRA:                  -0.311
REMARK UNBOUND:                 0.442
REMARK SMILES O=c1c(O)c(-c2ccc(O)c(O)c2)oc2cc(O)cc(O)c12
REMARK SMILES IDX 5 1 3 2 2 3 1 4 22 5 20 6 19 7 17 8 16 9 15 10 14 11 6 12
REMARK SMILES IDX 7 13 8 14 9 15 13 16 11 17 10 18 12 20 4 22 21 24 18 26
REMARK H PARENT 10 19 12 21 4 23 21 25 18 27
REMARK Flexibility Score: inf
ROOT
ATOM      1  C   UNL     1     -12.705  56.560  17.890  1.00  0.00     0.180 A 
ATOM      2  C   UNL     1     -12.500  56.357  19.265  1.00  0.00     0.208 A 
ATOM      3  C   UNL     1     -13.612  56.152  20.097  1.00  0.00     0.238 A 
ATOM      4  O   UNL     1     -13.427  56.026  21.334  1.00  0.00    -0.285 OA
ATOM      5  C   UNL     1     -14.914  56.137  19.540  1.00  0.00     0.111 A 
ATOM      6  C   UNL     1     -16.111  55.898  20.283  1.00  0.00     0.134 A 
ATOM      7  C   UNL     1     -17.353  56.036  19.653  1.00  0.00     0.093 A 
ATOM      8  C   UNL     1     -17.443  56.338  18.295  1.00  0.00     0.123 A 
ATOM      9  C   UNL     1     -16.279  56.514  17.546  1.00  0.00     0.094 A 
ATOM     10  C   UNL     1     -15.025  56.419  18.154  1.00  0.00     0.146 A 
ATOM     11  O   UNL     1     -13.942  56.604  17.408  1.00  0.00    -0.452 OA
ENDROOT
BRANCH   1  12
ATOM     12  C   UNL     1     -11.581  56.756  16.946  1.00  0.00     0.025 A 
ATOM     13  C   UNL     1     -10.835  55.671  16.462  1.00  0.00     0.016 A 
ATOM     14  C   UNL     1      -9.795  55.879  15.554  1.00  0.00     0.051 A 
ATOM     15  C   UNL     1      -9.487  57.166  15.102  1.00  0.00     0.157 A 
ATOM     16  C   UNL     1     -11.289  58.047  16.477  1.00  0.00     0.062 A 
ATOM     17  C   UNL     1     -10.248  58.266  15.567  1.00  0.00     0.158 A 
BRANCH  15  18
ATOM     18  O   UNL     1      -8.432  57.307  14.199  1.00  0.00    -0.504 OA
ATOM     19  H   UNL     1      -7.763  56.579  13.994  1.00  0.00     0.293 HD
ENDBRANCH  15  18
BRANCH  17  20
ATOM     20  O   UNL     1     -10.007  59.577  15.154  1.00  0.00    -0.504 OA
ATOM     21  H   UNL     1      -9.938  59.863  14.188  1.00  0.00     0.293 HD
ENDBRANCH  17  20
ENDBRANCH   1  12
BRANCH   2  22
ATOM     22  O   UNL     1     -11.208  56.398  19.796  1.00  0.00    -0.502 OA
ATOM     23  H   UNL     1     -10.988  56.896  20.651  1.00  0.00     0.293 HD
ENDBRANCH   2  22
BRANCH   6  24
ATOM     24  O   UNL     1     -16.131  55.501  21.623  1.00  0.00    -0.507 OA
ATOM     25  H   UNL     1     -16.296  54.558  21.941  1.00  0.00     0.293 HD
ENDBRANCH   6  24
BRANCH   8  26
ATOM     26  O   UNL     1     -18.696  56.451  17.698  1.00  0.00    -0.508 OA
ATOM     27  H   UNL     1     -19.006  57.321  17.278  1.00  0.00     0.293 HD
ENDBRANCH   8  26
TORSDOF 6
ENDMDL
MODEL 6
REMARK VINA RESULT:    -7.219      4.896      9.593
REMARK INTER + INTRA:          -8.254
REMARK INTER:                  -8.144
REMARK INTRA:                  -0.110
REMARK UNBOUND:                 0.442
REMARK SMILES O=c1c(O)c(-c2ccc(O)c(O)c2)oc2cc(O)cc(O)c12
REMARK SMILES IDX 5 1 3 2 2 3 1 4 22 5 20 6 19 7 17 8 16 9 15 10 14 11 6 12
REMARK SMILES IDX 7 13 8 14 9 15 13 16 11 17 10 18 12 20 4 22 21 24 18 26
REMARK H PARENT 10 19 12 21 4 23 21 25 18 27
REMARK Flexibility Score: inf
ROOT
ATOM      1  C   UNL     1     -12.777  56.774  17.823  1.00  0.00     0.180 A 
ATOM      2  C   UNL     1     -12.517  56.405  19.153  1.00  0.00     0.208 A 
ATOM      3  C   UNL     1     -13.590  56.038  19.981  1.00  0.00     0.238 A 
ATOM      4  O   UNL     1     -13.356  55.761  21.186  1.00  0.00    -0.285 OA
ATOM      5  C   UNL     1     -14.907  56.028  19.463  1.00  0.00     0.111 A 
ATOM      6  C   UNL     1     -16.066  55.635  20.200  1.00  0.00     0.134 A 
ATOM      7  C   UNL     1     -17.334  55.790  19.628  1.00  0.00     0.093 A 
ATOM      8  C   UNL     1     -17.483  56.261  18.324  1.00  0.00     0.123 A 
ATOM      9  C   UNL     1     -16.354  56.592  17.574  1.00  0.00     0.094 A 
ATOM     10  C   UNL     1     -15.078  56.483  18.130  1.00  0.00     0.146 A 
ATOM     11  O   UNL     1     -14.030  56.819  17.386  1.00  0.00    -0.452 OA
ENDROOT
BRANCH   1  12
ATOM     12  C   UNL     1     -11.696  57.149  16.883  1.00  0.00     0.025 A 
ATOM     13  C   UNL     1     -11.633  58.432  16.315  1.00  0.00     0.016 A 
ATOM     14  C   UNL     1     -10.591  58.769  15.450  1.00  0.00     0.051 A 
ATOM     15  C   UNL     1      -9.587  57.845  15.144  1.00  0.00     0.157 A 
ATOM     16  C   UNL     1     -10.678  56.226  16.596  1.00  0.00     0.062 A 
ATOM     17  C   UNL     1      -9.629  56.556  15.729  1.00  0.00     0.158 A 
BRANCH  15  18
ATOM     18  O   UNL     1      -8.576  58.244  14.268  1.00  0.00    -0.504 OA
ATOM     19  H   UNL     1      -7.633  57.884  14.293  1.00  0.00     0.293 HD
ENDBRANCH  15  18
BRANCH  17  20
ATOM     20  O   UNL     1      -8.659  55.584  15.480  1.00  0.00    -0.504 OA
ATOM     21  H   UNL     1      -8.184  55.472  14.595  1.00  0.00     0.293 HD
ENDBRANCH  17  20
ENDBRANCH   1  12
BRANCH   2  22
ATOM     22  O   UNL     1     -11.211  56.442  19.650  1.00  0.00    -0.502 OA
ATOM     23  H   UNL     1     -10.568  57.194  19.433  1.00  0.00     0.293 HD
ENDBRANCH   2  22
BRANCH   6  24
ATOM     24  O   UNL     1     -16.022  55.066  21.476  1.00  0.00    -0.507 OA
ATOM     25  H   UNL     1     -16.029  55.589  22.339  1.00  0.00     0.293 HD
ENDBRANCH   6  24
BRANCH   8  26
ATOM     26  O   UNL     1     -18.760  56.388  17.782  1.00  0.00    -0.508 OA
ATOM     27  H   UNL     1     -19.010  55.940  16.907  1.00  0.00     0.293 HD
ENDBRANCH   8  26
TORSDOF 6
ENDMDL
MODEL 7
REMARK VINA RESULT:    -7.203      5.600      8.608
REMARK INTER + INTRA:          -8.235
REMARK INTER:                  -7.991
REMARK INTRA:                  -0.245
REMARK UNBOUND:                 0.442
REMARK SMILES O=c1c(O)c(-c2ccc(O)c(O)c2)oc2cc(O)cc(O)c12
REMARK SMILES IDX 5 1 3 2 2 3 1 4 22 5 20 6 19 7 17 8 16 9 15 10 14 11 6 12
REMARK SMILES IDX 7 13 8 14 9 15 13 16 11 17 10 18 12 20 4 22 21 24 18 26
REMARK H PARENT 10 19 12 21 4 23 21 25 18 27
REMARK Flexibility Score: inf
ROOT
ATOM      1  C   UNL     1     -12.564  56.079  17.516  1.00  0.00     0.180 A 
ATOM      2  C   UNL     1     -12.075  57.236  16.887  1.00  0.00     0.208 A 
ATOM      3  C   UNL     1     -11.262  57.102  15.750  1.00  0.00     0.238 A 
ATOM      4  O   UNL     1     -10.783  58.139  15.223  1.00  0.00    -0.285 OA
ATOM      5  C   UNL     1     -10.962  55.813  15.247  1.00  0.00     0.111 A 
ATOM      6  C   UNL     1     -10.182  55.559  14.078  1.00  0.00     0.134 A 
ATOM      7  C   UNL     1      -9.840  54.243  13.748  1.00  0.00     0.093 A 
ATOM      8  C   UNL     1     -10.303  53.167  14.504  1.00  0.00     0.123 A 
ATOM      9  C   UNL     1     -11.116  53.400  15.614  1.00  0.00     0.094 A 
ATOM     10  C   UNL     1     -11.444  54.704  15.990  1.00  0.00     0.146 A 
ATOM     11  O   UNL     1     -12.211  54.883  17.059  1.00  0.00    -0.452 OA
ENDROOT
BRANCH   1  12
ATOM     12  C   UNL     1     -13.446  56.140  18.703  1.00  0.00     0.025 A 
ATOM     13  C   UNL     1     -12.966  55.841  19.988  1.00  0.00     0.016 A 
ATOM     14  C   UNL     1     -13.811  55.929  21.095  1.00  0.00     0.051 A 
ATOM     15  C   UNL     1     -15.143  56.328  20.948  1.00  0.00     0.157 A 
ATOM     16  C   UNL     1     -14.777  56.562  18.555  1.00  0.00     0.062 A 
ATOM     17  C   UNL     1     -15.633  56.654  19.660  1.00  0.00     0.158 A 
BRANCH  15  18
ATOM     18  O   UNL     1     -15.937  56.391  22.095  1.00  0.00    -0.504 OA
ATOM     19  H   UNL     1     -16.847  56.829  22.129  1.00  0.00     0.293 HD
ENDBRANCH  15  18
BRANCH  17  20
ATOM     20  O   UNL     1     -16.946  57.069  19.435  1.00  0.00    -0.504 OA
ATOM     21  H   UNL     1     -17.593  56.594  18.822  1.00  0.00     0.293 HD
ENDBRANCH  17  20
ENDBRANCH   1  12
BRANCH   2  22
ATOM     22  O   UNL     1     -12.365  58.498  17.413  1.00  0.00    -0.502 OA
ATOM     23  H   UNL     1     -11.748  58.970  18.063  1.00  0.00     0.293 HD
ENDBRANCH   2  22
BRANCH   6  24
ATOM     24  O   UNL     1      -9.745  56.556  13.201  1.00  0.00    -0.507 OA
ATOM     25  H   UNL     1      -9.345  56.386  12.290  1.00  0.00     0.293 HD
ENDBRANCH   6  24
BRANCH   8  26
ATOM     26  O   UNL     1      -9.956  51.869  14.137  1.00  0.00    -0.508 OA
ATOM     27  H   UNL     1     -10.059  51.543  13.182  1.00  0.00     0.293 HD
ENDBRANCH   8  26
TORSDOF 6
ENDMDL
MODEL 8
REMARK VINA RESULT:    -7.062      4.811      7.330
REMARK INTER + INTRA:          -8.066
REMARK INTER:                  -7.848
REMARK INTRA:                  -0.218
REMARK UNBOUND:                 0.442
REMARK SMILES O=c1c(O)c(-c2ccc(O)c(O)c2)oc2cc(O)cc(O)c12
REMARK SMILES IDX 5 1 3 2 2 3 1 4 22 5 20 6 19 7 17 8 16 9 15 10 14 11 6 12
REMARK SMILES IDX 7 13 8 14 9 15 13 16 11 17 10 18 12 20 4 22 21 24 18 26
REMARK H PARENT 10 19 12 21 4 23 21 25 18 27
REMARK Flexibility Score: inf
ROOT
ATOM      1  C   UNL     1     -13.825  56.318  17.743  1.00  0.00     0.180 A 
ATOM      2  C   UNL     1     -14.263  57.435  17.011  1.00  0.00     0.208 A 
ATOM      3  C   UNL     1     -13.413  57.989  16.040  1.00  0.00     0.238 A 
ATOM      4  O   UNL     1     -13.788  59.020  15.426  1.00  0.00    -0.285 OA
ATOM      5  C   UNL     1     -12.144  57.408  15.802  1.00  0.00     0.111 A 
ATOM      6  C   UNL     1     -11.217  57.862  14.815  1.00  0.00     0.134 A 
ATOM      7  C   UNL     1      -9.938  57.296  14.756  1.00  0.00     0.093 A 
ATOM      8  C   UNL     1      -9.573  56.250  15.603  1.00  0.00     0.123 A 
ATOM      9  C   UNL     1     -10.492  55.759  16.532  1.00  0.00     0.094 A 
ATOM     10  C   UNL     1     -11.763  56.327  16.639  1.00  0.00     0.146 A 
ATOM     11  O   UNL     1     -12.604  55.838  17.543  1.00  0.00    -0.452 OA
ENDROOT
BRANCH   1  12
ATOM     12  C   UNL     1     -14.674  55.664  18.765  1.00  0.00     0.025 A 
ATOM     13  C   UNL     1     -15.208  54.382  18.560  1.00  0.00     0.016 A 
ATOM     14  C   UNL     1     -15.987  53.777  19.548  1.00  0.00     0.051 A 
ATOM     15  C   UNL     1     -16.237  54.427  20.761  1.00  0.00     0.157 A 
ATOM     16  C   UNL     1     -14.905  56.311  19.990  1.00  0.00     0.062 A 
ATOM     17  C   UNL     1     -15.685  55.711  20.987  1.00  0.00     0.158 A 
BRANCH  15  18
ATOM     18  O   UNL     1     -17.027  53.768  21.705  1.00  0.00    -0.504 OA
ATOM     19  H   UNL     1     -17.802  54.196  22.190  1.00  0.00     0.293 HD
ENDBRANCH  15  18
BRANCH  17  20
ATOM     20  O   UNL     1     -15.882  56.417  22.174  1.00  0.00    -0.504 OA
ATOM     21  H   UNL     1     -16.412  57.274  22.241  1.00  0.00     0.293 HD
ENDBRANCH  17  20
ENDBRANCH   1  12
BRANCH   2  22
ATOM     22  O   UNL     1     -15.511  58.005  17.277  1.00  0.00    -0.502 OA
ATOM     23  H   UNL     1     -16.372  57.474  17.229  1.00  0.00     0.293 HD
ENDBRANCH   2  22
BRANCH   6  24
ATOM     24  O   UNL     1     -11.511  58.839  13.860  1.00  0.00    -0.507 OA
ATOM     25  H   UNL     1     -11.006  59.706  13.749  1.00  0.00     0.293 HD
ENDBRANCH   6  24
BRANCH   8  26
ATOM     26  O   UNL     1      -8.297  55.700  15.507  1.00  0.00    -0.508 OA
ATOM     27  H   UNL     1      -7.672  55.945  14.748  1.00  0.00     0.293 HD
ENDBRANCH   8  26
TORSDOF 6
ENDMDL
MODEL 9
REMARK VINA RESULT:    -6.972      5.063      9.867
REMARK INTER + INTRA:          -7.957
REMARK INTER:                  -7.682
REMARK INTRA:                  -0.275
REMARK UNBOUND:                 0.442
REMARK SMILES O=c1c(O)c(-c2ccc(O)c(O)c2)oc2cc(O)cc(O)c12
REMARK SMILES IDX 5 1 3 2 2 3 1 4 22 5 20 6 19 7 17 8 16 9 15 10 14 11 6 12
REMARK SMILES IDX 7 13 8 14 9 15 13 16 11 17 10 18 12 20 4 22 21 24 18 26
REMARK H PARENT 10 19 12 21 4 23 21 25 18 27
REMARK Flexibility Score: inf
ROOT
ATOM      1  C   UNL     1     -13.142  56.824  17.305  1.00  0.00     0.180 A 
ATOM      2  C   UNL     1     -14.464  56.427  17.565  1.00  0.00     0.208 A 
ATOM      3  C   UNL     1     -14.729  55.639  18.697  1.00  0.00     0.238 A 
ATOM      4  O   UNL     1     -15.906  55.241  18.894  1.00  0.00    -0.285 OA
ATOM      5  C   UNL     1     -13.671  55.274  19.563  1.00  0.00     0.111 A 
ATOM      6  C   UNL     1     -13.829  54.513  20.761  1.00  0.00     0.134 A 
ATOM      7  C   UNL     1     -12.697  54.099  21.472  1.00  0.00     0.093 A 
ATOM      8  C   UNL     1     -11.416  54.472  21.066  1.00  0.00     0.123 A 
ATOM      9  C   UNL     1     -11.253  55.266  19.930  1.00  0.00     0.094 A 
ATOM     10  C   UNL     1     -12.361  55.665  19.180  1.00  0.00     0.146 A 
ATOM     11  O   UNL     1     -12.162  56.411  18.100  1.00  0.00    -0.452 OA
ENDROOT
BRANCH   1  12
ATOM     12  C   UNL     1     -12.788  57.675  16.146  1.00  0.00     0.025 A 
ATOM     13  C   UNL     1     -13.088  59.046  16.127  1.00  0.00     0.016 A 
ATOM     14  C   UNL     1     -12.724  59.833  15.033  1.00  0.00     0.051 A 
ATOM     15  C   UNL     1     -12.044  59.275  13.945  1.00  0.00     0.157 A 
ATOM     16  C   UNL     1     -12.088  57.116  15.065  1.00  0.00     0.062 A 
ATOM     17  C   UNL     1     -11.717  57.897  13.963  1.00  0.00     0.158 A 
BRANCH  15  18
ATOM     18  O   UNL     1     -11.713  60.115  12.881  1.00  0.00    -0.504 OA
ATOM     19  H   UNL     1     -11.039  59.881  12.165  1.00  0.00     0.293 HD
ENDBRANCH  15  18
BRANCH  17  20
ATOM     20  O   UNL     1     -11.033  57.271  12.920  1.00  0.00    -0.504 OA
ATOM     21  H   UNL     1     -11.313  56.394  12.506  1.00  0.00     0.293 HD
ENDBRANCH  17  20
ENDBRANCH   1  12
BRANCH   2  22
ATOM     22  O   UNL     1     -15.491  56.780  16.684  1.00  0.00    -0.502 OA
ATOM     23  H   UNL     1     -15.323  56.974  15.704  1.00  0.00     0.293 HD
ENDBRANCH   2  22
BRANCH   6  24
ATOM     24  O   UNL     1     -15.069  54.164  21.305  1.00  0.00    -0.507 OA
ATOM     25  H   UNL     1     -15.535  54.668  22.045  1.00  0.00     0.293 HD
ENDBRANCH   6  24
BRANCH   8  26
ATOM     26  O   UNL     1     -10.312  54.055  21.806  1.00  0.00    -0.508 OA
ATOM     27  H   UNL     1     -10.377  53.885  22.803  1.00  0.00     0.293 HD
ENDBRANCH   8  26
TORSDOF 6
ENDMDL
