MODEL 1
REMARK VINA RESULT:    -6.880      0.000      0.000
REMARK INTER + INTRA:          -7.282
REMARK INTER:                  -7.282
REMARK INTRA:                   0.000
REMARK UNBOUND:                 0.000
REMARK SMILES O=c1ccc2cc(O)c(O)cc2o1
REMARK SMILES IDX 4 1 3 2 2 3 1 4 13 5 12 6 11 7 9 8 7 9 6 10 5 11 8 12 10 14
REMARK H PARENT 8 13 10 15
REMARK Flexibility Score: inf
ROOT
ATOM      1  C   UNL     1      84.439  62.307  11.642  1.00  0.00     0.019 A 
ATOM      2  C   UNL     1      85.410  61.308  11.701  1.00  0.00     0.094 A 
ATOM      3  C   UNL     1      85.053  59.995  11.378  1.00  0.00     0.336 A 
ATOM      4  O   UNL     1      85.915  59.079  11.425  1.00  0.00    -0.246 OA
ATOM      5  O   UNL     1      83.804  59.706  11.020  1.00  0.00    -0.423 OA
ATOM      6  C   UNL     1      82.847  60.628  10.952  1.00  0.00     0.142 A 
ATOM      7  C   UNL     1      81.552  60.266  10.569  1.00  0.00     0.098 A 
ATOM      8  C   UNL     1      80.540  61.234  10.496  1.00  0.00     0.161 A 
ATOM      9  C   UNL     1      80.825  62.572  10.804  1.00  0.00     0.158 A 
ATOM     10  C   UNL     1      82.123  62.942  11.189  1.00  0.00     0.062 A 
ATOM     11  C   UNL     1      83.135  61.975  11.264  1.00  0.00     0.022 A 
ENDROOT
BRANCH   9  12
ATOM     12  O   UNL     1      79.814  63.528  10.729  1.00  0.00    -0.504 OA
ATOM     13  H   UNL     1      79.126  63.632  11.466  1.00  0.00     0.293 HD
ENDBRANCH   9  12
BRANCH   8  14
ATOM     14  O   UNL     1      79.249  60.875  10.114  1.00  0.00    -0.504 OA
ATOM     15  H   UNL     1      78.686  60.245  10.674  1.00  0.00     0.293 HD
ENDBRANCH   8  14
TORSDOF 2
ENDMDL
MODEL 2
REMARK VINA RESULT:    -6.572      1.216      5.030
REMARK INTER + INTRA:          -6.957
REMARK INTER:                  -6.957
REMARK INTRA:                   0.000
REMARK UNBOUND:                 0.000
REMARK SMILES O=c1ccc2cc(O)c(O)cc2o1
REMARK SMILES IDX 4 1 3 2 2 3 1 4 13 5 12 6 11 7 9 8 7 9 6 10 5 11 8 12 10 14
REMARK H PARENT 8 13 10 15
REMARK Flexibility Score: inf
ROOT
ATOM      1  C   UNL     1      80.683  60.275  10.778  1.00  0.00     0.019 A 
ATOM      2  C   UNL     1      79.658  61.202  10.595  1.00  0.00     0.094 A 
ATOM      3  C   UNL     1      79.953  62.566  10.686  1.00  0.00     0.336 A 
ATOM      4  O   UNL     1      79.042  63.419  10.524  1.00  0.00    -0.246 OA
ATOM      5  O   UNL     1      81.195  62.970  10.943  1.00  0.00    -0.423 OA
ATOM      6  C   UNL     1      82.201  62.119  11.124  1.00  0.00     0.142 A 
ATOM      7  C   UNL     1      83.486  62.602  11.391  1.00  0.00     0.098 A 
ATOM      8  C   UNL     1      84.551  61.709  11.583  1.00  0.00     0.161 A 
ATOM      9  C   UNL     1      84.330  60.327  11.506  1.00  0.00     0.158 A 
ATOM     10  C   UNL     1      83.042  59.836  11.238  1.00  0.00     0.062 A 
ATOM     11  C   UNL     1      81.978  60.727  11.047  1.00  0.00     0.022 A 
ENDROOT
BRANCH   9  12
ATOM     12  O   UNL     1      85.393  59.446  11.698  1.00  0.00    -0.504 OA
ATOM     13  H   UNL     1      86.138  59.358  11.018  1.00  0.00     0.293 HD
ENDBRANCH   9  12
BRANCH   8  14
ATOM     14  O   UNL     1      85.832  62.189  11.849  1.00  0.00    -0.504 OA
ATOM     15  H   UNL     1      86.390  61.820  12.611  1.00  0.00     0.293 HD
ENDBRANCH   8  14
TORSDOF 2
ENDMDL
MODEL 3
REMARK VINA RESULT:    -6.526      1.122      2.284
REMARK INTER + INTRA:          -6.908
REMARK INTER:                  -6.908
REMARK INTRA:                   0.000
REMARK UNBOUND:                 0.000
REMARK SMILES O=c1ccc2cc(O)c(O)cc2o1
REMARK SMILES IDX 4 1 3 2 2 3 1 4 13 5 12 6 11 7 9 8 7 9 6 10 5 11 8 12 10 14
REMARK H PARENT 8 13 10 15
REMARK Flexibility Score: inf
ROOT
ATOM      1  C   UNL     1      82.612  59.091  11.636  1.00  0.00     0.019 A 
ATOM      2  C   UNL     1      83.997  59.171  11.776  1.00  0.00     0.094 A 
ATOM      3  C   UNL     1      84.621  60.416  11.647  1.00  0.00     0.336 A 
ATOM      4  O   UNL     1      85.870  60.509  11.770  1.00  0.00    -0.246 OA
ATOM      5  O   UNL     1      83.902  61.507  11.393  1.00  0.00    -0.423 OA
ATOM      6  C   UNL     1      82.579  61.475  11.253  1.00  0.00     0.142 A 
ATOM      7  C   UNL     1      81.875  62.654  10.987  1.00  0.00     0.098 A 
ATOM      8  C   UNL     1      80.481  62.626  10.837  1.00  0.00     0.161 A 
ATOM      9  C   UNL     1      79.787  61.413  10.955  1.00  0.00     0.158 A 
ATOM     10  C   UNL     1      80.488  60.226  11.221  1.00  0.00     0.062 A 
ATOM     11  C   UNL     1      81.881  60.253  11.370  1.00  0.00     0.022 A 
ENDROOT
BRANCH   9  12
ATOM     12  O   UNL     1      78.401  61.393  10.804  1.00  0.00    -0.504 OA
ATOM     13  H   UNL     1      77.822  60.734  11.311  1.00  0.00     0.293 HD
ENDBRANCH   9  12
BRANCH   8  14
ATOM     14  O   UNL     1      79.778  63.799  10.573  1.00  0.00    -0.504 OA
ATOM     15  H   UNL     1      79.817  64.594  11.200  1.00  0.00     0.293 HD
ENDBRANCH   8  14
TORSDOF 2
ENDMDL
MODEL 4
REMARK VINA RESULT:    -6.460      1.431      4.431
REMARK INTER + INTRA:          -6.838
REMARK INTER:                  -6.838
REMARK INTRA:                   0.000
REMARK UNBOUND:                 0.000
REMARK SMILES O=c1ccc2cc(O)c(O)cc2o1
REMARK SMILES IDX 4 1 3 2 2 3 1 4 13 5 12 6 11 7 9 8 7 9 6 10 5 11 8 12 10 14
REMARK H PARENT 8 13 10 15
REMARK Flexibility Score: inf
ROOT
ATOM      1  C   UNL     1      81.008  62.619  10.796  1.00  0.00     0.019 A 
ATOM      2  C   UNL     1      79.856  61.892  10.502  1.00  0.00     0.094 A 
ATOM      3  C   UNL     1      79.921  60.496  10.483  1.00  0.00     0.336 A 
ATOM      4  O   UNL     1      78.891  59.821  10.221  1.00  0.00    -0.246 OA
ATOM      5  O   UNL     1      81.068  59.871  10.742  1.00  0.00    -0.423 OA
ATOM      6  C   UNL     1      82.190  60.527  11.026  1.00  0.00     0.142 A 
ATOM      7  C   UNL     1      83.367  59.818  11.289  1.00  0.00     0.098 A 
ATOM      8  C   UNL     1      84.553  60.504  11.589  1.00  0.00     0.161 A 
ATOM      9  C   UNL     1      84.563  61.905  11.627  1.00  0.00     0.158 A 
ATOM     10  C   UNL     1      83.385  62.623  11.363  1.00  0.00     0.062 A 
ATOM     11  C   UNL     1      82.200  61.938  11.063  1.00  0.00     0.022 A 
ENDROOT
BRANCH   9  12
ATOM     12  O   UNL     1      85.746  62.580  11.925  1.00  0.00    -0.504 OA
ATOM     13  H   UNL     1      86.649  62.213  11.648  1.00  0.00     0.293 HD
ENDBRANCH   9  12
BRANCH   8  14
ATOM     14  O   UNL     1      85.726  59.799  11.852  1.00  0.00    -0.504 OA
ATOM     15  H   UNL     1      86.181  59.844  12.756  1.00  0.00     0.293 HD
ENDBRANCH   8  14
TORSDOF 2
ENDMDL
MODEL 5
REMARK VINA RESULT:    -6.360      1.351      1.560
REMARK INTER + INTRA:          -6.732
REMARK INTER:                  -6.732
REMARK INTRA:                   0.000
REMARK UNBOUND:                 0.000
REMARK SMILES O=c1ccc2cc(O)c(O)cc2o1
REMARK SMILES IDX 4 1 3 2 2 3 1 4 13 5 12 6 11 7 9 8 7 9 6 10 5 11 8 12 10 14
REMARK H PARENT 8 13 10 15
REMARK Flexibility Score: inf
ROOT
ATOM      1  C   UNL     1      83.484  61.367  11.402  1.00  0.00     0.019 A 
ATOM      2  C   UNL     1      84.076  60.127  11.639  1.00  0.00     0.094 A 
ATOM      3  C   UNL     1      83.270  58.985  11.666  1.00  0.00     0.336 A 
ATOM      4  O   UNL     1      83.785  57.856  11.878  1.00  0.00    -0.246 OA
ATOM      5  O   UNL     1      81.957  59.082  11.469  1.00  0.00    -0.423 OA
ATOM      6  C   UNL     1      81.352  60.245  11.240  1.00  0.00     0.142 A 
ATOM      7  C   UNL     1      79.969  60.286  11.041  1.00  0.00     0.098 A 
ATOM      8  C   UNL     1      79.326  61.510  10.799  1.00  0.00     0.161 A 
ATOM      9  C   UNL     1      80.071  62.697  10.756  1.00  0.00     0.158 A 
ATOM     10  C   UNL     1      81.460  62.662  10.957  1.00  0.00     0.062 A 
ATOM     11  C   UNL     1      82.103  61.440  11.199  1.00  0.00     0.022 A 
ENDROOT
BRANCH   9  12
ATOM     12  O   UNL     1      79.425  63.909  10.517  1.00  0.00    -0.504 OA
ATOM     13  H   UNL     1      78.892  64.067   9.670  1.00  0.00     0.293 HD
ENDBRANCH   9  12
BRANCH   8  14
ATOM     14  O   UNL     1      77.948  61.553  10.599  1.00  0.00    -0.504 OA
ATOM     15  H   UNL     1      77.430  60.738  10.292  1.00  0.00     0.293 HD
ENDBRANCH   8  14
TORSDOF 2
ENDMDL
MODEL 6
REMARK VINA RESULT:    -6.339      2.060      3.350
REMARK INTER + INTRA:          -6.710
REMARK INTER:                  -6.710
REMARK INTRA:                   0.000
REMARK UNBOUND:                 0.000
REMARK SMILES O=c1ccc2cc(O)c(O)cc2o1
REMARK SMILES IDX 4 1 3 2 2 3 1 4 13 5 12 6 11 7 9 8 7 9 6 10 5 11 8 12 10 14
REMARK H PARENT 8 13 10 15
REMARK Flexibility Score: inf
ROOT
ATOM      1  C   UNL     1      81.747  60.182  11.345  1.00  0.00     0.019 A 
ATOM      2  C   UNL     1      82.968  60.853  11.398  1.00  0.00     0.094 A 
ATOM      3  C   UNL     1      82.985  62.243  11.245  1.00  0.00     0.336 A 
ATOM      4  O   UNL     1      84.078  62.867  11.291  1.00  0.00    -0.246 OA
ATOM      5  O   UNL     1      81.852  62.913  11.051  1.00  0.00    -0.423 OA
ATOM      6  C   UNL     1      80.667  62.312  10.993  1.00  0.00     0.142 A 
ATOM      7  C   UNL     1      79.508  63.068  10.787  1.00  0.00     0.098 A 
ATOM      8  C   UNL     1      78.256  62.440  10.724  1.00  0.00     0.161 A 
ATOM      9  C   UNL     1      78.162  61.048  10.871  1.00  0.00     0.158 A 
ATOM     10  C   UNL     1      79.320  60.284  11.078  1.00  0.00     0.062 A 
ATOM     11  C   UNL     1      80.572  60.911  11.139  1.00  0.00     0.022 A 
ENDROOT
BRANCH   9  12
ATOM     12  O   UNL     1      76.913  60.431  10.807  1.00  0.00    -0.504 OA
ATOM     13  H   UNL     1      76.778  59.559  10.309  1.00  0.00     0.293 HD
ENDBRANCH   9  12
BRANCH   8  14
ATOM     14  O   UNL     1      77.101  63.191  10.519  1.00  0.00    -0.504 OA
ATOM     15  H   UNL     1      76.590  63.152   9.645  1.00  0.00     0.293 HD
ENDBRANCH   8  14
TORSDOF 2
ENDMDL
MODEL 7
REMARK VINA RESULT:    -6.113      1.470      4.690
REMARK INTER + INTRA:          -6.471
REMARK INTER:                  -6.471
REMARK INTRA:                   0.000
REMARK UNBOUND:                 0.000
REMARK SMILES O=c1ccc2cc(O)c(O)cc2o1
REMARK SMILES IDX 4 1 3 2 2 3 1 4 13 5 12 6 11 7 9 8 7 9 6 10 5 11 8 12 10 14
REMARK H PARENT 8 13 10 15
REMARK Flexibility Score: inf
ROOT
ATOM      1  C   UNL     1      80.098  62.995  10.625  1.00  0.00     0.019 A 
ATOM      2  C   UNL     1      78.810  62.464  10.627  1.00  0.00     0.094 A 
ATOM      3  C   UNL     1      78.633  61.115  10.952  1.00  0.00     0.336 A 
ATOM      4  O   UNL     1      77.478  60.616  10.961  1.00  0.00    -0.246 OA
ATOM      5  O   UNL     1      79.681  60.352  11.255  1.00  0.00    -0.423 OA
ATOM      6  C   UNL     1      80.927  60.820  11.265  1.00  0.00     0.142 A 
ATOM      7  C   UNL     1      81.990  59.971  11.591  1.00  0.00     0.098 A 
ATOM      8  C   UNL     1      83.305  60.459  11.602  1.00  0.00     0.161 A 
ATOM      9  C   UNL     1      83.558  61.801  11.286  1.00  0.00     0.158 A 
ATOM     10  C   UNL     1      82.496  62.658  10.958  1.00  0.00     0.062 A 
ATOM     11  C   UNL     1      81.181  62.171  10.946  1.00  0.00     0.022 A 
ENDROOT
BRANCH   9  12
ATOM     12  O   UNL     1      84.868  62.278  11.299  1.00  0.00    -0.504 OA
ATOM     13  H   UNL     1      85.082  63.247  11.097  1.00  0.00     0.293 HD
ENDBRANCH   9  12
BRANCH   8  14
ATOM     14  O   UNL     1      84.365  59.615  11.927  1.00  0.00    -0.504 OA
ATOM     15  H   UNL     1      84.969  59.221  11.214  1.00  0.00     0.293 HD
ENDBRANCH   8  14
TORSDOF 2
ENDMDL
MODEL 8
REMARK VINA RESULT:    -6.075      2.146      3.348
REMARK INTER + INTRA:          -6.430
REMARK INTER:                  -6.430
REMARK INTRA:                   0.000
REMARK UNBOUND:                 0.000
REMARK SMILES O=c1ccc2cc(O)c(O)cc2o1
REMARK SMILES IDX 4 1 3 2 2 3 1 4 13 5 12 6 11 7 9 8 7 9 6 10 5 11 8 12 10 14
REMARK H PARENT 8 13 10 15
REMARK Flexibility Score: inf
ROOT
ATOM      1  C   UNL     1      81.418  59.211  12.316  1.00  0.00     0.019 A 
ATOM      2  C   UNL     1      82.720  59.676  12.145  1.00  0.00     0.094 A 
ATOM      3  C   UNL     1      82.924  60.900  11.500  1.00  0.00     0.336 A 
ATOM      4  O   UNL     1      84.092  61.338  11.336  1.00  0.00    -0.246 OA
ATOM      5  O   UNL     1      81.888  61.609  11.058  1.00  0.00    -0.423 OA
ATOM      6  C   UNL     1      80.629  61.201  11.201  1.00  0.00     0.142 A 
ATOM      7  C   UNL     1      79.580  61.988  10.715  1.00  0.00     0.098 A 
ATOM      8  C   UNL     1      78.251  61.563  10.863  1.00  0.00     0.161 A 
ATOM      9  C   UNL     1      77.971  60.346  11.500  1.00  0.00     0.158 A 
ATOM     10  C   UNL     1      79.020  59.551  11.988  1.00  0.00     0.062 A 
ATOM     11  C   UNL     1      80.348  59.975  11.841  1.00  0.00     0.022 A 
ENDROOT
BRANCH   9  12
ATOM     12  O   UNL     1      76.648  59.930  11.642  1.00  0.00    -0.504 OA
ATOM     13  H   UNL     1      76.416  59.023  12.029  1.00  0.00     0.293 HD
ENDBRANCH   9  12
BRANCH   8  14
ATOM     14  O   UNL     1      77.205  62.346  10.380  1.00  0.00    -0.504 OA
ATOM     15  H   UNL     1      77.107  62.553   9.393  1.00  0.00     0.293 HD
ENDBRANCH   8  14
TORSDOF 2
ENDMDL
MODEL 9
REMARK VINA RESULT:    -5.645      2.758      4.203
REMARK INTER + INTRA:          -5.975
REMARK INTER:                  -5.975
REMARK INTRA:                   0.000
REMARK UNBOUND:                 0.000
REMARK SMILES O=c1ccc2cc(O)c(O)cc2o1
REMARK SMILES IDX 4 1 3 2 2 3 1 4 13 5 12 6 11 7 9 8 7 9 6 10 5 11 8 12 10 14
REMARK H PARENT 8 13 10 15
REMARK Flexibility Score: inf
ROOT
ATOM      1  C   UNL     1      80.270  59.624  12.713  1.00  0.00     0.019 A 
ATOM      2  C   UNL     1      81.593  59.887  12.359  1.00  0.00     0.094 A 
ATOM      3  C   UNL     1      81.889  60.201  11.028  1.00  0.00     0.336 A 
ATOM      4  O   UNL     1      83.076  60.442  10.688  1.00  0.00    -0.246 OA
ATOM      5  O   UNL     1      80.921  60.247  10.116  1.00  0.00    -0.423 OA
ATOM      6  C   UNL     1      79.647  60.003  10.412  1.00  0.00     0.142 A 
ATOM      7  C   UNL     1      78.672  60.067   9.411  1.00  0.00     0.098 A 
ATOM      8  C   UNL     1      77.327  59.810   9.717  1.00  0.00     0.161 A 
ATOM      9  C   UNL     1      76.956  59.489  11.031  1.00  0.00     0.158 A 
ATOM     10  C   UNL     1      77.930  59.423  12.040  1.00  0.00     0.062 A 
ATOM     11  C   UNL     1      79.274  59.679  11.734  1.00  0.00     0.022 A 
ENDROOT
BRANCH   9  12
ATOM     12  O   UNL     1      75.618  59.235  11.327  1.00  0.00    -0.504 OA
ATOM     13  H   UNL     1      74.970  58.912  10.618  1.00  0.00     0.293 HD
ENDBRANCH   9  12
BRANCH   8  14
ATOM     14  O   UNL     1      76.355  59.873   8.722  1.00  0.00    -0.504 OA
ATOM     15  H   UNL     1      76.471  59.399   7.834  1.00  0.00     0.293 HD
ENDBRANCH   8  14
TORSDOF 2
ENDMDL
