MODEL 1
REMARK VINA RESULT:    -6.179      0.000      0.000
REMARK INTER + INTRA:          -7.447
REMARK INTER:                  -7.444
REMARK INTRA:                  -0.004
REMARK UNBOUND:                -0.004
REMARK SMILES O=c1c(O)c(-c2ccc(O)cc2O)oc2cc(O)cc(O)c12
REMARK SMILES IDX 5 1 3 2 2 3 1 4 22 5 20 6 19 7 17 8 16 9 15 10 14 11 6 12
REMARK SMILES IDX 8 13 7 14 9 15 11 16 12 17 10 18 13 20 4 22 21 24 18 26
REMARK H PARENT 10 19 13 21 4 23 21 25 18 27
REMARK Flexibility Score: inf
ROOT
ATOM      1  C   UNL     1      10.154  -2.921  19.124  1.00  0.00     0.184 A 
ATOM      2  C   UNL     1      11.345  -2.397  18.600  1.00  0.00     0.208 A 
ATOM      3  C   UNL     1      11.447  -1.012  18.395  1.00  0.00     0.238 A 
ATOM      4  O   UNL     1      12.497  -0.554  17.875  1.00  0.00    -0.285 OA
ATOM      5  C   UNL     1      10.360  -0.169  18.731  1.00  0.00     0.111 A 
ATOM      6  C   UNL     1      10.366   1.252  18.602  1.00  0.00     0.134 A 
ATOM      7  C   UNL     1       9.190   1.973  18.841  1.00  0.00     0.093 A 
ATOM      8  C   UNL     1       8.027   1.333  19.267  1.00  0.00     0.123 A 
ATOM      9  C   UNL     1       8.026  -0.050  19.454  1.00  0.00     0.094 A 
ATOM     10  C   UNL     1       9.174  -0.801  19.188  1.00  0.00     0.146 A 
ATOM     11  O   UNL     1       9.127  -2.116  19.368  1.00  0.00    -0.451 OA
ENDROOT
BRANCH   1  12
ATOM     12  C   UNL     1       9.988  -4.367  19.380  1.00  0.00     0.063 A 
ATOM     13  C   UNL     1      10.957  -6.470  20.125  1.00  0.00     0.047 A 
ATOM     14  C   UNL     1      11.078  -5.100  19.875  1.00  0.00     0.020 A 
ATOM     15  C   UNL     1       9.751  -7.126  19.869  1.00  0.00     0.119 A 
ATOM     16  C   UNL     1       8.665  -6.410  19.352  1.00  0.00     0.093 A 
ATOM     17  C   UNL     1       8.779  -5.036  19.094  1.00  0.00     0.130 A 
BRANCH  15  18
ATOM     18  O   UNL     1       9.643  -8.492  20.125  1.00  0.00    -0.508 OA
ATOM     19  H   UNL     1       8.764  -8.912  20.403  1.00  0.00     0.293 HD
ENDBRANCH  15  18
BRANCH  17  20
ATOM     20  O   UNL     1       7.706  -4.342  18.533  1.00  0.00    -0.507 OA
ATOM     21  H   UNL     1       6.783  -4.363  18.951  1.00  0.00     0.293 HD
ENDBRANCH  17  20
ENDBRANCH   1  12
BRANCH   2  22
ATOM     22  O   UNL     1      12.395  -3.253  18.261  1.00  0.00    -0.502 OA
ATOM     23  H   UNL     1      12.274  -4.255  18.173  1.00  0.00     0.293 HD
ENDBRANCH   2  22
BRANCH   6  24
ATOM     24  O   UNL     1      11.500   2.000  18.270  1.00  0.00    -0.507 OA
ATOM     25  H   UNL     1      12.450   1.666  18.338  1.00  0.00     0.293 HD
ENDBRANCH   6  24
BRANCH   8  26
ATOM     26  O   UNL     1       6.880   2.084  19.512  1.00  0.00    -0.508 OA
ATOM     27  H   UNL     1       5.975   1.804  19.148  1.00  0.00     0.293 HD
ENDBRANCH   8  26
TORSDOF 6
ENDMDL
MODEL 2
REMARK VINA RESULT:    -5.778      1.293      3.048
REMARK INTER + INTRA:          -6.964
REMARK INTER:                  -7.575
REMARK INTRA:                   0.611
REMARK UNBOUND:                -0.004
REMARK SMILES O=c1c(O)c(-c2ccc(O)cc2O)oc2cc(O)cc(O)c12
REMARK SMILES IDX 5 1 3 2 2 3 1 4 22 5 20 6 19 7 17 8 16 9 15 10 14 11 6 12
REMARK SMILES IDX 8 13 7 14 9 15 11 16 12 17 10 18 13 20 4 22 21 24 18 26
REMARK H PARENT 10 19 13 21 4 23 21 25 18 27
REMARK Flexibility Score: inf
ROOT
ATOM      1  C   UNL     1       9.379  -3.115  19.153  1.00  0.00     0.184 A 
ATOM      2  C   UNL     1       8.142  -2.568  18.781  1.00  0.00     0.208 A 
ATOM      3  C   UNL     1       8.052  -1.186  18.550  1.00  0.00     0.238 A 
ATOM      4  O   UNL     1       6.929  -0.693  18.269  1.00  0.00    -0.285 OA
ATOM      5  C   UNL     1       9.205  -0.374  18.678  1.00  0.00     0.111 A 
ATOM      6  C   UNL     1       9.238   1.031  18.429  1.00  0.00     0.134 A 
ATOM      7  C   UNL     1      10.402   1.755  18.714  1.00  0.00     0.093 A 
ATOM      8  C   UNL     1      11.552   1.117  19.176  1.00  0.00     0.123 A 
ATOM      9  C   UNL     1      11.550  -0.265  19.366  1.00  0.00     0.094 A 
ATOM     10  C   UNL     1      10.392  -1.010  19.126  1.00  0.00     0.146 A 
ATOM     11  O   UNL     1      10.428  -2.321  19.330  1.00  0.00    -0.451 OA
ENDROOT
BRANCH   1  12
ATOM     12  C   UNL     1       9.547  -4.564  19.395  1.00  0.00     0.063 A 
ATOM     13  C   UNL     1       8.570  -6.791  19.428  1.00  0.00     0.047 A 
ATOM     14  C   UNL     1       8.448  -5.417  19.204  1.00  0.00     0.020 A 
ATOM     15  C   UNL     1       9.786  -7.327  19.859  1.00  0.00     0.119 A 
ATOM     16  C   UNL     1      10.881  -6.482  20.075  1.00  0.00     0.093 A 
ATOM     17  C   UNL     1      10.765  -5.101  19.858  1.00  0.00     0.130 A 
BRANCH  15  18
ATOM     18  O   UNL     1       9.894  -8.699  20.076  1.00  0.00    -0.508 OA
ATOM     19  H   UNL     1       9.554  -9.130  20.927  1.00  0.00     0.293 HD
ENDBRANCH  15  18
BRANCH  17  20
ATOM     20  O   UNL     1      11.849  -4.263  20.124  1.00  0.00    -0.507 OA
ATOM     21  H   UNL     1      11.788  -3.259  20.000  1.00  0.00     0.293 HD
ENDBRANCH  17  20
ENDBRANCH   1  12
BRANCH   2  22
ATOM     22  O   UNL     1       7.017  -3.389  18.679  1.00  0.00    -0.502 OA
ATOM     23  H   UNL     1       6.085  -3.067  18.913  1.00  0.00     0.293 HD
ENDBRANCH   2  22
BRANCH   6  24
ATOM     24  O   UNL     1       8.173   1.752  17.882  1.00  0.00    -0.507 OA
ATOM     25  H   UNL     1       7.920   2.693  18.146  1.00  0.00     0.293 HD
ENDBRANCH   6  24
BRANCH   8  26
ATOM     26  O   UNL     1      12.698   1.867  19.433  1.00  0.00    -0.508 OA
ATOM     27  H   UNL     1      12.883   2.737  18.944  1.00  0.00     0.293 HD
ENDBRANCH   8  26
TORSDOF 6
ENDMDL
MODEL 3
REMARK VINA RESULT:    -5.747      3.046      5.590
REMARK INTER + INTRA:          -6.927
REMARK INTER:                  -6.626
REMARK INTRA:                  -0.300
REMARK UNBOUND:                -0.004
REMARK SMILES O=c1c(O)c(-c2ccc(O)cc2O)oc2cc(O)cc(O)c12
REMARK SMILES IDX 5 1 3 2 2 3 1 4 22 5 20 6 19 7 17 8 16 9 15 10 14 11 6 12
REMARK SMILES IDX 8 13 7 14 9 15 11 16 12 17 10 18 13 20 4 22 21 24 18 26
REMARK H PARENT 10 19 13 21 4 23 21 25 18 27
REMARK Flexibility Score: inf
ROOT
ATOM      1  C   UNL     1      11.076  -2.183  18.188  1.00  0.00     0.184 A 
ATOM      2  C   UNL     1      11.570  -0.907  18.497  1.00  0.00     0.208 A 
ATOM      3  C   UNL     1      12.855  -0.790  19.049  1.00  0.00     0.238 A 
ATOM      4  O   UNL     1      13.272   0.352  19.375  1.00  0.00    -0.285 OA
ATOM      5  C   UNL     1      13.635  -1.951  19.271  1.00  0.00     0.111 A 
ATOM      6  C   UNL     1      14.965  -1.949  19.788  1.00  0.00     0.134 A 
ATOM      7  C   UNL     1      15.592  -3.164  20.087  1.00  0.00     0.093 A 
ATOM      8  C   UNL     1      14.964  -4.381  19.828  1.00  0.00     0.123 A 
ATOM      9  C   UNL     1      13.687  -4.397  19.266  1.00  0.00     0.094 A 
ATOM     10  C   UNL     1      13.020  -3.200  18.990  1.00  0.00     0.146 A 
ATOM     11  O   UNL     1      11.802  -3.259  18.467  1.00  0.00    -0.451 OA
ENDROOT
BRANCH   1  12
ATOM     12  C   UNL     1       9.738  -2.375  17.589  1.00  0.00     0.063 A 
ATOM     13  C   UNL     1       7.477  -3.245  17.792  1.00  0.00     0.047 A 
ATOM     14  C   UNL     1       8.750  -3.043  18.330  1.00  0.00     0.020 A 
ATOM     15  C   UNL     1       7.179  -2.796  16.503  1.00  0.00     0.119 A 
ATOM     16  C   UNL     1       8.165  -2.150  15.746  1.00  0.00     0.093 A 
ATOM     17  C   UNL     1       9.447  -1.948  16.277  1.00  0.00     0.130 A 
BRANCH  15  18
ATOM     18  O   UNL     1       5.904  -3.002  15.980  1.00  0.00    -0.508 OA
ATOM     19  H   UNL     1       5.757  -3.172  14.992  1.00  0.00     0.293 HD
ENDBRANCH  15  18
BRANCH  17  20
ATOM     20  O   UNL     1      10.435  -1.347  15.496  1.00  0.00    -0.507 OA
ATOM     21  H   UNL     1      11.211  -0.846  15.913  1.00  0.00     0.293 HD
ENDBRANCH  17  20
ENDBRANCH   1  12
BRANCH   2  22
ATOM     22  O   UNL     1      10.773   0.221  18.286  1.00  0.00    -0.502 OA
ATOM     23  H   UNL     1      11.031   1.141  18.622  1.00  0.00     0.293 HD
ENDBRANCH   2  22
BRANCH   6  24
ATOM     24  O   UNL     1      15.717  -0.789  19.999  1.00  0.00    -0.507 OA
ATOM     25  H   UNL     1      15.607  -0.168  20.787  1.00  0.00     0.293 HD
ENDBRANCH   6  24
BRANCH   8  26
ATOM     26  O   UNL     1      15.625  -5.572  20.123  1.00  0.00    -0.508 OA
ATOM     27  H   UNL     1      15.417  -6.099  20.964  1.00  0.00     0.293 HD
ENDBRANCH   8  26
TORSDOF 6
ENDMDL
MODEL 4
REMARK VINA RESULT:    -5.710      1.529      6.400
REMARK INTER + INTRA:          -6.882
REMARK INTER:                  -6.865
REMARK INTRA:                  -0.017
REMARK UNBOUND:                -0.004
REMARK SMILES O=c1c(O)c(-c2ccc(O)cc2O)oc2cc(O)cc(O)c12
REMARK SMILES IDX 5 1 3 2 2 3 1 4 22 5 20 6 19 7 17 8 16 9 15 10 14 11 6 12
REMARK SMILES IDX 8 13 7 14 9 15 11 16 12 17 10 18 13 20 4 22 21 24 18 26
REMARK H PARENT 10 19 13 21 4 23 21 25 18 27
REMARK Flexibility Score: inf
ROOT
ATOM      1  C   UNL     1       9.776  -1.921  19.324  1.00  0.00     0.184 A 
ATOM      2  C   UNL     1      11.117  -2.230  19.596  1.00  0.00     0.208 A 
ATOM      3  C   UNL     1      11.477  -3.570  19.810  1.00  0.00     0.238 A 
ATOM      4  O   UNL     1      12.671  -3.836  20.106  1.00  0.00    -0.285 OA
ATOM      5  C   UNL     1      10.491  -4.584  19.735  1.00  0.00     0.111 A 
ATOM      6  C   UNL     1      10.748  -5.978  19.895  1.00  0.00     0.134 A 
ATOM      7  C   UNL     1       9.677  -6.879  19.930  1.00  0.00     0.093 A 
ATOM      8  C   UNL     1       8.365  -6.445  19.745  1.00  0.00     0.123 A 
ATOM      9  C   UNL     1       8.106  -5.091  19.527  1.00  0.00     0.094 A 
ATOM     10  C   UNL     1       9.151  -4.163  19.524  1.00  0.00     0.146 A 
ATOM     11  O   UNL     1       8.862  -2.883  19.325  1.00  0.00    -0.451 OA
ENDROOT
BRANCH   1  12
ATOM     12  C   UNL     1       9.335  -0.533  19.072  1.00  0.00     0.063 A 
ATOM     13  C   UNL     1       9.462   1.825  19.652  1.00  0.00     0.047 A 
ATOM     14  C   UNL     1       9.861   0.503  19.860  1.00  0.00     0.020 A 
ATOM     15  C   UNL     1       8.522   2.128  18.664  1.00  0.00     0.119 A 
ATOM     16  C   UNL     1       7.972   1.100  17.888  1.00  0.00     0.093 A 
ATOM     17  C   UNL     1       8.364  -0.231  18.095  1.00  0.00     0.130 A 
BRANCH  15  18
ATOM     18  O   UNL     1       8.135   3.452  18.465  1.00  0.00    -0.508 OA
ATOM     19  H   UNL     1       7.448   3.899  19.060  1.00  0.00     0.293 HD
ENDBRANCH  15  18
BRANCH  17  20
ATOM     20  O   UNL     1       7.773  -1.252  17.350  1.00  0.00    -0.507 OA
ATOM     21  H   UNL     1       6.999  -1.796  17.712  1.00  0.00     0.293 HD
ENDBRANCH  17  20
ENDBRANCH   1  12
BRANCH   2  22
ATOM     22  O   UNL     1      12.067  -1.209  19.682  1.00  0.00    -0.502 OA
ATOM     23  H   UNL     1      12.516  -0.813  18.864  1.00  0.00     0.293 HD
ENDBRANCH   2  22
BRANCH   6  24
ATOM     24  O   UNL     1      12.029  -6.529  19.998  1.00  0.00    -0.507 OA
ATOM     25  H   UNL     1      12.467  -6.809  20.863  1.00  0.00     0.293 HD
ENDBRANCH   6  24
BRANCH   8  26
ATOM     26  O   UNL     1       7.325  -7.372  19.769  1.00  0.00    -0.508 OA
ATOM     27  H   UNL     1       6.778  -7.534  20.608  1.00  0.00     0.293 HD
ENDBRANCH   8  26
TORSDOF 6
ENDMDL
MODEL 5
REMARK VINA RESULT:    -5.483      2.613      6.659
REMARK INTER + INTRA:          -6.608
REMARK INTER:                  -7.219
REMARK INTRA:                   0.611
REMARK UNBOUND:                -0.004
REMARK SMILES O=c1c(O)c(-c2ccc(O)cc2O)oc2cc(O)cc(O)c12
REMARK SMILES IDX 5 1 3 2 2 3 1 4 22 5 20 6 19 7 17 8 16 9 15 10 14 11 6 12
REMARK SMILES IDX 8 13 7 14 9 15 11 16 12 17 10 18 13 20 4 22 21 24 18 26
REMARK H PARENT 10 19 13 21 4 23 21 25 18 27
REMARK Flexibility Score: inf
ROOT
ATOM      1  C   UNL     1      12.224  -3.501  19.571  1.00  0.00     0.184 A 
ATOM      2  C   UNL     1      11.103  -2.717  19.264  1.00  0.00     0.208 A 
ATOM      3  C   UNL     1       9.837  -3.323  19.235  1.00  0.00     0.238 A 
ATOM      4  O   UNL     1       8.841  -2.627  18.907  1.00  0.00    -0.285 OA
ATOM      5  C   UNL     1       9.709  -4.703  19.528  1.00  0.00     0.111 A 
ATOM      6  C   UNL     1       8.472  -5.413  19.567  1.00  0.00     0.134 A 
ATOM      7  C   UNL     1       8.478  -6.802  19.739  1.00  0.00     0.093 A 
ATOM      8  C   UNL     1       9.669  -7.497  19.940  1.00  0.00     0.123 A 
ATOM      9  C   UNL     1      10.880  -6.806  19.964  1.00  0.00     0.094 A 
ATOM     10  C   UNL     1      10.910  -5.424  19.758  1.00  0.00     0.146 A 
ATOM     11  O   UNL     1      12.085  -4.805  19.777  1.00  0.00    -0.451 OA
ENDROOT
BRANCH   1  12
ATOM     12  C   UNL     1      13.583  -2.922  19.636  1.00  0.00     0.063 A 
ATOM     13  C   UNL     1      15.017  -0.966  19.467  1.00  0.00     0.047 A 
ATOM     14  C   UNL     1      13.747  -1.545  19.418  1.00  0.00     0.020 A 
ATOM     15  C   UNL     1      16.140  -1.757  19.719  1.00  0.00     0.119 A 
ATOM     16  C   UNL     1      15.991  -3.135  19.914  1.00  0.00     0.093 A 
ATOM     17  C   UNL     1      14.720  -3.725  19.861  1.00  0.00     0.130 A 
BRANCH  15  18
ATOM     18  O   UNL     1      17.401  -1.165  19.768  1.00  0.00    -0.508 OA
ATOM     19  H   UNL     1      17.606  -0.405  20.406  1.00  0.00     0.293 HD
ENDBRANCH  15  18
BRANCH  17  20
ATOM     20  O   UNL     1      14.589  -5.107  20.008  1.00  0.00    -0.507 OA
ATOM     21  H   UNL     1      15.353  -5.681  20.343  1.00  0.00     0.293 HD
ENDBRANCH  17  20
ENDBRANCH   1  12
BRANCH   2  22
ATOM     22  O   UNL     1      11.258  -1.362  18.962  1.00  0.00    -0.502 OA
ATOM     23  H   UNL     1      12.019  -1.017  18.389  1.00  0.00     0.293 HD
ENDBRANCH   2  22
BRANCH   6  24
ATOM     24  O   UNL     1       7.218  -4.801  19.468  1.00  0.00    -0.507 OA
ATOM     25  H   UNL     1       6.962  -3.939  19.925  1.00  0.00     0.293 HD
ENDBRANCH   6  24
BRANCH   8  26
ATOM     26  O   UNL     1       9.635  -8.878  20.125  1.00  0.00    -0.508 OA
ATOM     27  H   UNL     1       9.122  -9.485  19.495  1.00  0.00     0.293 HD
ENDBRANCH   8  26
TORSDOF 6
ENDMDL
MODEL 6
REMARK VINA RESULT:    -5.089      3.277      4.865
REMARK INTER + INTRA:          -6.134
REMARK INTER:                  -5.728
REMARK INTRA:                  -0.406
REMARK UNBOUND:                -0.004
REMARK SMILES O=c1c(O)c(-c2ccc(O)cc2O)oc2cc(O)cc(O)c12
REMARK SMILES IDX 5 1 3 2 2 3 1 4 22 5 20 6 19 7 17 8 16 9 15 10 14 11 6 12
REMARK SMILES IDX 8 13 7 14 9 15 11 16 12 17 10 18 13 20 4 22 21 24 18 26
REMARK H PARENT 10 19 13 21 4 23 21 25 18 27
REMARK Flexibility Score: inf
ROOT
ATOM      1  C   UNL     1       9.980  -1.137  17.428  1.00  0.00     0.184 A 
ATOM      2  C   UNL     1       9.456   0.096  17.844  1.00  0.00     0.208 A 
ATOM      3  C   UNL     1      10.254   0.945  18.628  1.00  0.00     0.238 A 
ATOM      4  O   UNL     1       9.760   2.026  19.043  1.00  0.00    -0.285 OA
ATOM      5  C   UNL     1      11.570   0.554  18.972  1.00  0.00     0.111 A 
ATOM      6  C   UNL     1      12.481   1.350  19.729  1.00  0.00     0.134 A 
ATOM      7  C   UNL     1      13.711   0.809  20.121  1.00  0.00     0.093 A 
ATOM      8  C   UNL     1      14.091  -0.475  19.730  1.00  0.00     0.123 A 
ATOM      9  C   UNL     1      13.234  -1.241  18.940  1.00  0.00     0.094 A 
ATOM     10  C   UNL     1      11.983  -0.742  18.563  1.00  0.00     0.146 A 
ATOM     11  O   UNL     1      11.193  -1.507  17.821  1.00  0.00    -0.451 OA
ENDROOT
BRANCH   1  12
ATOM     12  C   UNL     1       9.199  -2.069  16.587  1.00  0.00     0.063 A 
ATOM     13  C   UNL     1       7.510  -3.811  16.434  1.00  0.00     0.047 A 
ATOM     14  C   UNL     1       8.261  -2.915  17.199  1.00  0.00     0.020 A 
ATOM     15  C   UNL     1       7.697  -3.883  15.052  1.00  0.00     0.119 A 
ATOM     16  C   UNL     1       8.647  -3.061  14.434  1.00  0.00     0.093 A 
ATOM     17  C   UNL     1       9.409  -2.162  15.196  1.00  0.00     0.130 A 
BRANCH  15  18
ATOM     18  O   UNL     1       6.938  -4.779  14.301  1.00  0.00    -0.508 OA
ATOM     19  H   UNL     1       6.280  -4.460  13.600  1.00  0.00     0.293 HD
ENDBRANCH  15  18
BRANCH  17  20
ATOM     20  O   UNL     1      10.387  -1.383  14.576  1.00  0.00    -0.507 OA
ATOM     21  H   UNL     1      10.775  -1.634  13.675  1.00  0.00     0.293 HD
ENDBRANCH  17  20
ENDBRANCH   1  12
BRANCH   2  22
ATOM     22  O   UNL     1       8.148   0.450  17.504  1.00  0.00    -0.502 OA
ATOM     23  H   UNL     1       7.931   1.283  16.971  1.00  0.00     0.293 HD
ENDBRANCH   2  22
BRANCH   6  24
ATOM     24  O   UNL     1      12.238   2.677  20.095  1.00  0.00    -0.507 OA
ATOM     25  H   UNL     1      12.867   3.247  20.642  1.00  0.00     0.293 HD
ENDBRANCH   6  24
BRANCH   8  26
ATOM     26  O   UNL     1      15.330  -0.975  20.125  1.00  0.00    -0.508 OA
ATOM     27  H   UNL     1      16.151  -0.880  19.537  1.00  0.00     0.293 HD
ENDBRANCH   8  26
TORSDOF 6
ENDMDL
MODEL 7
REMARK VINA RESULT:    -5.048      2.544      3.690
REMARK INTER + INTRA:          -6.085
REMARK INTER:                  -6.667
REMARK INTRA:                   0.582
REMARK UNBOUND:                -0.004
REMARK SMILES O=c1c(O)c(-c2ccc(O)cc2O)oc2cc(O)cc(O)c12
REMARK SMILES IDX 5 1 3 2 2 3 1 4 22 5 20 6 19 7 17 8 16 9 15 10 14 11 6 12
REMARK SMILES IDX 8 13 7 14 9 15 11 16 12 17 10 18 13 20 4 22 21 24 18 26
REMARK H PARENT 10 19 13 21 4 23 21 25 18 27
REMARK Flexibility Score: inf
ROOT
ATOM      1  C   UNL     1      11.318  -4.248  19.881  1.00  0.00     0.184 A 
ATOM      2  C   UNL     1      12.605  -4.804  19.918  1.00  0.00     0.208 A 
ATOM      3  C   UNL     1      13.716  -3.946  19.910  1.00  0.00     0.238 A 
ATOM      4  O   UNL     1      14.869  -4.450  19.889  1.00  0.00    -0.285 OA
ATOM      5  C   UNL     1      13.523  -2.543  19.882  1.00  0.00     0.111 A 
ATOM      6  C   UNL     1      14.575  -1.579  19.912  1.00  0.00     0.134 A 
ATOM      7  C   UNL     1      14.273  -0.222  19.748  1.00  0.00     0.093 A 
ATOM      8  C   UNL     1      12.954   0.212  19.621  1.00  0.00     0.123 A 
ATOM      9  C   UNL     1      11.913  -0.716  19.651  1.00  0.00     0.094 A 
ATOM     10  C   UNL     1      12.185  -2.081  19.776  1.00  0.00     0.146 A 
ATOM     11  O   UNL     1      11.166  -2.933  19.788  1.00  0.00    -0.451 OA
ENDROOT
BRANCH   1  12
ATOM     12  C   UNL     1      10.105  -5.094  19.904  1.00  0.00     0.063 A 
ATOM     13  C   UNL     1       9.119  -7.314  19.784  1.00  0.00     0.047 A 
ATOM     14  C   UNL     1      10.244  -6.485  19.772  1.00  0.00     0.020 A 
ATOM     15  C   UNL     1       7.842  -6.763  19.915  1.00  0.00     0.119 A 
ATOM     16  C   UNL     1       7.691  -5.375  20.023  1.00  0.00     0.093 A 
ATOM     17  C   UNL     1       8.815  -4.536  20.006  1.00  0.00     0.130 A 
BRANCH  15  18
ATOM     18  O   UNL     1       6.729  -7.601  19.929  1.00  0.00    -0.508 OA
ATOM     19  H   UNL     1       6.369  -8.019  19.079  1.00  0.00     0.293 HD
ENDBRANCH  15  18
BRANCH  17  20
ATOM     20  O   UNL     1       8.649  -3.151  20.066  1.00  0.00    -0.507 OA
ATOM     21  H   UNL     1       8.351  -2.616  19.258  1.00  0.00     0.293 HD
ENDBRANCH  17  20
ENDBRANCH   1  12
BRANCH   2  22
ATOM     22  O   UNL     1      12.768  -6.191  19.928  1.00  0.00    -0.502 OA
ATOM     23  H   UNL     1      12.222  -6.807  19.336  1.00  0.00     0.293 HD
ENDBRANCH   2  22
BRANCH   6  24
ATOM     24  O   UNL     1      15.919  -1.898  20.124  1.00  0.00    -0.507 OA
ATOM     25  H   UNL     1      16.382  -2.715  19.755  1.00  0.00     0.293 HD
ENDBRANCH   6  24
BRANCH   8  26
ATOM     26  O   UNL     1      12.689   1.572  19.477  1.00  0.00    -0.508 OA
ATOM     27  H   UNL     1      11.878   1.903  18.965  1.00  0.00     0.293 HD
ENDBRANCH   8  26
TORSDOF 6
ENDMDL
MODEL 8
REMARK VINA RESULT:    -5.006      2.259      3.669
REMARK INTER + INTRA:          -6.035
REMARK INTER:                  -5.653
REMARK INTRA:                  -0.382
REMARK UNBOUND:                -0.004
REMARK SMILES O=c1c(O)c(-c2ccc(O)cc2O)oc2cc(O)cc(O)c12
REMARK SMILES IDX 5 1 3 2 2 3 1 4 22 5 20 6 19 7 17 8 16 9 15 10 14 11 6 12
REMARK SMILES IDX 8 13 7 14 9 15 11 16 12 17 10 18 13 20 4 22 21 24 18 26
REMARK H PARENT 10 19 13 21 4 23 21 25 18 27
REMARK Flexibility Score: inf
ROOT
ATOM      1  C   UNL     1      10.115  -1.751  18.785  1.00  0.00     0.184 A 
ATOM      2  C   UNL     1       8.918  -2.174  18.189  1.00  0.00     0.208 A 
ATOM      3  C   UNL     1       7.872  -1.251  18.034  1.00  0.00     0.238 A 
ATOM      4  O   UNL     1       6.781  -1.650  17.548  1.00  0.00    -0.285 OA
ATOM      5  C   UNL     1       8.043   0.087  18.465  1.00  0.00     0.111 A 
ATOM      6  C   UNL     1       7.066   1.116  18.323  1.00  0.00     0.134 A 
ATOM      7  C   UNL     1       7.293   2.370  18.902  1.00  0.00     0.093 A 
ATOM      8  C   UNL     1       8.489   2.652  19.562  1.00  0.00     0.123 A 
ATOM      9  C   UNL     1       9.477   1.672  19.655  1.00  0.00     0.094 A 
ATOM     10  C   UNL     1       9.265   0.399  19.119  1.00  0.00     0.146 A 
ATOM     11  O   UNL     1      10.225  -0.509  19.240  1.00  0.00    -0.451 OA
ENDROOT
BRANCH   1  12
ATOM     12  C   UNL     1      11.261  -2.668  18.962  1.00  0.00     0.063 A 
ATOM     13  C   UNL     1      12.210  -4.620  20.058  1.00  0.00     0.047 A 
ATOM     14  C   UNL     1      11.145  -3.738  19.863  1.00  0.00     0.020 A 
ATOM     15  C   UNL     1      13.410  -4.436  19.366  1.00  0.00     0.119 A 
ATOM     16  C   UNL     1      13.545  -3.358  18.483  1.00  0.00     0.093 A 
ATOM     17  C   UNL     1      12.482  -2.465  18.286  1.00  0.00     0.130 A 
BRANCH  15  18
ATOM     18  O   UNL     1      14.464  -5.325  19.568  1.00  0.00    -0.508 OA
ATOM     19  H   UNL     1      15.061  -5.264  20.384  1.00  0.00     0.293 HD
ENDBRANCH  15  18
BRANCH  17  20
ATOM     20  O   UNL     1      12.645  -1.366  17.441  1.00  0.00    -0.507 OA
ATOM     21  H   UNL     1      11.932  -1.098  16.774  1.00  0.00     0.293 HD
ENDBRANCH  17  20
ENDBRANCH   1  12
BRANCH   2  22
ATOM     22  O   UNL     1       8.768  -3.504  17.789  1.00  0.00    -0.502 OA
ATOM     23  H   UNL     1       9.490  -4.005  17.282  1.00  0.00     0.293 HD
ENDBRANCH   2  22
BRANCH   6  24
ATOM     24  O   UNL     1       5.876   0.968  17.604  1.00  0.00    -0.507 OA
ATOM     25  H   UNL     1       5.694   0.231  16.939  1.00  0.00     0.293 HD
ENDBRANCH   6  24
BRANCH   8  26
ATOM     26  O   UNL     1       8.688   3.917  20.112  1.00  0.00    -0.508 OA
ATOM     27  H   UNL     1       7.996   4.347  20.716  1.00  0.00     0.293 HD
ENDBRANCH   8  26
TORSDOF 6
ENDMDL
MODEL 9
REMARK VINA RESULT:    -4.884      1.510      6.934
REMARK INTER + INTRA:          -5.887
REMARK INTER:                  -5.592
REMARK INTRA:                  -0.296
REMARK UNBOUND:                -0.004
REMARK SMILES O=c1c(O)c(-c2ccc(O)cc2O)oc2cc(O)cc(O)c12
REMARK SMILES IDX 5 1 3 2 2 3 1 4 22 5 20 6 19 7 17 8 16 9 15 10 14 11 6 12
REMARK SMILES IDX 8 13 7 14 9 15 11 16 12 17 10 18 13 20 4 22 21 24 18 26
REMARK H PARENT 10 19 13 21 4 23 21 25 18 27
REMARK Flexibility Score: inf
ROOT
ATOM      1  C   UNL     1       9.299  -1.609  19.360  1.00  0.00     0.184 A 
ATOM      2  C   UNL     1       8.285  -2.567  19.214  1.00  0.00     0.208 A 
ATOM      3  C   UNL     1       8.613  -3.928  19.326  1.00  0.00     0.238 A 
ATOM      4  O   UNL     1       7.710  -4.785  19.141  1.00  0.00    -0.285 OA
ATOM      5  C   UNL     1       9.949  -4.310  19.598  1.00  0.00     0.111 A 
ATOM      6  C   UNL     1      10.388  -5.656  19.771  1.00  0.00     0.134 A 
ATOM      7  C   UNL     1      11.755  -5.925  19.906  1.00  0.00     0.093 A 
ATOM      8  C   UNL     1      12.692  -4.893  19.940  1.00  0.00     0.123 A 
ATOM      9  C   UNL     1      12.269  -3.569  19.832  1.00  0.00     0.094 A 
ATOM     10  C   UNL     1      10.915  -3.270  19.659  1.00  0.00     0.146 A 
ATOM     11  O   UNL     1      10.554  -1.998  19.548  1.00  0.00    -0.451 OA
ENDROOT
BRANCH   1  12
ATOM     12  C   UNL     1       9.018  -0.161  19.271  1.00  0.00     0.063 A 
ATOM     13  C   UNL     1       7.761   1.764  20.064  1.00  0.00     0.047 A 
ATOM     14  C   UNL     1       8.054   0.399  20.125  1.00  0.00     0.020 A 
ATOM     15  C   UNL     1       8.414   2.582  19.140  1.00  0.00     0.119 A 
ATOM     16  C   UNL     1       9.359   2.029  18.267  1.00  0.00     0.093 A 
ATOM     17  C   UNL     1       9.656   0.660  18.318  1.00  0.00     0.130 A 
BRANCH  15  18
ATOM     18  O   UNL     1       8.114   3.942  19.092  1.00  0.00    -0.508 OA
ATOM     19  H   UNL     1       8.787   4.623  18.761  1.00  0.00     0.293 HD
ENDBRANCH  15  18
BRANCH  17  20
ATOM     20  O   UNL     1      10.563   0.111  17.410  1.00  0.00    -0.507 OA
ATOM     21  H   UNL     1      11.455  -0.264  17.711  1.00  0.00     0.293 HD
ENDBRANCH  17  20
ENDBRANCH   1  12
BRANCH   2  22
ATOM     22  O   UNL     1       6.978  -2.164  18.929  1.00  0.00    -0.502 OA
ATOM     23  H   UNL     1       6.516  -2.391  18.056  1.00  0.00     0.293 HD
ENDBRANCH   2  22
BRANCH   6  24
ATOM     24  O   UNL     1       9.526  -6.755  19.843  1.00  0.00    -0.507 OA
ATOM     25  H   UNL     1       9.585  -7.487  20.535  1.00  0.00     0.293 HD
ENDBRANCH   6  24
BRANCH   8  26
ATOM     26  O   UNL     1      14.044  -5.197  20.093  1.00  0.00    -0.508 OA
ATOM     27  H   UNL     1      14.628  -5.429  19.297  1.00  0.00     0.293 HD
ENDBRANCH   8  26
TORSDOF 6
ENDMDL
