MODEL 1
REMARK VINA RESULT:    -6.076      0.000      0.000
REMARK INTER + INTRA:          -7.419
REMARK INTER:                  -7.141
REMARK INTRA:                  -0.278
REMARK UNBOUND:                -0.278
REMARK SMILES O=c1c(O)c(-c2ccc(O)cc2)oc2cc(O)cc(O)c12
REMARK SMILES IDX 5 1 3 2 2 3 1 4 21 5 19 6 18 7 16 8 15 9 14 10 13 11 6 12
REMARK SMILES IDX 7 13 8 14 9 15 12 16 11 17 10 18 4 20 20 22 17 24
REMARK H PARENT 10 19 4 21 20 23 17 25
REMARK Flexibility Score: inf
ROOT
ATOM      1  C   UNL     1      68.525  48.812   8.895  1.00  0.00     0.180 A 
ATOM      2  C   UNL     1      67.574  49.756   9.319  1.00  0.00     0.208 A 
ATOM      3  C   UNL     1      66.219  49.389   9.353  1.00  0.00     0.238 A 
ATOM      4  O   UNL     1      65.378  50.221   9.784  1.00  0.00    -0.285 OA
ATOM      5  C   UNL     1      65.830  48.090   8.946  1.00  0.00     0.111 A 
ATOM      6  C   UNL     1      64.482  47.624   8.901  1.00  0.00     0.134 A 
ATOM      7  C   UNL     1      64.225  46.279   8.609  1.00  0.00     0.093 A 
ATOM      8  C   UNL     1      65.260  45.400   8.295  1.00  0.00     0.123 A 
ATOM      9  C   UNL     1      66.578  45.859   8.277  1.00  0.00     0.094 A 
ATOM     10  C   UNL     1      66.869  47.187   8.601  1.00  0.00     0.146 A 
ATOM     11  O   UNL     1      68.136  47.581   8.584  1.00  0.00    -0.452 OA
ENDROOT
BRANCH   1  12
ATOM     12  C   UNL     1      69.968  49.131   8.809  1.00  0.00     0.021 A 
ATOM     13  C   UNL     1      70.499  49.834   7.713  1.00  0.00     0.016 A 
ATOM     14  C   UNL     1      71.870  50.103   7.642  1.00  0.00     0.047 A 
ATOM     15  C   UNL     1      72.728  49.664   8.658  1.00  0.00     0.115 A 
ATOM     16  C   UNL     1      70.839  48.677   9.814  1.00  0.00     0.016 A 
ATOM     17  C   UNL     1      72.209  48.948   9.741  1.00  0.00     0.047 A 
BRANCH  15  18
ATOM     18  O   UNL     1      74.094  49.927   8.599  1.00  0.00    -0.508 OA
ATOM     19  H   UNL     1      74.777  49.260   8.939  1.00  0.00     0.293 HD
ENDBRANCH  15  18
ENDBRANCH   1  12
BRANCH   2  20
ATOM     20  O   UNL     1      67.981  51.026   9.738  1.00  0.00    -0.502 OA
ATOM     21  H   UNL     1      67.384  51.840   9.665  1.00  0.00     0.293 HD
ENDBRANCH   2  20
BRANCH   6  22
ATOM     22  O   UNL     1      63.366  48.442   9.107  1.00  0.00    -0.507 OA
ATOM     23  H   UNL     1      63.390  49.450   9.137  1.00  0.00     0.293 HD
ENDBRANCH   6  22
BRANCH   8  24
ATOM     24  O   UNL     1      64.967  44.072   7.993  1.00  0.00    -0.508 OA
ATOM     25  H   UNL     1      64.450  43.819   7.159  1.00  0.00     0.293 HD
ENDBRANCH   8  24
TORSDOF 5
ENDMDL
MODEL 2
REMARK VINA RESULT:    -5.925      1.922      6.796
REMARK INTER + INTRA:          -7.243
REMARK INTER:                  -6.956
REMARK INTRA:                  -0.287
REMARK UNBOUND:                -0.278
REMARK SMILES O=c1c(O)c(-c2ccc(O)cc2)oc2cc(O)cc(O)c12
REMARK SMILES IDX 5 1 3 2 2 3 1 4 21 5 19 6 18 7 16 8 15 9 14 10 13 11 6 12
REMARK SMILES IDX 7 13 8 14 9 15 12 16 11 17 10 18 4 20 20 22 17 24
REMARK H PARENT 10 19 4 21 20 23 17 25
REMARK Flexibility Score: inf
ROOT
ATOM      1  C   UNL     1      65.449  47.655   8.904  1.00  0.00     0.180 A 
ATOM      2  C   UNL     1      65.406  48.952   9.444  1.00  0.00     0.208 A 
ATOM      3  C   UNL     1      66.555  49.755   9.378  1.00  0.00     0.238 A 
ATOM      4  O   UNL     1      66.495  50.935   9.814  1.00  0.00    -0.285 OA
ATOM      5  C   UNL     1      67.738  49.247   8.790  1.00  0.00     0.111 A 
ATOM      6  C   UNL     1      68.973  49.958   8.705  1.00  0.00     0.134 A 
ATOM      7  C   UNL     1      70.040  49.407   7.985  1.00  0.00     0.093 A 
ATOM      8  C   UNL     1      69.940  48.144   7.403  1.00  0.00     0.123 A 
ATOM      9  C   UNL     1      68.757  47.413   7.530  1.00  0.00     0.094 A 
ATOM     10  C   UNL     1      67.663  47.953   8.212  1.00  0.00     0.146 A 
ATOM     11  O   UNL     1      66.553  47.231   8.300  1.00  0.00    -0.452 OA
ENDROOT
BRANCH   1  12
ATOM     12  C   UNL     1      64.287  46.740   8.959  1.00  0.00     0.021 A 
ATOM     13  C   UNL     1      64.007  45.976  10.106  1.00  0.00     0.016 A 
ATOM     14  C   UNL     1      62.917  45.100  10.124  1.00  0.00     0.047 A 
ATOM     15  C   UNL     1      62.100  44.968   8.994  1.00  0.00     0.115 A 
ATOM     16  C   UNL     1      63.475  46.585   7.822  1.00  0.00     0.016 A 
ATOM     17  C   UNL     1      62.384  45.710   7.844  1.00  0.00     0.047 A 
BRANCH  15  18
ATOM     18  O   UNL     1      61.011  44.100   9.002  1.00  0.00    -0.508 OA
ATOM     19  H   UNL     1      61.129  43.103   9.141  1.00  0.00     0.293 HD
ENDBRANCH  15  18
ENDBRANCH   1  12
BRANCH   2  20
ATOM     20  O   UNL     1      64.222  49.443  10.001  1.00  0.00    -0.502 OA
ATOM     21  H   UNL     1      63.951  50.417   9.933  1.00  0.00     0.293 HD
ENDBRANCH   2  20
BRANCH   6  22
ATOM     22  O   UNL     1      69.210  51.186   9.329  1.00  0.00    -0.507 OA
ATOM     23  H   UNL     1      69.001  51.390  10.295  1.00  0.00     0.293 HD
ENDBRANCH   6  22
BRANCH   8  24
ATOM     24  O   UNL     1      71.027  47.619   6.707  1.00  0.00    -0.508 OA
ATOM     25  H   UNL     1      71.979  47.767   7.021  1.00  0.00     0.293 HD
ENDBRANCH   8  24
TORSDOF 5
ENDMDL
MODEL 3
REMARK VINA RESULT:    -5.764      2.049      7.385
REMARK INTER + INTRA:          -7.053
REMARK INTER:                  -7.075
REMARK INTRA:                   0.022
REMARK UNBOUND:                -0.278
REMARK SMILES O=c1c(O)c(-c2ccc(O)cc2)oc2cc(O)cc(O)c12
REMARK SMILES IDX 5 1 3 2 2 3 1 4 21 5 19 6 18 7 16 8 15 9 14 10 13 11 6 12
REMARK SMILES IDX 7 13 8 14 9 15 12 16 11 17 10 18 4 20 20 22 17 24
REMARK H PARENT 10 19 4 21 20 23 17 25
REMARK Flexibility Score: inf
ROOT
ATOM      1  C   UNL     1      65.419  46.896   8.825  1.00  0.00     0.180 A 
ATOM      2  C   UNL     1      66.588  46.202   8.469  1.00  0.00     0.208 A 
ATOM      3  C   UNL     1      67.799  46.907   8.379  1.00  0.00     0.238 A 
ATOM      4  O   UNL     1      68.851  46.271   8.112  1.00  0.00    -0.285 OA
ATOM      5  C   UNL     1      67.823  48.301   8.629  1.00  0.00     0.111 A 
ATOM      6  C   UNL     1      68.985  49.123   8.528  1.00  0.00     0.134 A 
ATOM      7  C   UNL     1      68.920  50.464   8.927  1.00  0.00     0.093 A 
ATOM      8  C   UNL     1      67.721  51.029   9.360  1.00  0.00     0.123 A 
ATOM      9  C   UNL     1      66.564  50.249   9.406  1.00  0.00     0.094 A 
ATOM     10  C   UNL     1      66.606  48.899   9.050  1.00  0.00     0.146 A 
ATOM     11  O   UNL     1      65.487  48.190   9.119  1.00  0.00    -0.452 OA
ENDROOT
BRANCH   1  12
ATOM     12  C   UNL     1      64.102  46.227   8.915  1.00  0.00     0.021 A 
ATOM     13  C   UNL     1      63.627  45.399   7.882  1.00  0.00     0.016 A 
ATOM     14  C   UNL     1      62.369  44.797   7.979  1.00  0.00     0.047 A 
ATOM     15  C   UNL     1      61.565  45.024   9.103  1.00  0.00     0.115 A 
ATOM     16  C   UNL     1      63.280  46.465  10.030  1.00  0.00     0.016 A 
ATOM     17  C   UNL     1      62.022  45.861  10.125  1.00  0.00     0.047 A 
BRANCH  15  18
ATOM     18  O   UNL     1      60.310  44.428   9.212  1.00  0.00    -0.508 OA
ATOM     19  H   UNL     1      59.626  44.754   9.885  1.00  0.00     0.293 HD
ENDBRANCH  15  18
ENDBRANCH   1  12
BRANCH   2  20
ATOM     20  O   UNL     1      66.547  44.823   8.247  1.00  0.00    -0.502 OA
ATOM     21  H   UNL     1      65.698  44.280   8.344  1.00  0.00     0.293 HD
ENDBRANCH   2  20
BRANCH   6  22
ATOM     22  O   UNL     1      70.211  48.682   8.021  1.00  0.00    -0.507 OA
ATOM     23  H   UNL     1      71.008  48.428   8.584  1.00  0.00     0.293 HD
ENDBRANCH   6  22
BRANCH   8  24
ATOM     24  O   UNL     1      67.688  52.371   9.733  1.00  0.00    -0.508 OA
ATOM     25  H   UNL     1      68.538  52.910   9.851  1.00  0.00     0.293 HD
ENDBRANCH   8  24
TORSDOF 5
ENDMDL
MODEL 4
REMARK VINA RESULT:    -5.754      2.577      6.889
REMARK INTER + INTRA:          -7.041
REMARK INTER:                  -6.745
REMARK INTRA:                  -0.296
REMARK UNBOUND:                -0.278
REMARK SMILES O=c1c(O)c(-c2ccc(O)cc2)oc2cc(O)cc(O)c12
REMARK SMILES IDX 5 1 3 2 2 3 1 4 21 5 19 6 18 7 16 8 15 9 14 10 13 11 6 12
REMARK SMILES IDX 7 13 8 14 9 15 12 16 11 17 10 18 4 20 20 22 17 24
REMARK H PARENT 10 19 4 21 20 23 17 25
REMARK Flexibility Score: inf
ROOT
ATOM      1  C   UNL     1      66.312  46.719   8.291  1.00  0.00     0.180 A 
ATOM      2  C   UNL     1      66.740  47.710   7.390  1.00  0.00     0.208 A 
ATOM      3  C   UNL     1      68.117  47.923   7.218  1.00  0.00     0.238 A 
ATOM      4  O   UNL     1      68.495  48.774   6.371  1.00  0.00    -0.285 OA
ATOM      5  C   UNL     1      69.048  47.157   7.960  1.00  0.00     0.111 A 
ATOM      6  C   UNL     1      70.465  47.317   7.895  1.00  0.00     0.134 A 
ATOM      7  C   UNL     1      71.294  46.415   8.574  1.00  0.00     0.093 A 
ATOM      8  C   UNL     1      70.758  45.401   9.367  1.00  0.00     0.123 A 
ATOM      9  C   UNL     1      69.373  45.273   9.486  1.00  0.00     0.094 A 
ATOM     10  C   UNL     1      68.520  46.135   8.791  1.00  0.00     0.146 A 
ATOM     11  O   UNL     1      67.210  45.971   8.922  1.00  0.00    -0.452 OA
ENDROOT
BRANCH   1  12
ATOM     12  C   UNL     1      64.878  46.452   8.545  1.00  0.00     0.021 A 
ATOM     13  C   UNL     1      64.154  47.187   9.501  1.00  0.00     0.016 A 
ATOM     14  C   UNL     1      62.806  46.900   9.741  1.00  0.00     0.047 A 
ATOM     15  C   UNL     1      62.169  45.870   9.039  1.00  0.00     0.115 A 
ATOM     16  C   UNL     1      64.237  45.406   7.860  1.00  0.00     0.016 A 
ATOM     17  C   UNL     1      62.889  45.123   8.101  1.00  0.00     0.047 A 
BRANCH  15  18
ATOM     18  O   UNL     1      60.827  45.576   9.268  1.00  0.00    -0.508 OA
ATOM     19  H   UNL     1      60.139  45.633   8.526  1.00  0.00     0.293 HD
ENDBRANCH  15  18
ENDBRANCH   1  12
BRANCH   2  20
ATOM     20  O   UNL     1      65.806  48.440   6.651  1.00  0.00    -0.502 OA
ATOM     21  H   UNL     1      65.259  48.028   5.905  1.00  0.00     0.293 HD
ENDBRANCH   2  20
BRANCH   6  22
ATOM     22  O   UNL     1      71.102  48.352   7.206  1.00  0.00    -0.507 OA
ATOM     23  H   UNL     1      70.883  48.636   6.262  1.00  0.00     0.293 HD
ENDBRANCH   6  22
BRANCH   8  24
ATOM     24  O   UNL     1      71.612  44.532  10.042  1.00  0.00    -0.508 OA
ATOM     25  H   UNL     1      71.399  44.195  10.974  1.00  0.00     0.293 HD
ENDBRANCH   8  24
TORSDOF 5
ENDMDL
MODEL 5
REMARK VINA RESULT:    -5.658      2.684      6.890
REMARK INTER + INTRA:          -6.928
REMARK INTER:                  -6.659
REMARK INTRA:                  -0.269
REMARK UNBOUND:                -0.278
REMARK SMILES O=c1c(O)c(-c2ccc(O)cc2)oc2cc(O)cc(O)c12
REMARK SMILES IDX 5 1 3 2 2 3 1 4 21 5 19 6 18 7 16 8 15 9 14 10 13 11 6 12
REMARK SMILES IDX 7 13 8 14 9 15 12 16 11 17 10 18 4 20 20 22 17 24
REMARK H PARENT 10 19 4 21 20 23 17 25
REMARK Flexibility Score: inf
ROOT
ATOM      1  C   UNL     1      69.833  48.087   8.006  1.00  0.00     0.180 A 
ATOM      2  C   UNL     1      70.655  49.119   8.491  1.00  0.00     0.208 A 
ATOM      3  C   UNL     1      72.043  49.031   8.297  1.00  0.00     0.238 A 
ATOM      4  O   UNL     1      72.769  49.983   8.686  1.00  0.00    -0.285 OA
ATOM      5  C   UNL     1      72.593  47.906   7.635  1.00  0.00     0.111 A 
ATOM      6  C   UNL     1      73.987  47.695   7.419  1.00  0.00     0.134 A 
ATOM      7  C   UNL     1      74.408  46.611   6.637  1.00  0.00     0.093 A 
ATOM      8  C   UNL     1      73.492  45.697   6.120  1.00  0.00     0.123 A 
ATOM      9  C   UNL     1      72.129  45.861   6.375  1.00  0.00     0.094 A 
ATOM     10  C   UNL     1      71.676  46.953   7.121  1.00  0.00     0.146 A 
ATOM     11  O   UNL     1      70.372  47.079   7.331  1.00  0.00    -0.452 OA
ENDROOT
BRANCH   1  12
ATOM     12  C   UNL     1      68.365  48.096   8.195  1.00  0.00     0.021 A 
ATOM     13  C   UNL     1      67.780  47.721   9.418  1.00  0.00     0.016 A 
ATOM     14  C   UNL     1      66.389  47.714   9.564  1.00  0.00     0.047 A 
ATOM     15  C   UNL     1      65.565  48.070   8.489  1.00  0.00     0.115 A 
ATOM     16  C   UNL     1      67.530  48.431   7.115  1.00  0.00     0.016 A 
ATOM     17  C   UNL     1      66.140  48.425   7.265  1.00  0.00     0.047 A 
BRANCH  15  18
ATOM     18  O   UNL     1      64.179  48.068   8.624  1.00  0.00    -0.508 OA
ATOM     19  H   UNL     1      63.722  48.532   9.400  1.00  0.00     0.293 HD
ENDBRANCH  15  18
ENDBRANCH   1  12
BRANCH   2  20
ATOM     20  O   UNL     1      70.091  50.231   9.122  1.00  0.00    -0.502 OA
ATOM     21  H   UNL     1      69.466  50.149   9.915  1.00  0.00     0.293 HD
ENDBRANCH   2  20
BRANCH   6  22
ATOM     22  O   UNL     1      74.993  48.495   7.968  1.00  0.00    -0.507 OA
ATOM     23  H   UNL     1      75.833  48.145   8.404  1.00  0.00     0.293 HD
ENDBRANCH   6  22
BRANCH   8  24
ATOM     24  O   UNL     1      73.947  44.622   5.360  1.00  0.00    -0.508 OA
ATOM     25  H   UNL     1      74.012  44.675   4.350  1.00  0.00     0.293 HD
ENDBRANCH   8  24
TORSDOF 5
ENDMDL
MODEL 6
REMARK VINA RESULT:    -5.510      4.963      8.548
REMARK INTER + INTRA:          -6.755
REMARK INTER:                  -6.465
REMARK INTRA:                  -0.289
REMARK UNBOUND:                -0.278
REMARK SMILES O=c1c(O)c(-c2ccc(O)cc2)oc2cc(O)cc(O)c12
REMARK SMILES IDX 5 1 3 2 2 3 1 4 21 5 19 6 18 7 16 8 15 9 14 10 13 11 6 12
REMARK SMILES IDX 7 13 8 14 9 15 12 16 11 17 10 18 4 20 20 22 17 24
REMARK H PARENT 10 19 4 21 20 23 17 25
REMARK Flexibility Score: inf
ROOT
ATOM      1  C   UNL     1      71.385  44.566   7.012  1.00  0.00     0.180 A 
ATOM      2  C   UNL     1      71.880  44.549   5.697  1.00  0.00     0.208 A 
ATOM      3  C   UNL     1      72.694  45.607   5.262  1.00  0.00     0.238 A 
ATOM      4  O   UNL     1      73.178  45.559   4.100  1.00  0.00    -0.285 OA
ATOM      5  C   UNL     1      72.989  46.677   6.140  1.00  0.00     0.111 A 
ATOM      6  C   UNL     1      73.769  47.820   5.793  1.00  0.00     0.134 A 
ATOM      7  C   UNL     1      74.106  48.753   6.781  1.00  0.00     0.093 A 
ATOM      8  C   UNL     1      73.638  48.619   8.087  1.00  0.00     0.123 A 
ATOM      9  C   UNL     1      72.824  47.537   8.425  1.00  0.00     0.094 A 
ATOM     10  C   UNL     1      72.501  46.570   7.469  1.00  0.00     0.146 A 
ATOM     11  O   UNL     1      71.734  45.550   7.833  1.00  0.00    -0.452 OA
ENDROOT
BRANCH   1  12
ATOM     12  C   UNL     1      70.501  43.500   7.535  1.00  0.00     0.021 A 
ATOM     13  C   UNL     1      71.025  42.344   8.141  1.00  0.00     0.016 A 
ATOM     14  C   UNL     1      70.170  41.339   8.606  1.00  0.00     0.047 A 
ATOM     15  C   UNL     1      68.784  41.471   8.460  1.00  0.00     0.115 A 
ATOM     16  C   UNL     1      69.110  43.614   7.375  1.00  0.00     0.016 A 
ATOM     17  C   UNL     1      68.258  42.608   7.842  1.00  0.00     0.047 A 
BRANCH  15  18
ATOM     18  O   UNL     1      67.923  40.477   8.921  1.00  0.00    -0.508 OA
ATOM     19  H   UNL     1      68.275  39.630   9.352  1.00  0.00     0.293 HD
ENDBRANCH  15  18
ENDBRANCH   1  12
BRANCH   2  20
ATOM     20  O   UNL     1      71.595  43.472   4.852  1.00  0.00    -0.502 OA
ATOM     21  H   UNL     1      71.925  42.533   5.037  1.00  0.00     0.293 HD
ENDBRANCH   2  20
BRANCH   6  22
ATOM     22  O   UNL     1      74.211  48.098   4.496  1.00  0.00    -0.507 OA
ATOM     23  H   UNL     1      75.058  47.734   4.086  1.00  0.00     0.293 HD
ENDBRANCH   6  22
BRANCH   8  24
ATOM     24  O   UNL     1      73.979  49.575   9.042  1.00  0.00    -0.508 OA
ATOM     25  H   UNL     1      74.596  49.357   9.815  1.00  0.00     0.293 HD
ENDBRANCH   8  24
TORSDOF 5
ENDMDL
MODEL 7
REMARK VINA RESULT:    -5.424      2.458      7.275
REMARK INTER + INTRA:          -6.654
REMARK INTER:                  -6.361
REMARK INTRA:                  -0.292
REMARK UNBOUND:                -0.278
REMARK SMILES O=c1c(O)c(-c2ccc(O)cc2)oc2cc(O)cc(O)c12
REMARK SMILES IDX 5 1 3 2 2 3 1 4 21 5 19 6 18 7 16 8 15 9 14 10 13 11 6 12
REMARK SMILES IDX 7 13 8 14 9 15 12 16 11 17 10 18 4 20 20 22 17 24
REMARK H PARENT 10 19 4 21 20 23 17 25
REMARK Flexibility Score: inf
ROOT
ATOM      1  C   UNL     1      69.117  47.134   7.903  1.00  0.00     0.180 A 
ATOM      2  C   UNL     1      69.596  45.917   7.389  1.00  0.00     0.208 A 
ATOM      3  C   UNL     1      70.976  45.766   7.173  1.00  0.00     0.238 A 
ATOM      4  O   UNL     1      71.405  44.656   6.763  1.00  0.00    -0.285 OA
ATOM      5  C   UNL     1      71.855  46.838   7.456  1.00  0.00     0.111 A 
ATOM      6  C   UNL     1      73.265  46.809   7.238  1.00  0.00     0.134 A 
ATOM      7  C   UNL     1      74.055  47.879   7.678  1.00  0.00     0.093 A 
ATOM      8  C   UNL     1      73.479  49.003   8.269  1.00  0.00     0.123 A 
ATOM      9  C   UNL     1      72.094  49.069   8.433  1.00  0.00     0.094 A 
ATOM     10  C   UNL     1      71.285  48.000   8.037  1.00  0.00     0.146 A 
ATOM     11  O   UNL     1      69.974  48.097   8.222  1.00  0.00    -0.452 OA
ENDROOT
BRANCH   1  12
ATOM     12  C   UNL     1      67.675  47.378   8.134  1.00  0.00     0.021 A 
ATOM     13  C   UNL     1      66.866  47.980   7.153  1.00  0.00     0.016 A 
ATOM     14  C   UNL     1      65.512  48.222   7.404  1.00  0.00     0.047 A 
ATOM     15  C   UNL     1      64.952  47.878   8.640  1.00  0.00     0.115 A 
ATOM     16  C   UNL     1      67.109  47.054   9.379  1.00  0.00     0.016 A 
ATOM     17  C   UNL     1      65.754  47.297   9.627  1.00  0.00     0.047 A 
BRANCH  15  18
ATOM     18  O   UNL     1      63.604  48.113   8.901  1.00  0.00    -0.508 OA
ATOM     19  H   UNL     1      63.253  48.189   9.849  1.00  0.00     0.293 HD
ENDBRANCH  15  18
ENDBRANCH   1  12
BRANCH   2  20
ATOM     20  O   UNL     1      68.714  44.863   7.136  1.00  0.00    -0.502 OA
ATOM     21  H   UNL     1      68.396  44.632   6.203  1.00  0.00     0.293 HD
ENDBRANCH   2  20
BRANCH   6  22
ATOM     22  O   UNL     1      73.931  45.775   6.574  1.00  0.00    -0.507 OA
ATOM     23  H   UNL     1      73.621  45.351   5.712  1.00  0.00     0.293 HD
ENDBRANCH   6  22
BRANCH   8  24
ATOM     24  O   UNL     1      74.293  50.057   8.680  1.00  0.00    -0.508 OA
ATOM     25  H   UNL     1      74.168  50.996   8.319  1.00  0.00     0.293 HD
ENDBRANCH   8  24
TORSDOF 5
ENDMDL
MODEL 8
REMARK VINA RESULT:    -5.298      1.389      3.201
REMARK INTER + INTRA:          -6.505
REMARK INTER:                  -6.214
REMARK INTRA:                  -0.292
REMARK UNBOUND:                -0.278
REMARK SMILES O=c1c(O)c(-c2ccc(O)cc2)oc2cc(O)cc(O)c12
REMARK SMILES IDX 5 1 3 2 2 3 1 4 21 5 19 6 18 7 16 8 15 9 14 10 13 11 6 12
REMARK SMILES IDX 7 13 8 14 9 15 12 16 11 17 10 18 4 20 20 22 17 24
REMARK H PARENT 10 19 4 21 20 23 17 25
REMARK Flexibility Score: inf
ROOT
ATOM      1  C   UNL     1      69.028  47.863   9.091  1.00  0.00     0.180 A 
ATOM      2  C   UNL     1      68.672  46.516   8.901  1.00  0.00     0.208 A 
ATOM      3  C   UNL     1      67.326  46.141   9.046  1.00  0.00     0.238 A 
ATOM      4  O   UNL     1      67.005  44.945   8.822  1.00  0.00    -0.285 OA
ATOM      5  C   UNL     1      66.358  47.113   9.396  1.00  0.00     0.111 A 
ATOM      6  C   UNL     1      64.973  46.837   9.608  1.00  0.00     0.134 A 
ATOM      7  C   UNL     1      64.083  47.897   9.821  1.00  0.00     0.093 A 
ATOM      8  C   UNL     1      64.535  49.214   9.895  1.00  0.00     0.123 A 
ATOM      9  C   UNL     1      65.896  49.489   9.748  1.00  0.00     0.094 A 
ATOM     10  C   UNL     1      66.803  48.456   9.498  1.00  0.00     0.146 A 
ATOM     11  O   UNL     1      68.086  48.762   9.353  1.00  0.00    -0.452 OA
ENDROOT
BRANCH   1  12
ATOM     12  C   UNL     1      70.428  48.330   8.980  1.00  0.00     0.021 A 
ATOM     13  C   UNL     1      71.266  48.411  10.108  1.00  0.00     0.016 A 
ATOM     14  C   UNL     1      72.578  48.878   9.982  1.00  0.00     0.047 A 
ATOM     15  C   UNL     1      73.066  49.282   8.733  1.00  0.00     0.115 A 
ATOM     16  C   UNL     1      70.919  48.756   7.735  1.00  0.00     0.016 A 
ATOM     17  C   UNL     1      72.232  49.222   7.612  1.00  0.00     0.047 A 
BRANCH  15  18
ATOM     18  O   UNL     1      74.371  49.748   8.595  1.00  0.00    -0.508 OA
ATOM     19  H   UNL     1      74.900  49.596   7.744  1.00  0.00     0.293 HD
ENDBRANCH  15  18
ENDBRANCH   1  12
BRANCH   2  20
ATOM     20  O   UNL     1      69.639  45.577   8.534  1.00  0.00    -0.502 OA
ATOM     21  H   UNL     1      69.405  44.626   8.278  1.00  0.00     0.293 HD
ENDBRANCH   2  20
BRANCH   6  22
ATOM     22  O   UNL     1      64.431  45.550   9.647  1.00  0.00    -0.507 OA
ATOM     23  H   UNL     1      64.625  44.823   8.974  1.00  0.00     0.293 HD
ENDBRANCH   6  22
BRANCH   8  24
ATOM     24  O   UNL     1      63.623  50.242  10.125  1.00  0.00    -0.508 OA
ATOM     25  H   UNL     1      62.708  50.062  10.520  1.00  0.00     0.293 HD
ENDBRANCH   8  24
TORSDOF 5
ENDMDL
