MODEL 1
REMARK VINA RESULT:    -3.814      0.000      0.000
REMARK INTER + INTRA:          -7.964
REMARK INTER:                  -6.490
REMARK INTRA:                  -1.474
REMARK UNBOUND:                -1.474
REMARK SMILES CCCCCCCCCCCCCC(=O)[O-]
REMARK SMILES IDX 8 1 9 2 10 3 11 4 12 5 13 6 14 7 15 8 16 9 7 10 6 11 5 12
REMARK SMILES IDX 4 13 3 14 2 15 1 16
REMARK H PARENT
REMARK Flexibility Score: inf
ROOT
ATOM      1  C   UNL     1     -19.812   4.764  20.964  1.00  0.00     0.000 C 
ENDROOT
BRANCH   1   2
ATOM      2  C   UNL     1     -21.139   4.050  20.670  1.00  0.00     0.000 C 
BRANCH   2   3
ATOM      3  C   UNL     1     -21.350   2.809  21.553  1.00  0.00     0.000 C 
BRANCH   3   4
ATOM      4  C   UNL     1     -20.101   1.913  21.622  1.00  0.00     0.000 C 
BRANCH   4   5
ATOM      5  C   UNL     1     -20.402   0.453  21.252  1.00  0.00     0.006 C 
BRANCH   5   6
ATOM      6  C   UNL     1     -21.869   0.074  21.491  1.00  0.00     0.053 C 
BRANCH   6   7
ATOM      7  C   UNL     1     -22.095  -1.369  21.171  1.00  0.00     0.041 C 
ATOM      8  O   UNL     1     -22.057  -2.235  22.085  1.00  0.00    -0.550 OA
ATOM      9  O   UNL     1     -22.397  -1.754  19.871  1.00  0.00    -0.550 OA
ENDBRANCH   6   7
ENDBRANCH   5   6
ENDBRANCH   4   5
ENDBRANCH   3   4
ENDBRANCH   2   3
ENDBRANCH   1   2
BRANCH   1  10
ATOM     10  C   UNL     1     -19.924   6.268  20.685  1.00  0.00     0.000 C 
BRANCH  10  11
ATOM     11  C   UNL     1     -21.275   6.609  20.036  1.00  0.00    -0.000 C 
BRANCH  11  12
ATOM     12  C   UNL     1     -21.927   7.860  20.645  1.00  0.00    -0.000 C 
BRANCH  12  13
ATOM     13  C   UNL     1     -22.325   7.663  22.118  1.00  0.00    -0.000 C 
BRANCH  13  14
ATOM     14  C   UNL     1     -23.621   6.837  22.264  1.00  0.00    -0.000 C 
BRANCH  14  15
ATOM     15  C   UNL     1     -23.440   5.548  23.083  1.00  0.00    -0.003 C 
ATOM     16  C   UNL     1     -22.143   5.527  23.889  1.00  0.00     0.004 C 
ENDBRANCH  14  15
ENDBRANCH  13  14
ENDBRANCH  12  13
ENDBRANCH  11  12
ENDBRANCH  10  11
ENDBRANCH   1  10
TORSDOF 12
ENDMDL
MODEL 2
REMARK VINA RESULT:    -3.757     20.862     22.826
REMARK INTER + INTRA:          -7.867
REMARK INTER:                  -6.201
REMARK INTRA:                  -1.666
REMARK UNBOUND:                -1.474
REMARK SMILES CCCCCCCCCCCCCC(=O)[O-]
REMARK SMILES IDX 8 1 9 2 10 3 11 4 12 5 13 6 14 7 15 8 16 9 7 10 6 11 5 12
REMARK SMILES IDX 4 13 3 14 2 15 1 16
REMARK H PARENT
REMARK Flexibility Score: inf
ROOT
ATOM      1  C   UNL     1      -6.869  -9.423  33.382  1.00  0.00     0.000 C 
ENDROOT
BRANCH   1   2
ATOM      2  C   UNL     1      -5.663  -8.907  32.584  1.00  0.00     0.000 C 
BRANCH   2   3
ATOM      3  C   UNL     1      -5.347  -9.781  31.359  1.00  0.00     0.000 C 
BRANCH   3   4
ATOM      4  C   UNL     1      -5.406 -11.286  31.675  1.00  0.00     0.000 C 
BRANCH   4   5
ATOM      5  C   UNL     1      -6.337 -12.051  30.721  1.00  0.00     0.006 C 
BRANCH   5   6
ATOM      6  C   UNL     1      -7.195 -11.118  29.859  1.00  0.00     0.053 C 
BRANCH   6   7
ATOM      7  C   UNL     1      -8.649 -11.385  30.086  1.00  0.00     0.041 C 
ATOM      8  O   UNL     1      -9.294 -12.109  29.283  1.00  0.00    -0.550 OA
ATOM      9  O   UNL     1      -9.282 -10.875  31.213  1.00  0.00    -0.550 OA
ENDBRANCH   6   7
ENDBRANCH   5   6
ENDBRANCH   4   5
ENDBRANCH   3   4
ENDBRANCH   2   3
ENDBRANCH   1   2
BRANCH   1  10
ATOM     10  C   UNL     1      -6.710  -9.117  34.876  1.00  0.00     0.000 C 
BRANCH  10  11
ATOM     11  C   UNL     1      -5.274  -8.677  35.199  1.00  0.00    -0.000 C 
BRANCH  11  12
ATOM     12  C   UNL     1      -5.217  -7.576  36.271  1.00  0.00    -0.000 C 
BRANCH  12  13
ATOM     13  C   UNL     1      -5.825  -6.247  35.788  1.00  0.00    -0.000 C 
BRANCH  13  14
ATOM     14  C   UNL     1      -5.158  -5.740  34.491  1.00  0.00    -0.000 C 
BRANCH  14  15
ATOM     15  C   UNL     1      -6.156  -5.181  33.464  1.00  0.00    -0.003 C 
ATOM     16  C   UNL     1      -7.570  -5.731  33.642  1.00  0.00     0.004 C 
ENDBRANCH  14  15
ENDBRANCH  13  14
ENDBRANCH  12  13
ENDBRANCH  11  12
ENDBRANCH  10  11
ENDBRANCH   1  10
TORSDOF 12
ENDMDL
MODEL 3
REMARK VINA RESULT:    -3.740      3.525      6.984
REMARK INTER + INTRA:          -7.837
REMARK INTER:                  -6.944
REMARK INTRA:                  -0.893
REMARK UNBOUND:                -1.474
REMARK SMILES CCCCCCCCCCCCCC(=O)[O-]
REMARK SMILES IDX 8 1 9 2 10 3 11 4 12 5 13 6 14 7 15 8 16 9 7 10 6 11 5 12
REMARK SMILES IDX 4 13 3 14 2 15 1 16
REMARK H PARENT
REMARK Flexibility Score: inf
ROOT
ATOM      1  C   UNL     1     -24.874   4.494  25.302  1.00  0.00     0.000 C 
ENDROOT
BRANCH   1   2
ATOM      2  C   UNL     1     -24.773   5.312  24.006  1.00  0.00     0.000 C 
BRANCH   2   3
ATOM      3  C   UNL     1     -23.328   5.429  23.492  1.00  0.00     0.000 C 
BRANCH   3   4
ATOM      4  C   UNL     1     -23.253   6.005  22.067  1.00  0.00     0.000 C 
BRANCH   4   5
ATOM      5  C   UNL     1     -22.773   7.465  22.046  1.00  0.00     0.006 C 
BRANCH   5   6
ATOM      6  C   UNL     1     -22.139   7.858  20.706  1.00  0.00     0.053 C 
BRANCH   6   7
ATOM      7  C   UNL     1     -21.105   6.855  20.303  1.00  0.00     0.041 C 
ATOM      8  O   UNL     1     -20.061   6.708  20.992  1.00  0.00    -0.550 OA
ATOM      9  O   UNL     1     -21.315   6.048  19.192  1.00  0.00    -0.550 OA
ENDBRANCH   6   7
ENDBRANCH   5   6
ENDBRANCH   4   5
ENDBRANCH   3   4
ENDBRANCH   2   3
ENDBRANCH   1   2
BRANCH   1  10
ATOM     10  C   UNL     1     -24.107   3.172  25.177  1.00  0.00     0.000 C 
BRANCH  10  11
ATOM     11  C   UNL     1     -24.951   2.111  24.453  1.00  0.00    -0.000 C 
BRANCH  11  12
ATOM     12  C   UNL     1     -24.092   1.087  23.694  1.00  0.00    -0.000 C 
BRANCH  12  13
ATOM     13  C   UNL     1     -23.484   1.664  22.403  1.00  0.00    -0.000 C 
BRANCH  13  14
ATOM     14  C   UNL     1     -22.280   0.836  21.907  1.00  0.00    -0.000 C 
BRANCH  14  15
ATOM     15  C   UNL     1     -22.554  -0.677  21.853  1.00  0.00    -0.003 C 
ATOM     16  C   UNL     1     -22.017  -1.337  20.584  1.00  0.00     0.004 C 
ENDBRANCH  14  15
ENDBRANCH  13  14
ENDBRANCH  12  13
ENDBRANCH  11  12
ENDBRANCH  10  11
ENDBRANCH   1  10
TORSDOF 12
ENDMDL
MODEL 4
REMARK VINA RESULT:    -3.707      2.872      5.494
REMARK INTER + INTRA:          -7.782
REMARK INTER:                  -6.145
REMARK INTRA:                  -1.637
REMARK UNBOUND:                -1.474
REMARK SMILES CCCCCCCCCCCCCC(=O)[O-]
REMARK SMILES IDX 8 1 9 2 10 3 11 4 12 5 13 6 14 7 15 8 16 9 7 10 6 11 5 12
REMARK SMILES IDX 4 13 3 14 2 15 1 16
REMARK H PARENT
REMARK Flexibility Score: inf
ROOT
ATOM      1  C   UNL     1     -23.680   6.029  22.536  1.00  0.00     0.000 C 
ENDROOT
BRANCH   1   2
ATOM      2  C   UNL     1     -23.101   7.387  22.112  1.00  0.00     0.000 C 
BRANCH   2   3
ATOM      3  C   UNL     1     -21.652   7.586  22.588  1.00  0.00     0.000 C 
BRANCH   3   4
ATOM      4  C   UNL     1     -21.134   6.399  23.419  1.00  0.00     0.000 C 
BRANCH   4   5
ATOM      5  C   UNL     1     -19.808   5.838  22.882  1.00  0.00     0.006 C 
BRANCH   5   6
ATOM      6  C   UNL     1     -19.668   6.009  21.365  1.00  0.00     0.053 C 
BRANCH   6   7
ATOM      7  C   UNL     1     -20.241   4.827  20.650  1.00  0.00     0.041 C 
ATOM      8  O   UNL     1     -21.390   4.892  20.137  1.00  0.00    -0.550 OA
ATOM      9  O   UNL     1     -19.489   3.668  20.507  1.00  0.00    -0.550 OA
ENDBRANCH   6   7
ENDBRANCH   5   6
ENDBRANCH   4   5
ENDBRANCH   3   4
ENDBRANCH   2   3
ENDBRANCH   1   2
BRANCH   1  10
ATOM     10  C   UNL     1     -25.020   6.206  23.260  1.00  0.00     0.000 C 
BRANCH  10  11
ATOM     11  C   UNL     1     -25.118   5.271  24.476  1.00  0.00    -0.000 C 
BRANCH  11  12
ATOM     12  C   UNL     1     -23.986   4.232  24.517  1.00  0.00    -0.000 C 
BRANCH  12  13
ATOM     13  C   UNL     1     -24.511   2.785  24.523  1.00  0.00    -0.000 C 
BRANCH  13  14
ATOM     14  C   UNL     1     -24.002   1.977  23.311  1.00  0.00    -0.000 C 
BRANCH  14  15
ATOM     15  C   UNL     1     -22.685   2.511  22.724  1.00  0.00    -0.003 C 
ATOM     16  C   UNL     1     -22.030   1.542  21.742  1.00  0.00     0.004 C 
ENDBRANCH  14  15
ENDBRANCH  13  14
ENDBRANCH  12  13
ENDBRANCH  11  12
ENDBRANCH  10  11
ENDBRANCH   1  10
TORSDOF 12
ENDMDL
MODEL 5
REMARK VINA RESULT:    -3.683     21.418     23.638
REMARK INTER + INTRA:          -7.740
REMARK INTER:                  -6.462
REMARK INTRA:                  -1.279
REMARK UNBOUND:                -1.474
REMARK SMILES CCCCCCCCCCCCCC(=O)[O-]
REMARK SMILES IDX 8 1 9 2 10 3 11 4 12 5 13 6 14 7 15 8 16 9 7 10 6 11 5 12
REMARK SMILES IDX 4 13 3 14 2 15 1 16
REMARK H PARENT
REMARK Flexibility Score: inf
ROOT
ATOM      1  C   UNL     1      -6.841  -8.954  33.330  1.00  0.00     0.000 C 
ENDROOT
BRANCH   1   2
ATOM      2  C   UNL     1      -6.463  -9.182  34.801  1.00  0.00     0.000 C 
BRANCH   2   3
ATOM      3  C   UNL     1      -5.004  -8.801  35.102  1.00  0.00     0.000 C 
BRANCH   3   4
ATOM      4  C   UNL     1      -4.883  -7.783  36.250  1.00  0.00     0.000 C 
BRANCH   4   5
ATOM      5  C   UNL     1      -5.821  -6.579  36.070  1.00  0.00     0.006 C 
BRANCH   5   6
ATOM      6  C   UNL     1      -5.382  -5.657  34.925  1.00  0.00     0.053 C 
BRANCH   6   7
ATOM      7  C   UNL     1      -6.556  -4.907  34.380  1.00  0.00     0.041 C 
ATOM      8  O   UNL     1      -7.432  -5.506  33.702  1.00  0.00    -0.550 OA
ATOM      9  O   UNL     1      -6.709  -3.555  34.660  1.00  0.00    -0.550 OA
ENDBRANCH   6   7
ENDBRANCH   5   6
ENDBRANCH   4   5
ENDBRANCH   3   4
ENDBRANCH   2   3
ENDBRANCH   1   2
BRANCH   1  10
ATOM     10  C   UNL     1      -5.624  -8.499  32.515  1.00  0.00     0.000 C 
BRANCH  10  11
ATOM     11  C   UNL     1      -5.328  -9.482  31.372  1.00  0.00    -0.000 C 
BRANCH  11  12
ATOM     12  C   UNL     1      -5.021 -10.902  31.874  1.00  0.00    -0.000 C 
BRANCH  12  13
ATOM     13  C   UNL     1      -5.846 -11.978  31.147  1.00  0.00    -0.000 C 
BRANCH  13  14
ATOM     14  C   UNL     1      -7.092 -11.387  30.455  1.00  0.00    -0.000 C 
BRANCH  14  15
ATOM     15  C   UNL     1      -7.370 -11.990  29.068  1.00  0.00    -0.003 C 
ATOM     16  C   UNL     1      -8.861 -12.125  28.761  1.00  0.00     0.004 C 
ENDBRANCH  14  15
ENDBRANCH  13  14
ENDBRANCH  12  13
ENDBRANCH  11  12
ENDBRANCH  10  11
ENDBRANCH   1  10
TORSDOF 12
ENDMDL
MODEL 6
REMARK VINA RESULT:    -3.680      1.743      3.553
REMARK INTER + INTRA:          -7.736
REMARK INTER:                  -6.264
REMARK INTRA:                  -1.473
REMARK UNBOUND:                -1.474
REMARK SMILES CCCCCCCCCCCCCC(=O)[O-]
REMARK SMILES IDX 8 1 9 2 10 3 11 4 12 5 13 6 14 7 15 8 16 9 7 10 6 11 5 12
REMARK SMILES IDX 4 13 3 14 2 15 1 16
REMARK H PARENT
REMARK Flexibility Score: inf
ROOT
ATOM      1  C   UNL     1     -23.479   5.796  22.881  1.00  0.00     0.000 C 
ENDROOT
BRANCH   1   2
ATOM      2  C   UNL     1     -24.738   5.571  23.733  1.00  0.00     0.000 C 
BRANCH   2   3
ATOM      3  C   UNL     1     -24.708   4.233  24.489  1.00  0.00     0.000 C 
BRANCH   3   4
ATOM      4  C   UNL     1     -23.368   3.494  24.332  1.00  0.00     0.000 C 
BRANCH   4   5
ATOM      5  C   UNL     1     -23.543   2.067  23.789  1.00  0.00     0.006 C 
BRANCH   5   6
ATOM      6  C   UNL     1     -23.183   1.954  22.302  1.00  0.00     0.053 C 
BRANCH   6   7
ATOM      7  C   UNL     1     -22.264   0.797  22.073  1.00  0.00     0.041 C 
ATOM      8  O   UNL     1     -22.731  -0.336  21.781  1.00  0.00    -0.550 OA
ATOM      9  O   UNL     1     -20.888   0.978  22.136  1.00  0.00    -0.550 OA
ENDBRANCH   6   7
ENDBRANCH   5   6
ENDBRANCH   4   5
ENDBRANCH   3   4
ENDBRANCH   2   3
ENDBRANCH   1   2
BRANCH   1  10
ATOM     10  C   UNL     1     -23.534   7.152  22.169  1.00  0.00     0.000 C 
BRANCH  10  11
ATOM     11  C   UNL     1     -22.120   7.704  21.925  1.00  0.00    -0.000 C 
BRANCH  11  12
ATOM     12  C   UNL     1     -21.837   7.972  20.438  1.00  0.00    -0.000 C 
BRANCH  12  13
ATOM     13  C   UNL     1     -21.448   6.696  19.670  1.00  0.00    -0.000 C 
BRANCH  13  14
ATOM     14  C   UNL     1     -20.244   5.975  20.312  1.00  0.00    -0.000 C 
BRANCH  14  15
ATOM     15  C   UNL     1     -20.566   4.550  20.794  1.00  0.00    -0.003 C 
ATOM     16  C   UNL     1     -20.247   4.331  22.272  1.00  0.00     0.004 C 
ENDBRANCH  14  15
ENDBRANCH  13  14
ENDBRANCH  12  13
ENDBRANCH  11  12
ENDBRANCH  10  11
ENDBRANCH   1  10
TORSDOF 12
ENDMDL
MODEL 7
REMARK VINA RESULT:    -3.648      3.421      6.297
REMARK INTER + INTRA:          -7.681
REMARK INTER:                  -6.216
REMARK INTRA:                  -1.464
REMARK UNBOUND:                -1.474
REMARK SMILES CCCCCCCCCCCCCC(=O)[O-]
REMARK SMILES IDX 8 1 9 2 10 3 11 4 12 5 13 6 14 7 15 8 16 9 7 10 6 11 5 12
REMARK SMILES IDX 4 13 3 14 2 15 1 16
REMARK H PARENT
REMARK Flexibility Score: inf
ROOT
ATOM      1  C   UNL     1     -22.867   5.088  23.662  1.00  0.00     0.000 C 
ENDROOT
BRANCH   1   2
ATOM      2  C   UNL     1     -24.078   5.909  23.197  1.00  0.00     0.000 C 
BRANCH   2   3
ATOM      3  C   UNL     1     -23.685   7.063  22.260  1.00  0.00     0.000 C 
BRANCH   3   4
ATOM      4  C   UNL     1     -22.176   7.364  22.292  1.00  0.00     0.000 C 
BRANCH   4   5
ATOM      5  C   UNL     1     -21.673   7.991  20.983  1.00  0.00     0.006 C 
BRANCH   5   6
ATOM      6  C   UNL     1     -21.436   6.949  19.882  1.00  0.00     0.053 C 
BRANCH   6   7
ATOM      7  C   UNL     1     -20.474   5.905  20.350  1.00  0.00     0.041 C 
ATOM      8  O   UNL     1     -19.291   6.220  20.647  1.00  0.00    -0.550 OA
ATOM      9  O   UNL     1     -20.895   4.590  20.504  1.00  0.00    -0.550 OA
ENDBRANCH   6   7
ENDBRANCH   5   6
ENDBRANCH   4   5
ENDBRANCH   3   4
ENDBRANCH   2   3
ENDBRANCH   1   2
BRANCH   1  10
ATOM     10  C   UNL     1     -23.061   4.590  25.099  1.00  0.00     0.000 C 
BRANCH  10  11
ATOM     11  C   UNL     1     -24.552   4.396  25.419  1.00  0.00    -0.000 C 
BRANCH  11  12
ATOM     12  C   UNL     1     -25.007   2.936  25.261  1.00  0.00    -0.000 C 
BRANCH  12  13
ATOM     13  C   UNL     1     -23.864   1.931  25.489  1.00  0.00    -0.000 C 
BRANCH  13  14
ATOM     14  C   UNL     1     -23.735   0.924  24.326  1.00  0.00    -0.000 C 
BRANCH  14  15
ATOM     15  C   UNL     1     -23.999   1.544  22.944  1.00  0.00    -0.003 C 
ATOM     16  C   UNL     1     -22.727   1.731  22.119  1.00  0.00     0.004 C 
ENDBRANCH  14  15
ENDBRANCH  13  14
ENDBRANCH  12  13
ENDBRANCH  11  12
ENDBRANCH  10  11
ENDBRANCH   1  10
TORSDOF 12
ENDMDL
MODEL 8
REMARK VINA RESULT:    -3.629      2.132      2.918
REMARK INTER + INTRA:          -7.649
REMARK INTER:                  -5.779
REMARK INTRA:                  -1.870
REMARK UNBOUND:                -1.474
REMARK SMILES CCCCCCCCCCCCCC(=O)[O-]
REMARK SMILES IDX 8 1 9 2 10 3 11 4 12 5 13 6 14 7 15 8 16 9 7 10 6 11 5 12
REMARK SMILES IDX 4 13 3 14 2 15 1 16
REMARK H PARENT
REMARK Flexibility Score: inf
ROOT
ATOM      1  C   UNL     1     -20.403   6.724  21.976  1.00  0.00     0.000 C 
ENDROOT
BRANCH   1   2
ATOM      2  C   UNL     1     -20.793   6.311  20.549  1.00  0.00     0.000 C 
BRANCH   2   3
ATOM      3  C   UNL     1     -20.848   4.785  20.369  1.00  0.00     0.000 C 
BRANCH   3   4
ATOM      4  C   UNL     1     -19.850   4.046  21.278  1.00  0.00     0.000 C 
BRANCH   4   5
ATOM      5  C   UNL     1     -20.547   3.124  22.290  1.00  0.00     0.006 C 
BRANCH   5   6
ATOM      6  C   UNL     1     -21.821   2.484  21.725  1.00  0.00     0.053 C 
BRANCH   6   7
ATOM      7  C   UNL     1     -22.609   1.835  22.818  1.00  0.00     0.041 C 
ATOM      8  O   UNL     1     -22.103   1.686  23.962  1.00  0.00    -0.550 OA
ATOM      9  O   UNL     1     -23.920   1.438  22.589  1.00  0.00    -0.550 OA
ENDBRANCH   6   7
ENDBRANCH   5   6
ENDBRANCH   4   5
ENDBRANCH   3   4
ENDBRANCH   2   3
ENDBRANCH   1   2
BRANCH   1  10
ATOM     10  C   UNL     1     -21.540   7.498  22.653  1.00  0.00     0.000 C 
BRANCH  10  11
ATOM     11  C   UNL     1     -22.830   7.424  21.821  1.00  0.00    -0.000 C 
BRANCH  11  12
ATOM     12  C   UNL     1     -23.968   6.697  22.554  1.00  0.00    -0.000 C 
BRANCH  12  13
ATOM     13  C   UNL     1     -23.530   5.337  23.126  1.00  0.00    -0.000 C 
BRANCH  13  14
ATOM     14  C   UNL     1     -24.272   4.991  24.435  1.00  0.00    -0.000 C 
BRANCH  14  15
ATOM     15  C   UNL     1     -23.331   4.691  25.614  1.00  0.00    -0.003 C 
ATOM     16  C   UNL     1     -21.861   4.938  25.285  1.00  0.00     0.004 C 
ENDBRANCH  14  15
ENDBRANCH  13  14
ENDBRANCH  12  13
ENDBRANCH  11  12
ENDBRANCH  10  11
ENDBRANCH   1  10
TORSDOF 12
ENDMDL
MODEL 9
REMARK VINA RESULT:    -3.600      2.917      5.129
REMARK INTER + INTRA:          -7.599
REMARK INTER:                  -5.937
REMARK INTRA:                  -1.662
REMARK UNBOUND:                -1.474
REMARK SMILES CCCCCCCCCCCCCC(=O)[O-]
REMARK SMILES IDX 8 1 9 2 10 3 11 4 12 5 13 6 14 7 15 8 16 9 7 10 6 11 5 12
REMARK SMILES IDX 4 13 3 14 2 15 1 16
REMARK H PARENT
REMARK Flexibility Score: inf
ROOT
ATOM      1  C   UNL     1     -21.785   7.514  21.610  1.00  0.00     0.000 C 
ENDROOT
BRANCH   1   2
ATOM      2  C   UNL     1     -23.232   7.409  22.115  1.00  0.00     0.000 C 
BRANCH   2   3
ATOM      3  C   UNL     1     -23.589   5.993  22.595  1.00  0.00     0.000 C 
BRANCH   3   4
ATOM      4  C   UNL     1     -24.872   5.963  23.444  1.00  0.00     0.000 C 
BRANCH   4   5
ATOM      5  C   UNL     1     -24.927   4.750  24.386  1.00  0.00     0.006 C 
BRANCH   5   6
ATOM      6  C   UNL     1     -23.705   4.665  25.309  1.00  0.00     0.053 C 
BRANCH   6   7
ATOM      7  C   UNL     1     -23.724   3.385  26.084  1.00  0.00     0.041 C 
ATOM      8  O   UNL     1     -24.138   2.325  25.546  1.00  0.00    -0.550 OA
ATOM      9  O   UNL     1     -23.238   3.353  27.385  1.00  0.00    -0.550 OA
ENDBRANCH   6   7
ENDBRANCH   5   6
ENDBRANCH   4   5
ENDBRANCH   3   4
ENDBRANCH   2   3
ENDBRANCH   1   2
BRANCH   1  10
ATOM     10  C   UNL     1     -21.733   7.454  20.079  1.00  0.00     0.000 C 
BRANCH  10  11
ATOM     11  C   UNL     1     -21.307   6.059  19.596  1.00  0.00    -0.000 C 
BRANCH  11  12
ATOM     12  C   UNL     1     -20.299   5.386  20.541  1.00  0.00    -0.000 C 
BRANCH  12  13
ATOM     13  C   UNL     1     -20.741   3.976  20.971  1.00  0.00    -0.000 C 
BRANCH  13  14
ATOM     14  C   UNL     1     -20.634   3.773  22.497  1.00  0.00    -0.000 C 
BRANCH  14  15
ATOM     15  C   UNL     1     -21.528   2.641  23.032  1.00  0.00    -0.003 C 
ATOM     16  C   UNL     1     -22.789   2.430  22.198  1.00  0.00     0.004 C 
ENDBRANCH  14  15
ENDBRANCH  13  14
ENDBRANCH  12  13
ENDBRANCH  11  12
ENDBRANCH  10  11
ENDBRANCH   1  10
TORSDOF 12
ENDMDL
