MODEL 1
REMARK VINA RESULT:     3.761      0.000      0.000
REMARK INTER + INTRA:           4.209
REMARK INTER:                   4.091
REMARK INTRA:                   0.117
REMARK UNBOUND:                 0.117
REMARK SMILES C[C@@H]1[C@H]2C3=CC[C@@H]4[C@@]5(C)CC[C@H](O)C(C)(C)[C@@H]5CC[C@]4(C)[C@@]3(C)CC[C@]2(C(=O)[O-])CC[C@@H]1C
REMARK SMILES IDX 26 1 30 2 25 3 3 4 31 5 24 6 4 7 2 8 32 9 22 10 5 11 1 12
REMARK SMILES IDX 33 13 23 14 20 15 6 16 7 17 19 18 21 19 8 20 18 21 17 22
REMARK SMILES IDX 10 23 9 24 14 25 11 26 12 27 15 28 16 29 27 30 28 31 29 32
REMARK SMILES IDX 13 33
REMARK H PARENT 13 34
REMARK Flexibility Score: inf
ROOT
ATOM      1  C   UNL     1      15.418  -8.639  16.774  1.00  0.00     0.017 C 
ATOM      2  C   UNL     1      16.750  -9.432  16.701  1.00  0.00     0.014 C 
ATOM      3  C   UNL     1      15.746  -7.124  16.649  1.00  0.00     0.014 C 
ATOM      4  C   UNL     1      14.506  -9.059  15.576  1.00  0.00     0.030 C 
ATOM      5  C   UNL     1      16.518 -10.953  16.678  1.00  0.00     0.004 C 
ATOM      6  C   UNL     1      14.511  -6.209  16.431  1.00  0.00     0.013 C 
ATOM      7  C   UNL     1      13.271  -8.146  15.539  1.00  0.00    -0.063 C 
ATOM      8  C   UNL     1      14.271 -10.604  15.509  1.00  0.00    -0.003 C 
ATOM      9  C   UNL     1      15.622 -11.391  15.503  1.00  0.00    -0.011 C 
ATOM     10  C   UNL     1      13.525  -6.653  15.279  1.00  0.00    -0.006 C 
ATOM     11  C   UNL     1      12.132  -8.559  16.114  1.00  0.00    -0.027 C 
ATOM     12  C   UNL     1      13.398 -10.997  14.298  1.00  0.00     0.008 C 
ATOM     13  C   UNL     1      16.391 -11.327  14.164  1.00  0.00     0.008 C 
ATOM     14  C   UNL     1      14.249  -6.508  13.895  1.00  0.00     0.017 C 
ATOM     15  C   UNL     1      12.168  -5.756  15.260  1.00  0.00    -0.020 C 
ATOM     16  C   UNL     1      10.947  -7.708  16.368  1.00  0.00     0.032 C 
ATOM     17  C   UNL     1      11.194  -6.170  16.446  1.00  0.00     0.006 C 
ATOM     18  C   UNL     1      11.363  -5.959  13.917  1.00  0.00     0.008 C 
ATOM     19  C   UNL     1      12.614  -4.245  15.364  1.00  0.00     0.012 C 
ATOM     20  C   UNL     1       9.791  -5.350  16.524  1.00  0.00    -0.025 C 
ATOM     21  C   UNL     1       9.833  -5.637  13.966  1.00  0.00     0.005 C 
ATOM     22  C   UNL     1       9.449  -4.702  15.134  1.00  0.00     0.003 C 
ATOM     23  C   UNL     1       9.865  -4.194  17.588  1.00  0.00     0.010 C 
ATOM     24  C   UNL     1       8.632  -6.286  17.005  1.00  0.00     0.012 C 
ATOM     25  C   UNL     1       8.080  -3.915  15.032  1.00  0.00    -0.006 C 
ATOM     26  C   UNL     1       9.102  -2.894  17.215  1.00  0.00     0.033 C 
ATOM     27  C   UNL     1       7.822  -3.094  16.368  1.00  0.00     0.120 C 
ATOM     28  C   UNL     1       8.183  -2.875  13.876  1.00  0.00     0.014 C 
ATOM     29  C   UNL     1       6.886  -4.833  14.658  1.00  0.00     0.014 C 
ENDROOT
BRANCH   1  30
ATOM     30  C   UNL     1      14.823  -8.930  18.147  1.00  0.00     0.048 C 
ATOM     31  O   UNL     1      15.366  -8.484  19.199  1.00  0.00    -0.550 OA
ATOM     32  O   UNL     1      15.374  -8.521  19.349  1.00  0.00    -0.550 OA
ENDBRANCH   1  30
BRANCH  27  33
ATOM     33  O   UNL     1       6.816  -3.651  17.176  1.00  0.00    -0.393 OA
ATOM     34  H   UNL     1       6.116  -4.009  16.571  1.00  0.00     0.210 HD
ENDBRANCH  27  33
TORSDOF 2
ENDMDL
