MODEL 1
REMARK VINA RESULT:    -6.181      0.000      0.000
REMARK INTER + INTRA:          -7.814
REMARK INTER:                  -7.446
REMARK INTRA:                  -0.368
REMARK UNBOUND:                -0.368
REMARK SMILES O=c1c(O)c(-c2ccc(O)cc2O)oc2cc(O)cc(O)c12
REMARK SMILES IDX 5 1 3 2 2 3 1 4 22 5 20 6 19 7 17 8 16 9 15 10 14 11 6 12
REMARK SMILES IDX 8 13 7 14 9 15 11 16 12 17 10 18 13 20 4 22 21 24 18 26
REMARK H PARENT 10 19 13 21 4 23 21 25 18 27
REMARK Flexibility Score: inf
ROOT
ATOM      1  C   UNL     1      52.473  14.430  26.202  1.00  0.00     0.184 A 
ATOM      2  C   UNL     1      51.827  14.407  24.956  1.00  0.00     0.208 A 
ATOM      3  C   UNL     1      50.437  14.215  24.915  1.00  0.00     0.238 A 
ATOM      4  O   UNL     1      49.856  14.248  23.799  1.00  0.00    -0.285 OA
ATOM      5  C   UNL     1      49.715  14.034  26.118  1.00  0.00     0.111 A 
ATOM      6  C   UNL     1      48.311  13.792  26.192  1.00  0.00     0.134 A 
ATOM      7  C   UNL     1      47.681  13.757  27.443  1.00  0.00     0.093 A 
ATOM      8  C   UNL     1      48.415  13.890  28.623  1.00  0.00     0.123 A 
ATOM      9  C   UNL     1      49.795  14.068  28.564  1.00  0.00     0.094 A 
ATOM     10  C   UNL     1      50.447  14.143  27.330  1.00  0.00     0.146 A 
ATOM     11  O   UNL     1      51.763  14.324  27.318  1.00  0.00    -0.451 OA
ENDROOT
BRANCH   1  12
ATOM     12  C   UNL     1      53.936  14.610  26.316  1.00  0.00     0.063 A 
ATOM     13  C   UNL     1      55.881  16.041  26.027  1.00  0.00     0.047 A 
ATOM     14  C   UNL     1      54.502  15.835  25.928  1.00  0.00     0.020 A 
ATOM     15  C   UNL     1      56.708  15.030  26.528  1.00  0.00     0.119 A 
ATOM     16  C   UNL     1      56.150  13.816  26.939  1.00  0.00     0.093 A 
ATOM     17  C   UNL     1      54.766  13.603  26.848  1.00  0.00     0.130 A 
BRANCH  15  18
ATOM     18  O   UNL     1      58.085  15.223  26.628  1.00  0.00    -0.508 OA
ATOM     19  H   UNL     1      58.699  14.491  26.967  1.00  0.00     0.293 HD
ENDBRANCH  15  18
BRANCH  17  20
ATOM     20  O   UNL     1      54.217  12.405  27.306  1.00  0.00    -0.507 OA
ATOM     21  H   UNL     1      53.760  11.755  26.679  1.00  0.00     0.293 HD
ENDBRANCH  17  20
ENDBRANCH   1  12
BRANCH   2  22
ATOM     22  O   UNL     1      52.563  14.606  23.785  1.00  0.00    -0.502 OA
ATOM     23  H   UNL     1      53.192  13.905  23.414  1.00  0.00     0.293 HD
ENDBRANCH   2  22
BRANCH   6  24
ATOM     24  O   UNL     1      47.500  13.553  25.079  1.00  0.00    -0.507 OA
ATOM     25  H   UNL     1      47.208  12.640  24.766  1.00  0.00     0.293 HD
ENDBRANCH   6  24
BRANCH   8  26
ATOM     26  O   UNL     1      47.782  13.839  29.864  1.00  0.00    -0.508 OA
ATOM     27  H   UNL     1      47.992  14.510  30.594  1.00  0.00     0.293 HD
ENDBRANCH   8  26
TORSDOF 6
ENDMDL
MODEL 2
REMARK VINA RESULT:    -5.961      1.673      3.406
REMARK INTER + INTRA:          -7.548
REMARK INTER:                  -7.275
REMARK INTRA:                  -0.273
REMARK UNBOUND:                -0.368
REMARK SMILES O=c1c(O)c(-c2ccc(O)cc2O)oc2cc(O)cc(O)c12
REMARK SMILES IDX 5 1 3 2 2 3 1 4 22 5 20 6 19 7 17 8 16 9 15 10 14 11 6 12
REMARK SMILES IDX 8 13 7 14 9 15 11 16 12 17 10 18 13 20 4 22 21 24 18 26
REMARK H PARENT 10 19 13 21 4 23 21 25 18 27
REMARK Flexibility Score: inf
ROOT
ATOM      1  C   UNL     1      52.418  14.867  25.758  1.00  0.00     0.184 A 
ATOM      2  C   UNL     1      51.432  14.597  26.720  1.00  0.00     0.208 A 
ATOM      3  C   UNL     1      50.080  14.697  26.355  1.00  0.00     0.238 A 
ATOM      4  O   UNL     1      49.201  14.403  27.206  1.00  0.00    -0.285 OA
ATOM      5  C   UNL     1      49.733  15.081  25.037  1.00  0.00     0.111 A 
ATOM      6  C   UNL     1      48.397  15.253  24.568  1.00  0.00     0.134 A 
ATOM      7  C   UNL     1      48.169  15.509  23.210  1.00  0.00     0.093 A 
ATOM      8  C   UNL     1      49.231  15.663  22.318  1.00  0.00     0.123 A 
ATOM      9  C   UNL     1      50.542  15.555  22.776  1.00  0.00     0.094 A 
ATOM     10  C   UNL     1      50.801  15.265  24.119  1.00  0.00     0.146 A 
ATOM     11  O   UNL     1      52.065  15.160  24.513  1.00  0.00    -0.451 OA
ENDROOT
BRANCH   1  12
ATOM     12  C   UNL     1      53.859  14.797  26.082  1.00  0.00     0.063 A 
ATOM     13  C   UNL     1      55.976  15.951  26.392  1.00  0.00     0.047 A 
ATOM     14  C   UNL     1      54.613  15.981  26.086  1.00  0.00     0.020 A 
ATOM     15  C   UNL     1      56.598  14.740  26.712  1.00  0.00     0.119 A 
ATOM     16  C   UNL     1      55.850  13.559  26.734  1.00  0.00     0.093 A 
ATOM     17  C   UNL     1      54.480  13.581  26.432  1.00  0.00     0.130 A 
BRANCH  15  18
ATOM     18  O   UNL     1      57.957  14.698  27.016  1.00  0.00    -0.508 OA
ATOM     19  H   UNL     1      58.397  13.853  27.361  1.00  0.00     0.293 HD
ENDBRANCH  15  18
BRANCH  17  20
ATOM     20  O   UNL     1      53.735  12.403  26.505  1.00  0.00    -0.507 OA
ATOM     21  H   UNL     1      54.091  11.576  26.969  1.00  0.00     0.293 HD
ENDBRANCH  17  20
ENDBRANCH   1  12
BRANCH   2  22
ATOM     22  O   UNL     1      51.802  14.203  28.009  1.00  0.00    -0.502 OA
ATOM     23  H   UNL     1      51.272  14.468  28.830  1.00  0.00     0.293 HD
ENDBRANCH   2  22
BRANCH   6  24
ATOM     24  O   UNL     1      47.269  15.212  25.393  1.00  0.00    -0.507 OA
ATOM     25  H   UNL     1      46.452  15.793  25.280  1.00  0.00     0.293 HD
ENDBRANCH   6  24
BRANCH   8  26
ATOM     26  O   UNL     1      48.996  15.932  20.971  1.00  0.00    -0.508 OA
ATOM     27  H   UNL     1      48.112  16.313  20.654  1.00  0.00     0.293 HD
ENDBRANCH   8  26
TORSDOF 6
ENDMDL
MODEL 3
REMARK VINA RESULT:    -5.615      1.725      3.543
REMARK INTER + INTRA:          -7.131
REMARK INTER:                  -7.593
REMARK INTRA:                   0.462
REMARK UNBOUND:                -0.368
REMARK SMILES O=c1c(O)c(-c2ccc(O)cc2O)oc2cc(O)cc(O)c12
REMARK SMILES IDX 5 1 3 2 2 3 1 4 22 5 20 6 19 7 17 8 16 9 15 10 14 11 6 12
REMARK SMILES IDX 8 13 7 14 9 15 11 16 12 17 10 18 13 20 4 22 21 24 18 26
REMARK H PARENT 10 19 13 21 4 23 21 25 18 27
REMARK Flexibility Score: inf
ROOT
ATOM      1  C   UNL     1      52.553  14.642  26.005  1.00  0.00     0.184 A 
ATOM      2  C   UNL     1      51.594  13.971  26.780  1.00  0.00     0.208 A 
ATOM      3  C   UNL     1      50.280  13.870  26.298  1.00  0.00     0.238 A 
ATOM      4  O   UNL     1      49.438  13.220  26.971  1.00  0.00    -0.285 OA
ATOM      5  C   UNL     1      49.939  14.456  25.055  1.00  0.00     0.111 A 
ATOM      6  C   UNL     1      48.629  14.450  24.489  1.00  0.00     0.134 A 
ATOM      7  C   UNL     1      48.434  14.947  23.195  1.00  0.00     0.093 A 
ATOM      8  C   UNL     1      49.489  15.509  22.472  1.00  0.00     0.123 A 
ATOM      9  C   UNL     1      50.759  15.574  23.039  1.00  0.00     0.094 A 
ATOM     10  C   UNL     1      50.993  15.053  24.315  1.00  0.00     0.146 A 
ATOM     11  O   UNL     1      52.222  15.125  24.814  1.00  0.00    -0.451 OA
ENDROOT
BRANCH   1  12
ATOM     12  C   UNL     1      53.950  14.799  26.462  1.00  0.00     0.063 A 
ATOM     13  C   UNL     1      55.564  14.705  28.278  1.00  0.00     0.047 A 
ATOM     14  C   UNL     1      54.253  14.570  27.814  1.00  0.00     0.020 A 
ATOM     15  C   UNL     1      56.590  15.056  27.395  1.00  0.00     0.119 A 
ATOM     16  C   UNL     1      56.302  15.263  26.042  1.00  0.00     0.093 A 
ATOM     17  C   UNL     1      54.989  15.125  25.567  1.00  0.00     0.130 A 
BRANCH  15  18
ATOM     18  O   UNL     1      57.900  15.196  27.848  1.00  0.00    -0.508 OA
ATOM     19  H   UNL     1      58.530  14.404  27.903  1.00  0.00     0.293 HD
ENDBRANCH  15  18
BRANCH  17  20
ATOM     20  O   UNL     1      54.724  15.286  24.207  1.00  0.00    -0.507 OA
ATOM     21  H   UNL     1      54.688  14.496  23.574  1.00  0.00     0.293 HD
ENDBRANCH  17  20
ENDBRANCH   1  12
BRANCH   2  22
ATOM     22  O   UNL     1      51.963  13.385  27.994  1.00  0.00    -0.502 OA
ATOM     23  H   UNL     1      52.919  13.118  28.199  1.00  0.00     0.293 HD
ENDBRANCH   2  22
BRANCH   6  24
ATOM     24  O   UNL     1      47.490  13.997  25.161  1.00  0.00    -0.507 OA
ATOM     25  H   UNL     1      47.495  13.316  25.905  1.00  0.00     0.293 HD
ENDBRANCH   6  24
BRANCH   8  26
ATOM     26  O   UNL     1      49.283  16.016  21.191  1.00  0.00    -0.508 OA
ATOM     27  H   UNL     1      49.753  16.854  20.871  1.00  0.00     0.293 HD
ENDBRANCH   8  26
TORSDOF 6
ENDMDL
MODEL 4
REMARK VINA RESULT:    -5.322      2.717      3.986
REMARK INTER + INTRA:          -6.779
REMARK INTER:                  -6.436
REMARK INTRA:                  -0.343
REMARK UNBOUND:                -0.368
REMARK SMILES O=c1c(O)c(-c2ccc(O)cc2O)oc2cc(O)cc(O)c12
REMARK SMILES IDX 5 1 3 2 2 3 1 4 22 5 20 6 19 7 17 8 16 9 15 10 14 11 6 12
REMARK SMILES IDX 8 13 7 14 9 15 11 16 12 17 10 18 13 20 4 22 21 24 18 26
REMARK H PARENT 10 19 13 21 4 23 21 25 18 27
REMARK Flexibility Score: inf
ROOT
ATOM      1  C   UNL     1      51.807  13.223  26.022  1.00  0.00     0.184 A 
ATOM      2  C   UNL     1      52.534  13.671  24.908  1.00  0.00     0.208 A 
ATOM      3  C   UNL     1      51.905  14.518  23.982  1.00  0.00     0.238 A 
ATOM      4  O   UNL     1      52.578  14.959  23.014  1.00  0.00    -0.285 OA
ATOM      5  C   UNL     1      50.554  14.891  24.174  1.00  0.00     0.111 A 
ATOM      6  C   UNL     1      49.804  15.711  23.278  1.00  0.00     0.134 A 
ATOM      7  C   UNL     1      48.514  16.123  23.634  1.00  0.00     0.093 A 
ATOM      8  C   UNL     1      47.922  15.690  24.823  1.00  0.00     0.123 A 
ATOM      9  C   UNL     1      48.622  14.842  25.676  1.00  0.00     0.094 A 
ATOM     10  C   UNL     1      49.925  14.443  25.366  1.00  0.00     0.146 A 
ATOM     11  O   UNL     1      50.562  13.642  26.213  1.00  0.00    -0.451 OA
ENDROOT
BRANCH   1  12
ATOM     12  C   UNL     1      52.404  12.316  27.026  1.00  0.00     0.063 A 
ATOM     13  C   UNL     1      52.565  10.082  27.970  1.00  0.00     0.047 A 
ATOM     14  C   UNL     1      52.017  10.967  27.038  1.00  0.00     0.020 A 
ATOM     15  C   UNL     1      53.517  10.531  28.892  1.00  0.00     0.119 A 
ATOM     16  C   UNL     1      53.926  11.868  28.872  1.00  0.00     0.093 A 
ATOM     17  C   UNL     1      53.384  12.762  27.936  1.00  0.00     0.130 A 
BRANCH  15  18
ATOM     18  O   UNL     1      54.067   9.658  29.828  1.00  0.00    -0.508 OA
ATOM     19  H   UNL     1      53.878   9.755  30.818  1.00  0.00     0.293 HD
ENDBRANCH  15  18
BRANCH  17  20
ATOM     20  O   UNL     1      53.836  14.081  27.895  1.00  0.00    -0.507 OA
ATOM     21  H   UNL     1      54.102  14.526  27.025  1.00  0.00     0.293 HD
ENDBRANCH  17  20
ENDBRANCH   1  12
BRANCH   2  22
ATOM     22  O   UNL     1      53.873  13.301  24.753  1.00  0.00    -0.502 OA
ATOM     23  H   UNL     1      54.628  13.976  24.777  1.00  0.00     0.293 HD
ENDBRANCH   2  22
BRANCH   6  24
ATOM     24  O   UNL     1      50.267  16.123  22.025  1.00  0.00    -0.507 OA
ATOM     25  H   UNL     1      49.797  16.788  21.429  1.00  0.00     0.293 HD
ENDBRANCH   6  24
BRANCH   8  26
ATOM     26  O   UNL     1      46.631  16.092  25.162  1.00  0.00    -0.508 OA
ATOM     27  H   UNL     1      46.264  15.960  26.097  1.00  0.00     0.293 HD
ENDBRANCH   8  26
TORSDOF 6
ENDMDL
MODEL 5
REMARK VINA RESULT:    -5.287      2.615      5.709
REMARK INTER + INTRA:          -6.736
REMARK INTER:                  -6.735
REMARK INTRA:                  -0.001
REMARK UNBOUND:                -0.368
REMARK SMILES O=c1c(O)c(-c2ccc(O)cc2O)oc2cc(O)cc(O)c12
REMARK SMILES IDX 5 1 3 2 2 3 1 4 22 5 20 6 19 7 17 8 16 9 15 10 14 11 6 12
REMARK SMILES IDX 8 13 7 14 9 15 11 16 12 17 10 18 13 20 4 22 21 24 18 26
REMARK H PARENT 10 19 13 21 4 23 21 25 18 27
REMARK Flexibility Score: inf
ROOT
ATOM      1  C   UNL     1      52.005  14.158  25.458  1.00  0.00     0.184 A 
ATOM      2  C   UNL     1      53.070  14.897  25.996  1.00  0.00     0.208 A 
ATOM      3  C   UNL     1      53.787  14.366  27.080  1.00  0.00     0.238 A 
ATOM      4  O   UNL     1      54.774  15.008  27.524  1.00  0.00    -0.285 OA
ATOM      5  C   UNL     1      53.418  13.111  27.621  1.00  0.00     0.111 A 
ATOM      6  C   UNL     1      54.048  12.497  28.744  1.00  0.00     0.134 A 
ATOM      7  C   UNL     1      53.685  11.195  29.112  1.00  0.00     0.093 A 
ATOM      8  C   UNL     1      52.670  10.512  28.439  1.00  0.00     0.123 A 
ATOM      9  C   UNL     1      52.008  11.126  27.379  1.00  0.00     0.094 A 
ATOM     10  C   UNL     1      52.372  12.410  26.965  1.00  0.00     0.146 A 
ATOM     11  O   UNL     1      51.723  12.955  25.942  1.00  0.00    -0.451 OA
ENDROOT
BRANCH   1  12
ATOM     12  C   UNL     1      51.199  14.667  24.328  1.00  0.00     0.063 A 
ATOM     13  C   UNL     1      51.117  15.820  22.189  1.00  0.00     0.047 A 
ATOM     14  C   UNL     1      51.848  15.331  23.274  1.00  0.00     0.020 A 
ATOM     15  C   UNL     1      49.730  15.638  22.136  1.00  0.00     0.119 A 
ATOM     16  C   UNL     1      49.079  14.958  23.168  1.00  0.00     0.093 A 
ATOM     17  C   UNL     1      49.806  14.459  24.260  1.00  0.00     0.130 A 
BRANCH  15  18
ATOM     18  O   UNL     1      48.991  16.125  21.059  1.00  0.00    -0.508 OA
ATOM     19  H   UNL     1      49.400  16.751  20.376  1.00  0.00     0.293 HD
ENDBRANCH  15  18
BRANCH  17  20
ATOM     20  O   UNL     1      49.151  13.740  25.259  1.00  0.00    -0.507 OA
ATOM     21  H   UNL     1      48.570  14.198  25.951  1.00  0.00     0.293 HD
ENDBRANCH  17  20
ENDBRANCH   1  12
BRANCH   2  22
ATOM     22  O   UNL     1      53.424  16.125  25.430  1.00  0.00    -0.502 OA
ATOM     23  H   UNL     1      53.831  16.876  25.975  1.00  0.00     0.293 HD
ENDBRANCH   2  22
BRANCH   6  24
ATOM     24  O   UNL     1      55.007  13.126  29.542  1.00  0.00    -0.507 OA
ATOM     25  H   UNL     1      54.872  13.383  30.508  1.00  0.00     0.293 HD
ENDBRANCH   6  24
BRANCH   8  26
ATOM     26  O   UNL     1      52.304   9.223  28.822  1.00  0.00    -0.508 OA
ATOM     27  H   UNL     1      52.529   8.860  29.741  1.00  0.00     0.293 HD
ENDBRANCH   8  26
TORSDOF 6
ENDMDL
MODEL 6
REMARK VINA RESULT:    -5.233      2.580      6.275
REMARK INTER + INTRA:          -6.672
REMARK INTER:                  -6.471
REMARK INTRA:                  -0.201
REMARK UNBOUND:                -0.368
REMARK SMILES O=c1c(O)c(-c2ccc(O)cc2O)oc2cc(O)cc(O)c12
REMARK SMILES IDX 5 1 3 2 2 3 1 4 22 5 20 6 19 7 17 8 16 9 15 10 14 11 6 12
REMARK SMILES IDX 8 13 7 14 9 15 11 16 12 17 10 18 13 20 4 22 21 24 18 26
REMARK H PARENT 10 19 13 21 4 23 21 25 18 27
REMARK Flexibility Score: inf
ROOT
ATOM      1  C   UNL     1      52.640  14.896  25.025  1.00  0.00     0.184 A 
ATOM      2  C   UNL     1      53.713  15.409  24.280  1.00  0.00     0.208 A 
ATOM      3  C   UNL     1      54.953  15.595  24.912  1.00  0.00     0.238 A 
ATOM      4  O   UNL     1      55.925  16.005  24.226  1.00  0.00    -0.285 OA
ATOM      5  C   UNL     1      55.097  15.281  26.284  1.00  0.00     0.111 A 
ATOM      6  C   UNL     1      56.295  15.468  27.037  1.00  0.00     0.134 A 
ATOM      7  C   UNL     1      56.362  15.001  28.355  1.00  0.00     0.093 A 
ATOM      8  C   UNL     1      55.254  14.414  28.970  1.00  0.00     0.123 A 
ATOM      9  C   UNL     1      54.061  14.281  28.263  1.00  0.00     0.094 A 
ATOM     10  C   UNL     1      53.974  14.704  26.934  1.00  0.00     0.146 A 
ATOM     11  O   UNL     1      52.821  14.548  26.293  1.00  0.00    -0.451 OA
ENDROOT
BRANCH   1  12
ATOM     12  C   UNL     1      51.304  14.692  24.425  1.00  0.00     0.063 A 
ATOM     13  C   UNL     1      49.461  15.578  23.111  1.00  0.00     0.047 A 
ATOM     14  C   UNL     1      50.720  15.739  23.695  1.00  0.00     0.020 A 
ATOM     15  C   UNL     1      48.778  14.364  23.236  1.00  0.00     0.119 A 
ATOM     16  C   UNL     1      49.362  13.307  23.941  1.00  0.00     0.093 A 
ATOM     17  C   UNL     1      50.628  13.459  24.527  1.00  0.00     0.130 A 
BRANCH  15  18
ATOM     18  O   UNL     1      47.520  14.194  22.661  1.00  0.00    -0.508 OA
ATOM     19  H   UNL     1      47.408  13.755  21.754  1.00  0.00     0.293 HD
ENDBRANCH  15  18
BRANCH  17  20
ATOM     20  O   UNL     1      51.221  12.381  25.185  1.00  0.00    -0.507 OA
ATOM     21  H   UNL     1      51.387  12.394  26.184  1.00  0.00     0.293 HD
ENDBRANCH  17  20
ENDBRANCH   1  12
BRANCH   2  22
ATOM     22  O   UNL     1      53.547  15.693  22.921  1.00  0.00    -0.502 OA
ATOM     23  H   UNL     1      52.865  15.213  22.347  1.00  0.00     0.293 HD
ENDBRANCH   2  22
BRANCH   6  24
ATOM     24  O   UNL     1      57.429  16.125  26.549  1.00  0.00    -0.507 OA
ATOM     25  H   UNL     1      57.810  16.975  26.935  1.00  0.00     0.293 HD
ENDBRANCH   6  24
BRANCH   8  26
ATOM     26  O   UNL     1      55.325  13.967  30.287  1.00  0.00    -0.508 OA
ATOM     27  H   UNL     1      54.677  13.276  30.648  1.00  0.00     0.293 HD
ENDBRANCH   8  26
TORSDOF 6
ENDMDL
MODEL 7
REMARK VINA RESULT:    -5.105      2.933      5.836
REMARK INTER + INTRA:          -6.518
REMARK INTER:                  -6.328
REMARK INTRA:                  -0.190
REMARK UNBOUND:                -0.368
REMARK SMILES O=c1c(O)c(-c2ccc(O)cc2O)oc2cc(O)cc(O)c12
REMARK SMILES IDX 5 1 3 2 2 3 1 4 22 5 20 6 19 7 17 8 16 9 15 10 14 11 6 12
REMARK SMILES IDX 8 13 7 14 9 15 11 16 12 17 10 18 13 20 4 22 21 24 18 26
REMARK H PARENT 10 19 13 21 4 23 21 25 18 27
REMARK Flexibility Score: inf
ROOT
ATOM      1  C   UNL     1      51.740  13.547  25.519  1.00  0.00     0.184 A 
ATOM      2  C   UNL     1      51.545  12.184  25.792  1.00  0.00     0.208 A 
ATOM      3  C   UNL     1      52.243  11.599  26.860  1.00  0.00     0.238 A 
ATOM      4  O   UNL     1      52.025  10.390  27.134  1.00  0.00    -0.285 OA
ATOM      5  C   UNL     1      53.138  12.380  27.629  1.00  0.00     0.111 A 
ATOM      6  C   UNL     1      53.929  11.882  28.708  1.00  0.00     0.134 A 
ATOM      7  C   UNL     1      54.682  12.774  29.481  1.00  0.00     0.093 A 
ATOM      8  C   UNL     1      54.726  14.135  29.174  1.00  0.00     0.123 A 
ATOM      9  C   UNL     1      54.005  14.623  28.086  1.00  0.00     0.094 A 
ATOM     10  C   UNL     1      53.215  13.764  27.318  1.00  0.00     0.146 A 
ATOM     11  O   UNL     1      52.534  14.272  26.296  1.00  0.00    -0.451 OA
ENDROOT
BRANCH   1  12
ATOM     12  C   UNL     1      51.049  14.221  24.399  1.00  0.00     0.063 A 
ATOM     13  C   UNL     1      48.970  14.728  23.244  1.00  0.00     0.047 A 
ATOM     14  C   UNL     1      49.655  14.100  24.288  1.00  0.00     0.020 A 
ATOM     15  C   UNL     1      49.669  15.497  22.307  1.00  0.00     0.119 A 
ATOM     16  C   UNL     1      51.054  15.643  22.424  1.00  0.00     0.093 A 
ATOM     17  C   UNL     1      51.749  15.020  23.471  1.00  0.00     0.130 A 
BRANCH  15  18
ATOM     18  O   UNL     1      48.996  16.125  21.261  1.00  0.00    -0.508 OA
ATOM     19  H   UNL     1      49.261  17.049  20.940  1.00  0.00     0.293 HD
ENDBRANCH  15  18
BRANCH  17  20
ATOM     20  O   UNL     1      53.124  15.214  23.603  1.00  0.00    -0.507 OA
ATOM     21  H   UNL     1      53.793  14.626  23.120  1.00  0.00     0.293 HD
ENDBRANCH  17  20
ENDBRANCH   1  12
BRANCH   2  22
ATOM     22  O   UNL     1      50.641  11.441  25.028  1.00  0.00    -0.502 OA
ATOM     23  H   UNL     1      49.749  11.815  24.728  1.00  0.00     0.293 HD
ENDBRANCH   2  22
BRANCH   6  24
ATOM     24  O   UNL     1      54.029  10.528  29.041  1.00  0.00    -0.507 OA
ATOM     25  H   UNL     1      54.527  10.169  29.841  1.00  0.00     0.293 HD
ENDBRANCH   6  24
BRANCH   8  26
ATOM     26  O   UNL     1      55.491  15.013  29.939  1.00  0.00    -0.508 OA
ATOM     27  H   UNL     1      55.238  15.989  30.037  1.00  0.00     0.293 HD
ENDBRANCH   8  26
TORSDOF 6
ENDMDL
MODEL 8
REMARK VINA RESULT:    -4.708      1.492      2.114
REMARK INTER + INTRA:          -6.039
REMARK INTER:                  -6.565
REMARK INTRA:                   0.526
REMARK UNBOUND:                -0.368
REMARK SMILES O=c1c(O)c(-c2ccc(O)cc2O)oc2cc(O)cc(O)c12
REMARK SMILES IDX 5 1 3 2 2 3 1 4 22 5 20 6 19 7 17 8 16 9 15 10 14 11 6 12
REMARK SMILES IDX 8 13 7 14 9 15 11 16 12 17 10 18 13 20 4 22 21 24 18 26
REMARK H PARENT 10 19 13 21 4 23 21 25 18 27
REMARK Flexibility Score: inf
ROOT
ATOM      1  C   UNL     1      54.032  15.057  25.606  1.00  0.00     0.184 A 
ATOM      2  C   UNL     1      53.683  15.440  24.302  1.00  0.00     0.208 A 
ATOM      3  C   UNL     1      52.355  15.273  23.877  1.00  0.00     0.238 A 
ATOM      4  O   UNL     1      52.035  15.667  22.725  1.00  0.00    -0.285 OA
ATOM      5  C   UNL     1      51.400  14.712  24.758  1.00  0.00     0.111 A 
ATOM      6  C   UNL     1      50.036  14.460  24.420  1.00  0.00     0.134 A 
ATOM      7  C   UNL     1      49.149  14.022  25.411  1.00  0.00     0.093 A 
ATOM      8  C   UNL     1      49.591  13.764  26.711  1.00  0.00     0.123 A 
ATOM      9  C   UNL     1      50.932  13.950  27.036  1.00  0.00     0.094 A 
ATOM     10  C   UNL     1      51.834  14.421  26.078  1.00  0.00     0.146 A 
ATOM     11  O   UNL     1      53.103  14.595  26.432  1.00  0.00    -0.451 OA
ENDROOT
BRANCH   1  12
ATOM     12  C   UNL     1      55.416  15.189  26.110  1.00  0.00     0.063 A 
ATOM     13  C   UNL     1      57.644  16.125  25.840  1.00  0.00     0.047 A 
ATOM     14  C   UNL     1      56.330  15.975  25.390  1.00  0.00     0.020 A 
ATOM     15  C   UNL     1      58.056  15.504  27.024  1.00  0.00     0.119 A 
ATOM     16  C   UNL     1      57.147  14.739  27.761  1.00  0.00     0.093 A 
ATOM     17  C   UNL     1      55.824  14.587  27.318  1.00  0.00     0.130 A 
BRANCH  15  18
ATOM     18  O   UNL     1      59.365  15.644  27.481  1.00  0.00    -0.508 OA
ATOM     19  H   UNL     1      60.116  15.925  26.861  1.00  0.00     0.293 HD
ENDBRANCH  15  18
BRANCH  17  20
ATOM     20  O   UNL     1      54.915  13.861  28.087  1.00  0.00    -0.507 OA
ATOM     21  H   UNL     1      55.000  13.799  29.094  1.00  0.00     0.293 HD
ENDBRANCH  17  20
ENDBRANCH   1  12
BRANCH   2  22
ATOM     22  O   UNL     1      54.643  16.008  23.460  1.00  0.00    -0.502 OA
ATOM     23  H   UNL     1      55.321  16.684  23.790  1.00  0.00     0.293 HD
ENDBRANCH   2  22
BRANCH   6  24
ATOM     24  O   UNL     1      49.513  14.597  23.131  1.00  0.00    -0.507 OA
ATOM     25  H   UNL     1      50.066  14.727  22.298  1.00  0.00     0.293 HD
ENDBRANCH   6  24
BRANCH   8  26
ATOM     26  O   UNL     1      48.705  13.313  27.687  1.00  0.00    -0.508 OA
ATOM     27  H   UNL     1      48.886  13.456  28.673  1.00  0.00     0.293 HD
ENDBRANCH   8  26
TORSDOF 6
ENDMDL
MODEL 9
REMARK VINA RESULT:    -4.695      1.974      6.639
REMARK INTER + INTRA:          -6.023
REMARK INTER:                  -5.690
REMARK INTRA:                  -0.333
REMARK UNBOUND:                -0.368
REMARK SMILES O=c1c(O)c(-c2ccc(O)cc2O)oc2cc(O)cc(O)c12
REMARK SMILES IDX 5 1 3 2 2 3 1 4 22 5 20 6 19 7 17 8 16 9 15 10 14 11 6 12
REMARK SMILES IDX 8 13 7 14 9 15 11 16 12 17 10 18 13 20 4 22 21 24 18 26
REMARK H PARENT 10 19 13 21 4 23 21 25 18 27
REMARK Flexibility Score: inf
ROOT
ATOM      1  C   UNL     1      51.217  14.580  25.908  1.00  0.00     0.184 A 
ATOM      2  C   UNL     1      51.124  13.572  26.880  1.00  0.00     0.208 A 
ATOM      3  C   UNL     1      52.276  13.207  27.594  1.00  0.00     0.238 A 
ATOM      4  O   UNL     1      52.176  12.341  28.501  1.00  0.00    -0.285 OA
ATOM      5  C   UNL     1      53.508  13.845  27.314  1.00  0.00     0.111 A 
ATOM      6  C   UNL     1      54.747  13.527  27.947  1.00  0.00     0.134 A 
ATOM      7  C   UNL     1      55.878  14.311  27.685  1.00  0.00     0.093 A 
ATOM      8  C   UNL     1      55.830  15.359  26.764  1.00  0.00     0.123 A 
ATOM      9  C   UNL     1      54.641  15.640  26.096  1.00  0.00     0.094 A 
ATOM     10  C   UNL     1      53.486  14.899  26.363  1.00  0.00     0.146 A 
ATOM     11  O   UNL     1      52.370  15.207  25.712  1.00  0.00    -0.451 OA
ENDROOT
BRANCH   1  12
ATOM     12  C   UNL     1      50.045  15.000  25.109  1.00  0.00     0.063 A 
ATOM     13  C   UNL     1      48.882  15.004  22.974  1.00  0.00     0.047 A 
ATOM     14  C   UNL     1      49.977  14.629  23.757  1.00  0.00     0.020 A 
ATOM     15  C   UNL     1      47.835  15.742  23.537  1.00  0.00     0.119 A 
ATOM     16  C   UNL     1      47.884  16.095  24.889  1.00  0.00     0.093 A 
ATOM     17  C   UNL     1      48.977  15.718  25.683  1.00  0.00     0.130 A 
BRANCH  15  18
ATOM     18  O   UNL     1      46.740  16.125  22.765  1.00  0.00    -0.508 OA
ATOM     19  H   UNL     1      45.956  15.501  22.612  1.00  0.00     0.293 HD
ENDBRANCH  15  18
BRANCH  17  20
ATOM     20  O   UNL     1      48.990  16.035  27.042  1.00  0.00    -0.507 OA
ATOM     21  H   UNL     1      49.571  16.779  27.409  1.00  0.00     0.293 HD
ENDBRANCH  17  20
ENDBRANCH   1  12
BRANCH   2  22
ATOM     22  O   UNL     1      49.890  12.972  27.148  1.00  0.00    -0.502 OA
ATOM     23  H   UNL     1      49.309  12.578  26.418  1.00  0.00     0.293 HD
ENDBRANCH   2  22
BRANCH   6  24
ATOM     24  O   UNL     1      54.926  12.444  28.813  1.00  0.00    -0.507 OA
ATOM     25  H   UNL     1      54.842  11.475  28.546  1.00  0.00     0.293 HD
ENDBRANCH   6  24
BRANCH   8  26
ATOM     26  O   UNL     1      56.963  16.124  26.497  1.00  0.00    -0.508 OA
ATOM     27  H   UNL     1      56.962  17.131  26.611  1.00  0.00     0.293 HD
ENDBRANCH   8  26
TORSDOF 6
ENDMDL
