MODEL 1
REMARK VINA RESULT:    13.912      0.000      0.000
REMARK INTER + INTRA:          21.992
REMARK INTER:                  22.858
REMARK INTRA:                  -0.866
REMARK UNBOUND:                -0.866
REMARK SMILES C[C@H]1O[C@@H](OC[C@@H]2O[C@@H](Oc3c(-c4ccc(O)c(O)c4)oc4cc(O)cc(O)c4c3=O)[C@H](O)[C@@H](O)[C@H]2O)[C@@H](O)[C@@H](O)[C@@H]1O
REMARK SMILES IDX 7 1 36 2 34 3 32 4 9 5 8 6 6 7 5 8 4 9 1 10 2 11 42 12 3 13
REMARK SMILES IDX 40 14 38 15 43 16 41 18 39 20 37 22 35 24 10 26 11 27 12 28
REMARK SMILES IDX 30 29 21 30 29 31 31 32 22 33 27 34 23 35 26 36 24 37 13 38
REMARK SMILES IDX 20 39 14 40 18 41 15 42 16 43 19 44 17 46 28 48 25 50 33 52
REMARK H PARENT 43 17 41 19 39 21 37 23 35 25 19 45 17 47 28 49 25 51 33 53
REMARK Flexibility Score: inf
ROOT
ATOM      1  C   UNL     1      74.948  40.347  24.632  1.00  0.00     0.180 C 
ATOM      2  C   UNL     1      75.352  41.843  24.478  1.00  0.00     0.177 C 
ATOM      3  C   UNL     1      76.591  41.759  23.558  1.00  0.00     0.180 C 
ATOM      4  C   UNL     1      76.288  41.069  22.165  1.00  0.00     0.214 C 
ATOM      5  C   UNL     1      74.842  40.551  22.123  1.00  0.00     0.339 C 
ATOM      6  O   UNL     1      74.594  39.743  23.309  1.00  0.00    -0.332 OA
ENDROOT
BRANCH   1   7
ATOM      7  C   UNL     1      75.945  39.512  25.648  1.00  0.00     0.198 C 
BRANCH   7   8
ATOM      8  O   UNL     1      76.392  40.173  26.893  1.00  0.00    -0.347 OA
BRANCH   8   9
ATOM      9  C   UNL     1      75.661  39.844  28.157  1.00  0.00     0.281 C 
ATOM     10  C   UNL     1      72.953  41.705  30.122  1.00  0.00     0.041 C 
ATOM     11  C   UNL     1      74.404  41.142  29.702  1.00  0.00     0.150 C 
ATOM     12  C   UNL     1      75.823  41.879  29.893  1.00  0.00     0.174 C 
ATOM     13  O   UNL     1      74.391  40.468  28.428  1.00  0.00    -0.344 OA
ATOM     14  C   UNL     1      76.752  40.752  30.350  1.00  0.00     0.179 C 
ATOM     15  C   UNL     1      76.469  39.404  29.532  1.00  0.00     0.202 C 
BRANCH  12  16
ATOM     16  O   UNL     1      75.813  43.082  30.689  1.00  0.00    -0.388 OA
ATOM     17  H   UNL     1      75.637  42.775  31.652  1.00  0.00     0.211 HD
ENDBRANCH  12  16
BRANCH  14  18
ATOM     18  O   UNL     1      78.087  41.133  30.291  1.00  0.00    -0.387 OA
ATOM     19  H   UNL     1      78.468  40.476  29.623  1.00  0.00     0.211 HD
ENDBRANCH  14  18
BRANCH  15  20
ATOM     20  O   UNL     1      77.588  38.705  29.214  1.00  0.00    -0.385 OA
ATOM     21  H   UNL     1      77.472  37.974  29.895  1.00  0.00     0.211 HD
ENDBRANCH  15  20
ENDBRANCH   8   9
ENDBRANCH   7   8
ENDBRANCH   1   7
BRANCH   2  22
ATOM     22  O   UNL     1      74.369  42.647  23.819  1.00  0.00    -0.387 OA
ATOM     23  H   UNL     1      74.682  43.254  23.027  1.00  0.00     0.211 HD
ENDBRANCH   2  22
BRANCH   3  24
ATOM     24  O   UNL     1      77.120  43.071  23.290  1.00  0.00    -0.387 OA
ATOM     25  H   UNL     1      77.869  42.991  22.584  1.00  0.00     0.211 HD
ENDBRANCH   3  24
BRANCH   5  26
ATOM     26  O   UNL     1      73.697  41.379  21.695  1.00  0.00    -0.454 OA
BRANCH  26  27
ATOM     27  C   UNL     1      72.431  41.107  21.029  1.00  0.00     0.214 A 
ATOM     28  C   UNL     1      72.186  40.855  19.682  1.00  0.00     0.180 A 
ATOM     29  C   UNL     1      71.121  41.130  21.710  1.00  0.00     0.239 A 
ATOM     30  O   UNL     1      71.148  41.523  19.054  1.00  0.00    -0.452 OA
ATOM     31  C   UNL     1      70.224  42.112  21.199  1.00  0.00     0.111 A 
ATOM     32  O   UNL     1      70.532  39.994  21.887  1.00  0.00    -0.285 OA
ATOM     33  C   UNL     1      70.173  42.151  19.792  1.00  0.00     0.146 A 
ATOM     34  C   UNL     1      69.052  42.430  21.917  1.00  0.00     0.134 A 
ATOM     35  C   UNL     1      69.099  42.704  19.168  1.00  0.00     0.094 A 
ATOM     36  C   UNL     1      67.840  42.541  21.218  1.00  0.00     0.093 A 
ATOM     37  C   UNL     1      67.842  42.715  19.772  1.00  0.00     0.123 A 
BRANCH  28  38
ATOM     38  C   UNL     1      72.721  39.704  18.947  1.00  0.00     0.025 A 
ATOM     39  C   UNL     1      74.056  39.582  19.087  1.00  0.00     0.062 A 
ATOM     40  C   UNL     1      72.005  38.456  18.932  1.00  0.00     0.016 A 
ATOM     41  C   UNL     1      74.584  38.607  19.913  1.00  0.00     0.158 A 
ATOM     42  C   UNL     1      72.428  37.460  19.796  1.00  0.00     0.051 A 
ATOM     43  C   UNL     1      73.695  37.651  20.389  1.00  0.00     0.157 A 
BRANCH  41  44
ATOM     44  O   UNL     1      75.961  38.552  20.127  1.00  0.00    -0.504 OA
ATOM     45  H   UNL     1      76.623  37.979  19.506  1.00  0.00     0.293 HD
ENDBRANCH  41  44
BRANCH  43  46
ATOM     46  O   UNL     1      74.048  36.880  21.508  1.00  0.00    -0.504 OA
ATOM     47  H   UNL     1      74.869  37.174  22.018  1.00  0.00     0.293 HD
ENDBRANCH  43  46
ENDBRANCH  28  38
BRANCH  34  48
ATOM     48  O   UNL     1      69.091  42.858  23.274  1.00  0.00    -0.507 OA
ATOM     49  H   UNL     1      69.003  42.159  24.056  1.00  0.00     0.293 HD
ENDBRANCH  34  48
BRANCH  37  50
ATOM     50  O   UNL     1      66.696  43.100  19.146  1.00  0.00    -0.508 OA
ATOM     51  H   UNL     1      66.585  43.965  18.620  1.00  0.00     0.293 HD
ENDBRANCH  37  50
ENDBRANCH  26  27
ENDBRANCH   5  26
BRANCH   4  52
ATOM     52  O   UNL     1      77.074  39.843  22.191  1.00  0.00    -0.384 OA
ATOM     53  H   UNL     1      77.716  39.768  21.399  1.00  0.00     0.211 HD
ENDBRANCH   4  52
TORSDOF 16
ENDMDL
MODEL 2
REMARK VINA RESULT:    15.714      2.131      3.882
REMARK INTER + INTRA:          24.954
REMARK INTER:                  21.454
REMARK INTRA:                   3.499
REMARK UNBOUND:                -0.866
REMARK SMILES C[C@H]1O[C@@H](OC[C@@H]2O[C@@H](Oc3c(-c4ccc(O)c(O)c4)oc4cc(O)cc(O)c4c3=O)[C@H](O)[C@@H](O)[C@H]2O)[C@@H](O)[C@@H](O)[C@@H]1O
REMARK SMILES IDX 7 1 36 2 34 3 32 4 9 5 8 6 6 7 5 8 4 9 1 10 2 11 42 12 3 13
REMARK SMILES IDX 40 14 38 15 43 16 41 18 39 20 37 22 35 24 10 26 11 27 12 28
REMARK SMILES IDX 30 29 21 30 29 31 31 32 22 33 27 34 23 35 26 36 24 37 13 38
REMARK SMILES IDX 20 39 14 40 18 41 15 42 16 43 19 44 17 46 28 48 25 50 33 52
REMARK H PARENT 43 17 41 19 39 21 37 23 35 25 19 45 17 47 28 49 25 51 33 53
REMARK Flexibility Score: inf
ROOT
ATOM      1  C   UNL     1      75.587  39.250  25.348  1.00  0.00     0.180 C 
ATOM      2  C   UNL     1      74.356  40.030  24.796  1.00  0.00     0.177 C 
ATOM      3  C   UNL     1      74.898  41.472  24.686  1.00  0.00     0.180 C 
ATOM      4  C   UNL     1      76.163  41.594  23.742  1.00  0.00     0.214 C 
ATOM      5  C   UNL     1      76.604  40.206  23.251  1.00  0.00     0.339 C 
ATOM      6  O   UNL     1      76.741  39.319  24.397  1.00  0.00    -0.332 OA
ENDROOT
BRANCH   1   7
ATOM      7  C   UNL     1      75.858  39.527  26.952  1.00  0.00     0.198 C 
BRANCH   7   8
ATOM      8  O   UNL     1      75.154  40.655  27.598  1.00  0.00    -0.347 OA
BRANCH   8   9
ATOM      9  C   UNL     1      74.813  40.523  29.050  1.00  0.00     0.281 C 
ATOM     10  C   UNL     1      73.970  43.115  31.740  1.00  0.00     0.041 C 
ATOM     11  C   UNL     1      74.815  42.050  30.873  1.00  0.00     0.150 C 
ATOM     12  C   UNL     1      76.388  42.105  30.533  1.00  0.00     0.174 C 
ATOM     13  O   UNL     1      74.098  41.585  29.712  1.00  0.00    -0.344 OA
ATOM     14  C   UNL     1      76.840  40.652  30.693  1.00  0.00     0.179 C 
ATOM     15  C   UNL     1      75.757  39.641  30.082  1.00  0.00     0.202 C 
BRANCH  12  16
ATOM     16  O   UNL     1      77.154  43.110  31.229  1.00  0.00    -0.388 OA
ATOM     17  H   UNL     1      77.604  43.671  30.497  1.00  0.00     0.211 HD
ENDBRANCH  12  16
BRANCH  14  18
ATOM     18  O   UNL     1      78.108  40.449  30.162  1.00  0.00    -0.387 OA
ATOM     19  H   UNL     1      77.991  39.584  29.652  1.00  0.00     0.211 HD
ENDBRANCH  14  18
BRANCH  15  20
ATOM     20  O   UNL     1      76.298  38.580  29.432  1.00  0.00    -0.385 OA
ATOM     21  H   UNL     1      77.209  38.629  29.855  1.00  0.00     0.211 HD
ENDBRANCH  15  20
ENDBRANCH   8   9
ENDBRANCH   7   8
ENDBRANCH   1   7
BRANCH   2  22
ATOM     22  O   UNL     1      73.942  39.615  23.492  1.00  0.00    -0.387 OA
ATOM     23  H   UNL     1      73.208  40.181  23.007  1.00  0.00     0.211 HD
ENDBRANCH   2  22
BRANCH   3  24
ATOM     24  O   UNL     1      73.887  42.363  24.180  1.00  0.00    -0.387 OA
ATOM     25  H   UNL     1      73.904  42.337  23.149  1.00  0.00     0.211 HD
ENDBRANCH   3  24
BRANCH   5  26
ATOM     26  O   UNL     1      76.055  39.563  22.040  1.00  0.00    -0.454 OA
BRANCH  26  27
ATOM     27  C   UNL     1      74.964  39.868  21.125  1.00  0.00     0.214 A 
ATOM     28  C   UNL     1      74.176  41.013  21.052  1.00  0.00     0.180 A 
ATOM     29  C   UNL     1      74.445  38.922  20.118  1.00  0.00     0.239 A 
ATOM     30  O   UNL     1      72.802  40.876  20.949  1.00  0.00    -0.452 OA
ATOM     31  C   UNL     1      73.078  38.570  20.310  1.00  0.00     0.111 A 
ATOM     32  O   UNL     1      74.699  39.185  18.879  1.00  0.00    -0.285 OA
ATOM     33  C   UNL     1      72.245  39.672  20.586  1.00  0.00     0.146 A 
ATOM     34  C   UNL     1      72.527  37.483  19.598  1.00  0.00     0.134 A 
ATOM     35  C   UNL     1      70.906  39.580  20.377  1.00  0.00     0.094 A 
ATOM     36  C   UNL     1      71.268  37.637  18.997  1.00  0.00     0.093 A 
ATOM     37  C   UNL     1      70.385  38.717  19.413  1.00  0.00     0.123 A 
BRANCH  28  38
ATOM     38  C   UNL     1      74.693  42.352  20.746  1.00  0.00     0.025 A 
ATOM     39  C   UNL     1      75.670  42.730  21.594  1.00  0.00     0.062 A 
ATOM     40  C   UNL     1      74.895  42.758  19.381  1.00  0.00     0.016 A 
ATOM     41  C   UNL     1      76.990  42.722  21.182  1.00  0.00     0.158 A 
ATOM     42  C   UNL     1      76.182  42.697  18.875  1.00  0.00     0.051 A 
ATOM     43  C   UNL     1      77.214  42.532  19.824  1.00  0.00     0.157 A 
BRANCH  41  44
ATOM     44  O   UNL     1      78.003  43.020  22.094  1.00  0.00    -0.504 OA
ATOM     45  H   UNL     1      78.975  42.568  22.051  1.00  0.00     0.293 HD
ENDBRANCH  41  44
BRANCH  43  46
ATOM     46  O   UNL     1      78.486  42.131  19.386  1.00  0.00    -0.504 OA
ATOM     47  H   UNL     1      79.042  41.597  20.040  1.00  0.00     0.293 HD
ENDBRANCH  43  46
ENDBRANCH  28  38
BRANCH  34  48
ATOM     48  O   UNL     1      73.096  36.179  19.654  1.00  0.00    -0.507 OA
ATOM     49  H   UNL     1      72.478  35.327  19.658  1.00  0.00     0.293 HD
ENDBRANCH  34  48
BRANCH  37  50
ATOM     50  O   UNL     1      69.077  38.690  19.036  1.00  0.00    -0.508 OA
ATOM     51  H   UNL     1      68.415  37.959  19.291  1.00  0.00     0.293 HD
ENDBRANCH  37  50
ENDBRANCH  26  27
ENDBRANCH   5  26
BRANCH   4  52
ATOM     52  O   UNL     1      77.245  41.984  24.634  1.00  0.00    -0.384 OA
ATOM     53  H   UNL     1      78.094  41.431  24.491  1.00  0.00     0.211 HD
ENDBRANCH   4  52
TORSDOF 16
ENDMDL
MODEL 3
REMARK VINA RESULT:    16.849      1.804      4.731
REMARK INTER + INTRA:          26.818
REMARK INTER:                  19.765
REMARK INTRA:                   7.053
REMARK UNBOUND:                -0.866
REMARK SMILES C[C@H]1O[C@@H](OC[C@@H]2O[C@@H](Oc3c(-c4ccc(O)c(O)c4)oc4cc(O)cc(O)c4c3=O)[C@H](O)[C@@H](O)[C@H]2O)[C@@H](O)[C@@H](O)[C@@H]1O
REMARK SMILES IDX 7 1 36 2 34 3 32 4 9 5 8 6 6 7 5 8 4 9 1 10 2 11 42 12 3 13
REMARK SMILES IDX 40 14 38 15 43 16 41 18 39 20 37 22 35 24 10 26 11 27 12 28
REMARK SMILES IDX 30 29 21 30 29 31 31 32 22 33 27 34 23 35 26 36 24 37 13 38
REMARK SMILES IDX 20 39 14 40 18 41 15 42 16 43 19 44 17 46 28 48 25 50 33 52
REMARK H PARENT 43 17 41 19 39 21 37 23 35 25 19 45 17 47 28 49 25 51 33 53
REMARK Flexibility Score: inf
ROOT
ATOM      1  C   UNL     1      75.584  40.088  23.738  1.00  0.00     0.180 C 
ATOM      2  C   UNL     1      74.200  40.780  23.915  1.00  0.00     0.177 C 
ATOM      3  C   UNL     1      74.584  42.275  23.989  1.00  0.00     0.180 C 
ATOM      4  C   UNL     1      75.355  42.786  22.703  1.00  0.00     0.214 C 
ATOM      5  C   UNL     1      75.626  41.621  21.739  1.00  0.00     0.339 C 
ATOM      6  O   UNL     1      76.255  40.533  22.476  1.00  0.00    -0.332 OA
ENDROOT
BRANCH   1   7
ATOM      7  C   UNL     1      76.464  40.041  25.134  1.00  0.00     0.198 C 
BRANCH   7   8
ATOM      8  O   UNL     1      76.119  39.021  26.147  1.00  0.00    -0.347 OA
BRANCH   8   9
ATOM      9  C   UNL     1      76.849  39.063  27.453  1.00  0.00     0.281 C 
ATOM     10  C   UNL     1      77.986  36.304  29.853  1.00  0.00     0.041 C 
ATOM     11  C   UNL     1      77.107  37.504  29.229  1.00  0.00     0.150 C 
ATOM     12  C   UNL     1      75.510  37.685  29.321  1.00  0.00     0.174 C 
ATOM     13  O   UNL     1      77.550  37.891  27.914  1.00  0.00    -0.344 OA
ATOM     14  C   UNL     1      75.335  39.184  29.578  1.00  0.00     0.179 C 
ATOM     15  C   UNL     1      76.353  40.043  28.688  1.00  0.00     0.202 C 
BRANCH  12  16
ATOM     16  O   UNL     1      74.817  36.784  30.210  1.00  0.00    -0.388 OA
ATOM     17  H   UNL     1      73.819  36.918  30.016  1.00  0.00     0.211 HD
ENDBRANCH  12  16
BRANCH  14  18
ATOM     18  O   UNL     1      74.015  39.583  29.403  1.00  0.00    -0.387 OA
ATOM     19  H   UNL     1      73.674  39.617  30.353  1.00  0.00     0.211 HD
ENDBRANCH  14  18
BRANCH  15  20
ATOM     20  O   UNL     1      75.820  41.189  28.192  1.00  0.00    -0.385 OA
ATOM     21  H   UNL     1      75.302  40.768  27.441  1.00  0.00     0.211 HD
ENDBRANCH  15  20
ENDBRANCH   8   9
ENDBRANCH   7   8
ENDBRANCH   1   7
BRANCH   2  22
ATOM     22  O   UNL     1      73.317  40.608  22.804  1.00  0.00    -0.387 OA
ATOM     23  H   UNL     1      73.629  39.989  22.019  1.00  0.00     0.211 HD
ENDBRANCH   2  22
BRANCH   3  24
ATOM     24  O   UNL     1      73.414  43.097  24.152  1.00  0.00    -0.387 OA
ATOM     25  H   UNL     1      72.949  42.845  25.039  1.00  0.00     0.211 HD
ENDBRANCH   3  24
BRANCH   5  26
ATOM     26  O   UNL     1      74.668  41.187  20.703  1.00  0.00    -0.454 OA
BRANCH  26  27
ATOM     27  C   UNL     1      73.276  40.758  20.712  1.00  0.00     0.214 A 
ATOM     28  C   UNL     1      72.238  41.169  21.544  1.00  0.00     0.180 A 
ATOM     29  C   UNL     1      72.733  39.703  19.834  1.00  0.00     0.239 A 
ATOM     30  O   UNL     1      71.423  40.211  22.122  1.00  0.00    -0.452 OA
ATOM     31  C   UNL     1      72.216  38.578  20.538  1.00  0.00     0.111 A 
ATOM     32  O   UNL     1      71.939  40.079  18.887  1.00  0.00    -0.285 OA
ATOM     33  C   UNL     1      71.405  38.924  21.636  1.00  0.00     0.146 A 
ATOM     34  C   UNL     1      71.916  37.390  19.837  1.00  0.00     0.134 A 
ATOM     35  C   UNL     1      70.518  38.023  22.135  1.00  0.00     0.094 A 
ATOM     36  C   UNL     1      70.704  36.736  20.105  1.00  0.00     0.093 A 
ATOM     37  C   UNL     1      69.965  37.032  21.325  1.00  0.00     0.123 A 
BRANCH  28  38
ATOM     38  C   UNL     1      71.727  42.542  21.608  1.00  0.00     0.025 A 
ATOM     39  C   UNL     1      70.921  42.838  20.568  1.00  0.00     0.062 A 
ATOM     40  C   UNL     1      71.311  43.105  22.865  1.00  0.00     0.016 A 
ATOM     41  C   UNL     1      69.551  42.900  20.745  1.00  0.00     0.158 A 
ATOM     42  C   UNL     1      69.955  43.124  23.145  1.00  0.00     0.051 A 
ATOM     43  C   UNL     1      69.094  42.870  22.056  1.00  0.00     0.157 A 
BRANCH  41  44
ATOM     44  O   UNL     1      68.719  43.109  19.645  1.00  0.00    -0.504 OA
ATOM     45  H   UNL     1      68.916  43.857  18.900  1.00  0.00     0.293 HD
ENDBRANCH  41  44
BRANCH  43  46
ATOM     46  O   UNL     1      67.752  42.543  22.310  1.00  0.00    -0.504 OA
ATOM     47  H   UNL     1      67.295  41.951  21.630  1.00  0.00     0.293 HD
ENDBRANCH  43  46
ENDBRANCH  28  38
BRANCH  34  48
ATOM     48  O   UNL     1      72.886  36.720  19.040  1.00  0.00    -0.507 OA
ATOM     49  H   UNL     1      73.056  35.688  19.162  1.00  0.00     0.293 HD
ENDBRANCH  34  48
BRANCH  37  50
ATOM     50  O   UNL     1      68.955  36.204  21.709  1.00  0.00    -0.508 OA
ATOM     51  H   UNL     1      68.017  36.211  21.312  1.00  0.00     0.293 HD
ENDBRANCH  37  50
ENDBRANCH  26  27
ENDBRANCH   5  26
BRANCH   4  52
ATOM     52  O   UNL     1      76.685  43.124  23.190  1.00  0.00    -0.384 OA
ATOM     53  H   UNL     1      76.688  43.954  23.788  1.00  0.00     0.211 HD
ENDBRANCH   4  52
TORSDOF 16
ENDMDL
