MODEL 1
REMARK VINA RESULT:    -6.059      0.000      0.000
REMARK INTER + INTRA:          -7.401
REMARK INTER:                  -7.122
REMARK INTRA:                  -0.280
REMARK UNBOUND:                -0.280
REMARK SMILES O=c1c(O)c(-c2ccc(O)cc2)oc2cc(O)cc(O)c12
REMARK SMILES IDX 5 1 3 2 2 3 1 4 21 5 19 6 18 7 16 8 15 9 14 10 13 11 6 12
REMARK SMILES IDX 7 13 8 14 9 15 12 16 11 17 10 18 4 20 20 22 17 24
REMARK H PARENT 10 19 4 21 20 23 17 25
REMARK Flexibility Score: inf
ROOT
ATOM      1  C   UNL     1      63.443   3.213  13.289  1.00  0.00     0.180 A 
ATOM      2  C   UNL     1      64.737   3.705  13.532  1.00  0.00     0.208 A 
ATOM      3  C   UNL     1      65.309   4.602  12.615  1.00  0.00     0.238 A 
ATOM      4  O   UNL     1      66.496   4.979  12.801  1.00  0.00    -0.285 OA
ATOM      5  C   UNL     1      64.560   5.040  11.497  1.00  0.00     0.111 A 
ATOM      6  C   UNL     1      65.022   5.982  10.528  1.00  0.00     0.134 A 
ATOM      7  C   UNL     1      64.233   6.260   9.405  1.00  0.00     0.093 A 
ATOM      8  C   UNL     1      62.975   5.682   9.246  1.00  0.00     0.123 A 
ATOM      9  C   UNL     1      62.489   4.803  10.215  1.00  0.00     0.094 A 
ATOM     10  C   UNL     1      63.269   4.475  11.327  1.00  0.00     0.146 A 
ATOM     11  O   UNL     1      62.778   3.618  12.213  1.00  0.00    -0.452 OA
ENDROOT
BRANCH   1  12
ATOM     12  C   UNL     1      62.779   2.254  14.201  1.00  0.00     0.021 A 
ATOM     13  C   UNL     1      62.092   2.735  15.328  1.00  0.00     0.016 A 
ATOM     14  C   UNL     1      61.439   1.850  16.190  1.00  0.00     0.047 A 
ATOM     15  C   UNL     1      61.451   0.473  15.927  1.00  0.00     0.115 A 
ATOM     16  C   UNL     1      62.770   0.873  13.933  1.00  0.00     0.016 A 
ATOM     17  C   UNL     1      62.115  -0.010  14.796  1.00  0.00     0.047 A 
BRANCH  15  18
ATOM     18  O   UNL     1      60.803  -0.418  16.780  1.00  0.00    -0.508 OA
ATOM     19  H   UNL     1      60.821  -1.417  16.616  1.00  0.00     0.293 HD
ENDBRANCH  15  18
ENDBRANCH   1  12
BRANCH   2  20
ATOM     20  O   UNL     1      65.431   3.319  14.683  1.00  0.00    -0.502 OA
ATOM     21  H   UNL     1      66.280   2.767  14.647  1.00  0.00     0.293 HD
ENDBRANCH   2  20
BRANCH   6  22
ATOM     22  O   UNL     1      66.226   6.686  10.632  1.00  0.00    -0.507 OA
ATOM     23  H   UNL     1      66.606   7.057  11.489  1.00  0.00     0.293 HD
ENDBRANCH   6  22
BRANCH   8  24
ATOM     24  O   UNL     1      62.211   5.996   8.125  1.00  0.00    -0.508 OA
ATOM     25  H   UNL     1      61.207   6.123   8.186  1.00  0.00     0.293 HD
ENDBRANCH   8  24
TORSDOF 5
ENDMDL
MODEL 2
REMARK VINA RESULT:    -6.010      2.904      4.899
REMARK INTER + INTRA:          -7.344
REMARK INTER:                  -7.086
REMARK INTRA:                  -0.258
REMARK UNBOUND:                -0.280
REMARK SMILES O=c1c(O)c(-c2ccc(O)cc2)oc2cc(O)cc(O)c12
REMARK SMILES IDX 5 1 3 2 2 3 1 4 21 5 19 6 18 7 16 8 15 9 14 10 13 11 6 12
REMARK SMILES IDX 7 13 8 14 9 15 12 16 11 17 10 18 4 20 20 22 17 24
REMARK H PARENT 10 19 4 21 20 23 17 25
REMARK Flexibility Score: inf
ROOT
ATOM      1  C   UNL     1      65.729   3.531  13.701  1.00  0.00     0.180 A 
ATOM      2  C   UNL     1      65.548   4.711  12.959  1.00  0.00     0.208 A 
ATOM      3  C   UNL     1      66.659   5.527  12.693  1.00  0.00     0.238 A 
ATOM      4  O   UNL     1      66.477   6.618  12.093  1.00  0.00    -0.285 OA
ATOM      5  C   UNL     1      67.947   5.126  13.123  1.00  0.00     0.111 A 
ATOM      6  C   UNL     1      69.150   5.851  12.870  1.00  0.00     0.134 A 
ATOM      7  C   UNL     1      70.354   5.412  13.436  1.00  0.00     0.093 A 
ATOM      8  C   UNL     1      70.410   4.242  14.192  1.00  0.00     0.123 A 
ATOM      9  C   UNL     1      69.250   3.495  14.399  1.00  0.00     0.094 A 
ATOM     10  C   UNL     1      68.027   3.927  13.880  1.00  0.00     0.146 A 
ATOM     11  O   UNL     1      66.945   3.198  14.119  1.00  0.00    -0.452 OA
ENDROOT
BRANCH   1  12
ATOM     12  C   UNL     1      64.604   2.628  14.034  1.00  0.00     0.021 A 
ATOM     13  C   UNL     1      64.474   1.406  13.352  1.00  0.00     0.016 A 
ATOM     14  C   UNL     1      63.433   0.527  13.666  1.00  0.00     0.047 A 
ATOM     15  C   UNL     1      62.519   0.852  14.676  1.00  0.00     0.115 A 
ATOM     16  C   UNL     1      63.693   2.938  15.061  1.00  0.00     0.016 A 
ATOM     17  C   UNL     1      62.654   2.056  15.372  1.00  0.00     0.047 A 
BRANCH  15  18
ATOM     18  O   UNL     1      61.477  -0.016  14.996  1.00  0.00    -0.508 OA
ATOM     19  H   UNL     1      61.327  -0.875  14.483  1.00  0.00     0.293 HD
ENDBRANCH  15  18
ENDBRANCH   1  12
BRANCH   2  20
ATOM     20  O   UNL     1      64.280   5.051  12.477  1.00  0.00    -0.502 OA
ATOM     21  H   UNL     1      63.889   5.979  12.583  1.00  0.00     0.293 HD
ENDBRANCH   2  20
BRANCH   6  22
ATOM     22  O   UNL     1      69.225   6.986  12.056  1.00  0.00    -0.507 OA
ATOM     23  H   UNL     1      69.318   7.932  12.391  1.00  0.00     0.293 HD
ENDBRANCH   6  22
BRANCH   8  24
ATOM     24  O   UNL     1      71.628   3.826  14.725  1.00  0.00    -0.508 OA
ATOM     25  H   UNL     1      72.120   4.378  15.418  1.00  0.00     0.293 HD
ENDBRANCH   8  24
TORSDOF 5
ENDMDL
MODEL 3
REMARK VINA RESULT:    -5.985      2.888      5.202
REMARK INTER + INTRA:          -7.315
REMARK INTER:                  -7.025
REMARK INTRA:                  -0.289
REMARK UNBOUND:                -0.280
REMARK SMILES O=c1c(O)c(-c2ccc(O)cc2)oc2cc(O)cc(O)c12
REMARK SMILES IDX 5 1 3 2 2 3 1 4 21 5 19 6 18 7 16 8 15 9 14 10 13 11 6 12
REMARK SMILES IDX 7 13 8 14 9 15 12 16 11 17 10 18 4 20 20 22 17 24
REMARK H PARENT 10 19 4 21 20 23 17 25
REMARK Flexibility Score: inf
ROOT
ATOM      1  C   UNL     1      65.551   4.689  12.305  1.00  0.00     0.180 A 
ATOM      2  C   UNL     1      64.416   4.322  13.050  1.00  0.00     0.208 A 
ATOM      3  C   UNL     1      63.142   4.591  12.527  1.00  0.00     0.238 A 
ATOM      4  O   UNL     1      62.132   4.328  13.232  1.00  0.00    -0.285 OA
ATOM      5  C   UNL     1      63.015   5.171  11.242  1.00  0.00     0.111 A 
ATOM      6  C   UNL     1      61.773   5.445  10.593  1.00  0.00     0.134 A 
ATOM      7  C   UNL     1      61.769   6.119   9.365  1.00  0.00     0.093 A 
ATOM      8  C   UNL     1      62.959   6.471   8.732  1.00  0.00     0.123 A 
ATOM      9  C   UNL     1      64.180   6.158   9.330  1.00  0.00     0.094 A 
ATOM     10  C   UNL     1      64.217   5.521  10.574  1.00  0.00     0.146 A 
ATOM     11  O   UNL     1      65.400   5.262  11.117  1.00  0.00    -0.452 OA
ENDROOT
BRANCH   1  12
ATOM     12  C   UNL     1      66.927   4.452  12.796  1.00  0.00     0.021 A 
ATOM     13  C   UNL     1      67.559   3.228  12.519  1.00  0.00     0.016 A 
ATOM     14  C   UNL     1      68.867   2.992  12.953  1.00  0.00     0.047 A 
ATOM     15  C   UNL     1      69.565   3.983  13.656  1.00  0.00     0.115 A 
ATOM     16  C   UNL     1      67.642   5.449  13.486  1.00  0.00     0.016 A 
ATOM     17  C   UNL     1      68.950   5.210  13.917  1.00  0.00     0.047 A 
BRANCH  15  18
ATOM     18  O   UNL     1      70.868   3.757  14.094  1.00  0.00    -0.508 OA
ATOM     19  H   UNL     1      71.423   2.991  13.733  1.00  0.00     0.293 HD
ENDBRANCH  15  18
ENDBRANCH   1  12
BRANCH   2  20
ATOM     20  O   UNL     1      64.562   3.680  14.284  1.00  0.00    -0.502 OA
ATOM     21  H   UNL     1      65.365   3.104  14.505  1.00  0.00     0.293 HD
ENDBRANCH   2  20
BRANCH   6  22
ATOM     22  O   UNL     1      60.525   5.059  11.093  1.00  0.00    -0.507 OA
ATOM     23  H   UNL     1      60.113   5.403  11.947  1.00  0.00     0.293 HD
ENDBRANCH   6  22
BRANCH   8  24
ATOM     24  O   UNL     1      62.918   7.125   7.503  1.00  0.00    -0.508 OA
ATOM     25  H   UNL     1      62.257   6.857   6.782  1.00  0.00     0.293 HD
ENDBRANCH   8  24
TORSDOF 5
ENDMDL
MODEL 4
REMARK VINA RESULT:    -5.695      2.865      6.521
REMARK INTER + INTRA:          -6.973
REMARK INTER:                  -7.022
REMARK INTRA:                   0.049
REMARK UNBOUND:                -0.280
REMARK SMILES O=c1c(O)c(-c2ccc(O)cc2)oc2cc(O)cc(O)c12
REMARK SMILES IDX 5 1 3 2 2 3 1 4 21 5 19 6 18 7 16 8 15 9 14 10 13 11 6 12
REMARK SMILES IDX 7 13 8 14 9 15 12 16 11 17 10 18 4 20 20 22 17 24
REMARK H PARENT 10 19 4 21 20 23 17 25
REMARK Flexibility Score: inf
ROOT
ATOM      1  C   UNL     1      65.386   4.622  12.827  1.00  0.00     0.180 A 
ATOM      2  C   UNL     1      64.821   4.333  14.081  1.00  0.00     0.208 A 
ATOM      3  C   UNL     1      65.668   3.987  15.146  1.00  0.00     0.238 A 
ATOM      4  O   UNL     1      65.150   3.657  16.245  1.00  0.00    -0.285 OA
ATOM      5  C   UNL     1      67.071   3.990  14.961  1.00  0.00     0.111 A 
ATOM      6  C   UNL     1      68.026   3.700  15.983  1.00  0.00     0.134 A 
ATOM      7  C   UNL     1      69.386   3.629  15.657  1.00  0.00     0.093 A 
ATOM      8  C   UNL     1      69.833   3.898  14.365  1.00  0.00     0.123 A 
ATOM      9  C   UNL     1      68.914   4.237  13.371  1.00  0.00     0.094 A 
ATOM     10  C   UNL     1      67.546   4.278  13.655  1.00  0.00     0.146 A 
ATOM     11  O   UNL     1      66.705   4.583  12.676  1.00  0.00    -0.452 OA
ENDROOT
BRANCH   1  12
ATOM     12  C   UNL     1      64.559   4.979  11.653  1.00  0.00     0.021 A 
ATOM     13  C   UNL     1      64.947   6.055  10.835  1.00  0.00     0.016 A 
ATOM     14  C   UNL     1      64.194   6.396   9.708  1.00  0.00     0.047 A 
ATOM     15  C   UNL     1      63.052   5.656   9.375  1.00  0.00     0.115 A 
ATOM     16  C   UNL     1      63.422   4.229  11.299  1.00  0.00     0.016 A 
ATOM     17  C   UNL     1      62.672   4.572  10.171  1.00  0.00     0.047 A 
BRANCH  15  18
ATOM     18  O   UNL     1      62.293   5.988   8.254  1.00  0.00    -0.508 OA
ATOM     19  H   UNL     1      61.672   5.318   7.818  1.00  0.00     0.293 HD
ENDBRANCH  15  18
ENDBRANCH   1  12
BRANCH   2  20
ATOM     20  O   UNL     1      63.437   4.410  14.263  1.00  0.00    -0.502 OA
ATOM     21  H   UNL     1      62.868   5.120  13.816  1.00  0.00     0.293 HD
ENDBRANCH   2  20
BRANCH   6  22
ATOM     22  O   UNL     1      67.698   3.501  17.328  1.00  0.00    -0.507 OA
ATOM     23  H   UNL     1      67.094   4.099  17.870  1.00  0.00     0.293 HD
ENDBRANCH   6  22
BRANCH   8  24
ATOM     24  O   UNL     1      71.195   3.836  14.081  1.00  0.00    -0.508 OA
ATOM     25  H   UNL     1      71.719   4.661  13.813  1.00  0.00     0.293 HD
ENDBRANCH   8  24
TORSDOF 5
ENDMDL
MODEL 5
REMARK VINA RESULT:    -5.684      2.897      6.570
REMARK INTER + INTRA:          -6.960
REMARK INTER:                  -7.075
REMARK INTRA:                   0.115
REMARK UNBOUND:                -0.280
REMARK SMILES O=c1c(O)c(-c2ccc(O)cc2)oc2cc(O)cc(O)c12
REMARK SMILES IDX 5 1 3 2 2 3 1 4 21 5 19 6 18 7 16 8 15 9 14 10 13 11 6 12
REMARK SMILES IDX 7 13 8 14 9 15 12 16 11 17 10 18 4 20 20 22 17 24
REMARK H PARENT 10 19 4 21 20 23 17 25
REMARK Flexibility Score: inf
ROOT
ATOM      1  C   UNL     1      65.526   4.596  12.767  1.00  0.00     0.180 A 
ATOM      2  C   UNL     1      64.956   4.278  14.012  1.00  0.00     0.208 A 
ATOM      3  C   UNL     1      65.801   3.945  15.083  1.00  0.00     0.238 A 
ATOM      4  O   UNL     1      65.281   3.588  16.173  1.00  0.00    -0.285 OA
ATOM      5  C   UNL     1      67.205   3.989  14.913  1.00  0.00     0.111 A 
ATOM      6  C   UNL     1      68.157   3.715  15.942  1.00  0.00     0.134 A 
ATOM      7  C   UNL     1      69.522   3.686  15.630  1.00  0.00     0.093 A 
ATOM      8  C   UNL     1      69.975   3.981  14.345  1.00  0.00     0.123 A 
ATOM      9  C   UNL     1      69.057   4.305  13.345  1.00  0.00     0.094 A 
ATOM     10  C   UNL     1      67.686   4.305  13.615  1.00  0.00     0.146 A 
ATOM     11  O   UNL     1      66.847   4.597  12.630  1.00  0.00    -0.452 OA
ENDROOT
BRANCH   1  12
ATOM     12  C   UNL     1      64.702   4.943  11.588  1.00  0.00     0.021 A 
ATOM     13  C   UNL     1      63.583   4.154  11.270  1.00  0.00     0.016 A 
ATOM     14  C   UNL     1      62.777   4.476  10.174  1.00  0.00     0.047 A 
ATOM     15  C   UNL     1      63.069   5.601   9.392  1.00  0.00     0.115 A 
ATOM     16  C   UNL     1      64.976   6.083  10.809  1.00  0.00     0.016 A 
ATOM     17  C   UNL     1      64.167   6.403   9.715  1.00  0.00     0.047 A 
BRANCH  15  18
ATOM     18  O   UNL     1      62.273   5.930   8.297  1.00  0.00    -0.508 OA
ATOM     19  H   UNL     1      61.264   5.858   8.336  1.00  0.00     0.293 HD
ENDBRANCH  15  18
ENDBRANCH   1  12
BRANCH   2  20
ATOM     20  O   UNL     1      63.568   4.315  14.180  1.00  0.00    -0.502 OA
ATOM     21  H   UNL     1      63.100   5.069  14.668  1.00  0.00     0.293 HD
ENDBRANCH   2  20
BRANCH   6  22
ATOM     22  O   UNL     1      67.821   3.492  17.281  1.00  0.00    -0.507 OA
ATOM     23  H   UNL     1      67.710   2.585  17.706  1.00  0.00     0.293 HD
ENDBRANCH   6  22
BRANCH   8  24
ATOM     24  O   UNL     1      71.341   3.960  14.075  1.00  0.00    -0.508 OA
ATOM     25  H   UNL     1      72.026   3.851  14.815  1.00  0.00     0.293 HD
ENDBRANCH   8  24
TORSDOF 5
ENDMDL
MODEL 6
REMARK VINA RESULT:    -5.544      2.378      3.972
REMARK INTER + INTRA:          -6.797
REMARK INTER:                  -6.508
REMARK INTRA:                  -0.289
REMARK UNBOUND:                -0.280
REMARK SMILES O=c1c(O)c(-c2ccc(O)cc2)oc2cc(O)cc(O)c12
REMARK SMILES IDX 5 1 3 2 2 3 1 4 21 5 19 6 18 7 16 8 15 9 14 10 13 11 6 12
REMARK SMILES IDX 7 13 8 14 9 15 12 16 11 17 10 18 4 20 20 22 17 24
REMARK H PARENT 10 19 4 21 20 23 17 25
REMARK Flexibility Score: inf
ROOT
ATOM      1  C   UNL     1      64.335   3.113  14.437  1.00  0.00     0.180 A 
ATOM      2  C   UNL     1      63.979   4.317  13.804  1.00  0.00     0.208 A 
ATOM      3  C   UNL     1      64.993   5.150  13.305  1.00  0.00     0.238 A 
ATOM      4  O   UNL     1      64.670   6.261  12.807  1.00  0.00    -0.285 OA
ATOM      5  C   UNL     1      66.346   4.745  13.394  1.00  0.00     0.111 A 
ATOM      6  C   UNL     1      67.452   5.488  12.882  1.00  0.00     0.134 A 
ATOM      7  C   UNL     1      68.757   5.039  13.122  1.00  0.00     0.093 A 
ATOM      8  C   UNL     1      68.995   3.844  13.798  1.00  0.00     0.123 A 
ATOM      9  C   UNL     1      67.920   3.080  14.254  1.00  0.00     0.094 A 
ATOM     10  C   UNL     1      66.608   3.521  14.065  1.00  0.00     0.146 A 
ATOM     11  O   UNL     1      65.616   2.776  14.534  1.00  0.00    -0.452 OA
ENDROOT
BRANCH   1  12
ATOM     12  C   UNL     1      63.325   2.190  15.001  1.00  0.00     0.021 A 
ATOM     13  C   UNL     1      62.915   2.345  16.336  1.00  0.00     0.016 A 
ATOM     14  C   UNL     1      61.946   1.500  16.883  1.00  0.00     0.047 A 
ATOM     15  C   UNL     1      61.362   0.498  16.097  1.00  0.00     0.115 A 
ATOM     16  C   UNL     1      62.718   1.194  14.212  1.00  0.00     0.016 A 
ATOM     17  C   UNL     1      61.749   0.351  14.762  1.00  0.00     0.047 A 
BRANCH  15  18
ATOM     18  O   UNL     1      60.395  -0.351  16.632  1.00  0.00    -0.508 OA
ATOM     19  H   UNL     1      60.461  -0.698  17.581  1.00  0.00     0.293 HD
ENDBRANCH  15  18
ENDBRANCH   1  12
BRANCH   2  20
ATOM     20  O   UNL     1      62.632   4.663  13.658  1.00  0.00    -0.502 OA
ATOM     21  H   UNL     1      62.056   4.947  14.441  1.00  0.00     0.293 HD
ENDBRANCH   2  20
BRANCH   6  22
ATOM     22  O   UNL     1      67.327   6.651  12.115  1.00  0.00    -0.507 OA
ATOM     23  H   UNL     1      67.651   6.755  11.166  1.00  0.00     0.293 HD
ENDBRANCH   6  22
BRANCH   8  24
ATOM     24  O   UNL     1      70.306   3.419  14.003  1.00  0.00    -0.508 OA
ATOM     25  H   UNL     1      70.525   2.669  14.650  1.00  0.00     0.293 HD
ENDBRANCH   8  24
TORSDOF 5
ENDMDL
MODEL 7
REMARK VINA RESULT:    -5.345      3.382      6.549
REMARK INTER + INTRA:          -6.562
REMARK INTER:                  -6.404
REMARK INTRA:                  -0.159
REMARK UNBOUND:                -0.280
REMARK SMILES O=c1c(O)c(-c2ccc(O)cc2)oc2cc(O)cc(O)c12
REMARK SMILES IDX 5 1 3 2 2 3 1 4 21 5 19 6 18 7 16 8 15 9 14 10 13 11 6 12
REMARK SMILES IDX 7 13 8 14 9 15 12 16 11 17 10 18 4 20 20 22 17 24
REMARK H PARENT 10 19 4 21 20 23 17 25
REMARK Flexibility Score: inf
ROOT
ATOM      1  C   UNL     1      65.567   4.159  12.437  1.00  0.00     0.180 A 
ATOM      2  C   UNL     1      66.005   2.824  12.461  1.00  0.00     0.208 A 
ATOM      3  C   UNL     1      66.880   2.412  13.478  1.00  0.00     0.238 A 
ATOM      4  O   UNL     1      67.327   1.235  13.450  1.00  0.00    -0.285 OA
ATOM      5  C   UNL     1      67.263   3.323  14.491  1.00  0.00     0.111 A 
ATOM      6  C   UNL     1      68.109   3.002  15.596  1.00  0.00     0.134 A 
ATOM      7  C   UNL     1      68.506   4.014  16.479  1.00  0.00     0.093 A 
ATOM      8  C   UNL     1      68.039   5.319  16.337  1.00  0.00     0.123 A 
ATOM      9  C   UNL     1      67.167   5.633  15.294  1.00  0.00     0.094 A 
ATOM     10  C   UNL     1      66.783   4.654  14.373  1.00  0.00     0.146 A 
ATOM     11  O   UNL     1      65.971   5.000  13.383  1.00  0.00    -0.452 OA
ENDROOT
BRANCH   1  12
ATOM     12  C   UNL     1      64.657   4.672  11.389  1.00  0.00     0.021 A 
ATOM     13  C   UNL     1      65.145   5.579  10.433  1.00  0.00     0.016 A 
ATOM     14  C   UNL     1      64.309   6.059   9.420  1.00  0.00     0.047 A 
ATOM     15  C   UNL     1      62.979   5.626   9.342  1.00  0.00     0.115 A 
ATOM     16  C   UNL     1      63.326   4.227  11.291  1.00  0.00     0.016 A 
ATOM     17  C   UNL     1      62.493   4.708  10.277  1.00  0.00     0.047 A 
BRANCH  15  18
ATOM     18  O   UNL     1      62.137   6.099   8.337  1.00  0.00    -0.508 OA
ATOM     19  H   UNL     1      62.489   6.332   7.417  1.00  0.00     0.293 HD
ENDBRANCH  15  18
ENDBRANCH   1  12
BRANCH   2  20
ATOM     20  O   UNL     1      65.555   1.919  11.495  1.00  0.00    -0.502 OA
ATOM     21  H   UNL     1      64.878   1.194  11.702  1.00  0.00     0.293 HD
ENDBRANCH   2  20
BRANCH   6  22
ATOM     22  O   UNL     1      68.564   1.711  15.885  1.00  0.00    -0.507 OA
ATOM     23  H   UNL     1      67.971   0.917  16.067  1.00  0.00     0.293 HD
ENDBRANCH   6  22
BRANCH   8  24
ATOM     24  O   UNL     1      68.441   6.297  17.244  1.00  0.00    -0.508 OA
ATOM     25  H   UNL     1      67.769   6.799  17.814  1.00  0.00     0.293 HD
ENDBRANCH   8  24
TORSDOF 5
ENDMDL
MODEL 8
REMARK VINA RESULT:    -5.311      3.540      6.451
REMARK INTER + INTRA:          -6.522
REMARK INTER:                  -6.326
REMARK INTRA:                  -0.196
REMARK UNBOUND:                -0.280
REMARK SMILES O=c1c(O)c(-c2ccc(O)cc2)oc2cc(O)cc(O)c12
REMARK SMILES IDX 5 1 3 2 2 3 1 4 21 5 19 6 18 7 16 8 15 9 14 10 13 11 6 12
REMARK SMILES IDX 7 13 8 14 9 15 12 16 11 17 10 18 4 20 20 22 17 24
REMARK H PARENT 10 19 4 21 20 23 17 25
REMARK Flexibility Score: inf
ROOT
ATOM      1  C   UNL     1      65.269   4.909  12.349  1.00  0.00     0.180 A 
ATOM      2  C   UNL     1      65.546   5.822  13.382  1.00  0.00     0.208 A 
ATOM      3  C   UNL     1      66.349   5.411  14.457  1.00  0.00     0.238 A 
ATOM      4  O   UNL     1      66.530   6.209  15.414  1.00  0.00    -0.285 OA
ATOM      5  C   UNL     1      66.913   4.113  14.461  1.00  0.00     0.111 A 
ATOM      6  C   UNL     1      67.780   3.606  15.476  1.00  0.00     0.134 A 
ATOM      7  C   UNL     1      68.193   2.269  15.428  1.00  0.00     0.093 A 
ATOM      8  C   UNL     1      67.824   1.438  14.371  1.00  0.00     0.123 A 
ATOM      9  C   UNL     1      67.024   1.939  13.344  1.00  0.00     0.094 A 
ATOM     10  C   UNL     1      66.564   3.258  13.383  1.00  0.00     0.146 A 
ATOM     11  O   UNL     1      65.786   3.686  12.397  1.00  0.00    -0.452 OA
ENDROOT
BRANCH   1  12
ATOM     12  C   UNL     1      64.419   5.262  11.191  1.00  0.00     0.021 A 
ATOM     13  C   UNL     1      64.920   6.128  10.204  1.00  0.00     0.016 A 
ATOM     14  C   UNL     1      64.144   6.457   9.089  1.00  0.00     0.047 A 
ATOM     15  C   UNL     1      62.861   5.913   8.940  1.00  0.00     0.115 A 
ATOM     16  C   UNL     1      63.138   4.704  11.023  1.00  0.00     0.016 A 
ATOM     17  C   UNL     1      62.364   5.035   9.907  1.00  0.00     0.047 A 
BRANCH  15  18
ATOM     18  O   UNL     1      62.078   6.236   7.833  1.00  0.00    -0.508 OA
ATOM     19  H   UNL     1      61.314   5.643   7.534  1.00  0.00     0.293 HD
ENDBRANCH  15  18
ENDBRANCH   1  12
BRANCH   2  20
ATOM     20  O   UNL     1      65.042   7.125  13.322  1.00  0.00    -0.502 OA
ATOM     21  H   UNL     1      64.214   7.364  12.790  1.00  0.00     0.293 HD
ENDBRANCH   2  20
BRANCH   6  22
ATOM     22  O   UNL     1      68.282   4.373  16.533  1.00  0.00    -0.507 OA
ATOM     23  H   UNL     1      68.376   5.377  16.524  1.00  0.00     0.293 HD
ENDBRANCH   6  22
BRANCH   8  24
ATOM     24  O   UNL     1      68.268   0.118  14.346  1.00  0.00    -0.508 OA
ATOM     25  H   UNL     1      68.961  -0.221  15.004  1.00  0.00     0.293 HD
ENDBRANCH   8  24
TORSDOF 5
ENDMDL
MODEL 9
REMARK VINA RESULT:    -5.296      2.999      5.284
REMARK INTER + INTRA:          -6.504
REMARK INTER:                  -6.219
REMARK INTRA:                  -0.285
REMARK UNBOUND:                -0.280
REMARK SMILES O=c1c(O)c(-c2ccc(O)cc2)oc2cc(O)cc(O)c12
REMARK SMILES IDX 5 1 3 2 2 3 1 4 21 5 19 6 18 7 16 8 15 9 14 10 13 11 6 12
REMARK SMILES IDX 7 13 8 14 9 15 12 16 11 17 10 18 4 20 20 22 17 24
REMARK H PARENT 10 19 4 21 20 23 17 25
REMARK Flexibility Score: inf
ROOT
ATOM      1  C   UNL     1      64.671   4.358  12.614  1.00  0.00     0.180 A 
ATOM      2  C   UNL     1      65.039   3.117  13.162  1.00  0.00     0.208 A 
ATOM      3  C   UNL     1      66.380   2.899  13.516  1.00  0.00     0.238 A 
ATOM      4  O   UNL     1      66.715   1.760  13.936  1.00  0.00    -0.285 OA
ATOM      5  C   UNL     1      67.326   3.941  13.369  1.00  0.00     0.111 A 
ATOM      6  C   UNL     1      68.703   3.847  13.738  1.00  0.00     0.134 A 
ATOM      7  C   UNL     1      69.570   4.908  13.449  1.00  0.00     0.093 A 
ATOM      8  C   UNL     1      69.101   6.083  12.864  1.00  0.00     0.123 A 
ATOM      9  C   UNL     1      67.747   6.208  12.551  1.00  0.00     0.094 A 
ATOM     10  C   UNL     1      66.864   5.152  12.791  1.00  0.00     0.146 A 
ATOM     11  O   UNL     1      65.589   5.305  12.458  1.00  0.00    -0.452 OA
ENDROOT
BRANCH   1  12
ATOM     12  C   UNL     1      63.282   4.658  12.203  1.00  0.00     0.021 A 
ATOM     13  C   UNL     1      62.844   4.285  10.921  1.00  0.00     0.016 A 
ATOM     14  C   UNL     1      61.529   4.537  10.520  1.00  0.00     0.047 A 
ATOM     15  C   UNL     1      60.630   5.153  11.402  1.00  0.00     0.115 A 
ATOM     16  C   UNL     1      62.367   5.257  13.089  1.00  0.00     0.016 A 
ATOM     17  C   UNL     1      61.053   5.508  12.686  1.00  0.00     0.047 A 
BRANCH  15  18
ATOM     18  O   UNL     1      59.317   5.410  11.012  1.00  0.00    -0.508 OA
ATOM     19  H   UNL     1      59.001   6.349  10.803  1.00  0.00     0.293 HD
ENDBRANCH  15  18
ENDBRANCH   1  12
BRANCH   2  20
ATOM     20  O   UNL     1      64.074   2.127  13.370  1.00  0.00    -0.502 OA
ATOM     21  H   UNL     1      64.151   1.200  12.968  1.00  0.00     0.293 HD
ENDBRANCH   2  20
BRANCH   6  22
ATOM     22  O   UNL     1      69.262   2.753  14.407  1.00  0.00    -0.507 OA
ATOM     23  H   UNL     1      68.850   1.834  14.456  1.00  0.00     0.293 HD
ENDBRANCH   6  22
BRANCH   8  24
ATOM     24  O   UNL     1      69.989   7.125  12.607  1.00  0.00    -0.508 OA
ATOM     25  H   UNL     1      70.284   7.763  13.337  1.00  0.00     0.293 HD
ENDBRANCH   8  24
TORSDOF 5
ENDMDL
