MODEL 1
REMARK VINA RESULT:    -5.004      0.000      0.000
REMARK INTER + INTRA:          -6.188
REMARK INTER:                  -5.882
REMARK INTRA:                  -0.307
REMARK UNBOUND:                -0.307
REMARK SMILES O=c1cc(-c2ccc(O)c(O)c2)oc2cc(O)cc(O)c12
REMARK SMILES IDX 4 1 3 2 2 3 1 4 21 5 19 6 18 7 16 8 15 9 14 10 13 11 5 12
REMARK SMILES IDX 6 13 7 14 8 15 12 16 10 17 9 18 11 20 20 22 17 24
REMARK H PARENT 9 19 11 21 20 23 17 25
REMARK Flexibility Score: inf
ROOT
ATOM      1  C   UNL     1     -54.082  37.177  27.597  1.00  0.00     0.138 A 
ATOM      2  C   UNL     1     -54.626  36.691  26.400  1.00  0.00     0.100 A 
ATOM      3  C   UNL     1     -54.578  35.324  26.123  1.00  0.00     0.197 A 
ATOM      4  O   UNL     1     -55.124  34.914  25.067  1.00  0.00    -0.289 OA
ATOM      5  C   UNL     1     -53.947  34.444  27.035  1.00  0.00     0.107 A 
ATOM      6  C   UNL     1     -53.807  33.037  26.842  1.00  0.00     0.134 A 
ATOM      7  C   UNL     1     -53.252  32.252  27.862  1.00  0.00     0.093 A 
ATOM      8  C   UNL     1     -52.778  32.833  29.042  1.00  0.00     0.123 A 
ATOM      9  C   UNL     1     -52.864  34.211  29.217  1.00  0.00     0.094 A 
ATOM     10  C   UNL     1     -53.446  35.016  28.234  1.00  0.00     0.146 A 
ATOM     11  O   UNL     1     -53.524  36.325  28.451  1.00  0.00    -0.456 OA
ENDROOT
BRANCH   1  12
ATOM     12  C   UNL     1     -54.104  38.621  27.941  1.00  0.00     0.021 A 
ATOM     13  C   UNL     1     -55.123  39.477  27.482  1.00  0.00     0.016 A 
ATOM     14  C   UNL     1     -55.123  40.830  27.830  1.00  0.00     0.051 A 
ATOM     15  C   UNL     1     -54.115  41.351  28.646  1.00  0.00     0.157 A 
ATOM     16  C   UNL     1     -53.099  39.149  28.772  1.00  0.00     0.062 A 
ATOM     17  C   UNL     1     -53.098  40.507  29.121  1.00  0.00     0.158 A 
BRANCH  15  18
ATOM     18  O   UNL     1     -54.141  42.706  28.975  1.00  0.00    -0.504 OA
ATOM     19  H   UNL     1     -53.417  43.347  28.674  1.00  0.00     0.293 HD
ENDBRANCH  15  18
BRANCH  17  20
ATOM     20  O   UNL     1     -52.092  41.020  29.939  1.00  0.00    -0.504 OA
ATOM     21  H   UNL     1     -52.077  41.995  30.216  1.00  0.00     0.293 HD
ENDBRANCH  17  20
ENDBRANCH   1  12
BRANCH   6  22
ATOM     22  O   UNL     1     -54.173  32.364  25.672  1.00  0.00    -0.507 OA
ATOM     23  H   UNL     1     -54.563  32.801  24.851  1.00  0.00     0.293 HD
ENDBRANCH   6  22
BRANCH   8  24
ATOM     24  O   UNL     1     -52.212  32.046  30.043  1.00  0.00    -0.508 OA
ATOM     25  H   UNL     1     -51.529  31.329  29.831  1.00  0.00     0.293 HD
ENDBRANCH   8  24
TORSDOF 5
ENDMDL
MODEL 2
REMARK VINA RESULT:    -4.124      1.853      2.703
REMARK INTER + INTRA:          -5.154
REMARK INTER:                  -4.836
REMARK INTRA:                  -0.318
REMARK UNBOUND:                -0.307
REMARK SMILES O=c1cc(-c2ccc(O)c(O)c2)oc2cc(O)cc(O)c12
REMARK SMILES IDX 4 1 3 2 2 3 1 4 21 5 19 6 18 7 16 8 15 9 14 10 13 11 5 12
REMARK SMILES IDX 6 13 7 14 8 15 12 16 10 17 9 18 11 20 20 22 17 24
REMARK H PARENT 9 19 11 21 20 23 17 25
REMARK Flexibility Score: inf
ROOT
ATOM      1  C   UNL     1     -53.981  34.499  27.250  1.00  0.00     0.138 A 
ATOM      2  C   UNL     1     -54.553  33.908  26.115  1.00  0.00     0.100 A 
ATOM      3  C   UNL     1     -54.476  32.525  25.944  1.00  0.00     0.197 A 
ATOM      4  O   UNL     1     -55.047  32.019  24.944  1.00  0.00    -0.289 OA
ATOM      5  C   UNL     1     -53.788  31.735  26.897  1.00  0.00     0.107 A 
ATOM      6  C   UNL     1     -53.616  30.321  26.809  1.00  0.00     0.134 A 
ATOM      7  C   UNL     1     -53.003  29.633  27.865  1.00  0.00     0.093 A 
ATOM      8  C   UNL     1     -52.504  30.317  28.978  1.00  0.00     0.123 A 
ATOM      9  C   UNL     1     -52.623  31.702  29.049  1.00  0.00     0.094 A 
ATOM     10  C   UNL     1     -53.261  32.412  28.029  1.00  0.00     0.146 A 
ATOM     11  O   UNL     1     -53.369  33.731  28.146  1.00  0.00    -0.456 OA
ENDROOT
BRANCH   1  12
ATOM     12  C   UNL     1     -54.031  35.965  27.481  1.00  0.00     0.021 A 
ATOM     13  C   UNL     1     -54.655  36.838  26.569  1.00  0.00     0.016 A 
ATOM     14  C   UNL     1     -54.695  38.212  26.819  1.00  0.00     0.051 A 
ATOM     15  C   UNL     1     -54.125  38.739  27.981  1.00  0.00     0.157 A 
ATOM     16  C   UNL     1     -53.470  36.500  28.656  1.00  0.00     0.062 A 
ATOM     17  C   UNL     1     -53.510  37.879  28.906  1.00  0.00     0.158 A 
BRANCH  15  18
ATOM     18  O   UNL     1     -54.180  40.114  28.200  1.00  0.00    -0.504 OA
ATOM     19  H   UNL     1     -54.700  40.516  28.972  1.00  0.00     0.293 HD
ENDBRANCH  15  18
BRANCH  17  20
ATOM     20  O   UNL     1     -52.942  38.397  30.069  1.00  0.00    -0.504 OA
ATOM     21  H   UNL     1     -52.659  37.795  30.835  1.00  0.00     0.293 HD
ENDBRANCH  17  20
ENDBRANCH   1  12
BRANCH   6  22
ATOM     22  O   UNL     1     -54.003  29.550  25.709  1.00  0.00    -0.507 OA
ATOM     23  H   UNL     1     -54.214  28.564  25.738  1.00  0.00     0.293 HD
ENDBRANCH   6  22
BRANCH   8  24
ATOM     24  O   UNL     1     -51.882  29.626  30.015  1.00  0.00    -0.508 OA
ATOM     25  H   UNL     1     -51.817  30.016  30.948  1.00  0.00     0.293 HD
ENDBRANCH   8  24
TORSDOF 5
ENDMDL
MODEL 3
REMARK VINA RESULT:    -3.733      1.717      7.136
REMARK INTER + INTRA:          -4.695
REMARK INTER:                  -4.401
REMARK INTRA:                  -0.295
REMARK UNBOUND:                -0.307
REMARK SMILES O=c1cc(-c2ccc(O)c(O)c2)oc2cc(O)cc(O)c12
REMARK SMILES IDX 4 1 3 2 2 3 1 4 21 5 19 6 18 7 16 8 15 9 14 10 13 11 5 12
REMARK SMILES IDX 6 13 7 14 8 15 12 16 10 17 9 18 11 20 20 22 17 24
REMARK H PARENT 9 19 11 21 20 23 17 25
REMARK Flexibility Score: inf
ROOT
ATOM      1  C   UNL     1     -53.562  34.315  28.107  1.00  0.00     0.138 A 
ATOM      2  C   UNL     1     -54.218  34.588  26.899  1.00  0.00     0.100 A 
ATOM      3  C   UNL     1     -54.487  35.911  26.542  1.00  0.00     0.197 A 
ATOM      4  O   UNL     1     -55.027  36.125  25.426  1.00  0.00    -0.289 OA
ATOM      5  C   UNL     1     -54.129  36.963  27.420  1.00  0.00     0.107 A 
ATOM      6  C   UNL     1     -54.384  38.346  27.177  1.00  0.00     0.134 A 
ATOM      7  C   UNL     1     -53.893  39.305  28.073  1.00  0.00     0.093 A 
ATOM      8  C   UNL     1     -53.209  38.927  29.232  1.00  0.00     0.123 A 
ATOM      9  C   UNL     1     -53.000  37.577  29.502  1.00  0.00     0.094 A 
ATOM     10  C   UNL     1     -53.445  36.598  28.610  1.00  0.00     0.146 A 
ATOM     11  O   UNL     1     -53.208  35.323  28.898  1.00  0.00    -0.456 OA
ENDROOT
BRANCH   1  12
ATOM     12  C   UNL     1     -53.254  32.928  28.537  1.00  0.00     0.021 A 
ATOM     13  C   UNL     1     -52.567  32.659  29.737  1.00  0.00     0.016 A 
ATOM     14  C   UNL     1     -52.300  31.343  30.121  1.00  0.00     0.051 A 
ATOM     15  C   UNL     1     -52.718  30.273  29.324  1.00  0.00     0.157 A 
ATOM     16  C   UNL     1     -53.684  31.847  27.746  1.00  0.00     0.062 A 
ATOM     17  C   UNL     1     -53.415  30.525  28.131  1.00  0.00     0.158 A 
BRANCH  15  18
ATOM     18  O   UNL     1     -52.435  28.971  29.733  1.00  0.00    -0.504 OA
ATOM     19  H   UNL     1     -51.728  28.406  29.279  1.00  0.00     0.293 HD
ENDBRANCH  15  18
BRANCH  17  20
ATOM     20  O   UNL     1     -53.839  29.463  27.333  1.00  0.00    -0.504 OA
ATOM     21  H   UNL     1     -53.213  29.011  26.676  1.00  0.00     0.293 HD
ENDBRANCH  17  20
ENDBRANCH   1  12
BRANCH   6  22
ATOM     22  O   UNL     1     -55.125  38.830  26.095  1.00  0.00    -0.507 OA
ATOM     23  H   UNL     1     -54.959  39.707  25.625  1.00  0.00     0.293 HD
ENDBRANCH   6  22
BRANCH   8  24
ATOM     24  O   UNL     1     -52.739  39.888  30.125  1.00  0.00    -0.508 OA
ATOM     25  H   UNL     1     -52.962  40.869  30.012  1.00  0.00     0.293 HD
ENDBRANCH   8  24
TORSDOF 5
ENDMDL
MODEL 4
REMARK VINA RESULT:    -2.921      3.003      8.884
REMARK INTER + INTRA:          -3.740
REMARK INTER:                  -3.468
REMARK INTRA:                  -0.272
REMARK UNBOUND:                -0.307
REMARK SMILES O=c1cc(-c2ccc(O)c(O)c2)oc2cc(O)cc(O)c12
REMARK SMILES IDX 4 1 3 2 2 3 1 4 21 5 19 6 18 7 16 8 15 9 14 10 13 11 5 12
REMARK SMILES IDX 6 13 7 14 8 15 12 16 10 17 9 18 11 20 20 22 17 24
REMARK H PARENT 9 19 11 21 20 23 17 25
REMARK Flexibility Score: inf
ROOT
ATOM      1  C   UNL     1     -53.249  41.273  28.932  1.00  0.00     0.138 A 
ATOM      2  C   UNL     1     -52.053  41.662  29.551  1.00  0.00     0.100 A 
ATOM      3  C   UNL     1     -51.659  43.001  29.512  1.00  0.00     0.197 A 
ATOM      4  O   UNL     1     -50.609  43.327  30.124  1.00  0.00    -0.289 OA
ATOM      5  C   UNL     1     -52.450  43.948  28.818  1.00  0.00     0.107 A 
ATOM      6  C   UNL     1     -52.130  45.332  28.683  1.00  0.00     0.134 A 
ATOM      7  C   UNL     1     -53.042  46.193  28.057  1.00  0.00     0.093 A 
ATOM      8  C   UNL     1     -54.233  45.708  27.511  1.00  0.00     0.123 A 
ATOM      9  C   UNL     1     -54.530  44.351  27.593  1.00  0.00     0.094 A 
ATOM     10  C   UNL     1     -53.658  43.472  28.242  1.00  0.00     0.146 A 
ATOM     11  O   UNL     1     -53.989  42.188  28.314  1.00  0.00    -0.456 OA
ENDROOT
BRANCH   1  12
ATOM     12  C   UNL     1     -53.714  39.863  28.939  1.00  0.00     0.021 A 
ATOM     13  C   UNL     1     -54.123  39.225  30.125  1.00  0.00     0.016 A 
ATOM     14  C   UNL     1     -54.566  37.899  30.099  1.00  0.00     0.051 A 
ATOM     15  C   UNL     1     -54.617  37.192  28.895  1.00  0.00     0.157 A 
ATOM     16  C   UNL     1     -53.781  39.151  27.728  1.00  0.00     0.062 A 
ATOM     17  C   UNL     1     -54.225  37.821  27.702  1.00  0.00     0.158 A 
BRANCH  15  18
ATOM     18  O   UNL     1     -55.063  35.871  28.903  1.00  0.00    -0.504 OA
ATOM     19  H   UNL     1     -54.601  35.151  29.446  1.00  0.00     0.293 HD
ENDBRANCH  15  18
BRANCH  17  20
ATOM     20  O   UNL     1     -54.277  37.123  26.496  1.00  0.00    -0.504 OA
ATOM     21  H   UNL     1     -53.447  36.972  25.934  1.00  0.00     0.293 HD
ENDBRANCH  17  20
ENDBRANCH   1  12
BRANCH   6  22
ATOM     22  O   UNL     1     -50.933  45.908  29.121  1.00  0.00    -0.507 OA
ATOM     23  H   UNL     1     -50.090  45.398  29.334  1.00  0.00     0.293 HD
ENDBRANCH   6  22
BRANCH   8  24
ATOM     24  O   UNL     1     -55.125  46.570  26.876  1.00  0.00    -0.508 OA
ATOM     25  H   UNL     1     -54.801  47.352  26.320  1.00  0.00     0.293 HD
ENDBRANCH   8  24
TORSDOF 5
ENDMDL
