MODEL 1
REMARK VINA RESULT:    -6.088      0.000      0.000
REMARK INTER + INTRA:          -7.585
REMARK INTER:                  -7.334
REMARK INTRA:                  -0.251
REMARK UNBOUND:                -0.251
REMARK SMILES O=c1c(O)c(-c2ccc(O)c(O)c2)oc2cc(O)cc(O)c12
REMARK SMILES IDX 5 1 3 2 2 3 1 4 22 5 20 6 19 7 17 8 16 9 15 10 14 11 6 12
REMARK SMILES IDX 7 13 8 14 9 15 13 16 11 17 10 18 12 20 4 22 21 24 18 26
REMARK H PARENT 10 19 12 21 4 23 21 25 18 27
REMARK Flexibility Score: inf
ROOT
ATOM      1  C   UNL     1     -21.982 -15.878 -14.087  1.00  0.00     0.180 A 
ATOM      2  C   UNL     1     -22.678 -15.275 -15.149  1.00  0.00     0.208 A 
ATOM      3  C   UNL     1     -24.000 -15.668 -15.408  1.00  0.00     0.238 A 
ATOM      4  O   UNL     1     -24.598 -15.163 -16.394  1.00  0.00    -0.285 OA
ATOM      5  C   UNL     1     -24.617 -16.647 -14.593  1.00  0.00     0.111 A 
ATOM      6  C   UNL     1     -25.965 -17.093 -14.740  1.00  0.00     0.134 A 
ATOM      7  C   UNL     1     -26.428 -18.160 -13.961  1.00  0.00     0.093 A 
ATOM      8  C   UNL     1     -25.616 -18.755 -12.998  1.00  0.00     0.123 A 
ATOM      9  C   UNL     1     -24.315 -18.288 -12.804  1.00  0.00     0.094 A 
ATOM     10  C   UNL     1     -23.811 -17.248 -13.591  1.00  0.00     0.146 A 
ATOM     11  O   UNL     1     -22.565 -16.842 -13.382  1.00  0.00    -0.452 OA
ENDROOT
BRANCH   1  12
ATOM     12  C   UNL     1     -20.595 -15.499 -13.737  1.00  0.00     0.025 A 
ATOM     13  C   UNL     1     -20.352 -14.265 -13.116  1.00  0.00     0.016 A 
ATOM     14  C   UNL     1     -19.048 -13.876 -12.796  1.00  0.00     0.051 A 
ATOM     15  C   UNL     1     -17.967 -14.707 -13.106  1.00  0.00     0.157 A 
ATOM     16  C   UNL     1     -19.504 -16.324 -14.068  1.00  0.00     0.062 A 
ATOM     17  C   UNL     1     -18.195 -15.936 -13.750  1.00  0.00     0.158 A 
BRANCH  15  18
ATOM     18  O   UNL     1     -16.678 -14.295 -12.773  1.00  0.00    -0.504 OA
ATOM     19  H   UNL     1     -16.166 -13.625 -13.334  1.00  0.00     0.293 HD
ENDBRANCH  15  18
BRANCH  17  20
ATOM     20  O   UNL     1     -17.120 -16.763 -14.074  1.00  0.00    -0.504 OA
ATOM     21  H   UNL     1     -16.829 -16.902 -15.035  1.00  0.00     0.293 HD
ENDBRANCH  17  20
ENDBRANCH   1  12
BRANCH   2  22
ATOM     22  O   UNL     1     -22.043 -14.325 -15.954  1.00  0.00    -0.502 OA
ATOM     23  H   UNL     1     -22.052 -13.335 -15.739  1.00  0.00     0.293 HD
ENDBRANCH   2  22
BRANCH   6  24
ATOM     24  O   UNL     1     -26.890 -16.506 -15.609  1.00  0.00    -0.507 OA
ATOM     25  H   UNL     1     -27.891 -16.528 -15.484  1.00  0.00     0.293 HD
ENDBRANCH   6  24
BRANCH   8  26
ATOM     26  O   UNL     1     -26.115 -19.804 -12.229  1.00  0.00    -0.508 OA
ATOM     27  H   UNL     1     -26.282 -19.701 -11.235  1.00  0.00     0.293 HD
ENDBRANCH   8  26
TORSDOF 6
ENDMDL
