MODEL 1
REMARK VINA RESULT:    -4.684      0.000      0.000
REMARK INTER + INTRA:         -11.610
REMARK INTER:                  -9.065
REMARK INTRA:                  -2.545
REMARK UNBOUND:                -2.545
REMARK SMILES CCCCCCCCCCCCCCCCCC(=O)[O-]
REMARK SMILES IDX 10 1 11 2 12 3 13 4 14 5 15 6 16 7 17 8 18 9 19 10 20 11
REMARK SMILES IDX 9 12 8 13 7 14 6 15 5 16 4 17 3 18 2 19 1 20
REMARK H PARENT
REMARK Flexibility Score: inf
ROOT
ATOM      1  C   UNL     1      17.432 -34.194  19.432  1.00  0.00     0.000 C 
ENDROOT
BRANCH   1   2
ATOM      2  C   UNL     1      18.261 -33.569  20.565  1.00  0.00     0.000 C 
BRANCH   2   3
ATOM      3  C   UNL     1      18.170 -32.034  20.591  1.00  0.00     0.000 C 
BRANCH   3   4
ATOM      4  C   UNL     1      17.682 -31.494  21.946  1.00  0.00     0.000 C 
BRANCH   4   5
ATOM      5  C   UNL     1      17.592 -32.585  23.029  1.00  0.00     0.000 C 
BRANCH   5   6
ATOM      6  C   UNL     1      16.413 -32.442  24.009  1.00  0.00     0.000 C 
BRANCH   6   7
ATOM      7  C   UNL     1      15.857 -33.796  24.478  1.00  0.00     0.006 C 
BRANCH   7   8
ATOM      8  C   UNL     1      16.818 -34.954  24.175  1.00  0.00     0.053 C 
BRANCH   8   9
ATOM      9  C   UNL     1      17.412 -35.526  25.427  1.00  0.00     0.041 C 
ATOM     10  O   UNL     1      16.742 -36.312  26.146  1.00  0.00    -0.550 OA
ATOM     11  O   UNL     1      18.698 -35.165  25.814  1.00  0.00    -0.550 OA
ENDBRANCH   8   9
ENDBRANCH   7   8
ENDBRANCH   6   7
ENDBRANCH   5   6
ENDBRANCH   4   5
ENDBRANCH   3   4
ENDBRANCH   2   3
ENDBRANCH   1   2
BRANCH   1  12
ATOM     12  C   UNL     1      16.579 -35.357  19.952  1.00  0.00     0.000 C 
BRANCH  12  13
ATOM     13  C   UNL     1      15.411 -34.841  20.805  1.00  0.00    -0.000 C 
BRANCH  13  14
ATOM     14  C   UNL     1      14.632 -33.703  20.123  1.00  0.00    -0.000 C 
BRANCH  14  15
ATOM     15  C   UNL     1      14.404 -32.500  21.055  1.00  0.00    -0.000 C 
BRANCH  15  16
ATOM     16  C   UNL     1      13.137 -31.709  20.692  1.00  0.00    -0.000 C 
BRANCH  16  17
ATOM     17  C   UNL     1      12.610 -30.866  21.864  1.00  0.00    -0.000 C 
BRANCH  17  18
ATOM     18  C   UNL     1      13.769 -30.284  22.685  1.00  0.00    -0.000 C 
BRANCH  18  19
ATOM     19  C   UNL     1      13.332 -29.829  24.086  1.00  0.00    -0.003 C 
ATOM     20  C   UNL     1      12.271 -28.731  24.046  1.00  0.00     0.004 C 
ENDBRANCH  18  19
ENDBRANCH  17  18
ENDBRANCH  16  17
ENDBRANCH  15  16
ENDBRANCH  14  15
ENDBRANCH  13  14
ENDBRANCH  12  13
ENDBRANCH   1  12
TORSDOF 16
ENDMDL
MODEL 2
REMARK VINA RESULT:    -4.606      1.226      3.893
REMARK INTER + INTRA:         -11.459
REMARK INTER:                  -8.679
REMARK INTRA:                  -2.781
REMARK UNBOUND:                -2.545
REMARK SMILES CCCCCCCCCCCCCCCCCC(=O)[O-]
REMARK SMILES IDX 10 1 11 2 12 3 13 4 14 5 15 6 16 7 17 8 18 9 19 10 20 11
REMARK SMILES IDX 9 12 8 13 7 14 6 15 5 16 4 17 3 18 2 19 1 20
REMARK H PARENT
REMARK Flexibility Score: inf
ROOT
ATOM      1  C   UNL     1      14.943 -33.487  21.092  1.00  0.00     0.000 C 
ENDROOT
BRANCH   1   2
ATOM      2  C   UNL     1      15.293 -34.655  20.157  1.00  0.00     0.000 C 
BRANCH   2   3
ATOM      3  C   UNL     1      16.464 -34.333  19.213  1.00  0.00     0.000 C 
BRANCH   3   4
ATOM      4  C   UNL     1      17.739 -35.117  19.566  1.00  0.00     0.000 C 
BRANCH   4   5
ATOM      5  C   UNL     1      17.445 -36.505  20.162  1.00  0.00     0.000 C 
BRANCH   5   6
ATOM      6  C   UNL     1      18.036 -36.757  21.562  1.00  0.00     0.000 C 
BRANCH   6   7
ATOM      7  C   UNL     1      18.299 -35.459  22.343  1.00  0.00     0.006 C 
BRANCH   7   8
ATOM      8  C   UNL     1      17.176 -35.147  23.342  1.00  0.00     0.053 C 
BRANCH   8   9
ATOM      9  C   UNL     1      17.662 -35.196  24.759  1.00  0.00     0.041 C 
ATOM     10  O   UNL     1      18.719 -34.597  25.089  1.00  0.00    -0.550 OA
ATOM     11  O   UNL     1      16.961 -35.930  25.710  1.00  0.00    -0.550 OA
ENDBRANCH   8   9
ENDBRANCH   7   8
ENDBRANCH   6   7
ENDBRANCH   5   6
ENDBRANCH   4   5
ENDBRANCH   3   4
ENDBRANCH   2   3
ENDBRANCH   1   2
BRANCH   1  12
ATOM     12  C   UNL     1      13.816 -32.630  20.503  1.00  0.00     0.000 C 
BRANCH  12  13
ATOM     13  C   UNL     1      13.837 -31.213  21.095  1.00  0.00    -0.000 C 
BRANCH  13  14
ATOM     14  C   UNL     1      12.914 -31.064  22.316  1.00  0.00    -0.000 C 
BRANCH  14  15
ATOM     15  C   UNL     1      13.694 -30.928  23.635  1.00  0.00    -0.000 C 
BRANCH  15  16
ATOM     16  C   UNL     1      15.160 -30.523  23.411  1.00  0.00    -0.000 C 
BRANCH  16  17
ATOM     17  C   UNL     1      16.152 -31.543  23.993  1.00  0.00    -0.000 C 
BRANCH  17  18
ATOM     18  C   UNL     1      17.499 -31.476  23.259  1.00  0.00    -0.000 C 
BRANCH  18  19
ATOM     19  C   UNL     1      17.388 -30.816  21.876  1.00  0.00    -0.003 C 
ATOM     20  C   UNL     1      18.195 -31.549  20.806  1.00  0.00     0.004 C 
ENDBRANCH  18  19
ENDBRANCH  17  18
ENDBRANCH  16  17
ENDBRANCH  15  16
ENDBRANCH  14  15
ENDBRANCH  13  14
ENDBRANCH  12  13
ENDBRANCH   1  12
TORSDOF 16
ENDMDL
MODEL 3
REMARK VINA RESULT:    -4.565      2.641      4.913
REMARK INTER + INTRA:         -11.381
REMARK INTER:                  -8.780
REMARK INTRA:                  -2.600
REMARK UNBOUND:                -2.545
REMARK SMILES CCCCCCCCCCCCCCCCCC(=O)[O-]
REMARK SMILES IDX 10 1 11 2 12 3 13 4 14 5 15 6 16 7 17 8 18 9 19 10 20 11
REMARK SMILES IDX 9 12 8 13 7 14 6 15 5 16 4 17 3 18 2 19 1 20
REMARK H PARENT
REMARK Flexibility Score: inf
ROOT
ATOM      1  C   UNL     1      16.822 -36.598  19.755  1.00  0.00     0.000 C 
ENDROOT
BRANCH   1   2
ATOM      2  C   UNL     1      16.662 -35.117  19.380  1.00  0.00     0.000 C 
BRANCH   2   3
ATOM      3  C   UNL     1      15.323 -34.525  19.853  1.00  0.00     0.000 C 
BRANCH   3   4
ATOM      4  C   UNL     1      15.284 -34.293  21.373  1.00  0.00     0.000 C 
BRANCH   4   5
ATOM      5  C   UNL     1      14.825 -32.872  21.750  1.00  0.00     0.000 C 
BRANCH   5   6
ATOM      6  C   UNL     1      13.761 -32.258  20.822  1.00  0.00     0.000 C 
BRANCH   6   7
ATOM      7  C   UNL     1      12.854 -31.245  21.539  1.00  0.00     0.006 C 
BRANCH   7   8
ATOM      8  C   UNL     1      13.659 -30.206  22.333  1.00  0.00     0.053 C 
BRANCH   8   9
ATOM      9  C   UNL     1      13.311 -30.228  23.790  1.00  0.00     0.041 C 
ATOM     10  O   UNL     1      12.813 -29.210  24.340  1.00  0.00    -0.550 OA
ATOM     11  O   UNL     1      13.565 -31.365  24.549  1.00  0.00    -0.550 OA
ENDBRANCH   8   9
ENDBRANCH   7   8
ENDBRANCH   6   7
ENDBRANCH   5   6
ENDBRANCH   4   5
ENDBRANCH   3   4
ENDBRANCH   2   3
ENDBRANCH   1   2
BRANCH   1  12
ATOM     12  C   UNL     1      17.947 -36.787  20.780  1.00  0.00     0.000 C 
BRANCH  12  13
ATOM     13  C   UNL     1      18.818 -35.526  20.877  1.00  0.00    -0.000 C 
BRANCH  13  14
ATOM     14  C   UNL     1      18.867 -34.943  22.299  1.00  0.00    -0.000 C 
BRANCH  14  15
ATOM     15  C   UNL     1      18.788 -33.406  22.312  1.00  0.00    -0.000 C 
BRANCH  15  16
ATOM     16  C   UNL     1      18.859 -32.803  20.900  1.00  0.00    -0.000 C 
BRANCH  16  17
ATOM     17  C   UNL     1      18.011 -31.530  20.756  1.00  0.00    -0.000 C 
BRANCH  17  18
ATOM     18  C   UNL     1      18.519 -30.425  21.694  1.00  0.00    -0.000 C 
BRANCH  18  19
ATOM     19  C   UNL     1      17.385 -29.754  22.485  1.00  0.00    -0.003 C 
ATOM     20  C   UNL     1      17.017 -30.521  23.753  1.00  0.00     0.004 C 
ENDBRANCH  18  19
ENDBRANCH  17  18
ENDBRANCH  16  17
ENDBRANCH  15  16
ENDBRANCH  14  15
ENDBRANCH  13  14
ENDBRANCH  12  13
ENDBRANCH   1  12
TORSDOF 16
ENDMDL
MODEL 4
REMARK VINA RESULT:    -4.537      1.887      4.651
REMARK INTER + INTRA:         -11.326
REMARK INTER:                  -8.630
REMARK INTRA:                  -2.696
REMARK UNBOUND:                -2.545
REMARK SMILES CCCCCCCCCCCCCCCCCC(=O)[O-]
REMARK SMILES IDX 10 1 11 2 12 3 13 4 14 5 15 6 16 7 17 8 18 9 19 10 20 11
REMARK SMILES IDX 9 12 8 13 7 14 6 15 5 16 4 17 3 18 2 19 1 20
REMARK H PARENT
REMARK Flexibility Score: inf
ROOT
ATOM      1  C   UNL     1      13.487 -31.340  21.514  1.00  0.00     0.000 C 
ENDROOT
BRANCH   1   2
ATOM      2  C   UNL     1      13.858 -32.528  20.613  1.00  0.00     0.000 C 
BRANCH   2   3
ATOM      3  C   UNL     1      14.910 -33.451  21.250  1.00  0.00     0.000 C 
BRANCH   3   4
ATOM      4  C   UNL     1      15.244 -34.665  20.366  1.00  0.00     0.000 C 
BRANCH   4   5
ATOM      5  C   UNL     1      16.269 -34.340  19.264  1.00  0.00     0.000 C 
BRANCH   5   6
ATOM      6  C   UNL     1      17.687 -34.893  19.503  1.00  0.00     0.000 C 
BRANCH   6   7
ATOM      7  C   UNL     1      18.514 -34.023  20.464  1.00  0.00     0.006 C 
BRANCH   7   8
ATOM      8  C   UNL     1      19.229 -34.861  21.533  1.00  0.00     0.053 C 
BRANCH   8   9
ATOM      9  C   UNL     1      18.300 -35.839  22.187  1.00  0.00     0.041 C 
ATOM     10  O   UNL     1      18.379 -37.067  21.918  1.00  0.00    -0.550 OA
ATOM     11  O   UNL     1      17.326 -35.389  23.071  1.00  0.00    -0.550 OA
ENDBRANCH   8   9
ENDBRANCH   7   8
ENDBRANCH   6   7
ENDBRANCH   5   6
ENDBRANCH   4   5
ENDBRANCH   3   4
ENDBRANCH   2   3
ENDBRANCH   1   2
BRANCH   1  12
ATOM     12  C   UNL     1      13.557 -31.730  22.995  1.00  0.00     0.000 C 
BRANCH  12  13
ATOM     13  C   UNL     1      13.631 -30.481  23.887  1.00  0.00    -0.000 C 
BRANCH  13  14
ATOM     14  C   UNL     1      13.543 -29.171  23.088  1.00  0.00    -0.000 C 
BRANCH  14  15
ATOM     15  C   UNL     1      14.822 -28.322  23.200  1.00  0.00    -0.000 C 
BRANCH  15  16
ATOM     16  C   UNL     1      15.663 -28.356  21.913  1.00  0.00    -0.000 C 
BRANCH  16  17
ATOM     17  C   UNL     1      17.055 -28.969  22.132  1.00  0.00    -0.000 C 
BRANCH  17  18
ATOM     18  C   UNL     1      17.065 -30.456  21.747  1.00  0.00    -0.000 C 
BRANCH  18  19
ATOM     19  C   UNL     1      17.893 -31.313  22.717  1.00  0.00    -0.003 C 
ATOM     20  C   UNL     1      17.094 -31.756  23.941  1.00  0.00     0.004 C 
ENDBRANCH  18  19
ENDBRANCH  17  18
ENDBRANCH  16  17
ENDBRANCH  15  16
ENDBRANCH  14  15
ENDBRANCH  13  14
ENDBRANCH  12  13
ENDBRANCH   1  12
TORSDOF 16
ENDMDL
MODEL 5
REMARK VINA RESULT:    -4.505      3.433      5.553
REMARK INTER + INTRA:         -11.265
REMARK INTER:                  -8.990
REMARK INTRA:                  -2.275
REMARK UNBOUND:                -2.545
REMARK SMILES CCCCCCCCCCCCCCCCCC(=O)[O-]
REMARK SMILES IDX 10 1 11 2 12 3 13 4 14 5 15 6 16 7 17 8 18 9 19 10 20 11
REMARK SMILES IDX 9 12 8 13 7 14 6 15 5 16 4 17 3 18 2 19 1 20
REMARK H PARENT
REMARK Flexibility Score: inf
ROOT
ATOM      1  C   UNL     1      15.793 -35.183  20.090  1.00  0.00     0.000 C 
ENDROOT
BRANCH   1   2
ATOM      2  C   UNL     1      14.842 -34.012  19.799  1.00  0.00     0.000 C 
BRANCH   2   3
ATOM      3  C   UNL     1      14.624 -33.105  21.022  1.00  0.00     0.000 C 
BRANCH   3   4
ATOM      4  C   UNL     1      15.031 -33.784  22.341  1.00  0.00     0.000 C 
BRANCH   4   5
ATOM      5  C   UNL     1      15.229 -32.783  23.494  1.00  0.00     0.000 C 
BRANCH   5   6
ATOM      6  C   UNL     1      13.941 -32.122  24.018  1.00  0.00     0.000 C 
BRANCH   6   7
ATOM      7  C   UNL     1      14.016 -30.587  24.024  1.00  0.00     0.006 C 
BRANCH   7   8
ATOM      8  C   UNL     1      13.593 -29.982  22.678  1.00  0.00     0.053 C 
BRANCH   8   9
ATOM      9  C   UNL     1      12.108 -29.801  22.591  1.00  0.00     0.041 C 
ATOM     10  O   UNL     1      11.525 -28.959  23.325  1.00  0.00    -0.550 OA
ATOM     11  O   UNL     1      11.361 -30.586  21.718  1.00  0.00    -0.550 OA
ENDBRANCH   8   9
ENDBRANCH   7   8
ENDBRANCH   6   7
ENDBRANCH   5   6
ENDBRANCH   4   5
ENDBRANCH   3   4
ENDBRANCH   2   3
ENDBRANCH   1   2
BRANCH   1  12
ATOM     12  C   UNL     1      17.151 -34.971  19.410  1.00  0.00     0.000 C 
BRANCH  12  13
ATOM     13  C   UNL     1      18.160 -34.347  20.385  1.00  0.00    -0.000 C 
BRANCH  13  14
ATOM     14  C   UNL     1      18.381 -32.846  20.134  1.00  0.00    -0.000 C 
BRANCH  14  15
ATOM     15  C   UNL     1      18.349 -32.018  21.431  1.00  0.00    -0.000 C 
BRANCH  15  16
ATOM     16  C   UNL     1      17.436 -30.786  21.318  1.00  0.00    -0.000 C 
BRANCH  16  17
ATOM     17  C   UNL     1      18.040 -29.539  21.983  1.00  0.00    -0.000 C 
BRANCH  17  18
ATOM     18  C   UNL     1      18.647 -28.598  20.932  1.00  0.00    -0.000 C 
BRANCH  18  19
ATOM     19  C   UNL     1      20.114 -28.248  21.229  1.00  0.00    -0.003 C 
ATOM     20  C   UNL     1      20.997 -29.485  21.381  1.00  0.00     0.004 C 
ENDBRANCH  18  19
ENDBRANCH  17  18
ENDBRANCH  16  17
ENDBRANCH  15  16
ENDBRANCH  14  15
ENDBRANCH  13  14
ENDBRANCH  12  13
ENDBRANCH   1  12
TORSDOF 16
ENDMDL
MODEL 6
REMARK VINA RESULT:    -4.501      2.183      5.481
REMARK INTER + INTRA:         -11.257
REMARK INTER:                  -8.460
REMARK INTRA:                  -2.797
REMARK UNBOUND:                -2.545
REMARK SMILES CCCCCCCCCCCCCCCCCC(=O)[O-]
REMARK SMILES IDX 10 1 11 2 12 3 13 4 14 5 15 6 16 7 17 8 18 9 19 10 20 11
REMARK SMILES IDX 9 12 8 13 7 14 6 15 5 16 4 17 3 18 2 19 1 20
REMARK H PARENT
REMARK Flexibility Score: inf
ROOT
ATOM      1  C   UNL     1      13.799 -30.304  23.924  1.00  0.00     0.000 C 
ENDROOT
BRANCH   1   2
ATOM      2  C   UNL     1      13.058 -31.375  23.108  1.00  0.00     0.000 C 
BRANCH   2   3
ATOM      3  C   UNL     1      12.845 -30.964  21.641  1.00  0.00     0.000 C 
BRANCH   3   4
ATOM      4  C   UNL     1      13.678 -31.810  20.664  1.00  0.00     0.000 C 
BRANCH   4   5
ATOM      5  C   UNL     1      14.425 -32.964  21.356  1.00  0.00     0.000 C 
BRANCH   5   6
ATOM      6  C   UNL     1      14.970 -34.053  20.413  1.00  0.00     0.000 C 
BRANCH   6   7
ATOM      7  C   UNL     1      16.449 -33.844  20.048  1.00  0.00     0.006 C 
BRANCH   7   8
ATOM      8  C   UNL     1      17.030 -35.039  19.279  1.00  0.00     0.053 C 
BRANCH   8   9
ATOM      9  C   UNL     1      17.659 -36.041  20.200  1.00  0.00     0.041 C 
ATOM     10  O   UNL     1      18.276 -35.658  21.229  1.00  0.00    -0.550 OA
ATOM     11  O   UNL     1      17.589 -37.398  19.905  1.00  0.00    -0.550 OA
ENDBRANCH   8   9
ENDBRANCH   7   8
ENDBRANCH   6   7
ENDBRANCH   5   6
ENDBRANCH   4   5
ENDBRANCH   3   4
ENDBRANCH   2   3
ENDBRANCH   1   2
BRANCH   1  12
ATOM     12  C   UNL     1      13.634 -28.918  23.290  1.00  0.00     0.000 C 
BRANCH  12  13
ATOM     13  C   UNL     1      14.987 -28.198  23.184  1.00  0.00    -0.000 C 
BRANCH  13  14
ATOM     14  C   UNL     1      15.738 -28.528  21.883  1.00  0.00    -0.000 C 
BRANCH  14  15
ATOM     15  C   UNL     1      17.130 -29.132  22.141  1.00  0.00    -0.000 C 
BRANCH  15  16
ATOM     16  C   UNL     1      17.138 -30.664  22.009  1.00  0.00    -0.000 C 
BRANCH  16  17
ATOM     17  C   UNL     1      17.211 -31.375  23.369  1.00  0.00    -0.000 C 
BRANCH  17  18
ATOM     18  C   UNL     1      17.890 -32.746  23.234  1.00  0.00    -0.000 C 
BRANCH  18  19
ATOM     19  C   UNL     1      17.287 -33.800  24.177  1.00  0.00    -0.003 C 
ATOM     20  C   UNL     1      15.834 -33.502  24.541  1.00  0.00     0.004 C 
ENDBRANCH  18  19
ENDBRANCH  17  18
ENDBRANCH  16  17
ENDBRANCH  15  16
ENDBRANCH  14  15
ENDBRANCH  13  14
ENDBRANCH  12  13
ENDBRANCH   1  12
TORSDOF 16
ENDMDL
MODEL 7
REMARK VINA RESULT:    -4.485      2.978      5.520
REMARK INTER + INTRA:         -11.226
REMARK INTER:                  -8.607
REMARK INTRA:                  -2.618
REMARK UNBOUND:                -2.545
REMARK SMILES CCCCCCCCCCCCCCCCCC(=O)[O-]
REMARK SMILES IDX 10 1 11 2 12 3 13 4 14 5 15 6 16 7 17 8 18 9 19 10 20 11
REMARK SMILES IDX 9 12 8 13 7 14 6 15 5 16 4 17 3 18 2 19 1 20
REMARK H PARENT
REMARK Flexibility Score: inf
ROOT
ATOM      1  C   UNL     1      18.632 -34.910  23.980  1.00  0.00     0.000 C 
ENDROOT
BRANCH   1   2
ATOM      2  C   UNL     1      17.539 -33.834  23.890  1.00  0.00     0.000 C 
BRANCH   2   3
ATOM      3  C   UNL     1      16.245 -34.352  23.239  1.00  0.00     0.000 C 
BRANCH   3   4
ATOM      4  C   UNL     1      14.992 -33.628  23.760  1.00  0.00     0.000 C 
BRANCH   4   5
ATOM      5  C   UNL     1      15.255 -32.154  24.117  1.00  0.00     0.000 C 
BRANCH   5   6
ATOM      6  C   UNL     1      14.076 -31.197  23.862  1.00  0.00     0.000 C 
BRANCH   6   7
ATOM      7  C   UNL     1      14.430 -30.056  22.894  1.00  0.00     0.006 C 
BRANCH   7   8
ATOM      8  C   UNL     1      14.579 -30.550  21.448  1.00  0.00     0.053 C 
BRANCH   8   9
ATOM      9  C   UNL     1      13.438 -31.433  21.041  1.00  0.00     0.041 C 
ATOM     10  O   UNL     1      13.660 -32.552  20.507  1.00  0.00    -0.550 OA
ATOM     11  O   UNL     1      12.128 -31.006  21.224  1.00  0.00    -0.550 OA
ENDBRANCH   8   9
ENDBRANCH   7   8
ENDBRANCH   6   7
ENDBRANCH   5   6
ENDBRANCH   4   5
ENDBRANCH   3   4
ENDBRANCH   2   3
ENDBRANCH   1   2
BRANCH   1  12
ATOM     12  C   UNL     1      19.144 -35.292  22.586  1.00  0.00     0.000 C 
BRANCH  12  13
ATOM     13  C   UNL     1      19.112 -36.815  22.389  1.00  0.00    -0.000 C 
BRANCH  13  14
ATOM     14  C   UNL     1      18.049 -37.263  21.372  1.00  0.00    -0.000 C 
BRANCH  14  15
ATOM     15  C   UNL     1      17.956 -36.321  20.159  1.00  0.00    -0.000 C 
BRANCH  15  16
ATOM     16  C   UNL     1      16.526 -35.807  19.925  1.00  0.00    -0.000 C 
BRANCH  16  17
ATOM     17  C   UNL     1      16.496 -34.397  19.314  1.00  0.00    -0.000 C 
BRANCH  17  18
ATOM     18  C   UNL     1      17.820 -33.662  19.570  1.00  0.00    -0.000 C 
BRANCH  18  19
ATOM     19  C   UNL     1      17.662 -32.477  20.536  1.00  0.00    -0.003 C 
ATOM     20  C   UNL     1      19.002 -31.929  21.021  1.00  0.00     0.004 C 
ENDBRANCH  18  19
ENDBRANCH  17  18
ENDBRANCH  16  17
ENDBRANCH  15  16
ENDBRANCH  14  15
ENDBRANCH  13  14
ENDBRANCH  12  13
ENDBRANCH   1  12
TORSDOF 16
ENDMDL
MODEL 8
REMARK VINA RESULT:    -4.463      2.426      4.401
REMARK INTER + INTRA:         -11.182
REMARK INTER:                  -8.040
REMARK INTRA:                  -3.142
REMARK UNBOUND:                -2.545
REMARK SMILES CCCCCCCCCCCCCCCCCC(=O)[O-]
REMARK SMILES IDX 10 1 11 2 12 3 13 4 14 5 15 6 16 7 17 8 18 9 19 10 20 11
REMARK SMILES IDX 9 12 8 13 7 14 6 15 5 16 4 17 3 18 2 19 1 20
REMARK H PARENT
REMARK Flexibility Score: inf
ROOT
ATOM      1  C   UNL     1      18.198 -31.613  25.356  1.00  0.00     0.000 C 
ENDROOT
BRANCH   1   2
ATOM      2  C   UNL     1      17.641 -30.745  24.218  1.00  0.00     0.000 C 
BRANCH   2   3
ATOM      3  C   UNL     1      18.480 -30.837  22.933  1.00  0.00     0.000 C 
BRANCH   3   4
ATOM      4  C   UNL     1      17.643 -30.612  21.663  1.00  0.00     0.000 C 
BRANCH   4   5
ATOM      5  C   UNL     1      17.656 -31.825  20.714  1.00  0.00     0.000 C 
BRANCH   5   6
ATOM      6  C   UNL     1      18.683 -32.918  21.060  1.00  0.00     0.000 C 
BRANCH   6   7
ATOM      7  C   UNL     1      18.486 -34.205  20.243  1.00  0.00     0.006 C 
BRANCH   7   8
ATOM      8  C   UNL     1      17.284 -34.110  19.293  1.00  0.00     0.053 C 
BRANCH   8   9
ATOM      9  C   UNL     1      16.170 -35.021  19.712  1.00  0.00     0.041 C 
ATOM     10  O   UNL     1      15.013 -34.563  19.906  1.00  0.00    -0.550 OA
ATOM     11  O   UNL     1      16.418 -36.374  19.918  1.00  0.00    -0.550 OA
ENDBRANCH   8   9
ENDBRANCH   7   8
ENDBRANCH   6   7
ENDBRANCH   5   6
ENDBRANCH   4   5
ENDBRANCH   3   4
ENDBRANCH   2   3
ENDBRANCH   1   2
BRANCH   1  12
ATOM     12  C   UNL     1      18.546 -33.020  24.855  1.00  0.00     0.000 C 
BRANCH  12  13
ATOM     13  C   UNL     1      17.445 -34.023  25.228  1.00  0.00    -0.000 C 
BRANCH  13  14
ATOM     14  C   UNL     1      16.830 -34.719  24.002  1.00  0.00    -0.000 C 
BRANCH  14  15
ATOM     15  C   UNL     1      15.824 -33.824  23.257  1.00  0.00    -0.000 C 
BRANCH  15  16
ATOM     16  C   UNL     1      14.642 -33.403  24.147  1.00  0.00    -0.000 C 
BRANCH  16  17
ATOM     17  C   UNL     1      14.215 -31.946  23.913  1.00  0.00    -0.000 C 
BRANCH  17  18
ATOM     18  C   UNL     1      13.867 -31.708  22.436  1.00  0.00    -0.000 C 
BRANCH  18  19
ATOM     19  C   UNL     1      14.066 -30.244  22.010  1.00  0.00    -0.003 C 
ATOM     20  C   UNL     1      14.330 -29.316  23.194  1.00  0.00     0.004 C 
ENDBRANCH  18  19
ENDBRANCH  17  18
ENDBRANCH  16  17
ENDBRANCH  15  16
ENDBRANCH  14  15
ENDBRANCH  13  14
ENDBRANCH  12  13
ENDBRANCH   1  12
TORSDOF 16
ENDMDL
MODEL 9
REMARK VINA RESULT:    -4.412      3.140      4.853
REMARK INTER + INTRA:         -11.084
REMARK INTER:                  -8.334
REMARK INTRA:                  -2.750
REMARK UNBOUND:                -2.545
REMARK SMILES CCCCCCCCCCCCCCCCCC(=O)[O-]
REMARK SMILES IDX 10 1 11 2 12 3 13 4 14 5 15 6 16 7 17 8 18 9 19 10 20 11
REMARK SMILES IDX 9 12 8 13 7 14 6 15 5 16 4 17 3 18 2 19 1 20
REMARK H PARENT
REMARK Flexibility Score: inf
ROOT
ATOM      1  C   UNL     1      18.917 -33.627  21.916  1.00  0.00     0.000 C 
ENDROOT
BRANCH   1   2
ATOM      2  C   UNL     1      19.109 -32.516  20.872  1.00  0.00     0.000 C 
BRANCH   2   3
ATOM      3  C   UNL     1      17.973 -31.479  20.891  1.00  0.00     0.000 C 
BRANCH   3   4
ATOM      4  C   UNL     1      18.349 -30.205  21.667  1.00  0.00     0.000 C 
BRANCH   4   5
ATOM      5  C   UNL     1      17.313 -29.832  22.744  1.00  0.00     0.000 C 
BRANCH   5   6
ATOM      6  C   UNL     1      16.083 -29.061  22.231  1.00  0.00     0.000 C 
BRANCH   6   7
ATOM      7  C   UNL     1      14.849 -29.236  23.131  1.00  0.00     0.006 C 
BRANCH   7   8
ATOM      8  C   UNL     1      13.688 -29.922  22.396  1.00  0.00     0.053 C 
BRANCH   8   9
ATOM      9  C   UNL     1      12.362 -29.568  22.997  1.00  0.00     0.041 C 
ATOM     10  O   UNL     1      12.305 -28.991  24.115  1.00  0.00    -0.550 OA
ATOM     11  O   UNL     1      11.186 -29.905  22.335  1.00  0.00    -0.550 OA
ENDBRANCH   8   9
ENDBRANCH   7   8
ENDBRANCH   6   7
ENDBRANCH   5   6
ENDBRANCH   4   5
ENDBRANCH   3   4
ENDBRANCH   2   3
ENDBRANCH   1   2
BRANCH   1  12
ATOM     12  C   UNL     1      18.793 -34.999  21.241  1.00  0.00     0.000 C 
BRANCH  12  13
ATOM     13  C   UNL     1      18.213 -34.863  19.825  1.00  0.00    -0.000 C 
BRANCH  13  14
ATOM     14  C   UNL     1      17.123 -35.905  19.525  1.00  0.00    -0.000 C 
BRANCH  14  15
ATOM     15  C   UNL     1      15.756 -35.519  20.118  1.00  0.00    -0.000 C 
BRANCH  15  16
ATOM     16  C   UNL     1      15.410 -34.040  19.881  1.00  0.00    -0.000 C 
BRANCH  16  17
ATOM     17  C   UNL     1      14.768 -33.377  21.110  1.00  0.00    -0.000 C 
BRANCH  17  18
ATOM     18  C   UNL     1      15.304 -33.997  22.408  1.00  0.00    -0.000 C 
BRANCH  18  19
ATOM     19  C   UNL     1      15.573 -32.948  23.498  1.00  0.00    -0.003 C 
ATOM     20  C   UNL     1      16.414 -33.494  24.650  1.00  0.00     0.004 C 
ENDBRANCH  18  19
ENDBRANCH  17  18
ENDBRANCH  16  17
ENDBRANCH  15  16
ENDBRANCH  14  15
ENDBRANCH  13  14
ENDBRANCH  12  13
ENDBRANCH   1  12
TORSDOF 16
ENDMDL
