MODEL 1
REMARK VINA RESULT:    -4.389      0.000      0.000
REMARK INTER + INTRA:          -7.641
REMARK INTER:                  -6.955
REMARK INTRA:                  -0.686
REMARK UNBOUND:                -0.686
REMARK SMILES CCCCCCCCCCCC(=O)[O-]
REMARK SMILES IDX 7 1 8 2 9 3 10 4 11 5 12 6 13 7 14 8 6 9 5 10 4 11 3 12 2 13
REMARK SMILES IDX 1 14
REMARK H PARENT
REMARK Flexibility Score: inf
ROOT
ATOM      1  C   UNL     1     -44.858  26.308  -1.309  1.00  0.00     0.000 C 
ENDROOT
BRANCH   1   2
ATOM      2  C   UNL     1     -45.145  27.804  -1.106  1.00  0.00     0.000 C 
BRANCH   2   3
ATOM      3  C   UNL     1     -43.966  28.552  -0.466  1.00  0.00     0.000 C 
BRANCH   3   4
ATOM      4  C   UNL     1     -43.191  27.634   0.493  1.00  0.00     0.006 C 
BRANCH   4   5
ATOM      5  C   UNL     1     -43.370  28.043   1.961  1.00  0.00     0.053 C 
BRANCH   5   6
ATOM      6  C   UNL     1     -44.483  27.286   2.618  1.00  0.00     0.041 C 
ATOM      7  O   UNL     1     -45.676  27.664   2.477  1.00  0.00    -0.550 OA
ATOM      8  O   UNL     1     -44.207  26.141   3.355  1.00  0.00    -0.550 OA
ENDBRANCH   5   6
ENDBRANCH   4   5
ENDBRANCH   3   4
ENDBRANCH   2   3
ENDBRANCH   1   2
BRANCH   1   9
ATOM      9  C   UNL     1     -45.762  25.671  -2.375  1.00  0.00     0.000 C 
BRANCH   9  10
ATOM     10  C   UNL     1     -46.574  26.741  -3.117  1.00  0.00    -0.000 C 
BRANCH  10  11
ATOM     11  C   UNL     1     -46.305  26.690  -4.625  1.00  0.00    -0.000 C 
BRANCH  11  12
ATOM     12  C   UNL     1     -46.210  28.102  -5.216  1.00  0.00    -0.000 C 
BRANCH  12  13
ATOM     13  C   UNL     1     -45.542  28.077  -6.595  1.00  0.00    -0.003 C 
ATOM     14  C   UNL     1     -45.602  26.683  -7.212  1.00  0.00     0.004 C 
ENDBRANCH  12  13
ENDBRANCH  11  12
ENDBRANCH  10  11
ENDBRANCH   9  10
ENDBRANCH   1   9
TORSDOF 10
ENDMDL
MODEL 2
REMARK VINA RESULT:    -4.368      0.695      1.015
REMARK INTER + INTRA:          -7.608
REMARK INTER:                  -6.972
REMARK INTRA:                  -0.636
REMARK UNBOUND:                -0.686
REMARK SMILES CCCCCCCCCCCC(=O)[O-]
REMARK SMILES IDX 7 1 8 2 9 3 10 4 11 5 12 6 13 7 14 8 6 9 5 10 4 11 3 12 2 13
REMARK SMILES IDX 1 14
REMARK H PARENT
REMARK Flexibility Score: inf
ROOT
ATOM      1  C   UNL     1     -45.395  25.877  -1.799  1.00  0.00     0.000 C 
ENDROOT
BRANCH   1   2
ATOM      2  C   UNL     1     -45.132  27.166  -1.004  1.00  0.00     0.000 C 
BRANCH   2   3
ATOM      3  C   UNL     1     -43.712  27.222  -0.420  1.00  0.00     0.000 C 
BRANCH   3   4
ATOM      4  C   UNL     1     -43.574  28.385   0.574  1.00  0.00     0.006 C 
BRANCH   4   5
ATOM      5  C   UNL     1     -43.214  27.904   1.986  1.00  0.00     0.053 C 
BRANCH   5   6
ATOM      6  C   UNL     1     -44.372  27.231   2.657  1.00  0.00     0.041 C 
ATOM      7  O   UNL     1     -45.531  27.712   2.552  1.00  0.00    -0.550 OA
ATOM      8  O   UNL     1     -44.178  26.054   3.368  1.00  0.00    -0.550 OA
ENDBRANCH   5   6
ENDBRANCH   4   5
ENDBRANCH   3   4
ENDBRANCH   2   3
ENDBRANCH   1   2
BRANCH   1   9
ATOM      9  C   UNL     1     -46.166  26.133  -3.103  1.00  0.00     0.000 C 
BRANCH   9  10
ATOM     10  C   UNL     1     -46.370  27.636  -3.333  1.00  0.00    -0.000 C 
BRANCH  10  11
ATOM     11  C   UNL     1     -46.428  27.962  -4.831  1.00  0.00    -0.000 C 
BRANCH  11  12
ATOM     12  C   UNL     1     -46.055  26.738  -5.675  1.00  0.00    -0.000 C 
BRANCH  12  13
ATOM     13  C   UNL     1     -45.546  27.158  -7.058  1.00  0.00    -0.003 C 
ATOM     14  C   UNL     1     -45.328  28.667  -7.130  1.00  0.00     0.004 C 
ENDBRANCH  12  13
ENDBRANCH  11  12
ENDBRANCH  10  11
ENDBRANCH   9  10
ENDBRANCH   1   9
TORSDOF 10
ENDMDL
MODEL 3
REMARK VINA RESULT:    -4.091      1.772      3.130
REMARK INTER + INTRA:          -7.169
REMARK INTER:                  -6.175
REMARK INTRA:                  -0.993
REMARK UNBOUND:                -0.686
REMARK SMILES CCCCCCCCCCCC(=O)[O-]
REMARK SMILES IDX 7 1 8 2 9 3 10 4 11 5 12 6 13 7 14 8 6 9 5 10 4 11 3 12 2 13
REMARK SMILES IDX 1 14
REMARK H PARENT
REMARK Flexibility Score: inf
ROOT
ATOM      1  C   UNL     1     -42.731  27.720   0.527  1.00  0.00     0.000 C 
ENDROOT
BRANCH   1   2
ATOM      2  C   UNL     1     -42.572  29.248   0.567  1.00  0.00     0.000 C 
BRANCH   2   3
ATOM      3  C   UNL     1     -42.907  29.842   1.943  1.00  0.00     0.000 C 
BRANCH   3   4
ATOM      4  C   UNL     1     -43.022  28.736   3.004  1.00  0.00     0.006 C 
BRANCH   4   5
ATOM      5  C   UNL     1     -44.374  28.765   3.730  1.00  0.00     0.053 C 
BRANCH   5   6
ATOM      6  C   UNL     1     -45.009  27.409   3.778  1.00  0.00     0.041 C 
ATOM      7  O   UNL     1     -44.386  26.403   3.347  1.00  0.00    -0.550 OA
ATOM      8  O   UNL     1     -46.273  27.250   4.330  1.00  0.00    -0.550 OA
ENDBRANCH   5   6
ENDBRANCH   4   5
ENDBRANCH   3   4
ENDBRANCH   2   3
ENDBRANCH   1   2
BRANCH   1   9
ATOM      9  C   UNL     1     -43.787  27.261  -0.490  1.00  0.00     0.000 C 
BRANCH   9  10
ATOM     10  C   UNL     1     -45.202  27.419   0.081  1.00  0.00    -0.000 C 
BRANCH  10  11
ATOM     11  C   UNL     1     -46.242  26.761  -0.834  1.00  0.00    -0.000 C 
BRANCH  11  12
ATOM     12  C   UNL     1     -45.564  25.951  -1.945  1.00  0.00    -0.000 C 
BRANCH  12  13
ATOM     13  C   UNL     1     -46.145  26.308  -3.318  1.00  0.00    -0.003 C 
ATOM     14  C   UNL     1     -46.361  27.812  -3.452  1.00  0.00     0.004 C 
ENDBRANCH  12  13
ENDBRANCH  11  12
ENDBRANCH  10  11
ENDBRANCH   9  10
ENDBRANCH   1   9
TORSDOF 10
ENDMDL
MODEL 4
REMARK VINA RESULT:    -4.049      1.193      2.014
REMARK INTER + INTRA:          -7.102
REMARK INTER:                  -6.105
REMARK INTRA:                  -0.997
REMARK UNBOUND:                -0.686
REMARK SMILES CCCCCCCCCCCC(=O)[O-]
REMARK SMILES IDX 7 1 8 2 9 3 10 4 11 5 12 6 13 7 14 8 6 9 5 10 4 11 3 12 2 13
REMARK SMILES IDX 1 14
REMARK H PARENT
REMARK Flexibility Score: inf
ROOT
ATOM      1  C   UNL     1     -44.912  26.080  -1.568  1.00  0.00     0.000 C 
ENDROOT
BRANCH   1   2
ATOM      2  C   UNL     1     -44.990  27.180  -0.497  1.00  0.00     0.000 C 
BRANCH   2   3
ATOM      3  C   UNL     1     -43.632  27.849  -0.236  1.00  0.00     0.000 C 
BRANCH   3   4
ATOM      4  C   UNL     1     -42.993  27.307   1.052  1.00  0.00     0.006 C 
BRANCH   4   5
ATOM      5  C   UNL     1     -43.515  28.022   2.306  1.00  0.00     0.053 C 
BRANCH   5   6
ATOM      6  C   UNL     1     -44.519  27.190   3.043  1.00  0.00     0.041 C 
ATOM      7  O   UNL     1     -44.207  26.045   3.463  1.00  0.00    -0.550 OA
ATOM      8  O   UNL     1     -45.789  27.693   3.297  1.00  0.00    -0.550 OA
ENDBRANCH   5   6
ENDBRANCH   4   5
ENDBRANCH   3   4
ENDBRANCH   2   3
ENDBRANCH   1   2
BRANCH   1   9
ATOM      9  C   UNL     1     -46.261  25.384  -1.800  1.00  0.00     0.000 C 
BRANCH   9  10
ATOM     10  C   UNL     1     -47.086  26.125  -2.860  1.00  0.00    -0.000 C 
BRANCH  10  11
ATOM     11  C   UNL     1     -46.233  26.454  -4.091  1.00  0.00    -0.000 C 
BRANCH  11  12
ATOM     12  C   UNL     1     -46.420  27.916  -4.515  1.00  0.00    -0.000 C 
BRANCH  12  13
ATOM     13  C   UNL     1     -46.993  28.753  -3.366  1.00  0.00    -0.003 C 
ATOM     14  C   UNL     1     -45.996  29.812  -2.905  1.00  0.00     0.004 C 
ENDBRANCH  12  13
ENDBRANCH  11  12
ENDBRANCH  10  11
ENDBRANCH   9  10
ENDBRANCH   1   9
TORSDOF 10
ENDMDL
MODEL 5
REMARK VINA RESULT:    -3.952      2.827      4.302
REMARK INTER + INTRA:          -6.949
REMARK INTER:                  -6.244
REMARK INTRA:                  -0.705
REMARK UNBOUND:                -0.686
REMARK SMILES CCCCCCCCCCCC(=O)[O-]
REMARK SMILES IDX 7 1 8 2 9 3 10 4 11 5 12 6 13 7 14 8 6 9 5 10 4 11 3 12 2 13
REMARK SMILES IDX 1 14
REMARK H PARENT
REMARK Flexibility Score: inf
ROOT
ATOM      1  C   UNL     1     -42.439  27.738   1.192  1.00  0.00     0.000 C 
ENDROOT
BRANCH   1   2
ATOM      2  C   UNL     1     -43.513  28.277   2.151  1.00  0.00     0.000 C 
BRANCH   2   3
ATOM      3  C   UNL     1     -44.177  27.167   2.980  1.00  0.00     0.000 C 
BRANCH   3   4
ATOM      4  C   UNL     1     -44.657  27.709   4.336  1.00  0.00     0.006 C 
BRANCH   4   5
ATOM      5  C   UNL     1     -43.572  28.523   5.054  1.00  0.00     0.053 C 
BRANCH   5   6
ATOM      6  C   UNL     1     -43.095  27.837   6.298  1.00  0.00     0.041 C 
ATOM      7  O   UNL     1     -43.525  26.692   6.594  1.00  0.00    -0.550 OA
ATOM      8  O   UNL     1     -42.148  28.448   7.111  1.00  0.00    -0.550 OA
ENDBRANCH   5   6
ENDBRANCH   4   5
ENDBRANCH   3   4
ENDBRANCH   2   3
ENDBRANCH   1   2
BRANCH   1   9
ATOM      9  C   UNL     1     -42.852  27.852  -0.283  1.00  0.00     0.000 C 
BRANCH   9  10
ATOM     10  C   UNL     1     -44.156  28.648  -0.428  1.00  0.00    -0.000 C 
BRANCH  10  11
ATOM     11  C   UNL     1     -45.225  27.825  -1.157  1.00  0.00    -0.000 C 
BRANCH  11  12
ATOM     12  C   UNL     1     -44.885  26.331  -1.127  1.00  0.00    -0.000 C 
BRANCH  12  13
ATOM     13  C   UNL     1     -45.608  25.580  -2.251  1.00  0.00    -0.003 C 
ATOM     14  C   UNL     1     -47.012  25.165  -1.823  1.00  0.00     0.004 C 
ENDBRANCH  12  13
ENDBRANCH  11  12
ENDBRANCH  10  11
ENDBRANCH   9  10
ENDBRANCH   1   9
TORSDOF 10
ENDMDL
MODEL 6
REMARK VINA RESULT:    -3.903      3.939      7.324
REMARK INTER + INTRA:          -6.870
REMARK INTER:                  -6.314
REMARK INTRA:                  -0.556
REMARK UNBOUND:                -0.686
REMARK SMILES CCCCCCCCCCCC(=O)[O-]
REMARK SMILES IDX 7 1 8 2 9 3 10 4 11 5 12 6 13 7 14 8 6 9 5 10 4 11 3 12 2 13
REMARK SMILES IDX 1 14
REMARK H PARENT
REMARK Flexibility Score: inf
ROOT
ATOM      1  C   UNL     1     -44.833  26.304  -1.266  1.00  0.00     0.000 C 
ENDROOT
BRANCH   1   2
ATOM      2  C   UNL     1     -45.833  25.699  -2.264  1.00  0.00     0.000 C 
BRANCH   2   3
ATOM      3  C   UNL     1     -46.480  26.759  -3.169  1.00  0.00     0.000 C 
BRANCH   3   4
ATOM      4  C   UNL     1     -46.186  26.468  -4.649  1.00  0.00     0.006 C 
BRANCH   4   5
ATOM      5  C   UNL     1     -46.392  27.703  -5.536  1.00  0.00     0.053 C 
BRANCH   5   6
ATOM      6  C   UNL     1     -45.560  27.640  -6.780  1.00  0.00     0.041 C 
ATOM      7  O   UNL     1     -45.103  28.696  -7.291  1.00  0.00    -0.550 OA
ATOM      8  O   UNL     1     -45.259  26.412  -7.356  1.00  0.00    -0.550 OA
ENDBRANCH   5   6
ENDBRANCH   4   5
ENDBRANCH   3   4
ENDBRANCH   2   3
ENDBRANCH   1   2
BRANCH   1   9
ATOM      9  C   UNL     1     -45.378  27.561  -0.570  1.00  0.00     0.000 C 
BRANCH   9  10
ATOM     10  C   UNL     1     -44.248  28.552  -0.263  1.00  0.00    -0.000 C 
BRANCH  10  11
ATOM     11  C   UNL     1     -42.937  27.816   0.039  1.00  0.00    -0.000 C 
BRANCH  11  12
ATOM     12  C   UNL     1     -42.909  27.312   1.486  1.00  0.00    -0.000 C 
BRANCH  12  13
ATOM     13  C   UNL     1     -43.241  28.441   2.468  1.00  0.00    -0.003 C 
ATOM     14  C   UNL     1     -44.104  27.933   3.620  1.00  0.00     0.004 C 
ENDBRANCH  12  13
ENDBRANCH  11  12
ENDBRANCH  10  11
ENDBRANCH   9  10
ENDBRANCH   1   9
TORSDOF 10
ENDMDL
MODEL 7
REMARK VINA RESULT:    -3.723      3.560      5.089
REMARK INTER + INTRA:          -6.585
REMARK INTER:                  -5.541
REMARK INTRA:                  -1.043
REMARK UNBOUND:                -0.686
REMARK SMILES CCCCCCCCCCCC(=O)[O-]
REMARK SMILES IDX 7 1 8 2 9 3 10 4 11 5 12 6 13 7 14 8 6 9 5 10 4 11 3 12 2 13
REMARK SMILES IDX 1 14
REMARK H PARENT
REMARK Flexibility Score: inf
ROOT
ATOM      1  C   UNL     1     -43.822  27.133   2.098  1.00  0.00     0.000 C 
ENDROOT
BRANCH   1   2
ATOM      2  C   UNL     1     -44.268  28.243   3.063  1.00  0.00     0.000 C 
BRANCH   2   3
ATOM      3  C   UNL     1     -43.108  29.153   3.495  1.00  0.00     0.000 C 
BRANCH   3   4
ATOM      4  C   UNL     1     -43.061  29.292   5.025  1.00  0.00     0.006 C 
BRANCH   4   5
ATOM      5  C   UNL     1     -43.454  27.992   5.739  1.00  0.00     0.053 C 
BRANCH   5   6
ATOM      6  C   UNL     1     -43.014  27.989   7.171  1.00  0.00     0.041 C 
ATOM      7  O   UNL     1     -41.927  28.531   7.500  1.00  0.00    -0.550 OA
ATOM      8  O   UNL     1     -43.822  27.419   8.147  1.00  0.00    -0.550 OA
ENDBRANCH   5   6
ENDBRANCH   4   5
ENDBRANCH   3   4
ENDBRANCH   2   3
ENDBRANCH   1   2
BRANCH   1   9
ATOM      9  C   UNL     1     -42.591  27.530   1.268  1.00  0.00     0.000 C 
BRANCH   9  10
ATOM     10  C   UNL     1     -42.991  27.889  -0.169  1.00  0.00    -0.000 C 
BRANCH  10  11
ATOM     11  C   UNL     1     -44.202  27.067  -0.626  1.00  0.00    -0.000 C 
BRANCH  11  12
ATOM     12  C   UNL     1     -45.293  27.972  -1.211  1.00  0.00    -0.000 C 
BRANCH  12  13
ATOM     13  C   UNL     1     -45.063  29.435  -0.816  1.00  0.00    -0.003 C 
ATOM     14  C   UNL     1     -46.087  29.895   0.217  1.00  0.00     0.004 C 
ENDBRANCH  12  13
ENDBRANCH  11  12
ENDBRANCH  10  11
ENDBRANCH   9  10
ENDBRANCH   1   9
TORSDOF 10
ENDMDL
MODEL 8
REMARK VINA RESULT:    -3.705      3.167      7.713
REMARK INTER + INTRA:          -6.557
REMARK INTER:                  -5.977
REMARK INTRA:                  -0.580
REMARK UNBOUND:                -0.686
REMARK SMILES CCCCCCCCCCCC(=O)[O-]
REMARK SMILES IDX 7 1 8 2 9 3 10 4 11 5 12 6 13 7 14 8 6 9 5 10 4 11 3 12 2 13
REMARK SMILES IDX 1 14
REMARK H PARENT
REMARK Flexibility Score: inf
ROOT
ATOM      1  C   UNL     1     -42.910  27.413   1.589  1.00  0.00     0.000 C 
ENDROOT
BRANCH   1   2
ATOM      2  C   UNL     1     -42.881  27.800   0.102  1.00  0.00     0.000 C 
BRANCH   2   3
ATOM      3  C   UNL     1     -44.045  28.722  -0.293  1.00  0.00     0.000 C 
BRANCH   3   4
ATOM      4  C   UNL     1     -45.113  27.949  -1.083  1.00  0.00     0.006 C 
BRANCH   4   5
ATOM      5  C   UNL     1     -44.797  26.450  -1.175  1.00  0.00     0.053 C 
BRANCH   5   6
ATOM      6  C   UNL     1     -45.779  25.727  -2.045  1.00  0.00     0.041 C 
ATOM      7  O   UNL     1     -46.386  24.714  -1.608  1.00  0.00    -0.550 OA
ATOM      8  O   UNL     1     -46.051  26.192  -3.325  1.00  0.00    -0.550 OA
ENDBRANCH   5   6
ENDBRANCH   4   5
ENDBRANCH   3   4
ENDBRANCH   2   3
ENDBRANCH   1   2
BRANCH   1   9
ATOM      9  C   UNL     1     -43.799  28.347   2.426  1.00  0.00     0.000 C 
BRANCH   9  10
ATOM     10  C   UNL     1     -42.947  29.322   3.249  1.00  0.00    -0.000 C 
BRANCH  10  11
ATOM     11  C   UNL     1     -43.240  29.179   4.747  1.00  0.00    -0.000 C 
BRANCH  11  12
ATOM     12  C   UNL     1     -44.137  27.966   5.020  1.00  0.00    -0.000 C 
BRANCH  12  13
ATOM     13  C   UNL     1     -43.811  27.336   6.379  1.00  0.00    -0.003 C 
ATOM     14  C   UNL     1     -42.612  28.019   7.031  1.00  0.00     0.004 C 
ENDBRANCH  12  13
ENDBRANCH  11  12
ENDBRANCH  10  11
ENDBRANCH   9  10
ENDBRANCH   1   9
TORSDOF 10
ENDMDL
MODEL 9
REMARK VINA RESULT:    -3.699      3.677      6.548
REMARK INTER + INTRA:          -6.547
REMARK INTER:                  -5.802
REMARK INTRA:                  -0.745
REMARK UNBOUND:                -0.686
REMARK SMILES CCCCCCCCCCCC(=O)[O-]
REMARK SMILES IDX 7 1 8 2 9 3 10 4 11 5 12 6 13 7 14 8 6 9 5 10 4 11 3 12 2 13
REMARK SMILES IDX 1 14
REMARK H PARENT
REMARK Flexibility Score: inf
ROOT
ATOM      1  C   UNL     1     -44.986  27.404   4.199  1.00  0.00     0.000 C 
ENDROOT
BRANCH   1   2
ATOM      2  C   UNL     1     -46.120  27.538   5.228  1.00  0.00     0.000 C 
BRANCH   2   3
ATOM      3  C   UNL     1     -45.690  27.116   6.641  1.00  0.00     0.000 C 
BRANCH   3   4
ATOM      4  C   UNL     1     -45.106  28.308   7.416  1.00  0.00     0.006 C 
BRANCH   4   5
ATOM      5  C   UNL     1     -43.842  27.930   8.199  1.00  0.00     0.053 C 
BRANCH   5   6
ATOM      6  C   UNL     1     -42.602  28.444   7.534  1.00  0.00     0.041 C 
ATOM      7  O   UNL     1     -42.236  27.974   6.425  1.00  0.00    -0.550 OA
ATOM      8  O   UNL     1     -41.869  29.467   8.122  1.00  0.00    -0.550 OA
ENDBRANCH   5   6
ENDBRANCH   4   5
ENDBRANCH   3   4
ENDBRANCH   2   3
ENDBRANCH   1   2
BRANCH   1   9
ATOM      9  C   UNL     1     -44.527  28.761   3.645  1.00  0.00     0.000 C 
BRANCH   9  10
ATOM     10  C   UNL     1     -43.167  28.636   2.945  1.00  0.00    -0.000 C 
BRANCH  10  11
ATOM     11  C   UNL     1     -43.166  27.473   1.946  1.00  0.00    -0.000 C 
BRANCH  11  12
ATOM     12  C   UNL     1     -42.564  27.901   0.603  1.00  0.00    -0.000 C 
BRANCH  12  13
ATOM     13  C   UNL     1     -43.664  28.181  -0.428  1.00  0.00    -0.003 C 
ATOM     14  C   UNL     1     -44.472  26.922  -0.728  1.00  0.00     0.004 C 
ENDBRANCH  12  13
ENDBRANCH  11  12
ENDBRANCH  10  11
ENDBRANCH   9  10
ENDBRANCH   1   9
TORSDOF 10
ENDMDL
