MODEL 1
REMARK VINA RESULT:    -2.744      0.000      0.000
REMARK INTER + INTRA:          -3.084
REMARK INTER:                  -2.984
REMARK INTRA:                  -0.099
REMARK UNBOUND:                -0.099
REMARK SMILES C[C@@H]1[C@@H](C)CC[C@@]2(C(=O)[O-])CC[C@]3(C)C(=CC[C@H]4[C@]5(C)CC[C@H](O)C(C)(C)[C@H]5CC[C@]43C)[C@@H]12
REMARK SMILES IDX 7 1 6 2 11 3 33 4 5 5 12 6 15 7 2 8 3 9 13 10 16 11 1 12
REMARK SMILES IDX 4 13 14 14 31 15 17 16 18 17 30 18 32 19 19 20 29 21 28 22
REMARK SMILES IDX 21 23 20 24 25 25 22 26 23 27 26 28 27 29 8 30 9 31 10 32
REMARK SMILES IDX 24 33
REMARK H PARENT 24 34
REMARK Flexibility Score: inf
ROOT
ATOM      1  C   UNL     1     -13.022  53.624   4.958  1.00  0.00     0.017 C 
ATOM      2  C   UNL     1     -13.094  54.519   3.693  1.00  0.00     0.014 C 
ATOM      3  C   UNL     1     -14.060  52.466   4.751  1.00  0.00     0.014 C 
ATOM      4  C   UNL     1     -11.561  53.050   5.151  1.00  0.00     0.030 C 
ATOM      5  C   UNL     1     -12.035  55.618   3.690  1.00  0.00     0.004 C 
ATOM      6  C   UNL     1     -13.812  51.198   5.606  1.00  0.00     0.013 C 
ATOM      7  C   UNL     1     -11.519  51.581   4.706  1.00  0.00    -0.063 C 
ATOM      8  C   UNL     1     -10.336  53.950   4.693  1.00  0.00    -0.003 C 
ATOM      9  C   UNL     1     -10.622  55.038   3.600  1.00  0.00    -0.011 C 
ATOM     10  C   UNL     1     -12.337  50.600   5.557  1.00  0.00    -0.006 C 
ATOM     11  C   UNL     1     -11.267  51.313   3.421  1.00  0.00    -0.027 C 
ATOM     12  C   UNL     1      -9.687  54.634   5.919  1.00  0.00     0.008 C 
ATOM     13  C   UNL     1     -10.270  54.600   2.165  1.00  0.00     0.008 C 
ATOM     14  C   UNL     1     -11.743  50.608   7.011  1.00  0.00     0.017 C 
ATOM     15  C   UNL     1     -12.304  49.077   5.009  1.00  0.00    -0.020 C 
ATOM     16  C   UNL     1     -11.500  49.999   2.767  1.00  0.00     0.032 C 
ATOM     17  C   UNL     1     -12.537  49.036   3.438  1.00  0.00     0.006 C 
ATOM     18  C   UNL     1     -10.901  48.397   5.270  1.00  0.00     0.008 C 
ATOM     19  C   UNL     1     -13.406  48.285   5.821  1.00  0.00     0.012 C 
ATOM     20  C   UNL     1     -12.489  47.556   2.751  1.00  0.00    -0.025 C 
ATOM     21  C   UNL     1     -10.581  47.129   4.415  1.00  0.00     0.005 C 
ATOM     22  C   UNL     1     -11.838  46.526   3.742  1.00  0.00     0.003 C 
ATOM     23  C   UNL     1     -13.925  47.039   2.430  1.00  0.00     0.010 C 
ATOM     24  C   UNL     1     -11.733  47.601   1.375  1.00  0.00     0.012 C 
ATOM     25  C   UNL     1     -11.785  45.016   3.281  1.00  0.00    -0.006 C 
ATOM     26  C   UNL     1     -13.960  45.572   1.932  1.00  0.00     0.033 C 
ATOM     27  C   UNL     1     -13.244  44.578   2.874  1.00  0.00     0.120 C 
ATOM     28  C   UNL     1     -11.333  44.120   4.473  1.00  0.00     0.014 C 
ATOM     29  C   UNL     1     -10.782  44.738   2.125  1.00  0.00     0.014 C 
ENDROOT
BRANCH   1  30
ATOM     30  C   UNL     1     -13.461  54.415   6.195  1.00  0.00     0.048 C 
ATOM     31  O   UNL     1     -13.138  54.036   7.353  1.00  0.00    -0.550 OA
ATOM     32  O   UNL     1     -14.125  55.628   6.060  1.00  0.00    -0.550 OA
ENDBRANCH   1  30
BRANCH  27  33
ATOM     33  O   UNL     1     -14.052  44.424   4.019  1.00  0.00    -0.393 OA
ATOM     34  H   UNL     1     -13.755  43.602   4.489  1.00  0.00     0.210 HD
ENDBRANCH  27  33
TORSDOF 2
ENDMDL
MODEL 2
REMARK VINA RESULT:    -2.094      1.490      7.881
REMARK INTER + INTRA:          -2.377
REMARK INTER:                  -2.724
REMARK INTRA:                   0.347
REMARK UNBOUND:                -0.099
REMARK SMILES C[C@@H]1[C@@H](C)CC[C@@]2(C(=O)[O-])CC[C@]3(C)C(=CC[C@H]4[C@]5(C)CC[C@H](O)C(C)(C)[C@H]5CC[C@]43C)[C@@H]12
REMARK SMILES IDX 7 1 6 2 11 3 33 4 5 5 12 6 15 7 2 8 3 9 13 10 16 11 1 12
REMARK SMILES IDX 4 13 14 14 31 15 17 16 18 17 30 18 32 19 19 20 29 21 28 22
REMARK SMILES IDX 21 23 20 24 25 25 22 26 23 27 26 28 27 29 8 30 9 31 10 32
REMARK SMILES IDX 24 33
REMARK H PARENT 24 34
REMARK Flexibility Score: inf
ROOT
ATOM      1  C   UNL     1     -11.117  46.848   4.841  1.00  0.00     0.017 C 
ATOM      2  C   UNL     1     -10.165  46.394   3.703  1.00  0.00     0.014 C 
ATOM      3  C   UNL     1     -10.403  48.036   5.578  1.00  0.00     0.014 C 
ATOM      4  C   UNL     1     -12.512  47.303   4.251  1.00  0.00     0.030 C 
ATOM      5  C   UNL     1     -10.789  45.328   2.807  1.00  0.00     0.004 C 
ATOM      6  C   UNL     1     -11.341  48.969   6.385  1.00  0.00     0.013 C 
ATOM      7  C   UNL     1     -12.593  48.836   4.234  1.00  0.00    -0.063 C 
ATOM      8  C   UNL     1     -13.053  46.564   2.955  1.00  0.00    -0.003 C 
ATOM      9  C   UNL     1     -11.988  45.877   2.030  1.00  0.00    -0.011 C 
ATOM     10  C   UNL     1     -12.616  49.521   5.607  1.00  0.00    -0.006 C 
ATOM     11  C   UNL     1     -12.126  49.485   3.163  1.00  0.00    -0.027 C 
ATOM     12  C   UNL     1     -14.125  45.519   3.342  1.00  0.00     0.008 C 
ATOM     13  C   UNL     1     -11.552  46.732   0.825  1.00  0.00     0.008 C 
ATOM     14  C   UNL     1     -13.909  49.047   6.363  1.00  0.00     0.017 C 
ATOM     15  C   UNL     1     -12.643  51.138   5.530  1.00  0.00    -0.020 C 
ATOM     16  C   UNL     1     -11.837  50.942   3.114  1.00  0.00     0.032 C 
ATOM     17  C   UNL     1     -11.579  51.670   4.476  1.00  0.00     0.006 C 
ATOM     18  C   UNL     1     -14.051  51.673   5.052  1.00  0.00     0.008 C 
ATOM     19  C   UNL     1     -12.377  51.661   6.998  1.00  0.00     0.012 C 
ATOM     20  C   UNL     1     -11.531  53.289   4.273  1.00  0.00    -0.025 C 
ATOM     21  C   UNL     1     -14.083  53.136   4.507  1.00  0.00     0.005 C 
ATOM     22  C   UNL     1     -12.820  53.945   4.886  1.00  0.00     0.003 C 
ATOM     23  C   UNL     1     -10.304  53.912   5.008  1.00  0.00     0.010 C 
ATOM     24  C   UNL     1     -11.353  53.659   2.757  1.00  0.00     0.012 C 
ATOM     25  C   UNL     1     -12.908  55.522   4.860  1.00  0.00    -0.006 C 
ATOM     26  C   UNL     1     -10.293  55.461   4.997  1.00  0.00     0.033 C 
ATOM     27  C   UNL     1     -11.599  56.097   5.525  1.00  0.00     0.120 C 
ATOM     28  C   UNL     1     -14.123  55.993   5.716  1.00  0.00     0.014 C 
ATOM     29  C   UNL     1     -13.118  56.124   3.442  1.00  0.00     0.014 C 
ENDROOT
BRANCH   1  30
ATOM     30  C   UNL     1     -11.301  45.722   5.862  1.00  0.00     0.048 C 
ATOM     31  O   UNL     1     -11.036  45.904   7.081  1.00  0.00    -0.550 OA
ATOM     32  O   UNL     1     -11.872  44.512   5.486  1.00  0.00    -0.550 OA
ENDBRANCH   1  30
BRANCH  27  33
ATOM     33  O   UNL     1     -11.628  55.904   6.921  1.00  0.00    -0.393 OA
ATOM     34  H   UNL     1     -12.378  56.443   7.285  1.00  0.00     0.210 HD
ENDBRANCH  27  33
TORSDOF 2
ENDMDL
MODEL 3
REMARK VINA RESULT:    -0.502      3.235      6.122
REMARK INTER + INTRA:          -0.646
REMARK INTER:                  -0.878
REMARK INTRA:                   0.232
REMARK UNBOUND:                -0.099
REMARK SMILES C[C@@H]1[C@@H](C)CC[C@@]2(C(=O)[O-])CC[C@]3(C)C(=CC[C@H]4[C@]5(C)CC[C@H](O)C(C)(C)[C@H]5CC[C@]43C)[C@@H]12
REMARK SMILES IDX 7 1 6 2 11 3 33 4 5 5 12 6 15 7 2 8 3 9 13 10 16 11 1 12
REMARK SMILES IDX 4 13 14 14 31 15 17 16 18 17 30 18 32 19 19 20 29 21 28 22
REMARK SMILES IDX 21 23 20 24 25 25 22 26 23 27 26 28 27 29 8 30 9 31 10 32
REMARK SMILES IDX 24 33
REMARK H PARENT 24 34
REMARK Flexibility Score: inf
ROOT
ATOM      1  C   UNL     1     -11.191  48.647   4.524  1.00  0.00     0.017 C 
ATOM      2  C   UNL     1     -10.165  48.871   5.666  1.00  0.00     0.014 C 
ATOM      3  C   UNL     1     -10.452  47.823   3.411  1.00  0.00     0.014 C 
ATOM      4  C   UNL     1     -12.459  47.868   5.060  1.00  0.00     0.030 C 
ATOM      5  C   UNL     1     -10.785  49.545   6.887  1.00  0.00     0.004 C 
ATOM      6  C   UNL     1     -11.379  47.051   2.439  1.00  0.00     0.013 C 
ATOM      7  C   UNL     1     -12.386  46.397   4.623  1.00  0.00    -0.063 C 
ATOM      8  C   UNL     1     -12.919  48.126   6.557  1.00  0.00    -0.003 C 
ATOM      9  C   UNL     1     -11.829  48.648   7.557  1.00  0.00    -0.011 C 
ATOM     10  C   UNL     1     -12.497  46.141   3.114  1.00  0.00    -0.006 C 
ATOM     11  C   UNL     1     -11.739  45.532   5.410  1.00  0.00    -0.027 C 
ATOM     12  C   UNL     1     -14.125  49.094   6.586  1.00  0.00     0.008 C 
ATOM     13  C   UNL     1     -11.176  47.544   8.412  1.00  0.00     0.008 C 
ATOM     14  C   UNL     1     -13.908  46.643   2.640  1.00  0.00     0.017 C 
ATOM     15  C   UNL     1     -12.357  44.580   2.706  1.00  0.00    -0.020 C 
ATOM     16  C   UNL     1     -11.305  44.172   4.998  1.00  0.00     0.032 C 
ATOM     17  C   UNL     1     -11.133  43.906   3.464  1.00  0.00     0.006 C 
ATOM     18  C   UNL     1     -13.642  43.755   3.112  1.00  0.00     0.008 C 
ATOM     19  C   UNL     1     -12.209  44.540   1.132  1.00  0.00     0.012 C 
ATOM     20  C   UNL     1     -10.903  42.318   3.168  1.00  0.00    -0.025 C 
ATOM     21  C   UNL     1     -13.468  42.206   3.195  1.00  0.00     0.005 C 
ATOM     22  C   UNL     1     -12.182  41.707   2.491  1.00  0.00     0.003 C 
ATOM     23  C   UNL     1      -9.713  42.095   2.185  1.00  0.00     0.010 C 
ATOM     24  C   UNL     1     -10.519  41.552   4.485  1.00  0.00     0.012 C 
ATOM     25  C   UNL     1     -12.112  40.192   2.051  1.00  0.00    -0.006 C 
ATOM     26  C   UNL     1      -9.549  40.623   1.732  1.00  0.00     0.033 C 
ATOM     27  C   UNL     1     -10.837  40.005   1.143  1.00  0.00     0.120 C 
ATOM     28  C   UNL     1     -13.365  39.837   1.193  1.00  0.00     0.014 C 
ATOM     29  C   UNL     1     -12.099  39.185   3.236  1.00  0.00     0.014 C 
ENDROOT
BRANCH   1  30
ATOM     30  C   UNL     1     -11.600  49.987   3.905  1.00  0.00     0.048 C 
ATOM     31  O   UNL     1     -12.284  50.820   4.559  1.00  0.00    -0.550 OA
ATOM     32  O   UNL     1     -11.128  50.361   2.653  1.00  0.00    -0.550 OA
ENDBRANCH   1  30
BRANCH  27  33
ATOM     33  O   UNL     1     -11.043  40.587  -0.125  1.00  0.00    -0.393 OA
ATOM     34  H   UNL     1     -12.023  40.659  -0.268  1.00  0.00     0.210 HD
ENDBRANCH  27  33
TORSDOF 2
ENDMDL
MODEL 4
REMARK VINA RESULT:     0.082      2.275      9.006
REMARK INTER + INTRA:          -0.009
REMARK INTER:                   0.047
REMARK INTRA:                  -0.056
REMARK UNBOUND:                -0.099
REMARK SMILES C[C@@H]1[C@@H](C)CC[C@@]2(C(=O)[O-])CC[C@]3(C)C(=CC[C@H]4[C@]5(C)CC[C@H](O)C(C)(C)[C@H]5CC[C@]43C)[C@@H]12
REMARK SMILES IDX 7 1 6 2 11 3 33 4 5 5 12 6 15 7 2 8 3 9 13 10 16 11 1 12
REMARK SMILES IDX 4 13 14 14 31 15 17 16 18 17 30 18 32 19 19 20 29 21 28 22
REMARK SMILES IDX 21 23 20 24 25 25 22 26 23 27 26 28 27 29 8 30 9 31 10 32
REMARK SMILES IDX 24 33
REMARK H PARENT 24 34
REMARK Flexibility Score: inf
ROOT
ATOM      1  C   UNL     1     -13.072  42.594   5.096  1.00  0.00     0.017 C 
ATOM      2  C   UNL     1     -13.211  41.892   6.473  1.00  0.00     0.014 C 
ATOM      3  C   UNL     1     -14.114  43.767   5.081  1.00  0.00     0.014 C 
ATOM      4  C   UNL     1     -11.601  43.138   4.895  1.00  0.00     0.030 C 
ATOM      5  C   UNL     1     -12.159  40.808   6.688  1.00  0.00     0.004 C 
ATOM      6  C   UNL     1     -13.818  44.898   4.064  1.00  0.00     0.013 C 
ATOM      7  C   UNL     1     -11.575  44.657   5.124  1.00  0.00    -0.063 C 
ATOM      8  C   UNL     1     -10.404  42.318   5.539  1.00  0.00    -0.003 C 
ATOM      9  C   UNL     1     -10.749  41.400   6.764  1.00  0.00    -0.011 C 
ATOM     10  C   UNL     1     -12.345  45.501   4.099  1.00  0.00    -0.006 C 
ATOM     11  C   UNL     1     -11.386  45.109   6.366  1.00  0.00    -0.027 C 
ATOM     12  C   UNL     1      -9.698  41.465   4.460  1.00  0.00     0.008 C 
ATOM     13  C   UNL     1     -10.466  42.043   8.136  1.00  0.00     0.008 C 
ATOM     14  C   UNL     1     -11.680  45.283   2.693  1.00  0.00     0.017 C 
ATOM     15  C   UNL     1     -12.333  47.088   4.421  1.00  0.00    -0.020 C 
ATOM     16  C   UNL     1     -11.645  46.503   6.810  1.00  0.00     0.032 C 
ATOM     17  C   UNL     1     -12.643  47.355   5.956  1.00  0.00     0.006 C 
ATOM     18  C   UNL     1     -10.916  47.727   4.134  1.00  0.00     0.008 C 
ATOM     19  C   UNL     1     -13.390  47.750   3.449  1.00  0.00     0.012 C 
ATOM     20  C   UNL     1     -12.624  48.920   6.422  1.00  0.00    -0.025 C 
ATOM     21  C   UNL     1     -10.633  49.106   4.811  1.00  0.00     0.005 C 
ATOM     22  C   UNL     1     -11.919  49.797   5.326  1.00  0.00     0.003 C 
ATOM     23  C   UNL     1     -14.072  49.474   6.593  1.00  0.00     0.010 C 
ATOM     24  C   UNL     1     -11.937  49.078   7.826  1.00  0.00     0.012 C 
ATOM     25  C   UNL     1     -11.883  51.358   5.565  1.00  0.00    -0.006 C 
ATOM     26  C   UNL     1     -14.125  50.997   6.869  1.00  0.00     0.033 C 
ATOM     27  C   UNL     1     -13.358  51.847   5.830  1.00  0.00     0.120 C 
ATOM     28  C   UNL     1     -11.368  52.073   4.278  1.00  0.00     0.014 C 
ATOM     29  C   UNL     1     -10.937  51.804   6.716  1.00  0.00     0.014 C 
ENDROOT
BRANCH   1  30
ATOM     30  C   UNL     1     -13.452  41.630   3.968  1.00  0.00     0.048 C 
ATOM     31  O   UNL     1     -13.115  41.865   2.775  1.00  0.00    -0.550 OA
ATOM     32  O   UNL     1     -14.077  40.422   4.250  1.00  0.00    -0.550 OA
ENDBRANCH   1  30
BRANCH  27  33
ATOM     33  O   UNL     1     -14.108  51.830   4.636  1.00  0.00    -0.393 OA
ATOM     34  H   UNL     1     -14.991  52.239   4.829  1.00  0.00     0.210 HD
ENDBRANCH  27  33
TORSDOF 2
ENDMDL
