MODEL 1
REMARK VINA RESULT:    -7.048      0.000      0.000
REMARK INTER + INTRA:         -13.815
REMARK INTER:                 -11.580
REMARK INTRA:                  -2.235
REMARK UNBOUND:                -2.235
REMARK SMILES C[C@H]1O[C@@H](OC[C@H]2O[C@H](Oc3c(-c4ccc(O)c(O)c4)oc4cc(O)cc(O)c4c3=O)[C@H](O)[C@@H](O)[C@@H]2O)[C@@H](O)[C@@H](O)[C@@H]1O
REMARK SMILES IDX 7 1 36 2 34 3 32 4 9 5 8 6 6 7 5 8 4 9 1 10 2 11 42 12 3 13
REMARK SMILES IDX 40 14 38 15 43 16 41 18 39 20 37 22 35 24 10 26 11 27 12 28
REMARK SMILES IDX 30 29 21 30 29 31 31 32 22 33 27 34 23 35 26 36 24 37 13 38
REMARK SMILES IDX 20 39 14 40 18 41 15 42 16 43 19 44 17 46 28 48 25 50 33 52
REMARK H PARENT 43 17 41 19 39 21 37 23 35 25 19 45 17 47 28 49 25 51 33 53
REMARK Flexibility Score: inf
ROOT
ATOM      1  C   UNL     1     -39.381   4.324  80.591  1.00  0.00     0.180 C 
ATOM      2  C   UNL     1     -40.596   3.373  80.425  1.00  0.00     0.177 C 
ATOM      3  C   UNL     1     -40.953   3.330  78.929  1.00  0.00     0.180 C 
ATOM      4  C   UNL     1     -39.725   2.910  78.103  1.00  0.00     0.214 C 
ATOM      5  C   UNL     1     -38.451   3.686  78.518  1.00  0.00     0.339 C 
ATOM      6  O   UNL     1     -38.258   3.750  79.926  1.00  0.00    -0.332 OA
ENDROOT
BRANCH   1   7
ATOM      7  C   UNL     1     -38.978   4.554  82.060  1.00  0.00     0.198 C 
BRANCH   7   8
ATOM      8  O   UNL     1     -37.568   4.679  82.192  1.00  0.00    -0.347 OA
BRANCH   8   9
ATOM      9  C   UNL     1     -37.127   4.763  83.548  1.00  0.00     0.281 C 
ATOM     10  C   UNL     1     -36.862   7.511  81.996  1.00  0.00     0.041 C 
ATOM     11  C   UNL     1     -36.042   6.809  83.083  1.00  0.00     0.150 C 
ATOM     12  C   UNL     1     -34.795   6.042  82.503  1.00  0.00     0.174 C 
ATOM     13  O   UNL     1     -36.905   6.087  83.950  1.00  0.00    -0.344 OA
ATOM     14  C   UNL     1     -34.767   4.496  82.678  1.00  0.00     0.179 C 
ATOM     15  C   UNL     1     -35.810   4.010  83.721  1.00  0.00     0.202 C 
BRANCH  12  16
ATOM     16  O   UNL     1     -33.627   6.577  83.060  1.00  0.00    -0.388 OA
ATOM     17  H   UNL     1     -33.049   5.817  83.338  1.00  0.00     0.211 HD
ENDBRANCH  12  16
BRANCH  14  18
ATOM     18  O   UNL     1     -34.879   3.889  81.410  1.00  0.00    -0.387 OA
ATOM     19  H   UNL     1     -34.349   4.389  80.734  1.00  0.00     0.211 HD
ENDBRANCH  14  18
BRANCH  15  20
ATOM     20  O   UNL     1     -36.069   2.626  83.673  1.00  0.00    -0.385 OA
ATOM     21  H   UNL     1     -36.633   2.466  82.865  1.00  0.00     0.211 HD
ENDBRANCH  15  20
ENDBRANCH   8   9
ENDBRANCH   7   8
ENDBRANCH   1   7
BRANCH   2  22
ATOM     22  O   UNL     1     -41.718   3.838  81.147  1.00  0.00    -0.387 OA
ATOM     23  H   UNL     1     -42.086   3.089  81.663  1.00  0.00     0.211 HD
ENDBRANCH   2  22
BRANCH   3  24
ATOM     24  O   UNL     1     -41.995   2.401  78.727  1.00  0.00    -0.387 OA
ATOM     25  H   UNL     1     -42.025   2.188  77.760  1.00  0.00     0.211 HD
ENDBRANCH   3  24
BRANCH   5  26
ATOM     26  O   UNL     1     -38.421   4.995  77.914  1.00  0.00    -0.454 OA
BRANCH  26  27
ATOM     27  C   UNL     1     -37.451   5.955  78.259  1.00  0.00     0.214 A 
ATOM     28  C   UNL     1     -37.785   7.324  78.295  1.00  0.00     0.180 A 
ATOM     29  C   UNL     1     -36.122   5.576  78.538  1.00  0.00     0.239 A 
ATOM     30  O   UNL     1     -36.834   8.246  78.487  1.00  0.00    -0.452 OA
ATOM     31  C   UNL     1     -35.153   6.580  78.774  1.00  0.00     0.111 A 
ATOM     32  O   UNL     1     -35.817   4.352  78.598  1.00  0.00    -0.285 OA
ATOM     33  C   UNL     1     -35.561   7.932  78.713  1.00  0.00     0.146 A 
ATOM     34  C   UNL     1     -33.799   6.285  79.079  1.00  0.00     0.134 A 
ATOM     35  C   UNL     1     -34.630   8.963  78.891  1.00  0.00     0.094 A 
ATOM     36  C   UNL     1     -32.876   7.332  79.244  1.00  0.00     0.093 A 
ATOM     37  C   UNL     1     -33.291   8.668  79.124  1.00  0.00     0.123 A 
BRANCH  28  38
ATOM     38  C   UNL     1     -39.173   7.792  78.085  1.00  0.00     0.025 A 
ATOM     39  C   UNL     1     -39.565   8.436  76.885  1.00  0.00     0.062 A 
ATOM     40  C   UNL     1     -40.145   7.519  79.058  1.00  0.00     0.016 A 
ATOM     41  C   UNL     1     -40.894   8.834  76.691  1.00  0.00     0.158 A 
ATOM     42  C   UNL     1     -41.469   7.945  78.882  1.00  0.00     0.051 A 
ATOM     43  C   UNL     1     -41.849   8.597  77.698  1.00  0.00     0.157 A 
BRANCH  41  44
ATOM     44  O   UNL     1     -41.260   9.446  75.484  1.00  0.00    -0.504 OA
ATOM     45  H   UNL     1     -40.764  10.255  75.122  1.00  0.00     0.293 HD
ENDBRANCH  41  44
BRANCH  43  46
ATOM     46  O   UNL     1     -43.181   8.967  77.509  1.00  0.00    -0.504 OA
ATOM     47  H   UNL     1     -43.532   9.869  77.812  1.00  0.00     0.293 HD
ENDBRANCH  43  46
ENDBRANCH  28  38
BRANCH  34  48
ATOM     48  O   UNL     1     -33.366   4.972  79.191  1.00  0.00    -0.507 OA
ATOM     49  H   UNL     1     -32.468   4.695  78.815  1.00  0.00     0.293 HD
ENDBRANCH  34  48
BRANCH  37  50
ATOM     50  O   UNL     1     -32.370   9.718  79.231  1.00  0.00    -0.508 OA
ATOM     51  H   UNL     1     -32.076  10.060  80.143  1.00  0.00     0.293 HD
ENDBRANCH  37  50
ENDBRANCH  26  27
ENDBRANCH   5  26
BRANCH   4  52
ATOM     52  O   UNL     1     -39.983   3.128  76.742  1.00  0.00    -0.384 OA
ATOM     53  H   UNL     1     -40.943   2.924  76.578  1.00  0.00     0.211 HD
ENDBRANCH   4  52
TORSDOF 16
ENDMDL
MODEL 2
REMARK VINA RESULT:    -6.501      2.041      4.701
REMARK INTER + INTRA:         -12.916
REMARK INTER:                 -11.409
REMARK INTRA:                  -1.507
REMARK UNBOUND:                -2.235
REMARK SMILES C[C@H]1O[C@@H](OC[C@H]2O[C@H](Oc3c(-c4ccc(O)c(O)c4)oc4cc(O)cc(O)c4c3=O)[C@H](O)[C@@H](O)[C@@H]2O)[C@@H](O)[C@@H](O)[C@@H]1O
REMARK SMILES IDX 7 1 36 2 34 3 32 4 9 5 8 6 6 7 5 8 4 9 1 10 2 11 42 12 3 13
REMARK SMILES IDX 40 14 38 15 43 16 41 18 39 20 37 22 35 24 10 26 11 27 12 28
REMARK SMILES IDX 30 29 21 30 29 31 31 32 22 33 27 34 23 35 26 36 24 37 13 38
REMARK SMILES IDX 20 39 14 40 18 41 15 42 16 43 19 44 17 46 28 48 25 50 33 52
REMARK H PARENT 43 17 41 19 39 21 37 23 35 25 19 45 17 47 28 49 25 51 33 53
REMARK Flexibility Score: inf
ROOT
ATOM      1  C   UNL     1     -38.383   7.790  79.082  1.00  0.00     0.180 C 
ATOM      2  C   UNL     1     -38.369   9.150  78.334  1.00  0.00     0.177 C 
ATOM      3  C   UNL     1     -38.201   8.854  76.833  1.00  0.00     0.180 C 
ATOM      4  C   UNL     1     -39.307   7.899  76.354  1.00  0.00     0.214 C 
ATOM      5  C   UNL     1     -39.491   6.695  77.310  1.00  0.00     0.339 C 
ATOM      6  O   UNL     1     -39.542   7.061  78.684  1.00  0.00    -0.332 OA
ENDROOT
BRANCH   1   7
ATOM      7  C   UNL     1     -38.434   7.934  80.615  1.00  0.00     0.198 C 
BRANCH   7   8
ATOM      8  O   UNL     1     -37.138   8.164  81.152  1.00  0.00    -0.347 OA
BRANCH   8   9
ATOM      9  C   UNL     1     -37.063   9.323  81.984  1.00  0.00     0.281 C 
ATOM     10  C   UNL     1     -34.444   8.876  80.259  1.00  0.00     0.041 C 
ATOM     11  C   UNL     1     -34.724   9.418  81.665  1.00  0.00     0.150 C 
ATOM     12  C   UNL     1     -34.504   8.336  82.788  1.00  0.00     0.174 C 
ATOM     13  O   UNL     1     -35.956  10.125  81.675  1.00  0.00    -0.344 OA
ATOM     14  C   UNL     1     -35.747   7.918  83.626  1.00  0.00     0.179 C 
ATOM     15  C   UNL     1     -36.928   8.911  83.449  1.00  0.00     0.202 C 
BRANCH  12  16
ATOM     16  O   UNL     1     -33.503   8.778  83.662  1.00  0.00    -0.388 OA
ATOM     17  H   UNL     1     -32.670   8.280  83.446  1.00  0.00     0.211 HD
ENDBRANCH  12  16
BRANCH  14  18
ATOM     18  O   UNL     1     -36.063   6.574  83.339  1.00  0.00    -0.387 OA
ATOM     19  H   UNL     1     -35.500   6.234  82.593  1.00  0.00     0.211 HD
ENDBRANCH  14  18
BRANCH  15  20
ATOM     20  O   UNL     1     -38.169   8.414  83.896  1.00  0.00    -0.385 OA
ATOM     21  H   UNL     1     -38.045   7.437  84.061  1.00  0.00     0.211 HD
ENDBRANCH  15  20
ENDBRANCH   8   9
ENDBRANCH   7   8
ENDBRANCH   1   7
BRANCH   2  22
ATOM     22  O   UNL     1     -37.295   9.962  78.760  1.00  0.00    -0.387 OA
ATOM     23  H   UNL     1     -36.474   9.642  78.327  1.00  0.00     0.211 HD
ENDBRANCH   2  22
BRANCH   3  24
ATOM     24  O   UNL     1     -38.279  10.063  76.111  1.00  0.00    -0.387 OA
ATOM     25  H   UNL     1     -37.528  10.638  76.406  1.00  0.00     0.211 HD
ENDBRANCH   3  24
BRANCH   5  26
ATOM     26  O   UNL     1     -38.496   5.681  77.064  1.00  0.00    -0.454 OA
BRANCH  26  27
ATOM     27  C   UNL     1     -37.705   5.144  78.097  1.00  0.00     0.214 A 
ATOM     28  C   UNL     1     -38.270   4.268  79.046  1.00  0.00     0.180 A 
ATOM     29  C   UNL     1     -36.346   5.495  78.228  1.00  0.00     0.239 A 
ATOM     30  O   UNL     1     -37.557   3.866  80.104  1.00  0.00    -0.452 OA
ATOM     31  C   UNL     1     -35.614   5.020  79.342  1.00  0.00     0.111 A 
ATOM     32  O   UNL     1     -35.793   6.208  77.344  1.00  0.00    -0.285 OA
ATOM     33  C   UNL     1     -36.284   4.209  80.287  1.00  0.00     0.146 A 
ATOM     34  C   UNL     1     -34.240   5.312  79.541  1.00  0.00     0.134 A 
ATOM     35  C   UNL     1     -35.617   3.753  81.430  1.00  0.00     0.094 A 
ATOM     36  C   UNL     1     -33.589   4.856  80.699  1.00  0.00     0.093 A 
ATOM     37  C   UNL     1     -34.288   4.099  81.654  1.00  0.00     0.123 A 
BRANCH  28  38
ATOM     38  C   UNL     1     -39.669   3.796  78.933  1.00  0.00     0.025 A 
ATOM     39  C   UNL     1     -40.187   3.296  77.712  1.00  0.00     0.062 A 
ATOM     40  C   UNL     1     -40.478   3.762  80.078  1.00  0.00     0.016 A 
ATOM     41  C   UNL     1     -41.501   2.816  77.639  1.00  0.00     0.158 A 
ATOM     42  C   UNL     1     -41.803   3.313  80.001  1.00  0.00     0.051 A 
ATOM     43  C   UNL     1     -42.317   2.835  78.785  1.00  0.00     0.157 A 
BRANCH  41  44
ATOM     44  O   UNL     1     -41.979   2.304  76.424  1.00  0.00    -0.504 OA
ATOM     45  H   UNL     1     -42.321   2.911  75.685  1.00  0.00     0.293 HD
ENDBRANCH  41  44
BRANCH  43  46
ATOM     46  O   UNL     1     -43.620   2.338  78.732  1.00  0.00    -0.504 OA
ATOM     47  H   UNL     1     -44.426   2.951  78.791  1.00  0.00     0.293 HD
ENDBRANCH  43  46
ENDBRANCH  28  38
BRANCH  34  48
ATOM     48  O   UNL     1     -33.534   6.067  78.616  1.00  0.00    -0.507 OA
ATOM     49  H   UNL     1     -33.753   6.004  77.629  1.00  0.00     0.293 HD
ENDBRANCH  34  48
BRANCH  37  50
ATOM     50  O   UNL     1     -33.665   3.686  82.838  1.00  0.00    -0.508 OA
ATOM     51  H   UNL     1     -33.531   2.697  83.037  1.00  0.00     0.293 HD
ENDBRANCH  37  50
ENDBRANCH  26  27
ENDBRANCH   5  26
BRANCH   4  52
ATOM     52  O   UNL     1     -38.996   7.433  75.068  1.00  0.00    -0.384 OA
ATOM     53  H   UNL     1     -39.522   6.604  74.909  1.00  0.00     0.211 HD
ENDBRANCH   4  52
TORSDOF 16
ENDMDL
MODEL 3
REMARK VINA RESULT:    -6.278      1.681      8.015
REMARK INTER + INTRA:         -12.550
REMARK INTER:                 -11.351
REMARK INTRA:                  -1.199
REMARK UNBOUND:                -2.235
REMARK SMILES C[C@H]1O[C@@H](OC[C@H]2O[C@H](Oc3c(-c4ccc(O)c(O)c4)oc4cc(O)cc(O)c4c3=O)[C@H](O)[C@@H](O)[C@@H]2O)[C@@H](O)[C@@H](O)[C@@H]1O
REMARK SMILES IDX 7 1 36 2 34 3 32 4 9 5 8 6 6 7 5 8 4 9 1 10 2 11 42 12 3 13
REMARK SMILES IDX 40 14 38 15 43 16 41 18 39 20 37 22 35 24 10 26 11 27 12 28
REMARK SMILES IDX 30 29 21 30 29 31 31 32 22 33 27 34 23 35 26 36 24 37 13 38
REMARK SMILES IDX 20 39 14 40 18 41 15 42 16 43 19 44 17 46 28 48 25 50 33 52
REMARK H PARENT 43 17 41 19 39 21 37 23 35 25 19 45 17 47 28 49 25 51 33 53
REMARK Flexibility Score: inf
ROOT
ATOM      1  C   UNL     1     -36.256   7.173  79.380  1.00  0.00     0.180 C 
ATOM      2  C   UNL     1     -34.953   7.920  78.987  1.00  0.00     0.177 C 
ATOM      3  C   UNL     1     -33.788   6.923  79.112  1.00  0.00     0.180 C 
ATOM      4  C   UNL     1     -34.065   5.675  78.257  1.00  0.00     0.214 C 
ATOM      5  C   UNL     1     -35.501   5.135  78.462  1.00  0.00     0.339 C 
ATOM      6  O   UNL     1     -36.500   6.146  78.422  1.00  0.00    -0.332 OA
ENDROOT
BRANCH   1   7
ATOM      7  C   UNL     1     -37.499   8.082  79.410  1.00  0.00     0.198 C 
BRANCH   7   8
ATOM      8  O   UNL     1     -38.021   8.279  78.102  1.00  0.00    -0.347 OA
BRANCH   8   9
ATOM      9  C   UNL     1     -38.226   9.653  77.771  1.00  0.00     0.281 C 
ATOM     10  C   UNL     1     -40.876   8.215  78.739  1.00  0.00     0.041 C 
ATOM     11  C   UNL     1     -40.562   9.307  77.711  1.00  0.00     0.150 C 
ATOM     12  C   UNL     1     -40.464   8.747  76.242  1.00  0.00     0.174 C 
ATOM     13  O   UNL     1     -39.487  10.113  78.174  1.00  0.00    -0.344 OA
ATOM     14  C   UNL     1     -39.087   8.866  75.526  1.00  0.00     0.179 C 
ATOM     15  C   UNL     1     -38.134   9.850  76.259  1.00  0.00     0.202 C 
BRANCH  12  16
ATOM     16  O   UNL     1     -41.436   9.368  75.448  1.00  0.00    -0.388 OA
ATOM     17  H   UNL     1     -41.686  10.224  75.889  1.00  0.00     0.211 HD
ENDBRANCH  12  16
BRANCH  14  18
ATOM     18  O   UNL     1     -38.559   7.574  75.331  1.00  0.00    -0.387 OA
ATOM     19  H   UNL     1     -38.355   7.420  74.370  1.00  0.00     0.211 HD
ENDBRANCH  14  18
BRANCH  15  20
ATOM     20  O   UNL     1     -36.784   9.740  75.868  1.00  0.00    -0.385 OA
ATOM     21  H   UNL     1     -36.555  10.584  75.387  1.00  0.00     0.211 HD
ENDBRANCH  15  20
ENDBRANCH   8   9
ENDBRANCH   7   8
ENDBRANCH   1   7
BRANCH   2  22
ATOM     22  O   UNL     1     -34.708   9.015  79.845  1.00  0.00    -0.387 OA
ATOM     23  H   UNL     1     -35.568   9.431  80.069  1.00  0.00     0.211 HD
ENDBRANCH   2  22
BRANCH   3  24
ATOM     24  O   UNL     1     -32.600   7.541  78.672  1.00  0.00    -0.387 OA
ATOM     25  H   UNL     1     -32.770   7.911  77.769  1.00  0.00     0.211 HD
ENDBRANCH   3  24
BRANCH   5  26
ATOM     26  O   UNL     1     -35.590   4.342  79.663  1.00  0.00    -0.454 OA
BRANCH  26  27
ATOM     27  C   UNL     1     -36.770   4.275  80.428  1.00  0.00     0.214 A 
ATOM     28  C   UNL     1     -36.757   4.638  81.791  1.00  0.00     0.180 A 
ATOM     29  C   UNL     1     -37.977   3.813  79.864  1.00  0.00     0.239 A 
ATOM     30  O   UNL     1     -37.841   4.445  82.551  1.00  0.00    -0.452 OA
ATOM     31  C   UNL     1     -39.113   3.659  80.694  1.00  0.00     0.111 A 
ATOM     32  O   UNL     1     -38.038   3.565  78.627  1.00  0.00    -0.285 OA
ATOM     33  C   UNL     1     -38.987   3.972  82.067  1.00  0.00     0.146 A 
ATOM     34  C   UNL     1     -40.368   3.216  80.204  1.00  0.00     0.134 A 
ATOM     35  C   UNL     1     -40.067   3.791  82.938  1.00  0.00     0.094 A 
ATOM     36  C   UNL     1     -41.439   3.029  81.094  1.00  0.00     0.093 A 
ATOM     37  C   UNL     1     -41.277   3.293  82.464  1.00  0.00     0.123 A 
BRANCH  28  38
ATOM     38  C   UNL     1     -35.549   5.200  82.435  1.00  0.00     0.025 A 
ATOM     39  C   UNL     1     -34.536   4.365  82.968  1.00  0.00     0.062 A 
ATOM     40  C   UNL     1     -35.358   6.590  82.444  1.00  0.00     0.016 A 
ATOM     41  C   UNL     1     -33.381   4.919  83.536  1.00  0.00     0.158 A 
ATOM     42  C   UNL     1     -34.220   7.149  83.041  1.00  0.00     0.051 A 
ATOM     43  C   UNL     1     -33.226   6.317  83.583  1.00  0.00     0.157 A 
BRANCH  41  44
ATOM     44  O   UNL     1     -32.383   4.068  84.034  1.00  0.00    -0.504 OA
ATOM     45  H   UNL     1     -32.608   3.216  84.538  1.00  0.00     0.293 HD
ENDBRANCH  41  44
BRANCH  43  46
ATOM     46  O   UNL     1     -32.071   6.882  84.125  1.00  0.00    -0.504 OA
ATOM     47  H   UNL     1     -31.901   6.890  85.124  1.00  0.00     0.293 HD
ENDBRANCH  43  46
ENDBRANCH  28  38
BRANCH  34  48
ATOM     48  O   UNL     1     -40.547   2.939  78.856  1.00  0.00    -0.507 OA
ATOM     49  H   UNL     1     -40.432   1.995  78.508  1.00  0.00     0.293 HD
ENDBRANCH  34  48
BRANCH  37  50
ATOM     50  O   UNL     1     -42.320   3.057  83.369  1.00  0.00    -0.508 OA
ATOM     51  H   UNL     1     -42.862   3.830  83.748  1.00  0.00     0.293 HD
ENDBRANCH  37  50
ENDBRANCH  26  27
ENDBRANCH   5  26
BRANCH   4  52
ATOM     52  O   UNL     1     -33.137   4.674  78.580  1.00  0.00    -0.384 OA
ATOM     53  H   UNL     1     -33.390   3.851  78.080  1.00  0.00     0.211 HD
ENDBRANCH   4  52
TORSDOF 16
ENDMDL
MODEL 4
REMARK VINA RESULT:    -5.940      1.798      6.792
REMARK INTER + INTRA:         -11.994
REMARK INTER:                  -9.751
REMARK INTRA:                  -2.243
REMARK UNBOUND:                -2.235
REMARK SMILES C[C@H]1O[C@@H](OC[C@H]2O[C@H](Oc3c(-c4ccc(O)c(O)c4)oc4cc(O)cc(O)c4c3=O)[C@H](O)[C@@H](O)[C@@H]2O)[C@@H](O)[C@@H](O)[C@@H]1O
REMARK SMILES IDX 7 1 36 2 34 3 32 4 9 5 8 6 6 7 5 8 4 9 1 10 2 11 42 12 3 13
REMARK SMILES IDX 40 14 38 15 43 16 41 18 39 20 37 22 35 24 10 26 11 27 12 28
REMARK SMILES IDX 30 29 21 30 29 31 31 32 22 33 27 34 23 35 26 36 24 37 13 38
REMARK SMILES IDX 20 39 14 40 18 41 15 42 16 43 19 44 17 46 28 48 25 50 33 52
REMARK H PARENT 43 17 41 19 39 21 37 23 35 25 19 45 17 47 28 49 25 51 33 53
REMARK Flexibility Score: inf
ROOT
ATOM      1  C   UNL     1     -35.933   5.536  80.497  1.00  0.00     0.180 C 
ATOM      2  C   UNL     1     -34.798   4.882  81.329  1.00  0.00     0.177 C 
ATOM      3  C   UNL     1     -34.353   5.902  82.392  1.00  0.00     0.180 C 
ATOM      4  C   UNL     1     -35.558   6.346  83.237  1.00  0.00     0.214 C 
ATOM      5  C   UNL     1     -36.783   6.707  82.361  1.00  0.00     0.339 C 
ATOM      6  O   UNL     1     -37.058   5.749  81.347  1.00  0.00    -0.332 OA
ENDROOT
BRANCH   1   7
ATOM      7  C   UNL     1     -36.405   4.668  79.315  1.00  0.00     0.198 C 
BRANCH   7   8
ATOM      8  O   UNL     1     -37.787   4.352  79.431  1.00  0.00    -0.347 OA
BRANCH   8   9
ATOM      9  C   UNL     1     -38.037   2.963  79.653  1.00  0.00     0.281 C 
ATOM     10  C   UNL     1     -39.876   4.197  77.389  1.00  0.00     0.041 C 
ATOM     11  C   UNL     1     -40.073   3.126  78.466  1.00  0.00     0.150 C 
ATOM     12  C   UNL     1     -40.802   3.680  79.748  1.00  0.00     0.174 C 
ATOM     13  O   UNL     1     -38.862   2.410  78.665  1.00  0.00    -0.344 OA
ATOM     14  C   UNL     1     -40.003   3.663  81.083  1.00  0.00     0.179 C 
ATOM     15  C   UNL     1     -38.740   2.763  80.994  1.00  0.00     0.202 C 
BRANCH  12  16
ATOM     16  O   UNL     1     -42.000   2.978  79.935  1.00  0.00    -0.388 OA
ATOM     17  H   UNL     1     -41.769   2.058  80.232  1.00  0.00     0.211 HD
ENDBRANCH  12  16
BRANCH  14  18
ATOM     18  O   UNL     1     -39.749   4.992  81.482  1.00  0.00    -0.387 OA
ATOM     19  H   UNL     1     -39.492   5.549  80.699  1.00  0.00     0.211 HD
ENDBRANCH  14  18
BRANCH  15  20
ATOM     20  O   UNL     1     -37.809   2.975  82.031  1.00  0.00    -0.385 OA
ATOM     21  H   UNL     1     -37.216   3.723  81.737  1.00  0.00     0.211 HD
ENDBRANCH  15  20
ENDBRANCH   8   9
ENDBRANCH   7   8
ENDBRANCH   1   7
BRANCH   2  22
ATOM     22  O   UNL     1     -33.687   4.555  80.519  1.00  0.00    -0.387 OA
ATOM     23  H   UNL     1     -33.367   3.665  80.779  1.00  0.00     0.211 HD
ENDBRANCH   2  22
BRANCH   3  24
ATOM     24  O   UNL     1     -33.386   5.307  83.229  1.00  0.00    -0.387 OA
ATOM     25  H   UNL     1     -33.750   5.298  84.151  1.00  0.00     0.211 HD
ENDBRANCH   3  24
BRANCH   5  26
ATOM     26  O   UNL     1     -36.659   8.038  81.820  1.00  0.00    -0.454 OA
BRANCH  26  27
ATOM     27  C   UNL     1     -36.962   8.329  80.477  1.00  0.00     0.214 A 
ATOM     28  C   UNL     1     -35.947   8.743  79.591  1.00  0.00     0.180 A 
ATOM     29  C   UNL     1     -38.286   8.250  79.997  1.00  0.00     0.239 A 
ATOM     30  O   UNL     1     -36.254   9.151  78.354  1.00  0.00    -0.452 OA
ATOM     31  C   UNL     1     -38.565   8.655  78.670  1.00  0.00     0.111 A 
ATOM     32  O   UNL     1     -39.199   7.799  80.744  1.00  0.00    -0.285 OA
ATOM     33  C   UNL     1     -37.496   9.132  77.876  1.00  0.00     0.146 A 
ATOM     34  C   UNL     1     -39.864   8.592  78.103  1.00  0.00     0.134 A 
ATOM     35  C   UNL     1     -37.728   9.590  76.574  1.00  0.00     0.094 A 
ATOM     36  C   UNL     1     -40.081   9.066  76.799  1.00  0.00     0.093 A 
ATOM     37  C   UNL     1     -39.016   9.587  76.047  1.00  0.00     0.123 A 
BRANCH  28  38
ATOM     38  C   UNL     1     -34.525   8.781  80.000  1.00  0.00     0.025 A 
ATOM     39  C   UNL     1     -34.107   9.468  81.166  1.00  0.00     0.062 A 
ATOM     40  C   UNL     1     -33.579   8.050  79.267  1.00  0.00     0.016 A 
ATOM     41  C   UNL     1     -32.762   9.456  81.558  1.00  0.00     0.158 A 
ATOM     42  C   UNL     1     -32.227   8.062  79.637  1.00  0.00     0.051 A 
ATOM     43  C   UNL     1     -31.814   8.759  80.784  1.00  0.00     0.157 A 
BRANCH  41  44
ATOM     44  O   UNL     1     -32.380  10.124  82.730  1.00  0.00    -0.504 OA
ATOM     45  H   UNL     1     -32.141   9.621  83.579  1.00  0.00     0.293 HD
ENDBRANCH  41  44
BRANCH  43  46
ATOM     46  O   UNL     1     -30.476   8.719  81.175  1.00  0.00    -0.504 OA
ATOM     47  H   UNL     1     -30.090   9.396  81.823  1.00  0.00     0.293 HD
ENDBRANCH  43  46
ENDBRANCH  28  38
BRANCH  34  48
ATOM     48  O   UNL     1     -40.932   8.091  78.833  1.00  0.00    -0.507 OA
ATOM     49  H   UNL     1     -41.606   8.720  79.252  1.00  0.00     0.293 HD
ENDBRANCH  34  48
BRANCH  37  50
ATOM     50  O   UNL     1     -39.230  10.113  74.767  1.00  0.00    -0.508 OA
ATOM     51  H   UNL     1     -38.486  10.602  74.275  1.00  0.00     0.293 HD
ENDBRANCH  37  50
ENDBRANCH  26  27
ENDBRANCH   5  26
BRANCH   4  52
ATOM     52  O   UNL     1     -35.197   7.456  84.016  1.00  0.00    -0.384 OA
ATOM     53  H   UNL     1     -35.907   7.592  84.700  1.00  0.00     0.211 HD
ENDBRANCH   4  52
TORSDOF 16
ENDMDL
MODEL 5
REMARK VINA RESULT:    -5.923      1.633      3.943
REMARK INTER + INTRA:         -11.967
REMARK INTER:                  -9.651
REMARK INTRA:                  -2.316
REMARK UNBOUND:                -2.235
REMARK SMILES C[C@H]1O[C@@H](OC[C@H]2O[C@H](Oc3c(-c4ccc(O)c(O)c4)oc4cc(O)cc(O)c4c3=O)[C@H](O)[C@@H](O)[C@@H]2O)[C@@H](O)[C@@H](O)[C@@H]1O
REMARK SMILES IDX 7 1 36 2 34 3 32 4 9 5 8 6 6 7 5 8 4 9 1 10 2 11 42 12 3 13
REMARK SMILES IDX 40 14 38 15 43 16 41 18 39 20 37 22 35 24 10 26 11 27 12 28
REMARK SMILES IDX 30 29 21 30 29 31 31 32 22 33 27 34 23 35 26 36 24 37 13 38
REMARK SMILES IDX 20 39 14 40 18 41 15 42 16 43 19 44 17 46 28 48 25 50 33 52
REMARK H PARENT 43 17 41 19 39 21 37 23 35 25 19 45 17 47 28 49 25 51 33 53
REMARK Flexibility Score: inf
ROOT
ATOM      1  C   UNL     1     -37.698   3.918  78.519  1.00  0.00     0.180 C 
ATOM      2  C   UNL     1     -38.393   2.768  77.742  1.00  0.00     0.177 C 
ATOM      3  C   UNL     1     -39.893   2.815  78.084  1.00  0.00     0.180 C 
ATOM      4  C   UNL     1     -40.465   4.207  77.767  1.00  0.00     0.214 C 
ATOM      5  C   UNL     1     -39.566   5.344  78.311  1.00  0.00     0.339 C 
ATOM      6  O   UNL     1     -38.185   5.163  78.025  1.00  0.00    -0.332 OA
ENDROOT
BRANCH   1   7
ATOM      7  C   UNL     1     -36.166   3.927  78.361  1.00  0.00     0.198 C 
BRANCH   7   8
ATOM      8  O   UNL     1     -35.621   5.193  78.710  1.00  0.00    -0.347 OA
BRANCH   8   9
ATOM      9  C   UNL     1     -34.206   5.272  78.536  1.00  0.00     0.281 C 
ATOM     10  C   UNL     1     -35.041   4.572  81.510  1.00  0.00     0.041 C 
ATOM     11  C   UNL     1     -33.910   5.389  80.877  1.00  0.00     0.150 C 
ATOM     12  C   UNL     1     -34.212   6.935  80.861  1.00  0.00     0.174 C 
ATOM     13  O   UNL     1     -33.508   4.792  79.652  1.00  0.00    -0.344 OA
ATOM     14  C   UNL     1     -34.338   7.620  79.469  1.00  0.00     0.179 C 
ATOM     15  C   UNL     1     -33.782   6.725  78.328  1.00  0.00     0.202 C 
BRANCH  12  16
ATOM     16  O   UNL     1     -33.230   7.603  81.602  1.00  0.00    -0.388 OA
ATOM     17  H   UNL     1     -33.628   7.851  82.479  1.00  0.00     0.211 HD
ENDBRANCH  12  16
BRANCH  14  18
ATOM     18  O   UNL     1     -35.670   8.044  79.286  1.00  0.00    -0.387 OA
ATOM     19  H   UNL     1     -36.278   7.569  79.912  1.00  0.00     0.211 HD
ENDBRANCH  14  18
BRANCH  15  20
ATOM     20  O   UNL     1     -34.173   7.131  77.037  1.00  0.00    -0.385 OA
ATOM     21  H   UNL     1     -33.738   6.504  76.393  1.00  0.00     0.211 HD
ENDBRANCH  15  20
ENDBRANCH   8   9
ENDBRANCH   7   8
ENDBRANCH   1   7
BRANCH   2  22
ATOM     22  O   UNL     1     -37.880   1.507  78.119  1.00  0.00    -0.387 OA
ATOM     23  H   UNL     1     -37.547   1.572  79.040  1.00  0.00     0.211 HD
ENDBRANCH   2  22
BRANCH   3  24
ATOM     24  O   UNL     1     -40.572   1.842  77.322  1.00  0.00    -0.387 OA
ATOM     25  H   UNL     1     -41.316   1.492  77.876  1.00  0.00     0.211 HD
ENDBRANCH   3  24
BRANCH   5  26
ATOM     26  O   UNL     1     -39.797   5.559  79.718  1.00  0.00    -0.454 OA
BRANCH  26  27
ATOM     27  C   UNL     1     -39.084   6.525  80.453  1.00  0.00     0.214 A 
ATOM     28  C   UNL     1     -39.000   7.854  79.990  1.00  0.00     0.180 A 
ATOM     29  C   UNL     1     -38.409   6.181  81.643  1.00  0.00     0.239 A 
ATOM     30  O   UNL     1     -38.211   8.738  80.613  1.00  0.00    -0.452 OA
ATOM     31  C   UNL     1     -37.615   7.154  82.293  1.00  0.00     0.111 A 
ATOM     32  O   UNL     1     -38.539   5.020  82.125  1.00  0.00    -0.285 OA
ATOM     33  C   UNL     1     -37.526   8.441  81.714  1.00  0.00     0.146 A 
ATOM     34  C   UNL     1     -36.918   6.896  83.501  1.00  0.00     0.134 A 
ATOM     35  C   UNL     1     -36.714   9.425  82.292  1.00  0.00     0.094 A 
ATOM     36  C   UNL     1     -36.100   7.891  84.062  1.00  0.00     0.093 A 
ATOM     37  C   UNL     1     -35.981   9.145  83.441  1.00  0.00     0.123 A 
BRANCH  28  38
ATOM     38  C   UNL     1     -39.739   8.308  78.791  1.00  0.00     0.025 A 
ATOM     39  C   UNL     1     -41.145   8.481  78.807  1.00  0.00     0.062 A 
ATOM     40  C   UNL     1     -39.025   8.658  77.635  1.00  0.00     0.016 A 
ATOM     41  C   UNL     1     -41.819   8.951  77.673  1.00  0.00     0.158 A 
ATOM     42  C   UNL     1     -39.700   9.098  76.487  1.00  0.00     0.051 A 
ATOM     43  C   UNL     1     -41.095   9.251  76.503  1.00  0.00     0.157 A 
BRANCH  41  44
ATOM     44  O   UNL     1     -43.209   9.136  77.725  1.00  0.00    -0.504 OA
ATOM     45  H   UNL     1     -43.854   8.467  77.316  1.00  0.00     0.293 HD
ENDBRANCH  41  44
BRANCH  43  46
ATOM     46  O   UNL     1     -41.751   9.742  75.374  1.00  0.00    -0.504 OA
ATOM     47  H   UNL     1     -41.257  10.258  74.654  1.00  0.00     0.293 HD
ENDBRANCH  43  46
ENDBRANCH  28  38
BRANCH  34  48
ATOM     48  O   UNL     1     -37.013   5.661  84.125  1.00  0.00    -0.507 OA
ATOM     49  H   UNL     1     -36.385   4.909  83.869  1.00  0.00     0.293 HD
ENDBRANCH  34  48
BRANCH  37  50
ATOM     50  O   UNL     1     -35.125  10.125  83.960  1.00  0.00    -0.508 OA
ATOM     51  H   UNL     1     -34.880  10.945  83.409  1.00  0.00     0.293 HD
ENDBRANCH  37  50
ENDBRANCH  26  27
ENDBRANCH   5  26
BRANCH   4  52
ATOM     52  O   UNL     1     -41.749   4.319  78.321  1.00  0.00    -0.384 OA
ATOM     53  H   UNL     1     -42.276   4.937  77.746  1.00  0.00     0.211 HD
ENDBRANCH   4  52
TORSDOF 16
ENDMDL
MODEL 6
REMARK VINA RESULT:    -5.908      1.954      7.310
REMARK INTER + INTRA:         -11.942
REMARK INTER:                 -10.304
REMARK INTRA:                  -1.638
REMARK UNBOUND:                -2.235
REMARK SMILES C[C@H]1O[C@@H](OC[C@H]2O[C@H](Oc3c(-c4ccc(O)c(O)c4)oc4cc(O)cc(O)c4c3=O)[C@H](O)[C@@H](O)[C@@H]2O)[C@@H](O)[C@@H](O)[C@@H]1O
REMARK SMILES IDX 7 1 36 2 34 3 32 4 9 5 8 6 6 7 5 8 4 9 1 10 2 11 42 12 3 13
REMARK SMILES IDX 40 14 38 15 43 16 41 18 39 20 37 22 35 24 10 26 11 27 12 28
REMARK SMILES IDX 30 29 21 30 29 31 31 32 22 33 27 34 23 35 26 36 24 37 13 38
REMARK SMILES IDX 20 39 14 40 18 41 15 42 16 43 19 44 17 46 28 48 25 50 33 52
REMARK H PARENT 43 17 41 19 39 21 37 23 35 25 19 45 17 47 28 49 25 51 33 53
REMARK Flexibility Score: inf
ROOT
ATOM      1  C   UNL     1     -35.930   7.088  78.585  1.00  0.00     0.180 C 
ATOM      2  C   UNL     1     -34.631   7.832  78.997  1.00  0.00     0.177 C 
ATOM      3  C   UNL     1     -34.115   7.185  80.294  1.00  0.00     0.180 C 
ATOM      4  C   UNL     1     -33.921   5.673  80.092  1.00  0.00     0.214 C 
ATOM      5  C   UNL     1     -35.138   5.018  79.394  1.00  0.00     0.339 C 
ATOM      6  O   UNL     1     -35.600   5.740  78.259  1.00  0.00    -0.332 OA
ENDROOT
BRANCH   1   7
ATOM      7  C   UNL     1     -36.625   7.703  77.356  1.00  0.00     0.198 C 
BRANCH   7   8
ATOM      8  O   UNL     1     -37.987   8.002  77.633  1.00  0.00    -0.347 OA
BRANCH   8   9
ATOM      9  C   UNL     1     -38.276   9.401  77.625  1.00  0.00     0.281 C 
ATOM     10  C   UNL     1     -40.722   7.645  78.608  1.00  0.00     0.041 C 
ATOM     11  C   UNL     1     -40.587   8.939  77.799  1.00  0.00     0.150 C 
ATOM     12  C   UNL     1     -40.678   8.696  76.245  1.00  0.00     0.174 C 
ATOM     13  O   UNL     1     -39.483   9.695  78.276  1.00  0.00    -0.344 OA
ATOM     14  C   UNL     1     -39.418   9.037  75.397  1.00  0.00     0.179 C 
ATOM     15  C   UNL     1     -38.402   9.905  76.189  1.00  0.00     0.202 C 
BRANCH  12  16
ATOM     16  O   UNL     1     -41.769   9.407  75.732  1.00  0.00    -0.388 OA
ATOM     17  H   UNL     1     -41.444   9.949  74.964  1.00  0.00     0.211 HD
ENDBRANCH  12  16
BRANCH  14  18
ATOM     18  O   UNL     1     -38.884   7.844  74.869  1.00  0.00    -0.387 OA
ATOM     19  H   UNL     1     -39.062   7.080  75.480  1.00  0.00     0.211 HD
ENDBRANCH  14  18
BRANCH  15  20
ATOM     20  O   UNL     1     -37.118   9.956  75.612  1.00  0.00    -0.385 OA
ATOM     21  H   UNL     1     -37.243  10.183  74.648  1.00  0.00     0.211 HD
ENDBRANCH  15  20
ENDBRANCH   8   9
ENDBRANCH   7   8
ENDBRANCH   1   7
BRANCH   2  22
ATOM     22  O   UNL     1     -34.876   9.202  79.238  1.00  0.00    -0.387 OA
ATOM     23  H   UNL     1     -34.459   9.722  78.518  1.00  0.00     0.211 HD
ENDBRANCH   2  22
BRANCH   3  24
ATOM     24  O   UNL     1     -32.884   7.775  80.648  1.00  0.00    -0.387 OA
ATOM     25  H   UNL     1     -32.379   7.943  79.811  1.00  0.00     0.211 HD
ENDBRANCH   3  24
BRANCH   5  26
ATOM     26  O   UNL     1     -36.200   4.764  80.336  1.00  0.00    -0.454 OA
BRANCH  26  27
ATOM     27  C   UNL     1     -37.527   4.540  79.922  1.00  0.00     0.214 A 
ATOM     28  C   UNL     1     -38.583   5.293  80.474  1.00  0.00     0.180 A 
ATOM     29  C   UNL     1     -37.834   3.537  78.979  1.00  0.00     0.239 A 
ATOM     30  O   UNL     1     -39.853   4.989  80.185  1.00  0.00    -0.452 OA
ATOM     31  C   UNL     1     -39.189   3.270  78.672  1.00  0.00     0.111 A 
ATOM     32  O   UNL     1     -36.901   2.907  78.406  1.00  0.00    -0.285 OA
ATOM     33  C   UNL     1     -40.187   4.023  79.332  1.00  0.00     0.146 A 
ATOM     34  C   UNL     1     -39.584   2.291  77.724  1.00  0.00     0.134 A 
ATOM     35  C   UNL     1     -41.543   3.764  79.099  1.00  0.00     0.094 A 
ATOM     36  C   UNL     1     -40.949   2.036  77.510  1.00  0.00     0.093 A 
ATOM     37  C   UNL     1     -41.924   2.757  78.218  1.00  0.00     0.123 A 
BRANCH  28  38
ATOM     38  C   UNL     1     -38.334   6.410  81.412  1.00  0.00     0.025 A 
ATOM     39  C   UNL     1     -37.760   7.631  80.978  1.00  0.00     0.062 A 
ATOM     40  C   UNL     1     -38.751   6.293  82.747  1.00  0.00     0.016 A 
ATOM     41  C   UNL     1     -37.571   8.689  81.876  1.00  0.00     0.158 A 
ATOM     42  C   UNL     1     -38.533   7.338  83.656  1.00  0.00     0.051 A 
ATOM     43  C   UNL     1     -37.949   8.540  83.224  1.00  0.00     0.157 A 
BRANCH  41  44
ATOM     44  O   UNL     1     -37.025   9.895  81.413  1.00  0.00    -0.504 OA
ATOM     45  H   UNL     1     -36.068   9.955  81.077  1.00  0.00     0.293 HD
ENDBRANCH  41  44
BRANCH  43  46
ATOM     46  O   UNL     1     -37.788   9.594  84.123  1.00  0.00    -0.504 OA
ATOM     47  H   UNL     1     -38.063  10.541  83.888  1.00  0.00     0.293 HD
ENDBRANCH  43  46
ENDBRANCH  28  38
BRANCH  34  48
ATOM     48  O   UNL     1     -38.637   1.560  77.022  1.00  0.00    -0.507 OA
ATOM     49  H   UNL     1     -38.223   1.936  76.178  1.00  0.00     0.293 HD
ENDBRANCH  34  48
BRANCH  37  50
ATOM     50  O   UNL     1     -43.286   2.474  78.054  1.00  0.00    -0.508 OA
ATOM     51  H   UNL     1     -43.587   1.656  77.528  1.00  0.00     0.293 HD
ENDBRANCH  37  50
ENDBRANCH  26  27
ENDBRANCH   5  26
BRANCH   4  52
ATOM     52  O   UNL     1     -33.707   5.061  81.335  1.00  0.00    -0.384 OA
ATOM     53  H   UNL     1     -34.569   4.657  81.628  1.00  0.00     0.211 HD
ENDBRANCH   4  52
TORSDOF 16
ENDMDL
MODEL 7
REMARK VINA RESULT:    -5.685      2.055      6.222
REMARK INTER + INTRA:         -11.576
REMARK INTER:                 -10.161
REMARK INTRA:                  -1.415
REMARK UNBOUND:                -2.235
REMARK SMILES C[C@H]1O[C@@H](OC[C@H]2O[C@H](Oc3c(-c4ccc(O)c(O)c4)oc4cc(O)cc(O)c4c3=O)[C@H](O)[C@@H](O)[C@@H]2O)[C@@H](O)[C@@H](O)[C@@H]1O
REMARK SMILES IDX 7 1 36 2 34 3 32 4 9 5 8 6 6 7 5 8 4 9 1 10 2 11 42 12 3 13
REMARK SMILES IDX 40 14 38 15 43 16 41 18 39 20 37 22 35 24 10 26 11 27 12 28
REMARK SMILES IDX 30 29 21 30 29 31 31 32 22 33 27 34 23 35 26 36 24 37 13 38
REMARK SMILES IDX 20 39 14 40 18 41 15 42 16 43 19 44 17 46 28 48 25 50 33 52
REMARK H PARENT 43 17 41 19 39 21 37 23 35 25 19 45 17 47 28 49 25 51 33 53
REMARK Flexibility Score: inf
ROOT
ATOM      1  C   UNL     1     -38.064   8.442  79.138  1.00  0.00     0.180 C 
ATOM      2  C   UNL     1     -37.995   9.388  77.909  1.00  0.00     0.177 C 
ATOM      3  C   UNL     1     -38.072   8.516  76.644  1.00  0.00     0.180 C 
ATOM      4  C   UNL     1     -39.337   7.643  76.679  1.00  0.00     0.214 C 
ATOM      5  C   UNL     1     -39.526   6.945  78.048  1.00  0.00     0.339 C 
ATOM      6  O   UNL     1     -39.343   7.813  79.159  1.00  0.00    -0.332 OA
ENDROOT
BRANCH   1   7
ATOM      7  C   UNL     1     -37.885   9.169  80.483  1.00  0.00     0.198 C 
BRANCH   7   8
ATOM      8  O   UNL     1     -36.803   8.621  81.224  1.00  0.00    -0.347 OA
BRANCH   8   9
ATOM      9  C   UNL     1     -36.655   9.191  82.525  1.00  0.00     0.281 C 
ATOM     10  C   UNL     1     -33.879   8.552  81.140  1.00  0.00     0.041 C 
ATOM     11  C   UNL     1     -34.394   8.509  82.582  1.00  0.00     0.150 C 
ATOM     12  C   UNL     1     -34.818   7.061  83.033  1.00  0.00     0.174 C 
ATOM     13  O   UNL     1     -35.329   9.557  82.794  1.00  0.00    -0.344 OA
ATOM     14  C   UNL     1     -36.316   6.838  83.393  1.00  0.00     0.179 C 
ATOM     15  C   UNL     1     -37.071   8.181  83.593  1.00  0.00     0.202 C 
BRANCH  12  16
ATOM     16  O   UNL     1     -34.033   6.671  84.125  1.00  0.00    -0.388 OA
ATOM     17  H   UNL     1     -34.647   6.434  84.870  1.00  0.00     0.211 HD
ENDBRANCH  12  16
BRANCH  14  18
ATOM     18  O   UNL     1     -36.894   5.977  82.437  1.00  0.00    -0.387 OA
ATOM     19  H   UNL     1     -37.307   6.500  81.699  1.00  0.00     0.211 HD
ENDBRANCH  14  18
BRANCH  15  20
ATOM     20  O   UNL     1     -38.475   8.058  83.579  1.00  0.00    -0.385 OA
ATOM     21  H   UNL     1     -38.743   7.931  82.625  1.00  0.00     0.211 HD
ENDBRANCH  15  20
ENDBRANCH   8   9
ENDBRANCH   7   8
ENDBRANCH   1   7
BRANCH   2  22
ATOM     22  O   UNL     1     -36.785  10.117  77.887  1.00  0.00    -0.387 OA
ATOM     23  H   UNL     1     -36.960  10.994  77.482  1.00  0.00     0.211 HD
ENDBRANCH   2  22
BRANCH   3  24
ATOM     24  O   UNL     1     -38.107   9.350  75.508  1.00  0.00    -0.387 OA
ATOM     25  H   UNL     1     -37.424  10.057  75.632  1.00  0.00     0.211 HD
ENDBRANCH   3  24
BRANCH   5  26
ATOM     26  O   UNL     1     -38.699   5.767  78.148  1.00  0.00    -0.454 OA
BRANCH  26  27
ATOM     27  C   UNL     1     -38.670   4.972  79.309  1.00  0.00     0.214 A 
ATOM     28  C   UNL     1     -37.439   4.603  79.889  1.00  0.00     0.180 A 
ATOM     29  C   UNL     1     -39.862   4.497  79.894  1.00  0.00     0.239 A 
ATOM     30  O   UNL     1     -37.406   3.737  80.908  1.00  0.00    -0.452 OA
ATOM     31  C   UNL     1     -39.785   3.612  80.996  1.00  0.00     0.111 A 
ATOM     32  O   UNL     1     -40.979   4.883  79.447  1.00  0.00    -0.285 OA
ATOM     33  C   UNL     1     -38.505   3.233  81.463  1.00  0.00     0.146 A 
ATOM     34  C   UNL     1     -40.934   3.101  81.653  1.00  0.00     0.134 A 
ATOM     35  C   UNL     1     -38.376   2.323  82.518  1.00  0.00     0.094 A 
ATOM     36  C   UNL     1     -40.786   2.180  82.703  1.00  0.00     0.093 A 
ATOM     37  C   UNL     1     -39.506   1.774  83.116  1.00  0.00     0.123 A 
BRANCH  28  38
ATOM     38  C   UNL     1     -36.151   5.120  79.376  1.00  0.00     0.025 A 
ATOM     39  C   UNL     1     -36.083   6.305  78.602  1.00  0.00     0.062 A 
ATOM     40  C   UNL     1     -34.959   4.472  79.732  1.00  0.00     0.016 A 
ATOM     41  C   UNL     1     -34.849   6.799  78.161  1.00  0.00     0.158 A 
ATOM     42  C   UNL     1     -33.724   4.945  79.266  1.00  0.00     0.051 A 
ATOM     43  C   UNL     1     -33.664   6.111  78.485  1.00  0.00     0.157 A 
BRANCH  41  44
ATOM     44  O   UNL     1     -34.808   7.988  77.418  1.00  0.00    -0.504 OA
ATOM     45  H   UNL     1     -33.934   8.377  77.078  1.00  0.00     0.293 HD
ENDBRANCH  41  44
BRANCH  43  46
ATOM     46  O   UNL     1     -32.426   6.604  78.072  1.00  0.00    -0.504 OA
ATOM     47  H   UNL     1     -31.696   5.990  77.728  1.00  0.00     0.293 HD
ENDBRANCH  43  46
ENDBRANCH  28  38
BRANCH  34  48
ATOM     48  O   UNL     1     -42.207   3.481  81.254  1.00  0.00    -0.507 OA
ATOM     49  H   UNL     1     -42.719   2.926  80.579  1.00  0.00     0.293 HD
ENDBRANCH  34  48
BRANCH  37  50
ATOM     50  O   UNL     1     -39.348   0.815  84.124  1.00  0.00    -0.508 OA
ATOM     51  H   UNL     1     -38.942   1.068  85.022  1.00  0.00     0.293 HD
ENDBRANCH  37  50
ENDBRANCH  26  27
ENDBRANCH   5  26
BRANCH   4  52
ATOM     52  O   UNL     1     -39.262   6.675  75.666  1.00  0.00    -0.384 OA
ATOM     53  H   UNL     1     -38.784   5.884  76.035  1.00  0.00     0.211 HD
ENDBRANCH   4  52
TORSDOF 16
ENDMDL
MODEL 8
REMARK VINA RESULT:    -5.622      1.894      4.916
REMARK INTER + INTRA:         -11.472
REMARK INTER:                  -9.788
REMARK INTRA:                  -1.684
REMARK UNBOUND:                -2.235
REMARK SMILES C[C@H]1O[C@@H](OC[C@H]2O[C@H](Oc3c(-c4ccc(O)c(O)c4)oc4cc(O)cc(O)c4c3=O)[C@H](O)[C@@H](O)[C@@H]2O)[C@@H](O)[C@@H](O)[C@@H]1O
REMARK SMILES IDX 7 1 36 2 34 3 32 4 9 5 8 6 6 7 5 8 4 9 1 10 2 11 42 12 3 13
REMARK SMILES IDX 40 14 38 15 43 16 41 18 39 20 37 22 35 24 10 26 11 27 12 28
REMARK SMILES IDX 30 29 21 30 29 31 31 32 22 33 27 34 23 35 26 36 24 37 13 38
REMARK SMILES IDX 20 39 14 40 18 41 15 42 16 43 19 44 17 46 28 48 25 50 33 52
REMARK H PARENT 43 17 41 19 39 21 37 23 35 25 19 45 17 47 28 49 25 51 33 53
REMARK Flexibility Score: inf
ROOT
ATOM      1  C   UNL     1     -39.000   5.566  81.838  1.00  0.00     0.180 C 
ATOM      2  C   UNL     1     -40.362   4.835  81.699  1.00  0.00     0.177 C 
ATOM      3  C   UNL     1     -40.069   3.346  81.446  1.00  0.00     0.180 C 
ATOM      4  C   UNL     1     -39.179   2.783  82.566  1.00  0.00     0.214 C 
ATOM      5  C   UNL     1     -37.980   3.711  82.880  1.00  0.00     0.339 C 
ATOM      6  O   UNL     1     -38.338   5.082  83.004  1.00  0.00    -0.332 OA
ENDROOT
BRANCH   1   7
ATOM      7  C   UNL     1     -39.135   7.093  81.985  1.00  0.00     0.198 C 
BRANCH   7   8
ATOM      8  O   UNL     1     -39.146   7.733  80.716  1.00  0.00    -0.347 OA
BRANCH   8   9
ATOM      9  C   UNL     1     -39.323   9.148  80.791  1.00  0.00     0.281 C 
ATOM     10  C   UNL     1     -41.114   7.802  78.551  1.00  0.00     0.041 C 
ATOM     11  C   UNL     1     -40.382   9.142  78.679  1.00  0.00     0.150 C 
ATOM     12  C   UNL     1     -38.985   9.143  77.953  1.00  0.00     0.174 C 
ATOM     13  O   UNL     1     -40.415   9.586  80.028  1.00  0.00    -0.344 OA
ATOM     14  C   UNL     1     -37.722   9.338  78.842  1.00  0.00     0.179 C 
ATOM     15  C   UNL     1     -38.083   9.863  80.258  1.00  0.00     0.202 C 
BRANCH  12  16
ATOM     16  O   UNL     1     -38.985  10.125  76.955  1.00  0.00    -0.388 OA
ATOM     17  H   UNL     1     -38.419  10.878  77.271  1.00  0.00     0.211 HD
ENDBRANCH  12  16
BRANCH  14  18
ATOM     18  O   UNL     1     -36.967   8.147  78.833  1.00  0.00    -0.387 OA
ATOM     19  H   UNL     1     -36.786   7.840  79.761  1.00  0.00     0.211 HD
ENDBRANCH  14  18
BRANCH  15  20
ATOM     20  O   UNL     1     -37.044   9.733  81.201  1.00  0.00    -0.385 OA
ATOM     21  H   UNL     1     -36.227   9.463  80.695  1.00  0.00     0.211 HD
ENDBRANCH  15  20
ENDBRANCH   8   9
ENDBRANCH   7   8
ENDBRANCH   1   7
BRANCH   2  22
ATOM     22  O   UNL     1     -41.111   5.343  80.614  1.00  0.00    -0.387 OA
ATOM     23  H   UNL     1     -42.047   5.429  80.898  1.00  0.00     0.211 HD
ENDBRANCH   2  22
BRANCH   3  24
ATOM     24  O   UNL     1     -41.285   2.634  81.408  1.00  0.00    -0.387 OA
ATOM     25  H   UNL     1     -42.001   3.244  81.721  1.00  0.00     0.211 HD
ENDBRANCH   3  24
BRANCH   5  26
ATOM     26  O   UNL     1     -36.915   3.521  81.927  1.00  0.00    -0.454 OA
BRANCH  26  27
ATOM     27  C   UNL     1     -36.140   4.595  81.449  1.00  0.00     0.214 A 
ATOM     28  C   UNL     1     -36.258   5.019  80.110  1.00  0.00     0.180 A 
ATOM     29  C   UNL     1     -35.205   5.244  82.283  1.00  0.00     0.239 A 
ATOM     30  O   UNL     1     -35.427   5.945  79.618  1.00  0.00    -0.452 OA
ATOM     31  C   UNL     1     -34.370   6.246  81.734  1.00  0.00     0.111 A 
ATOM     32  O   UNL     1     -35.141   4.943  83.508  1.00  0.00    -0.285 OA
ATOM     33  C   UNL     1     -34.505   6.552  80.361  1.00  0.00     0.146 A 
ATOM     34  C   UNL     1     -33.417   6.959  82.506  1.00  0.00     0.134 A 
ATOM     35  C   UNL     1     -33.668   7.501  79.760  1.00  0.00     0.094 A 
ATOM     36  C   UNL     1     -32.579   7.900  81.885  1.00  0.00     0.093 A 
ATOM     37  C   UNL     1     -32.690   8.149  80.507  1.00  0.00     0.123 A 
BRANCH  28  38
ATOM     38  C   UNL     1     -37.266   4.436  79.196  1.00  0.00     0.025 A 
ATOM     39  C   UNL     1     -37.227   3.070  78.822  1.00  0.00     0.062 A 
ATOM     40  C   UNL     1     -38.335   5.231  78.754  1.00  0.00     0.016 A 
ATOM     41  C   UNL     1     -38.214   2.530  77.988  1.00  0.00     0.158 A 
ATOM     42  C   UNL     1     -39.307   4.702  77.893  1.00  0.00     0.051 A 
ATOM     43  C   UNL     1     -39.254   3.352  77.512  1.00  0.00     0.157 A 
BRANCH  41  44
ATOM     44  O   UNL     1     -38.165   1.169  77.654  1.00  0.00    -0.504 OA
ATOM     45  H   UNL     1     -39.005   0.639  77.443  1.00  0.00     0.293 HD
ENDBRANCH  41  44
BRANCH  43  46
ATOM     46  O   UNL     1     -40.257   2.822  76.701  1.00  0.00    -0.504 OA
ATOM     47  H   UNL     1     -40.443   3.190  75.774  1.00  0.00     0.293 HD
ENDBRANCH  43  46
ENDBRANCH  28  38
BRANCH  34  48
ATOM     48  O   UNL     1     -33.283   6.720  83.866  1.00  0.00    -0.507 OA
ATOM     49  H   UNL     1     -33.546   7.429  84.538  1.00  0.00     0.293 HD
ENDBRANCH  34  48
BRANCH  37  50
ATOM     50  O   UNL     1     -31.823   9.044  79.867  1.00  0.00    -0.508 OA
ATOM     51  H   UNL     1     -32.048   9.416  78.947  1.00  0.00     0.293 HD
ENDBRANCH  37  50
ENDBRANCH  26  27
ENDBRANCH   5  26
BRANCH   4  52
ATOM     52  O   UNL     1     -38.707   1.516  82.193  1.00  0.00    -0.384 OA
ATOM     53  H   UNL     1     -38.564   1.522  81.208  1.00  0.00     0.211 HD
ENDBRANCH   4  52
TORSDOF 16
ENDMDL
MODEL 9
REMARK VINA RESULT:    -5.453      2.097      6.218
REMARK INTER + INTRA:         -11.194
REMARK INTER:                 -10.480
REMARK INTRA:                  -0.714
REMARK UNBOUND:                -2.235
REMARK SMILES C[C@H]1O[C@@H](OC[C@H]2O[C@H](Oc3c(-c4ccc(O)c(O)c4)oc4cc(O)cc(O)c4c3=O)[C@H](O)[C@@H](O)[C@@H]2O)[C@@H](O)[C@@H](O)[C@@H]1O
REMARK SMILES IDX 7 1 36 2 34 3 32 4 9 5 8 6 6 7 5 8 4 9 1 10 2 11 42 12 3 13
REMARK SMILES IDX 40 14 38 15 43 16 41 18 39 20 37 22 35 24 10 26 11 27 12 28
REMARK SMILES IDX 30 29 21 30 29 31 31 32 22 33 27 34 23 35 26 36 24 37 13 38
REMARK SMILES IDX 20 39 14 40 18 41 15 42 16 43 19 44 17 46 28 48 25 50 33 52
REMARK H PARENT 43 17 41 19 39 21 37 23 35 25 19 45 17 47 28 49 25 51 33 53
REMARK Flexibility Score: inf
ROOT
ATOM      1  C   UNL     1     -38.454   7.003  81.398  1.00  0.00     0.180 C 
ATOM      2  C   UNL     1     -37.496   7.541  82.495  1.00  0.00     0.177 C 
ATOM      3  C   UNL     1     -36.432   8.408  81.799  1.00  0.00     0.180 C 
ATOM      4  C   UNL     1     -37.107   9.515  80.973  1.00  0.00     0.214 C 
ATOM      5  C   UNL     1     -38.270   8.970  80.109  1.00  0.00     0.339 C 
ATOM      6  O   UNL     1     -39.148   8.104  80.817  1.00  0.00    -0.332 OA
ENDROOT
BRANCH   1   7
ATOM      7  C   UNL     1     -39.513   6.023  81.937  1.00  0.00     0.198 C 
BRANCH   7   8
ATOM      8  O   UNL     1     -38.909   4.835  82.432  1.00  0.00    -0.347 OA
BRANCH   8   9
ATOM      9  C   UNL     1     -38.647   3.863  81.420  1.00  0.00     0.281 C 
ATOM     10  C   UNL     1     -40.981   2.999  83.379  1.00  0.00     0.041 C 
ATOM     11  C   UNL     1     -39.873   2.248  82.632  1.00  0.00     0.150 C 
ATOM     12  C   UNL     1     -38.623   1.948  83.542  1.00  0.00     0.174 C 
ATOM     13  O   UNL     1     -39.631   2.866  81.376  1.00  0.00    -0.344 OA
ATOM     14  C   UNL     1     -37.274   2.611  83.137  1.00  0.00     0.179 C 
ATOM     15  C   UNL     1     -37.313   3.169  81.688  1.00  0.00     0.202 C 
BRANCH  12  16
ATOM     16  O   UNL     1     -38.435   0.563  83.622  1.00  0.00    -0.388 OA
ATOM     17  H   UNL     1     -39.276   0.125  83.322  1.00  0.00     0.211 HD
ENDBRANCH  12  16
BRANCH  14  18
ATOM     18  O   UNL     1     -36.914   3.556  84.120  1.00  0.00    -0.387 OA
ATOM     19  H   UNL     1     -36.707   3.104  84.981  1.00  0.00     0.211 HD
ENDBRANCH  14  18
BRANCH  15  20
ATOM     20  O   UNL     1     -36.267   4.066  81.390  1.00  0.00    -0.385 OA
ATOM     21  H   UNL     1     -35.831   3.733  80.556  1.00  0.00     0.211 HD
ENDBRANCH  15  20
ENDBRANCH   8   9
ENDBRANCH   7   8
ENDBRANCH   1   7
BRANCH   2  22
ATOM     22  O   UNL     1     -36.849   6.487  83.177  1.00  0.00    -0.387 OA
ATOM     23  H   UNL     1     -35.976   6.336  82.756  1.00  0.00     0.211 HD
ENDBRANCH   2  22
BRANCH   3  24
ATOM     24  O   UNL     1     -35.598   8.991  82.775  1.00  0.00    -0.387 OA
ATOM     25  H   UNL     1     -34.759   9.268  82.328  1.00  0.00     0.211 HD
ENDBRANCH   3  24
BRANCH   5  26
ATOM     26  O   UNL     1     -37.776   8.358  78.900  1.00  0.00    -0.454 OA
BRANCH  26  27
ATOM     27  C   UNL     1     -37.732   6.961  78.734  1.00  0.00     0.214 A 
ATOM     28  C   UNL     1     -36.498   6.280  78.744  1.00  0.00     0.180 A 
ATOM     29  C   UNL     1     -38.911   6.217  78.520  1.00  0.00     0.239 A 
ATOM     30  O   UNL     1     -36.443   4.976  78.451  1.00  0.00    -0.452 OA
ATOM     31  C   UNL     1     -38.815   4.832  78.250  1.00  0.00     0.111 A 
ATOM     32  O   UNL     1     -40.036   6.788  78.593  1.00  0.00    -0.285 OA
ATOM     33  C   UNL     1     -37.528   4.247  78.201  1.00  0.00     0.146 A 
ATOM     34  C   UNL     1     -39.950   4.008  78.039  1.00  0.00     0.134 A 
ATOM     35  C   UNL     1     -37.377   2.891  77.890  1.00  0.00     0.094 A 
ATOM     36  C   UNL     1     -39.780   2.652  77.717  1.00  0.00     0.093 A 
ATOM     37  C   UNL     1     -38.491   2.103  77.619  1.00  0.00     0.123 A 
BRANCH  28  38
ATOM     38  C   UNL     1     -35.226   6.980  79.035  1.00  0.00     0.025 A 
ATOM     39  C   UNL     1     -34.777   8.064  78.242  1.00  0.00     0.062 A 
ATOM     40  C   UNL     1     -34.488   6.618  80.172  1.00  0.00     0.016 A 
ATOM     41  C   UNL     1     -33.591   8.738  78.560  1.00  0.00     0.158 A 
ATOM     42  C   UNL     1     -33.283   7.269  80.475  1.00  0.00     0.051 A 
ATOM     43  C   UNL     1     -32.834   8.332  79.676  1.00  0.00     0.157 A 
BRANCH  41  44
ATOM     44  O   UNL     1     -33.184   9.825  77.773  1.00  0.00    -0.504 OA
ATOM     45  H   UNL     1     -32.210  10.106  77.712  1.00  0.00     0.293 HD
ENDBRANCH  41  44
BRANCH  43  46
ATOM     46  O   UNL     1     -31.664   9.009  80.019  1.00  0.00    -0.504 OA
ATOM     47  H   UNL     1     -30.748   8.631  79.804  1.00  0.00     0.293 HD
ENDBRANCH  43  46
ENDBRANCH  28  38
BRANCH  34  48
ATOM     48  O   UNL     1     -41.232   4.533  78.121  1.00  0.00    -0.507 OA
ATOM     49  H   UNL     1     -41.515   5.069  78.932  1.00  0.00     0.293 HD
ENDBRANCH  34  48
BRANCH  37  50
ATOM     50  O   UNL     1     -38.306   0.766  77.244  1.00  0.00    -0.508 OA
ATOM     51  H   UNL     1     -39.039   0.258  76.754  1.00  0.00     0.293 HD
ENDBRANCH  37  50
ENDBRANCH  26  27
ENDBRANCH   5  26
BRANCH   4  52
ATOM     52  O   UNL     1     -36.153  10.125  80.144  1.00  0.00    -0.384 OA
ATOM     53  H   UNL     1     -36.377  11.093  80.083  1.00  0.00     0.211 HD
ENDBRANCH   4  52
TORSDOF 16
ENDMDL
