MODEL 1
REMARK VINA RESULT:    -6.202      0.000      0.000
REMARK INTER + INTRA:          -6.383
REMARK INTER:                  -6.383
REMARK INTRA:                   0.000
REMARK UNBOUND:                 0.000
REMARK SMILES O=c1ccc2ccc(O)cc2o1
REMARK SMILES IDX 6 1 7 2 8 3 10 4 11 5 5 6 4 7 3 8 2 9 1 10 12 11 9 12
REMARK H PARENT 9 13
REMARK Flexibility Score: inf
ROOT
ATOM      1  C   UNL     1      72.839  43.312  -2.239  1.00  0.00     0.016 A 
ATOM      2  C   UNL     1      73.276  44.605  -1.933  1.00  0.00     0.047 A 
ATOM      3  C   UNL     1      74.126  45.291  -2.809  1.00  0.00     0.119 A 
ATOM      4  C   UNL     1      74.543  44.681  -4.001  1.00  0.00     0.094 A 
ATOM      5  C   UNL     1      74.112  43.387  -4.316  1.00  0.00     0.142 A 
ATOM      6  C   UNL     1      73.255  42.698  -3.429  1.00  0.00     0.018 A 
ATOM      7  C   UNL     1      72.840  41.406  -3.771  1.00  0.00     0.019 A 
ATOM      8  C   UNL     1      73.282  40.841  -4.967  1.00  0.00     0.094 A 
ATOM      9  C   UNL     1      74.130  41.583  -5.796  1.00  0.00     0.336 A 
ATOM     10  O   UNL     1      74.539  41.090  -6.880  1.00  0.00    -0.246 OA
ATOM     11  O   UNL     1      74.509  42.810  -5.447  1.00  0.00    -0.423 OA
ENDROOT
BRANCH   3  12
ATOM     12  O   UNL     1      74.549  46.579  -2.487  1.00  0.00    -0.508 OA
ATOM     13  H   UNL     1      74.726  46.854  -1.528  1.00  0.00     0.293 HD
ENDBRANCH   3  12
TORSDOF 1
ENDMDL
MODEL 2
REMARK VINA RESULT:    -6.196      1.489      2.256
REMARK INTER + INTRA:          -6.377
REMARK INTER:                  -6.377
REMARK INTRA:                   0.000
REMARK UNBOUND:                 0.000
REMARK SMILES O=c1ccc2ccc(O)cc2o1
REMARK SMILES IDX 6 1 7 2 8 3 10 4 11 5 5 6 4 7 3 8 2 9 1 10 12 11 9 12
REMARK H PARENT 9 13
REMARK Flexibility Score: inf
ROOT
ATOM      1  C   UNL     1      74.330  45.106  -3.483  1.00  0.00     0.016 A 
ATOM      2  C   UNL     1      73.799  45.413  -2.225  1.00  0.00     0.047 A 
ATOM      3  C   UNL     1      73.056  44.459  -1.519  1.00  0.00     0.119 A 
ATOM      4  C   UNL     1      72.841  43.188  -2.073  1.00  0.00     0.094 A 
ATOM      5  C   UNL     1      73.368  42.873  -3.331  1.00  0.00     0.142 A 
ATOM      6  C   UNL     1      74.117  43.838  -4.040  1.00  0.00     0.018 A 
ATOM      7  C   UNL     1      74.632  43.493  -5.295  1.00  0.00     0.019 A 
ATOM      8  C   UNL     1      74.391  42.217  -5.805  1.00  0.00     0.094 A 
ATOM      9  C   UNL     1      73.641  41.313  -5.045  1.00  0.00     0.336 A 
ATOM     10  O   UNL     1      73.414  40.156  -5.489  1.00  0.00    -0.246 OA
ATOM     11  O   UNL     1      73.163  41.666  -3.855  1.00  0.00    -0.423 OA
ENDROOT
BRANCH   3  12
ATOM     12  O   UNL     1      72.536  44.783  -0.268  1.00  0.00    -0.508 OA
ATOM     13  H   UNL     1      72.504  45.741   0.060  1.00  0.00     0.293 HD
ENDBRANCH   3  12
TORSDOF 1
ENDMDL
MODEL 3
REMARK VINA RESULT:    -6.058      1.691      4.760
REMARK INTER + INTRA:          -6.235
REMARK INTER:                  -6.235
REMARK INTRA:                   0.000
REMARK UNBOUND:                 0.000
REMARK SMILES O=c1ccc2ccc(O)cc2o1
REMARK SMILES IDX 6 1 7 2 8 3 10 4 11 5 5 6 4 7 3 8 2 9 1 10 12 11 9 12
REMARK H PARENT 9 13
REMARK Flexibility Score: inf
ROOT
ATOM      1  C   UNL     1      74.607  43.413  -5.209  1.00  0.00     0.016 A 
ATOM      2  C   UNL     1      74.370  42.120  -5.689  1.00  0.00     0.047 A 
ATOM      3  C   UNL     1      73.583  41.226  -4.953  1.00  0.00     0.119 A 
ATOM      4  C   UNL     1      73.028  41.625  -3.728  1.00  0.00     0.094 A 
ATOM      5  C   UNL     1      73.259  42.917  -3.241  1.00  0.00     0.142 A 
ATOM      6  C   UNL     1      74.054  43.816  -3.986  1.00  0.00     0.018 A 
ATOM      7  C   UNL     1      74.267  45.100  -3.472  1.00  0.00     0.019 A 
ATOM      8  C   UNL     1      73.694  45.452  -2.250  1.00  0.00     0.094 A 
ATOM      9  C   UNL     1      72.918  44.509  -1.568  1.00  0.00     0.336 A 
ATOM     10  O   UNL     1      72.393  44.808  -0.464  1.00  0.00    -0.246 OA
ATOM     11  O   UNL     1      72.731  43.294  -2.078  1.00  0.00    -0.423 OA
ENDROOT
BRANCH   3  12
ATOM     12  O   UNL     1      73.358  39.943  -5.447  1.00  0.00    -0.508 OA
ATOM     13  H   UNL     1      73.589  39.118  -4.906  1.00  0.00     0.293 HD
ENDBRANCH   3  12
TORSDOF 1
ENDMDL
MODEL 4
REMARK VINA RESULT:    -5.897      2.684      3.873
REMARK INTER + INTRA:          -6.069
REMARK INTER:                  -6.069
REMARK INTRA:                   0.000
REMARK UNBOUND:                 0.000
REMARK SMILES O=c1ccc2ccc(O)cc2o1
REMARK SMILES IDX 6 1 7 2 8 3 10 4 11 5 5 6 4 7 3 8 2 9 1 10 12 11 9 12
REMARK H PARENT 9 13
REMARK Flexibility Score: inf
ROOT
ATOM      1  C   UNL     1      71.406  40.324  -4.578  1.00  0.00     0.016 A 
ATOM      2  C   UNL     1      72.173  41.056  -3.665  1.00  0.00     0.047 A 
ATOM      3  C   UNL     1      73.490  41.416  -3.976  1.00  0.00     0.119 A 
ATOM      4  C   UNL     1      74.045  41.043  -5.209  1.00  0.00     0.094 A 
ATOM      5  C   UNL     1      73.286  40.310  -6.128  1.00  0.00     0.142 A 
ATOM      6  C   UNL     1      71.958  39.948  -5.810  1.00  0.00     0.018 A 
ATOM      7  C   UNL     1      71.223  39.217  -6.750  1.00  0.00     0.019 A 
ATOM      8  C   UNL     1      71.818  38.868  -7.962  1.00  0.00     0.094 A 
ATOM      9  C   UNL     1      73.138  39.262  -8.208  1.00  0.00     0.336 A 
ATOM     10  O   UNL     1      73.692  38.957  -9.296  1.00  0.00    -0.246 OA
ATOM     11  O   UNL     1      73.815  39.957  -7.297  1.00  0.00    -0.423 OA
ENDROOT
BRANCH   3  12
ATOM     12  O   UNL     1      74.237  42.146  -3.054  1.00  0.00    -0.508 OA
ATOM     13  H   UNL     1      74.049  43.126  -2.877  1.00  0.00     0.293 HD
ENDBRANCH   3  12
TORSDOF 1
ENDMDL
MODEL 5
REMARK VINA RESULT:    -5.842      2.318      5.557
REMARK INTER + INTRA:          -6.013
REMARK INTER:                  -6.013
REMARK INTRA:                   0.000
REMARK UNBOUND:                 0.000
REMARK SMILES O=c1ccc2ccc(O)cc2o1
REMARK SMILES IDX 6 1 7 2 8 3 10 4 11 5 5 6 4 7 3 8 2 9 1 10 12 11 9 12
REMARK H PARENT 9 13
REMARK Flexibility Score: inf
ROOT
ATOM      1  C   UNL     1      74.377  40.578  -7.333  1.00  0.00     0.016 A 
ATOM      2  C   UNL     1      73.604  39.535  -7.853  1.00  0.00     0.047 A 
ATOM      3  C   UNL     1      72.504  39.046  -7.138  1.00  0.00     0.119 A 
ATOM      4  C   UNL     1      72.172  39.604  -5.895  1.00  0.00     0.094 A 
ATOM      5  C   UNL     1      72.939  40.648  -5.367  1.00  0.00     0.142 A 
ATOM      6  C   UNL     1      74.050  41.138  -6.090  1.00  0.00     0.018 A 
ATOM      7  C   UNL     1      74.797  42.183  -5.537  1.00  0.00     0.019 A 
ATOM      8  C   UNL     1      74.429  42.706  -4.297  1.00  0.00     0.094 A 
ATOM      9  C   UNL     1      73.317  42.170  -3.638  1.00  0.00     0.336 A 
ATOM     10  O   UNL     1      72.969  42.629  -2.519  1.00  0.00    -0.246 OA
ATOM     11  O   UNL     1      72.623  41.176  -4.187  1.00  0.00    -0.423 OA
ENDROOT
BRANCH   3  12
ATOM     12  O   UNL     1      71.746  38.007  -7.673  1.00  0.00    -0.508 OA
ATOM     13  H   UNL     1      71.697  37.846  -8.672  1.00  0.00     0.293 HD
ENDBRANCH   3  12
TORSDOF 1
ENDMDL
MODEL 6
REMARK VINA RESULT:    -5.806      3.442      4.607
REMARK INTER + INTRA:          -5.976
REMARK INTER:                  -5.976
REMARK INTRA:                   0.000
REMARK UNBOUND:                 0.000
REMARK SMILES O=c1ccc2ccc(O)cc2o1
REMARK SMILES IDX 6 1 7 2 8 3 10 4 11 5 5 6 4 7 3 8 2 9 1 10 12 11 9 12
REMARK H PARENT 9 13
REMARK Flexibility Score: inf
ROOT
ATOM      1  C   UNL     1      73.981  41.477  -5.030  1.00  0.00     0.016 A 
ATOM      2  C   UNL     1      72.961  41.326  -4.084  1.00  0.00     0.047 A 
ATOM      3  C   UNL     1      71.869  40.491  -4.350  1.00  0.00     0.119 A 
ATOM      4  C   UNL     1      71.795  39.801  -5.569  1.00  0.00     0.094 A 
ATOM      5  C   UNL     1      72.811  39.947  -6.521  1.00  0.00     0.142 A 
ATOM      6  C   UNL     1      73.911  40.791  -6.250  1.00  0.00     0.018 A 
ATOM      7  C   UNL     1      74.911  40.915  -7.220  1.00  0.00     0.019 A 
ATOM      8  C   UNL     1      74.793  40.210  -8.418  1.00  0.00     0.094 A 
ATOM      9  C   UNL     1      73.675  39.392  -8.617  1.00  0.00     0.336 A 
ATOM     10  O   UNL     1      73.552  38.748  -9.691  1.00  0.00    -0.246 OA
ATOM     11  O   UNL     1      72.738  39.291  -7.677  1.00  0.00    -0.423 OA
ENDROOT
BRANCH   3  12
ATOM     12  O   UNL     1      70.864  40.352  -3.396  1.00  0.00    -0.508 OA
ATOM     13  H   UNL     1      70.853  40.913  -2.552  1.00  0.00     0.293 HD
ENDBRANCH   3  12
TORSDOF 1
ENDMDL
MODEL 7
REMARK VINA RESULT:    -5.771      0.783      4.224
REMARK INTER + INTRA:          -5.940
REMARK INTER:                  -5.940
REMARK INTRA:                   0.000
REMARK UNBOUND:                 0.000
REMARK SMILES O=c1ccc2ccc(O)cc2o1
REMARK SMILES IDX 6 1 7 2 8 3 10 4 11 5 5 6 4 7 3 8 2 9 1 10 12 11 9 12
REMARK H PARENT 9 13
REMARK Flexibility Score: inf
ROOT
ATOM      1  C   UNL     1      72.860  41.391  -3.758  1.00  0.00     0.016 A 
ATOM      2  C   UNL     1      73.339  40.776  -4.919  1.00  0.00     0.047 A 
ATOM      3  C   UNL     1      74.210  41.461  -5.775  1.00  0.00     0.119 A 
ATOM      4  C   UNL     1      74.607  42.771  -5.468  1.00  0.00     0.094 A 
ATOM      5  C   UNL     1      74.133  43.394  -4.308  1.00  0.00     0.142 A 
ATOM      6  C   UNL     1      73.253  42.700  -3.448  1.00  0.00     0.018 A 
ATOM      7  C   UNL     1      72.796  43.350  -2.296  1.00  0.00     0.019 A 
ATOM      8  C   UNL     1      73.218  44.653  -2.033  1.00  0.00     0.094 A 
ATOM      9  C   UNL     1      74.091  45.278  -2.931  1.00  0.00     0.336 A 
ATOM     10  O   UNL     1      74.483  46.454  -2.710  1.00  0.00    -0.246 OA
ATOM     11  O   UNL     1      74.510  44.638  -4.019  1.00  0.00    -0.423 OA
ENDROOT
BRANCH   3  12
ATOM     12  O   UNL     1      74.678  40.831  -6.926  1.00  0.00    -0.508 OA
ATOM     13  H   UNL     1      75.570  40.351  -6.943  1.00  0.00     0.293 HD
ENDBRANCH   3  12
TORSDOF 1
ENDMDL
MODEL 8
REMARK VINA RESULT:    -5.682      2.716      5.425
REMARK INTER + INTRA:          -5.848
REMARK INTER:                  -5.848
REMARK INTRA:                   0.000
REMARK UNBOUND:                 0.000
REMARK SMILES O=c1ccc2ccc(O)cc2o1
REMARK SMILES IDX 6 1 7 2 8 3 10 4 11 5 5 6 4 7 3 8 2 9 1 10 12 11 9 12
REMARK H PARENT 9 13
REMARK Flexibility Score: inf
ROOT
ATOM      1  C   UNL     1      71.951  39.048  -7.122  1.00  0.00     0.016 A 
ATOM      2  C   UNL     1      72.830  39.045  -8.210  1.00  0.00     0.047 A 
ATOM      3  C   UNL     1      73.978  39.848  -8.195  1.00  0.00     0.119 A 
ATOM      4  C   UNL     1      74.250  40.659  -7.083  1.00  0.00     0.094 A 
ATOM      5  C   UNL     1      73.376  40.668  -5.990  1.00  0.00     0.142 A 
ATOM      6  C   UNL     1      72.219  39.857  -6.010  1.00  0.00     0.018 A 
ATOM      7  C   UNL     1      71.365  39.887  -4.902  1.00  0.00     0.019 A 
ATOM      8  C   UNL     1      71.678  40.710  -3.820  1.00  0.00     0.094 A 
ATOM      9  C   UNL     1      72.841  41.485  -3.870  1.00  0.00     0.336 A 
ATOM     10  O   UNL     1      73.140  42.234  -2.903  1.00  0.00    -0.246 OA
ATOM     11  O   UNL     1      73.637  41.438  -4.936  1.00  0.00    -0.423 OA
ENDROOT
BRANCH   3  12
ATOM     12  O   UNL     1      74.841  39.831  -9.288  1.00  0.00    -0.508 OA
ATOM     13  H   UNL     1      75.546  39.111  -9.395  1.00  0.00     0.293 HD
ENDBRANCH   3  12
TORSDOF 1
ENDMDL
MODEL 9
REMARK VINA RESULT:    -4.895     10.270     12.648
REMARK INTER + INTRA:          -5.038
REMARK INTER:                  -5.038
REMARK INTRA:                   0.000
REMARK UNBOUND:                 0.000
REMARK SMILES O=c1ccc2ccc(O)cc2o1
REMARK SMILES IDX 6 1 7 2 8 3 10 4 11 5 5 6 4 7 3 8 2 9 1 10 12 11 9 12
REMARK H PARENT 9 13
REMARK Flexibility Score: inf
ROOT
ATOM      1  C   UNL     1      72.591  48.874   8.876  1.00  0.00     0.016 A 
ATOM      2  C   UNL     1      71.396  49.261   9.492  1.00  0.00     0.047 A 
ATOM      3  C   UNL     1      70.196  49.259   8.771  1.00  0.00     0.119 A 
ATOM      4  C   UNL     1      70.188  48.866   7.425  1.00  0.00     0.094 A 
ATOM      5  C   UNL     1      71.379  48.476   6.801  1.00  0.00     0.142 A 
ATOM      6  C   UNL     1      72.588  48.481   7.531  1.00  0.00     0.018 A 
ATOM      7  C   UNL     1      73.762  48.086   6.880  1.00  0.00     0.019 A 
ATOM      8  C   UNL     1      73.705  47.704   5.540  1.00  0.00     0.094 A 
ATOM      9  C   UNL     1      72.471  47.724   4.880  1.00  0.00     0.336 A 
ATOM     10  O   UNL     1      72.400  47.382   3.671  1.00  0.00    -0.246 OA
ATOM     11  O   UNL     1      71.369  48.104   5.523  1.00  0.00    -0.423 OA
ENDROOT
BRANCH   3  12
ATOM     12  O   UNL     1      69.016  49.647   9.402  1.00  0.00    -0.508 OA
ATOM     13  H   UNL     1      68.263  50.093   8.890  1.00  0.00     0.293 HD
ENDBRANCH   3  12
TORSDOF 1
ENDMDL
