MODEL 1
REMARK VINA RESULT:     7.502      0.000      0.000
REMARK INTER + INTRA:           7.990
REMARK INTER:                   8.160
REMARK INTRA:                  -0.169
REMARK UNBOUND:                -0.169
REMARK SMILES CC1(C)CC[C@@]2(C(=O)[O-])CC[C@]3(C)C(=CC[C@@H]4[C@@]5(C)CC[C@@H](O)C(C)(C)[C@H]5CC[C@@]43C)[C@H]2C1
REMARK SMILES IDX 6 1 5 2 10 3 32 4 4 5 11 6 14 7 33 8 2 9 12 10 15 11 1 12
REMARK SMILES IDX 3 13 13 14 30 15 16 16 17 17 29 18 31 19 18 20 28 21 27 22
REMARK SMILES IDX 20 23 19 24 24 25 21 26 22 27 25 28 26 29 7 30 8 31 9 32
REMARK SMILES IDX 23 33
REMARK H PARENT 23 34
REMARK Flexibility Score: inf
ROOT
ATOM      1  C   UNL     1      13.647  12.816  -9.230  1.00  0.00     0.017 C 
ATOM      2  C   UNL     1      12.269  12.223  -8.810  1.00  0.00     0.014 C 
ATOM      3  C   UNL     1      14.390  13.413  -7.988  1.00  0.00     0.014 C 
ATOM      4  C   UNL     1      14.499  11.722  -9.943  1.00  0.00     0.028 C 
ATOM      5  C   UNL     1      12.360  10.892  -8.047  1.00  0.00     0.007 C 
ATOM      6  C   UNL     1      15.910  13.146  -7.894  1.00  0.00     0.013 C 
ATOM      7  C   UNL     1      15.918  12.209 -10.231  1.00  0.00    -0.064 C 
ATOM      8  C   UNL     1      14.552  10.369  -9.189  1.00  0.00     0.015 C 
ATOM      9  C   UNL     1      13.159   9.810  -8.809  1.00  0.00    -0.035 C 
ATOM     10  C   UNL     1      16.691  13.096  -9.258  1.00  0.00    -0.006 C 
ATOM     11  C   UNL     1      16.520  11.748 -11.334  1.00  0.00    -0.027 C 
ATOM     12  C   UNL     1      13.353   8.593  -7.878  1.00  0.00     0.011 C 
ATOM     13  C   UNL     1      12.391   9.327 -10.063  1.00  0.00     0.011 C 
ATOM     14  C   UNL     1      16.710  14.542  -9.839  1.00  0.00     0.017 C 
ATOM     15  C   UNL     1      18.204  12.537  -9.109  1.00  0.00    -0.020 C 
ATOM     16  C   UNL     1      17.964  11.968 -11.658  1.00  0.00     0.032 C 
ATOM     17  C   UNL     1      18.919  12.521 -10.530  1.00  0.00     0.006 C 
ATOM     18  C   UNL     1      18.212  11.069  -8.589  1.00  0.00     0.008 C 
ATOM     19  C   UNL     1      18.982  13.455  -8.102  1.00  0.00     0.012 C 
ATOM     20  C   UNL     1      20.367  11.819 -10.625  1.00  0.00    -0.025 C 
ATOM     21  C   UNL     1      19.588  10.389  -8.609  1.00  0.00     0.005 C 
ATOM     22  C   UNL     1      20.311  10.368  -9.993  1.00  0.00     0.003 C 
ATOM     23  C   UNL     1      21.488  12.643  -9.911  1.00  0.00     0.010 C 
ATOM     24  C   UNL     1      20.753  11.792 -12.151  1.00  0.00     0.012 C 
ATOM     25  C   UNL     1      21.729   9.632  -9.901  1.00  0.00    -0.006 C 
ATOM     26  C   UNL     1      22.870  11.959  -9.898  1.00  0.00     0.033 C 
ATOM     27  C   UNL     1      22.829  10.556  -9.273  1.00  0.00     0.120 C 
ATOM     28  C   UNL     1      21.629   8.326  -9.057  1.00  0.00     0.014 C 
ATOM     29  C   UNL     1      22.199   9.151 -11.305  1.00  0.00     0.014 C 
ENDROOT
BRANCH   1  30
ATOM     30  C   UNL     1      13.326  13.955 -10.198  1.00  0.00     0.048 C 
ATOM     31  O   UNL     1      13.011  15.104  -9.787  1.00  0.00    -0.550 OA
ATOM     32  O   UNL     1      13.402  13.737 -11.571  1.00  0.00    -0.550 OA
ENDBRANCH   1  30
BRANCH  27  33
ATOM     33  O   UNL     1      22.651  10.698  -7.884  1.00  0.00    -0.393 OA
ATOM     34  H   UNL     1      21.719  10.430  -7.670  1.00  0.00     0.210 HD
ENDBRANCH  27  33
TORSDOF 2
ENDMDL
