MODEL 1
REMARK VINA RESULT:    -2.287      0.000      0.000
REMARK INTER + INTRA:          -2.775
REMARK INTER:                  -2.688
REMARK INTRA:                  -0.087
REMARK UNBOUND:                -0.087
REMARK SMILES O=c1c(O)c(-c2ccc(O)cc2)oc2cc(O)cc(O)c12
REMARK SMILES IDX 5 1 3 2 2 3 1 4 21 5 19 6 18 7 16 8 15 9 14 10 13 11 6 12
REMARK SMILES IDX 7 13 8 14 9 15 12 16 11 17 10 18 4 20 20 22 17 24
REMARK H PARENT 10 19 4 21 20 23 17 25
REMARK Flexibility Score: inf
ROOT
ATOM      1  C   UNL     1      19.491  12.880  -9.691  1.00  0.00     0.180 A 
ATOM      2  C   UNL     1      20.780  12.766 -10.248  1.00  0.00     0.208 A 
ATOM      3  C   UNL     1      21.583  11.674  -9.884  1.00  0.00     0.238 A 
ATOM      4  O   UNL     1      22.734  11.557 -10.385  1.00  0.00    -0.285 OA
ATOM      5  C   UNL     1      21.095  10.728  -8.960  1.00  0.00     0.111 A 
ATOM      6  C   UNL     1      21.841   9.602  -8.538  1.00  0.00     0.134 A 
ATOM      7  C   UNL     1      21.290   8.710  -7.607  1.00  0.00     0.093 A 
ATOM      8  C   UNL     1      20.010   8.922  -7.089  1.00  0.00     0.123 A 
ATOM      9  C   UNL     1      19.266  10.033  -7.502  1.00  0.00     0.094 A 
ATOM     10  C   UNL     1      19.799  10.932  -8.430  1.00  0.00     0.146 A 
ATOM     11  O   UNL     1      19.071  11.976  -8.810  1.00  0.00    -0.452 OA
ENDROOT
BRANCH   1  12
ATOM     12  C   UNL     1      18.578  13.993 -10.039  1.00  0.00     0.021 A 
ATOM     13  C   UNL     1      17.363  13.713 -10.686  1.00  0.00     0.016 A 
ATOM     14  C   UNL     1      16.496  14.750 -11.044  1.00  0.00     0.047 A 
ATOM     15  C   UNL     1      16.841  16.080 -10.773  1.00  0.00     0.115 A 
ATOM     16  C   UNL     1      18.927  15.333  -9.788  1.00  0.00     0.016 A 
ATOM     17  C   UNL     1      18.059  16.368 -10.148  1.00  0.00     0.047 A 
BRANCH  15  18
ATOM     18  O   UNL     1      15.985  17.122 -11.125  1.00  0.00    -0.508 OA
ATOM     19  H   UNL     1      15.339  17.038 -11.902  1.00  0.00     0.293 HD
ENDBRANCH  15  18
ENDBRANCH   1  12
BRANCH   2  20
ATOM     20  O   UNL     1      21.258  13.745 -11.124  1.00  0.00    -0.502 OA
ATOM     21  H   UNL     1      22.179  14.156 -11.027  1.00  0.00     0.293 HD
ENDBRANCH   2  20
BRANCH   6  22
ATOM     22  O   UNL     1      23.123   9.362  -9.035  1.00  0.00    -0.507 OA
ATOM     23  H   UNL     1      23.564   9.989  -9.698  1.00  0.00     0.293 HD
ENDBRANCH   6  22
BRANCH   8  24
ATOM     24  O   UNL     1      19.485   8.022  -6.164  1.00  0.00    -0.508 OA
ATOM     25  H   UNL     1      19.462   8.233  -5.174  1.00  0.00     0.293 HD
ENDBRANCH   8  24
TORSDOF 5
ENDMDL
MODEL 2
REMARK VINA RESULT:    -0.582      0.679      0.679
REMARK INTER + INTRA:          -0.772
REMARK INTER:                  -0.561
REMARK INTRA:                  -0.210
REMARK UNBOUND:                -0.087
REMARK SMILES O=c1c(O)c(-c2ccc(O)cc2)oc2cc(O)cc(O)c12
REMARK SMILES IDX 5 1 3 2 2 3 1 4 21 5 19 6 18 7 16 8 15 9 14 10 13 11 6 12
REMARK SMILES IDX 7 13 8 14 9 15 12 16 11 17 10 18 4 20 20 22 17 24
REMARK H PARENT 10 19 4 21 20 23 17 25
REMARK Flexibility Score: inf
ROOT
ATOM      1  C   UNL     1      19.619  12.323  -9.426  1.00  0.00     0.180 A 
ATOM      2  C   UNL     1      20.886  12.095  -9.996  1.00  0.00     0.208 A 
ATOM      3  C   UNL     1      21.637  10.991  -9.563  1.00  0.00     0.238 A 
ATOM      4  O   UNL     1      22.768  10.772 -10.075  1.00  0.00    -0.285 OA
ATOM      5  C   UNL     1      21.120  10.148  -8.559  1.00  0.00     0.111 A 
ATOM      6  C   UNL     1      21.814   9.017  -8.065  1.00  0.00     0.134 A 
ATOM      7  C   UNL     1      21.236   8.231  -7.057  1.00  0.00     0.093 A 
ATOM      8  C   UNL     1      19.982   8.554  -6.534  1.00  0.00     0.123 A 
ATOM      9  C   UNL     1      19.290   9.669  -7.018  1.00  0.00     0.094 A 
ATOM     10  C   UNL     1      19.850  10.463  -8.023  1.00  0.00     0.146 A 
ATOM     11  O   UNL     1      19.170  11.514  -8.470  1.00  0.00    -0.452 OA
ENDROOT
BRANCH   1  12
ATOM     12  C   UNL     1      18.760  13.455  -9.842  1.00  0.00     0.021 A 
ATOM     13  C   UNL     1      17.646  13.212 -10.664  1.00  0.00     0.016 A 
ATOM     14  C   UNL     1      16.835  14.268 -11.088  1.00  0.00     0.047 A 
ATOM     15  C   UNL     1      17.135  15.582 -10.708  1.00  0.00     0.115 A 
ATOM     16  C   UNL     1      19.067  14.779  -9.481  1.00  0.00     0.016 A 
ATOM     17  C   UNL     1      18.253  15.834  -9.907  1.00  0.00     0.047 A 
BRANCH  15  18
ATOM     18  O   UNL     1      16.333  16.643 -11.123  1.00  0.00    -0.508 OA
ATOM     19  H   UNL     1      15.728  17.135 -10.476  1.00  0.00     0.293 HD
ENDBRANCH  15  18
ENDBRANCH   1  12
BRANCH   2  20
ATOM     20  O   UNL     1      21.397  12.975 -10.955  1.00  0.00    -0.502 OA
ATOM     21  H   UNL     1      21.994  13.756 -10.710  1.00  0.00     0.293 HD
ENDBRANCH   2  20
BRANCH   6  22
ATOM     22  O   UNL     1      23.070   8.669  -8.566  1.00  0.00    -0.507 OA
ATOM     23  H   UNL     1      23.506   9.188  -9.318  1.00  0.00     0.293 HD
ENDBRANCH   6  22
BRANCH   8  24
ATOM     24  O   UNL     1      19.430   7.757  -5.532  1.00  0.00    -0.508 OA
ATOM     25  H   UNL     1      19.024   6.852  -5.739  1.00  0.00     0.293 HD
ENDBRANCH   8  24
TORSDOF 5
ENDMDL
MODEL 3
REMARK VINA RESULT:    -0.306      1.755      7.008
REMARK INTER + INTRA:          -0.447
REMARK INTER:                  -0.449
REMARK INTRA:                   0.002
REMARK UNBOUND:                -0.087
REMARK SMILES O=c1c(O)c(-c2ccc(O)cc2)oc2cc(O)cc(O)c12
REMARK SMILES IDX 5 1 3 2 2 3 1 4 21 5 19 6 18 7 16 8 15 9 14 10 13 11 6 12
REMARK SMILES IDX 7 13 8 14 9 15 12 16 11 17 10 18 4 20 20 22 17 24
REMARK H PARENT 10 19 4 21 20 23 17 25
REMARK Flexibility Score: inf
ROOT
ATOM      1  C   UNL     1      19.576  11.425  -9.028  1.00  0.00     0.180 A 
ATOM      2  C   UNL     1      18.219  11.180  -9.316  1.00  0.00     0.208 A 
ATOM      3  C   UNL     1      17.456  12.200  -9.906  1.00  0.00     0.238 A 
ATOM      4  O   UNL     1      16.243  11.987 -10.178  1.00  0.00    -0.285 OA
ATOM      5  C   UNL     1      18.052  13.447 -10.180  1.00  0.00     0.111 A 
ATOM      6  C   UNL     1      17.352  14.527 -10.769  1.00  0.00     0.134 A 
ATOM      7  C   UNL     1      18.014  15.741 -11.002  1.00  0.00     0.093 A 
ATOM      8  C   UNL     1      19.358  15.897 -10.657  1.00  0.00     0.123 A 
ATOM      9  C   UNL     1      20.056  14.834 -10.075  1.00  0.00     0.094 A 
ATOM     10  C   UNL     1      19.414  13.616  -9.836  1.00  0.00     0.146 A 
ATOM     11  O   UNL     1      20.101  12.620  -9.287  1.00  0.00    -0.452 OA
ENDROOT
BRANCH   1  12
ATOM     12  C   UNL     1      20.451  10.395  -8.423  1.00  0.00     0.021 A 
ATOM     13  C   UNL     1      20.076   9.795  -7.210  1.00  0.00     0.016 A 
ATOM     14  C   UNL     1      20.898   8.837  -6.609  1.00  0.00     0.047 A 
ATOM     15  C   UNL     1      22.113   8.478  -7.207  1.00  0.00     0.115 A 
ATOM     16  C   UNL     1      21.682  10.045  -9.008  1.00  0.00     0.016 A 
ATOM     17  C   UNL     1      22.503   9.087  -8.404  1.00  0.00     0.047 A 
BRANCH  15  18
ATOM     18  O   UNL     1      22.940   7.524  -6.618  1.00  0.00    -0.508 OA
ATOM     19  H   UNL     1      23.016   7.438  -5.611  1.00  0.00     0.293 HD
ENDBRANCH  15  18
ENDBRANCH   1  12
BRANCH   2  20
ATOM     20  O   UNL     1      17.640   9.951  -8.989  1.00  0.00    -0.502 OA
ATOM     21  H   UNL     1      17.136   9.803  -8.122  1.00  0.00     0.293 HD
ENDBRANCH   2  20
BRANCH   6  22
ATOM     22  O   UNL     1      16.008  14.404 -11.125  1.00  0.00    -0.507 OA
ATOM     23  H   UNL     1      15.719  14.291 -12.089  1.00  0.00     0.293 HD
ENDBRANCH   6  22
BRANCH   8  24
ATOM     24  O   UNL     1      19.992  17.115 -10.898  1.00  0.00    -0.508 OA
ATOM     25  H   UNL     1      19.468  17.978 -10.980  1.00  0.00     0.293 HD
ENDBRANCH   8  24
TORSDOF 5
ENDMDL
