MODEL 1
REMARK VINA RESULT:    -5.770      0.000      0.000
REMARK INTER + INTRA:         -11.597
REMARK INTER:                 -10.829
REMARK INTRA:                  -0.767
REMARK UNBOUND:                -0.767
REMARK SMILES CCCCCCCCC=CCCCCCCCC(=O)[O-]
REMARK SMILES IDX 10 1 9 2 11 3 12 4 13 5 14 6 15 7 16 8 17 9 18 10 19 11
REMARK SMILES IDX 20 12 8 13 7 14 6 15 5 16 4 17 3 18 2 19 1 20
REMARK H PARENT
REMARK Flexibility Score: inf
ROOT
ATOM      1  C   UNL     1      22.887 -14.720  20.880  1.00  0.00    -0.031 C 
ATOM      2  C   UNL     1      22.982 -15.525  19.805  1.00  0.00    -0.031 C 
ENDROOT
BRANCH   1   3
ATOM      3  C   UNL     1      22.159 -13.399  20.869  1.00  0.00     0.027 C 
BRANCH   3   4
ATOM      4  C   UNL     1      22.780 -12.417  21.874  1.00  0.00     0.004 C 
BRANCH   4   5
ATOM      5  C   UNL     1      21.906 -11.171  22.111  1.00  0.00     0.000 C 
BRANCH   5   6
ATOM      6  C   UNL     1      20.834 -11.328  23.207  1.00  0.00     0.000 C 
BRANCH   6   7
ATOM      7  C   UNL     1      20.770 -10.118  24.154  1.00  0.00     0.000 C 
BRANCH   7   8
ATOM      8  C   UNL     1      21.668  -8.957  23.695  1.00  0.00     0.006 C 
BRANCH   8   9
ATOM      9  C   UNL     1      21.667  -7.778  24.677  1.00  0.00     0.053 C 
BRANCH   9  10
ATOM     10  C   UNL     1      20.361  -7.049  24.617  1.00  0.00     0.041 C 
ATOM     11  O   UNL     1      20.095  -6.306  23.635  1.00  0.00    -0.550 OA
ATOM     12  O   UNL     1      19.416  -7.233  25.618  1.00  0.00    -0.550 OA
ENDBRANCH   9  10
ENDBRANCH   8   9
ENDBRANCH   7   8
ENDBRANCH   6   7
ENDBRANCH   5   6
ENDBRANCH   4   5
ENDBRANCH   3   4
ENDBRANCH   1   3
BRANCH   2  13
ATOM     13  C   UNL     1      22.429 -15.195  18.442  1.00  0.00     0.027 C 
BRANCH  13  14
ATOM     14  C   UNL     1      22.941 -16.162  17.364  1.00  0.00     0.004 C 
BRANCH  14  15
ATOM     15  C   UNL     1      23.337 -17.525  17.951  1.00  0.00     0.000 C 
BRANCH  15  16
ATOM     16  C   UNL     1      23.522 -18.569  16.838  1.00  0.00     0.000 C 
BRANCH  16  17
ATOM     17  C   UNL     1      22.187 -19.141  16.335  1.00  0.00    -0.000 C 
BRANCH  17  18
ATOM     18  C   UNL     1      21.443 -19.947  17.415  1.00  0.00    -0.000 C 
BRANCH  18  19
ATOM     19  C   UNL     1      20.205 -20.671  16.862  1.00  0.00    -0.003 C 
ATOM     20  C   UNL     1      19.125 -20.887  17.923  1.00  0.00     0.004 C 
ENDBRANCH  18  19
ENDBRANCH  17  18
ENDBRANCH  16  17
ENDBRANCH  15  16
ENDBRANCH  14  15
ENDBRANCH  13  14
ENDBRANCH   2  13
TORSDOF 15
ENDMDL
MODEL 2
REMARK VINA RESULT:    -5.682      5.316     11.318
REMARK INTER + INTRA:         -11.432
REMARK INTER:                 -10.475
REMARK INTRA:                  -0.957
REMARK UNBOUND:                -0.767
REMARK SMILES CCCCCCCCC=CCCCCCCCC(=O)[O-]
REMARK SMILES IDX 10 1 9 2 11 3 12 4 13 5 14 6 15 7 16 8 17 9 18 10 19 11
REMARK SMILES IDX 20 12 8 13 7 14 6 15 5 16 4 17 3 18 2 19 1 20
REMARK H PARENT
REMARK Flexibility Score: inf
ROOT
ATOM      1  C   UNL     1      23.075 -13.864  21.228  1.00  0.00    -0.031 C 
ATOM      2  C   UNL     1      23.105 -12.680  21.866  1.00  0.00    -0.031 C 
ENDROOT
BRANCH   1   3
ATOM      3  C   UNL     1      22.076 -14.203  20.148  1.00  0.00     0.027 C 
BRANCH   3   4
ATOM      4  C   UNL     1      22.677 -15.181  19.128  1.00  0.00     0.004 C 
BRANCH   4   5
ATOM      5  C   UNL     1      23.076 -16.529  19.754  1.00  0.00     0.000 C 
BRANCH   5   6
ATOM      6  C   UNL     1      23.482 -17.621  18.745  1.00  0.00     0.000 C 
BRANCH   6   7
ATOM      7  C   UNL     1      23.113 -17.257  17.296  1.00  0.00     0.000 C 
BRANCH   7   8
ATOM      8  C   UNL     1      23.053 -18.486  16.373  1.00  0.00     0.006 C 
BRANCH   8   9
ATOM      9  C   UNL     1      21.921 -19.453  16.742  1.00  0.00     0.053 C 
BRANCH   9  10
ATOM     10  C   UNL     1      22.480 -20.733  17.278  1.00  0.00     0.041 C 
ATOM     11  O   UNL     1      21.728 -21.560  17.859  1.00  0.00    -0.550 OA
ATOM     12  O   UNL     1      23.823 -21.037  17.090  1.00  0.00    -0.550 OA
ENDBRANCH   9  10
ENDBRANCH   8   9
ENDBRANCH   7   8
ENDBRANCH   6   7
ENDBRANCH   5   6
ENDBRANCH   4   5
ENDBRANCH   3   4
ENDBRANCH   1   3
BRANCH   2  13
ATOM     13  C   UNL     1      22.123 -11.559  21.632  1.00  0.00     0.027 C 
BRANCH  13  14
ATOM     14  C   UNL     1      20.952 -11.605  22.625  1.00  0.00     0.004 C 
BRANCH  14  15
ATOM     15  C   UNL     1      21.090 -10.549  23.732  1.00  0.00     0.000 C 
BRANCH  15  16
ATOM     16  C   UNL     1      21.752  -9.272  23.191  1.00  0.00     0.000 C 
BRANCH  16  17
ATOM     17  C   UNL     1      21.879  -8.174  24.259  1.00  0.00    -0.000 C 
BRANCH  17  18
ATOM     18  C   UNL     1      20.886  -8.359  25.421  1.00  0.00    -0.000 C 
BRANCH  18  19
ATOM     19  C   UNL     1      19.783  -7.288  25.431  1.00  0.00    -0.003 C 
ATOM     20  C   UNL     1      19.976  -6.233  24.341  1.00  0.00     0.004 C 
ENDBRANCH  18  19
ENDBRANCH  17  18
ENDBRANCH  16  17
ENDBRANCH  15  16
ENDBRANCH  14  15
ENDBRANCH  13  14
ENDBRANCH   2  13
TORSDOF 15
ENDMDL
MODEL 3
REMARK VINA RESULT:    -5.558      5.123     11.600
REMARK INTER + INTRA:         -11.200
REMARK INTER:                 -10.501
REMARK INTRA:                  -0.699
REMARK UNBOUND:                -0.767
REMARK SMILES CCCCCCCCC=CCCCCCCCC(=O)[O-]
REMARK SMILES IDX 10 1 9 2 11 3 12 4 13 5 14 6 15 7 16 8 17 9 18 10 19 11
REMARK SMILES IDX 20 12 8 13 7 14 6 15 5 16 4 17 3 18 2 19 1 20
REMARK H PARENT
REMARK Flexibility Score: inf
ROOT
ATOM      1  C   UNL     1      22.272 -11.917  21.673  1.00  0.00    -0.031 C 
ATOM      2  C   UNL     1      21.886 -11.122  22.688  1.00  0.00    -0.031 C 
ENDROOT
BRANCH   1   3
ATOM      3  C   UNL     1      21.412 -13.020  21.106  1.00  0.00     0.027 C 
BRANCH   3   4
ATOM      4  C   UNL     1      22.275 -14.154  20.532  1.00  0.00     0.004 C 
BRANCH   4   5
ATOM      5  C   UNL     1      21.869 -14.549  19.100  1.00  0.00     0.000 C 
BRANCH   5   6
ATOM      6  C   UNL     1      22.791 -15.582  18.424  1.00  0.00     0.000 C 
BRANCH   6   7
ATOM      7  C   UNL     1      23.040 -16.821  19.302  1.00  0.00     0.000 C 
BRANCH   7   8
ATOM      8  C   UNL     1      23.507 -18.040  18.489  1.00  0.00     0.006 C 
BRANCH   8   9
ATOM      9  C   UNL     1      22.748 -18.198  17.165  1.00  0.00     0.053 C 
BRANCH   9  10
ATOM     10  C   UNL     1      22.394 -19.634  16.934  1.00  0.00     0.041 C 
ATOM     11  O   UNL     1      21.290 -19.938  16.408  1.00  0.00    -0.550 OA
ATOM     12  O   UNL     1      23.305 -20.633  17.250  1.00  0.00    -0.550 OA
ENDBRANCH   9  10
ENDBRANCH   8   9
ENDBRANCH   7   8
ENDBRANCH   6   7
ENDBRANCH   5   6
ENDBRANCH   4   5
ENDBRANCH   3   4
ENDBRANCH   1   3
BRANCH   2  13
ATOM     13  C   UNL     1      20.578 -11.257  23.427  1.00  0.00     0.027 C 
BRANCH  13  14
ATOM     14  C   UNL     1      20.515 -10.339  24.656  1.00  0.00     0.004 C 
BRANCH  14  15
ATOM     15  C   UNL     1      21.147  -8.965  24.385  1.00  0.00     0.000 C 
BRANCH  15  16
ATOM     16  C   UNL     1      20.868  -7.995  25.544  1.00  0.00     0.000 C 
BRANCH  16  17
ATOM     17  C   UNL     1      19.772  -6.972  25.207  1.00  0.00    -0.000 C 
BRANCH  17  18
ATOM     18  C   UNL     1      20.071  -6.184  23.919  1.00  0.00    -0.000 C 
BRANCH  18  19
ATOM     19  C   UNL     1      19.065  -5.047  23.675  1.00  0.00    -0.003 C 
ATOM     20  C   UNL     1      17.855  -5.121  24.607  1.00  0.00     0.004 C 
ENDBRANCH  18  19
ENDBRANCH  17  18
ENDBRANCH  16  17
ENDBRANCH  15  16
ENDBRANCH  14  15
ENDBRANCH  13  14
ENDBRANCH   2  13
TORSDOF 15
ENDMDL
MODEL 4
REMARK VINA RESULT:    -5.544      1.798      2.923
REMARK INTER + INTRA:         -11.172
REMARK INTER:                 -10.360
REMARK INTRA:                  -0.812
REMARK UNBOUND:                -0.767
REMARK SMILES CCCCCCCCC=CCCCCCCCC(=O)[O-]
REMARK SMILES IDX 10 1 9 2 11 3 12 4 13 5 14 6 15 7 16 8 17 9 18 10 19 11
REMARK SMILES IDX 20 12 8 13 7 14 6 15 5 16 4 17 3 18 2 19 1 20
REMARK H PARENT
REMARK Flexibility Score: inf
ROOT
ATOM      1  C   UNL     1      23.000 -11.896  21.654  1.00  0.00    -0.031 C 
ATOM      2  C   UNL     1      23.656 -13.010  21.280  1.00  0.00    -0.031 C 
ENDROOT
BRANCH   1   3
ATOM      3  C   UNL     1      21.538 -11.877  22.026  1.00  0.00     0.027 C 
BRANCH   3   4
ATOM      4  C   UNL     1      21.252 -10.799  23.083  1.00  0.00     0.004 C 
BRANCH   4   5
ATOM      5  C   UNL     1      21.876  -9.436  22.732  1.00  0.00     0.000 C 
BRANCH   5   6
ATOM      6  C   UNL     1      21.900  -8.415  23.886  1.00  0.00     0.000 C 
BRANCH   6   7
ATOM      7  C   UNL     1      20.742  -8.614  24.879  1.00  0.00     0.000 C 
BRANCH   7   8
ATOM      8  C   UNL     1      20.771  -7.598  26.034  1.00  0.00     0.006 C 
BRANCH   8   9
ATOM      9  C   UNL     1      22.172  -7.030  26.292  1.00  0.00     0.053 C 
BRANCH   9  10
ATOM     10  C   UNL     1      22.103  -5.885  27.253  1.00  0.00     0.041 C 
ATOM     11  O   UNL     1      21.945  -4.709  26.828  1.00  0.00    -0.550 OA
ATOM     12  O   UNL     1      22.159  -6.121  28.621  1.00  0.00    -0.550 OA
ENDBRANCH   9  10
ENDBRANCH   8   9
ENDBRANCH   7   8
ENDBRANCH   6   7
ENDBRANCH   5   6
ENDBRANCH   4   5
ENDBRANCH   3   4
ENDBRANCH   1   3
BRANCH   2  13
ATOM     13  C   UNL     1      23.015 -14.368  21.130  1.00  0.00     0.027 C 
BRANCH  13  14
ATOM     14  C   UNL     1      22.248 -14.497  19.806  1.00  0.00     0.004 C 
BRANCH  14  15
ATOM     15  C   UNL     1      22.888 -15.529  18.865  1.00  0.00     0.000 C 
BRANCH  15  16
ATOM     16  C   UNL     1      23.129 -16.860  19.593  1.00  0.00     0.000 C 
BRANCH  16  17
ATOM     17  C   UNL     1      23.316 -18.039  18.625  1.00  0.00    -0.000 C 
BRANCH  17  18
ATOM     18  C   UNL     1      23.018 -17.659  17.164  1.00  0.00    -0.000 C 
BRANCH  18  19
ATOM     19  C   UNL     1      22.438 -18.832  16.356  1.00  0.00    -0.003 C 
ATOM     20  C   UNL     1      22.492 -20.156  17.118  1.00  0.00     0.004 C 
ENDBRANCH  18  19
ENDBRANCH  17  18
ENDBRANCH  16  17
ENDBRANCH  15  16
ENDBRANCH  14  15
ENDBRANCH  13  14
ENDBRANCH   2  13
TORSDOF 15
ENDMDL
MODEL 5
REMARK VINA RESULT:    -5.451      5.137     11.913
REMARK INTER + INTRA:         -10.999
REMARK INTER:                 -10.442
REMARK INTRA:                  -0.557
REMARK UNBOUND:                -0.767
REMARK SMILES CCCCCCCCC=CCCCCCCCC(=O)[O-]
REMARK SMILES IDX 10 1 9 2 11 3 12 4 13 5 14 6 15 7 16 8 17 9 18 10 19 11
REMARK SMILES IDX 20 12 8 13 7 14 6 15 5 16 4 17 3 18 2 19 1 20
REMARK H PARENT
REMARK Flexibility Score: inf
ROOT
ATOM      1  C   UNL     1      22.708 -11.946  21.645  1.00  0.00    -0.031 C 
ATOM      2  C   UNL     1      22.176 -11.007  22.448  1.00  0.00    -0.031 C 
ENDROOT
BRANCH   1   3
ATOM      3  C   UNL     1      21.986 -13.212  21.252  1.00  0.00     0.027 C 
BRANCH   3   4
ATOM      4  C   UNL     1      22.977 -14.299  20.809  1.00  0.00     0.004 C 
BRANCH   4   5
ATOM      5  C   UNL     1      22.637 -14.893  19.430  1.00  0.00     0.000 C 
BRANCH   5   6
ATOM      6  C   UNL     1      22.981 -16.385  19.262  1.00  0.00     0.000 C 
BRANCH   6   7
ATOM      7  C   UNL     1      23.016 -16.825  17.787  1.00  0.00     0.000 C 
BRANCH   7   8
ATOM      8  C   UNL     1      23.337 -18.320  17.622  1.00  0.00     0.006 C 
BRANCH   8   9
ATOM      9  C   UNL     1      22.642 -18.947  16.406  1.00  0.00     0.053 C 
BRANCH   9  10
ATOM     10  C   UNL     1      21.509 -19.820  16.845  1.00  0.00     0.041 C 
ATOM     11  O   UNL     1      21.233 -19.933  18.069  1.00  0.00    -0.550 OA
ATOM     12  O   UNL     1      20.725 -20.469  15.900  1.00  0.00    -0.550 OA
ENDBRANCH   9  10
ENDBRANCH   8   9
ENDBRANCH   7   8
ENDBRANCH   6   7
ENDBRANCH   5   6
ENDBRANCH   4   5
ENDBRANCH   3   4
ENDBRANCH   1   3
BRANCH   2  13
ATOM     13  C   UNL     1      20.822 -11.114  23.105  1.00  0.00     0.027 C 
BRANCH  13  14
ATOM     14  C   UNL     1      20.707 -10.202  24.336  1.00  0.00     0.004 C 
BRANCH  14  15
ATOM     15  C   UNL     1      21.407  -8.852  24.123  1.00  0.00     0.000 C 
BRANCH  15  16
ATOM     16  C   UNL     1      20.619  -7.714  24.792  1.00  0.00     0.000 C 
BRANCH  16  17
ATOM     17  C   UNL     1      20.892  -7.614  26.301  1.00  0.00    -0.000 C 
BRANCH  17  18
ATOM     18  C   UNL     1      22.227  -6.917  26.618  1.00  0.00    -0.000 C 
BRANCH  18  19
ATOM     19  C   UNL     1      22.231  -6.251  28.003  1.00  0.00    -0.003 C 
ATOM     20  C   UNL     1      23.476  -6.596  28.821  1.00  0.00     0.004 C 
ENDBRANCH  18  19
ENDBRANCH  17  18
ENDBRANCH  16  17
ENDBRANCH  15  16
ENDBRANCH  14  15
ENDBRANCH  13  14
ENDBRANCH   2  13
TORSDOF 15
ENDMDL
MODEL 6
REMARK VINA RESULT:    -5.415      5.374     11.358
REMARK INTER + INTRA:         -10.931
REMARK INTER:                 -10.099
REMARK INTRA:                  -0.832
REMARK UNBOUND:                -0.767
REMARK SMILES CCCCCCCCC=CCCCCCCCC(=O)[O-]
REMARK SMILES IDX 10 1 9 2 11 3 12 4 13 5 14 6 15 7 16 8 17 9 18 10 19 11
REMARK SMILES IDX 20 12 8 13 7 14 6 15 5 16 4 17 3 18 2 19 1 20
REMARK H PARENT
REMARK Flexibility Score: inf
ROOT
ATOM      1  C   UNL     1      23.107 -14.853  20.437  1.00  0.00    -0.031 C 
ATOM      2  C   UNL     1      22.610 -13.874  21.215  1.00  0.00    -0.031 C 
ENDROOT
BRANCH   1   3
ATOM      3  C   UNL     1      22.515 -15.240  19.104  1.00  0.00     0.027 C 
BRANCH   3   4
ATOM      4  C   UNL     1      23.017 -16.620  18.655  1.00  0.00     0.004 C 
BRANCH   4   5
ATOM      5  C   UNL     1      22.958 -16.811  17.128  1.00  0.00     0.000 C 
BRANCH   5   6
ATOM      6  C   UNL     1      23.107 -18.268  16.648  1.00  0.00     0.000 C 
BRANCH   6   7
ATOM      7  C   UNL     1      23.091 -19.279  17.808  1.00  0.00     0.000 C 
BRANCH   7   8
ATOM      8  C   UNL     1      21.910 -20.261  17.723  1.00  0.00     0.006 C 
BRANCH   8   9
ATOM      9  C   UNL     1      21.091 -20.096  16.436  1.00  0.00     0.053 C 
BRANCH   9  10
ATOM     10  C   UNL     1      19.929 -21.039  16.433  1.00  0.00     0.041 C 
ATOM     11  O   UNL     1      19.901 -22.007  15.626  1.00  0.00    -0.550 OA
ATOM     12  O   UNL     1      18.903 -20.881  17.355  1.00  0.00    -0.550 OA
ENDBRANCH   9  10
ENDBRANCH   8   9
ENDBRANCH   7   8
ENDBRANCH   6   7
ENDBRANCH   5   6
ENDBRANCH   4   5
ENDBRANCH   3   4
ENDBRANCH   1   3
BRANCH   2  13
ATOM     13  C   UNL     1      21.373 -13.074  20.892  1.00  0.00     0.027 C 
BRANCH  13  14
ATOM     14  C   UNL     1      21.104 -11.984  21.940  1.00  0.00     0.004 C 
BRANCH  14  15
ATOM     15  C   UNL     1      22.299 -11.035  22.107  1.00  0.00     0.000 C 
BRANCH  15  16
ATOM     16  C   UNL     1      21.899  -9.783  22.904  1.00  0.00     0.000 C 
BRANCH  16  17
ATOM     17  C   UNL     1      20.848 -10.081  23.985  1.00  0.00    -0.000 C 
BRANCH  17  18
ATOM     18  C   UNL     1      20.838  -9.029  25.109  1.00  0.00    -0.000 C 
BRANCH  18  19
ATOM     19  C   UNL     1      21.563  -7.733  24.710  1.00  0.00    -0.003 C 
ATOM     20  C   UNL     1      20.794  -6.477  25.119  1.00  0.00     0.004 C 
ENDBRANCH  18  19
ENDBRANCH  17  18
ENDBRANCH  16  17
ENDBRANCH  15  16
ENDBRANCH  14  15
ENDBRANCH  13  14
ENDBRANCH   2  13
TORSDOF 15
ENDMDL
MODEL 7
REMARK VINA RESULT:    -5.356      1.324      2.294
REMARK INTER + INTRA:         -10.821
REMARK INTER:                 -10.191
REMARK INTRA:                  -0.629
REMARK UNBOUND:                -0.767
REMARK SMILES CCCCCCCCC=CCCCCCCCC(=O)[O-]
REMARK SMILES IDX 10 1 9 2 11 3 12 4 13 5 14 6 15 7 16 8 17 9 18 10 19 11
REMARK SMILES IDX 20 12 8 13 7 14 6 15 5 16 4 17 3 18 2 19 1 20
REMARK H PARENT
REMARK Flexibility Score: inf
ROOT
ATOM      1  C   UNL     1      23.070 -16.585  20.125  1.00  0.00    -0.031 C 
ATOM      2  C   UNL     1      23.380 -17.531  19.219  1.00  0.00    -0.031 C 
ENDROOT
BRANCH   1   3
ATOM      3  C   UNL     1      22.618 -15.194  19.755  1.00  0.00     0.027 C 
BRANCH   3   4
ATOM      4  C   UNL     1      22.921 -14.196  20.883  1.00  0.00     0.004 C 
BRANCH   4   5
ATOM      5  C   UNL     1      21.849 -13.097  21.013  1.00  0.00     0.000 C 
BRANCH   5   6
ATOM      6  C   UNL     1      22.253 -11.897  21.891  1.00  0.00     0.000 C 
BRANCH   6   7
ATOM      7  C   UNL     1      21.066 -11.307  22.673  1.00  0.00     0.000 C 
BRANCH   7   8
ATOM      8  C   UNL     1      21.416  -9.983  23.374  1.00  0.00     0.006 C 
BRANCH   8   9
ATOM      9  C   UNL     1      20.701  -9.816  24.721  1.00  0.00     0.053 C 
BRANCH   9  10
ATOM     10  C   UNL     1      20.743  -8.386  25.160  1.00  0.00     0.041 C 
ATOM     11  O   UNL     1      19.676  -7.725  25.271  1.00  0.00    -0.550 OA
ATOM     12  O   UNL     1      21.955  -7.798  25.498  1.00  0.00    -0.550 OA
ENDBRANCH   9  10
ENDBRANCH   8   9
ENDBRANCH   7   8
ENDBRANCH   6   7
ENDBRANCH   5   6
ENDBRANCH   4   5
ENDBRANCH   3   4
ENDBRANCH   1   3
BRANCH   2  13
ATOM     13  C   UNL     1      23.374 -17.316  17.726  1.00  0.00     0.027 C 
BRANCH  13  14
ATOM     14  C   UNL     1      22.410 -18.276  17.011  1.00  0.00     0.004 C 
BRANCH  14  15
ATOM     15  C   UNL     1      22.970 -19.703  16.931  1.00  0.00     0.000 C 
BRANCH  15  16
ATOM     16  C   UNL     1      22.020 -20.704  17.606  1.00  0.00     0.000 C 
BRANCH  16  17
ATOM     17  C   UNL     1      20.561 -20.534  17.153  1.00  0.00    -0.000 C 
BRANCH  17  18
ATOM     18  C   UNL     1      20.199 -21.443  15.965  1.00  0.00    -0.000 C 
BRANCH  18  19
ATOM     19  C   UNL     1      18.719 -21.331  15.566  1.00  0.00    -0.003 C 
ATOM     20  C   UNL     1      18.526 -21.164  14.058  1.00  0.00     0.004 C 
ENDBRANCH  18  19
ENDBRANCH  17  18
ENDBRANCH  16  17
ENDBRANCH  15  16
ENDBRANCH  14  15
ENDBRANCH  13  14
ENDBRANCH   2  13
TORSDOF 15
ENDMDL
MODEL 8
REMARK VINA RESULT:    -5.343      1.441      3.798
REMARK INTER + INTRA:         -10.796
REMARK INTER:                 -10.286
REMARK INTRA:                  -0.511
REMARK UNBOUND:                -0.767
REMARK SMILES CCCCCCCCC=CCCCCCCCC(=O)[O-]
REMARK SMILES IDX 10 1 9 2 11 3 12 4 13 5 14 6 15 7 16 8 17 9 18 10 19 11
REMARK SMILES IDX 20 12 8 13 7 14 6 15 5 16 4 17 3 18 2 19 1 20
REMARK H PARENT
REMARK Flexibility Score: inf
ROOT
ATOM      1  C   UNL     1      21.870 -11.072  22.775  1.00  0.00    -0.031 C 
ATOM      2  C   UNL     1      22.003 -11.894  21.717  1.00  0.00    -0.031 C 
ENDROOT
BRANCH   1   3
ATOM      3  C   UNL     1      20.644 -11.037  23.653  1.00  0.00     0.027 C 
BRANCH   3   4
ATOM      4  C   UNL     1      20.700  -9.856  24.634  1.00  0.00     0.004 C 
BRANCH   4   5
ATOM      5  C   UNL     1      21.316  -8.589  24.010  1.00  0.00     0.000 C 
BRANCH   5   6
ATOM      6  C   UNL     1      21.823  -7.546  25.024  1.00  0.00     0.000 C 
BRANCH   6   7
ATOM      7  C   UNL     1      20.716  -6.587  25.494  1.00  0.00     0.000 C 
BRANCH   7   8
ATOM      8  C   UNL     1      21.151  -5.112  25.452  1.00  0.00     0.006 C 
BRANCH   8   9
ATOM      9  C   UNL     1      20.256  -4.253  24.549  1.00  0.00     0.053 C 
BRANCH   9  10
ATOM     10  C   UNL     1      19.098  -5.057  24.044  1.00  0.00     0.041 C 
ATOM     11  O   UNL     1      19.249  -5.844  23.073  1.00  0.00    -0.550 OA
ATOM     12  O   UNL     1      17.866  -4.975  24.681  1.00  0.00    -0.550 OA
ENDBRANCH   9  10
ENDBRANCH   8   9
ENDBRANCH   7   8
ENDBRANCH   6   7
ENDBRANCH   5   6
ENDBRANCH   4   5
ENDBRANCH   3   4
ENDBRANCH   1   3
BRANCH   2  13
ATOM     13  C   UNL     1      20.933 -12.842  21.235  1.00  0.00     0.027 C 
BRANCH  13  14
ATOM     14  C   UNL     1      21.438 -13.750  20.103  1.00  0.00     0.004 C 
BRANCH  14  15
ATOM     15  C   UNL     1      22.683 -14.549  20.515  1.00  0.00     0.000 C 
BRANCH  15  16
ATOM     16  C   UNL     1      22.926 -15.722  19.552  1.00  0.00     0.000 C 
BRANCH  16  17
ATOM     17  C   UNL     1      22.612 -15.362  18.091  1.00  0.00    -0.000 C 
BRANCH  17  18
ATOM     18  C   UNL     1      23.013 -16.476  17.107  1.00  0.00    -0.000 C 
BRANCH  18  19
ATOM     19  C   UNL     1      23.151 -17.846  17.791  1.00  0.00    -0.003 C 
ATOM     20  C   UNL     1      22.304 -18.928  17.119  1.00  0.00     0.004 C 
ENDBRANCH  18  19
ENDBRANCH  17  18
ENDBRANCH  16  17
ENDBRANCH  15  16
ENDBRANCH  14  15
ENDBRANCH  13  14
ENDBRANCH   2  13
TORSDOF 15
ENDMDL
MODEL 9
REMARK VINA RESULT:    -5.299      4.660     11.624
REMARK INTER + INTRA:         -10.713
REMARK INTER:                  -9.691
REMARK INTRA:                  -1.021
REMARK UNBOUND:                -0.767
REMARK SMILES CCCCCCCCC=CCCCCCCCC(=O)[O-]
REMARK SMILES IDX 10 1 9 2 11 3 12 4 13 5 14 6 15 7 16 8 17 9 18 10 19 11
REMARK SMILES IDX 20 12 8 13 7 14 6 15 5 16 4 17 3 18 2 19 1 20
REMARK H PARENT
REMARK Flexibility Score: inf
ROOT
ATOM      1  C   UNL     1      21.787  -9.835  22.847  1.00  0.00    -0.031 C 
ATOM      2  C   UNL     1      21.579  -8.876  23.767  1.00  0.00    -0.031 C 
ENDROOT
BRANCH   1   3
ATOM      3  C   UNL     1      21.060 -11.158  22.845  1.00  0.00     0.027 C 
BRANCH   3   4
ATOM      4  C   UNL     1      21.534 -12.047  21.685  1.00  0.00     0.004 C 
BRANCH   4   5
ATOM      5  C   UNL     1      23.016 -12.449  21.807  1.00  0.00     0.000 C 
BRANCH   5   6
ATOM      6  C   UNL     1      23.368 -13.823  21.204  1.00  0.00     0.000 C 
BRANCH   6   7
ATOM      7  C   UNL     1      22.246 -14.388  20.315  1.00  0.00     0.000 C 
BRANCH   7   8
ATOM      8  C   UNL     1      22.782 -15.242  19.154  1.00  0.00     0.006 C 
BRANCH   8   9
ATOM      9  C   UNL     1      23.071 -16.692  19.566  1.00  0.00     0.053 C 
BRANCH   9  10
ATOM     10  C   UNL     1      22.953 -17.603  18.384  1.00  0.00     0.041 C 
ATOM     11  O   UNL     1      22.473 -18.759  18.522  1.00  0.00    -0.550 OA
ATOM     12  O   UNL     1      23.325 -17.156  17.123  1.00  0.00    -0.550 OA
ENDBRANCH   9  10
ENDBRANCH   8   9
ENDBRANCH   7   8
ENDBRANCH   6   7
ENDBRANCH   5   6
ENDBRANCH   4   5
ENDBRANCH   3   4
ENDBRANCH   1   3
BRANCH   2  13
ATOM     13  C   UNL     1      20.643  -9.010  24.942  1.00  0.00     0.027 C 
BRANCH  13  14
ATOM     14  C   UNL     1      20.297  -7.646  25.560  1.00  0.00     0.004 C 
BRANCH  14  15
ATOM     15  C   UNL     1      21.512  -6.991  26.233  1.00  0.00     0.000 C 
BRANCH  15  16
ATOM     16  C   UNL     1      21.635  -5.515  25.824  1.00  0.00     0.000 C 
BRANCH  16  17
ATOM     17  C   UNL     1      21.021  -5.229  24.444  1.00  0.00    -0.000 C 
BRANCH  17  18
ATOM     18  C   UNL     1      19.914  -4.162  24.497  1.00  0.00    -0.000 C 
BRANCH  18  19
ATOM     19  C   UNL     1      18.669  -4.562  23.690  1.00  0.00    -0.003 C 
ATOM     20  C   UNL     1      17.432  -4.752  24.568  1.00  0.00     0.004 C 
ENDBRANCH  18  19
ENDBRANCH  17  18
ENDBRANCH  16  17
ENDBRANCH  15  16
ENDBRANCH  14  15
ENDBRANCH  13  14
ENDBRANCH   2  13
TORSDOF 15
ENDMDL
