MODEL 1
REMARK VINA RESULT:    -5.486      0.000      0.000
REMARK INTER + INTRA:          -8.024
REMARK INTER:                  -7.570
REMARK INTRA:                  -0.454
REMARK UNBOUND:                -0.454
REMARK SMILES CC[C@@H](CC[C@@H](C)[C@H]1CC[C@@H]2[C@@H]3CC=C4C[C@@H](O)CC[C@]4(C)[C@@H]3CC[C@@]21C)C(C)C
REMARK SMILES IDX 5 1 4 2 3 3 2 4 1 5 28 6 29 7 30 8 6 9 7 10 8 11 9 12 26 13
REMARK SMILES IDX 10 14 11 15 25 16 27 17 12 18 24 19 23 20 13 21 21 22 14 23
REMARK SMILES IDX 15 24 20 25 22 26 16 27 19 28 17 29 18 30
REMARK H PARENT 18 31
REMARK Flexibility Score: inf
ROOT
ATOM      1  C   UNL     1    -118.415  14.607  19.375  1.00  0.00     0.004 C 
ENDROOT
BRANCH   1   2
ATOM      2  C   UNL     1    -118.404  13.902  17.994  1.00  0.00     0.004 C 
BRANCH   2   3
ATOM      3  C   UNL     1    -117.002  13.523  17.421  1.00  0.00    -0.009 C 
BRANCH   3   4
ATOM      4  C   UNL     1    -116.414  14.604  16.459  1.00  0.00     0.000 C 
ATOM      5  C   UNL     1    -117.419  15.699  16.089  1.00  0.00     0.004 C 
ENDBRANCH   3   4
BRANCH   3   6
ATOM      6  C   UNL     1    -116.960  12.055  16.872  1.00  0.00    -0.014 C 
ATOM      7  C   UNL     1    -118.357  11.442  16.705  1.00  0.00     0.007 C 
ATOM      8  C   UNL     1    -116.061  11.102  17.672  1.00  0.00     0.007 C 
ENDBRANCH   3   6
ENDBRANCH   2   3
ENDBRANCH   1   2
BRANCH   1   9
ATOM      9  C   UNL     1    -119.412  13.971  20.385  1.00  0.00    -0.011 C 
ATOM     10  C   UNL     1    -120.125  12.766  19.738  1.00  0.00     0.008 C 
BRANCH   9  11
ATOM     11  C   UNL     1    -118.758  13.532  21.749  1.00  0.00    -0.002 C 
ATOM     12  C   UNL     1    -119.659  13.589  22.981  1.00  0.00     0.005 C 
ATOM     13  C   UNL     1    -118.061  12.136  21.816  1.00  0.00    -0.026 C 
ATOM     14  C   UNL     1    -118.837  12.917  24.067  1.00  0.00     0.005 C 
ATOM     15  C   UNL     1    -118.039  11.812  23.348  1.00  0.00    -0.001 C 
ATOM     16  C   UNL     1    -116.638  12.212  21.196  1.00  0.00     0.007 C 
ATOM     17  C   UNL     1    -118.860  11.032  21.079  1.00  0.00     0.012 C 
ATOM     18  C   UNL     1    -116.637  11.509  23.954  1.00  0.00     0.000 C 
ATOM     19  C   UNL     1    -115.708  11.052  21.597  1.00  0.00     0.005 C 
ATOM     20  C   UNL     1    -115.886  10.500  23.051  1.00  0.00     0.003 C 
ATOM     21  C   UNL     1    -115.762  12.747  24.289  1.00  0.00     0.031 C 
ATOM     22  C   UNL     1    -114.529  10.060  23.716  1.00  0.00    -0.008 C 
ATOM     23  C   UNL     1    -114.272  12.482  24.330  1.00  0.00    -0.027 C 
ATOM     24  C   UNL     1    -113.687  11.304  24.010  1.00  0.00    -0.065 C 
ATOM     25  C   UNL     1    -113.768   9.056  22.781  1.00  0.00     0.014 C 
ATOM     26  C   UNL     1    -114.798   9.336  25.065  1.00  0.00     0.016 C 
ATOM     27  C   UNL     1    -112.192  11.160  24.212  1.00  0.00     0.063 C 
ATOM     28  C   UNL     1    -112.285   8.876  23.136  1.00  0.00     0.033 C 
ATOM     29  C   UNL     1    -111.572  10.234  23.158  1.00  0.00     0.118 C 
BRANCH  29  30
ATOM     30  O   UNL     1    -110.197  10.067  23.394  1.00  0.00    -0.393 OA
ATOM     31  H   UNL     1    -109.940  10.678  24.133  1.00  0.00     0.210 HD
ENDBRANCH  29  30
ENDBRANCH   9  11
ENDBRANCH   1   9
TORSDOF 7
ENDMDL
MODEL 2
REMARK VINA RESULT:    -4.671     14.932     17.455
REMARK INTER + INTRA:          -6.900
REMARK INTER:                  -5.367
REMARK INTRA:                  -1.532
REMARK UNBOUND:                -0.454
REMARK SMILES CC[C@@H](CC[C@@H](C)[C@H]1CC[C@@H]2[C@@H]3CC=C4C[C@@H](O)CC[C@]4(C)[C@@H]3CC[C@@]21C)C(C)C
REMARK SMILES IDX 5 1 4 2 3 3 2 4 1 5 28 6 29 7 30 8 6 9 7 10 8 11 9 12 26 13
REMARK SMILES IDX 10 14 11 15 25 16 27 17 12 18 24 19 23 20 13 21 21 22 14 23
REMARK SMILES IDX 15 24 20 25 22 26 16 27 19 28 17 29 18 30
REMARK H PARENT 18 31
REMARK Flexibility Score: inf
ROOT
ATOM      1  C   UNL     1    -113.748  27.561  19.996  1.00  0.00     0.004 C 
ENDROOT
BRANCH   1   2
ATOM      2  C   UNL     1    -114.927  26.640  19.587  1.00  0.00     0.004 C 
BRANCH   2   3
ATOM      3  C   UNL     1    -115.946  27.234  18.564  1.00  0.00    -0.009 C 
BRANCH   3   4
ATOM      4  C   UNL     1    -117.432  26.889  18.900  1.00  0.00     0.000 C 
ATOM      5  C   UNL     1    -118.283  26.597  17.661  1.00  0.00     0.004 C 
ENDBRANCH   3   4
BRANCH   3   6
ATOM      6  C   UNL     1    -115.523  26.965  17.078  1.00  0.00    -0.014 C 
ATOM      7  C   UNL     1    -114.606  25.744  16.932  1.00  0.00     0.007 C 
ATOM      8  C   UNL     1    -114.903  28.175  16.365  1.00  0.00     0.007 C 
ENDBRANCH   3   6
ENDBRANCH   2   3
ENDBRANCH   1   2
BRANCH   1   9
ATOM      9  C   UNL     1    -112.437  26.784  20.305  1.00  0.00    -0.011 C 
ATOM     10  C   UNL     1    -112.720  25.269  20.361  1.00  0.00     0.008 C 
BRANCH   9  11
ATOM     11  C   UNL     1    -111.264  27.069  19.293  1.00  0.00    -0.002 C 
ATOM     12  C   UNL     1    -111.654  27.727  17.973  1.00  0.00     0.005 C 
ATOM     13  C   UNL     1    -110.030  27.878  19.805  1.00  0.00    -0.026 C 
ATOM     14  C   UNL     1    -110.323  28.065  17.324  1.00  0.00     0.005 C 
ATOM     15  C   UNL     1    -109.384  28.429  18.489  1.00  0.00    -0.001 C 
ATOM     16  C   UNL     1    -109.070  26.954  20.606  1.00  0.00     0.007 C 
ATOM     17  C   UNL     1    -110.430  29.072  20.709  1.00  0.00     0.012 C 
ATOM     18  C   UNL     1    -107.886  28.065  18.269  1.00  0.00     0.000 C 
ATOM     19  C   UNL     1    -107.644  27.510  20.771  1.00  0.00     0.005 C 
ATOM     20  C   UNL     1    -107.086  28.340  19.566  1.00  0.00     0.003 C 
ATOM     21  C   UNL     1    -107.609  26.644  17.710  1.00  0.00     0.031 C 
ATOM     22  C   UNL     1    -105.546  28.124  19.327  1.00  0.00    -0.008 C 
ATOM     23  C   UNL     1    -106.232  26.094  18.017  1.00  0.00    -0.027 C 
ATOM     24  C   UNL     1    -105.312  26.707  18.798  1.00  0.00    -0.065 C 
ATOM     25  C   UNL     1    -104.750  28.384  20.655  1.00  0.00     0.014 C 
ATOM     26  C   UNL     1    -105.020  29.125  18.261  1.00  0.00     0.016 C 
ATOM     27  C   UNL     1    -103.935  26.086  18.919  1.00  0.00     0.063 C 
ATOM     28  C   UNL     1    -103.320  27.827  20.643  1.00  0.00     0.033 C 
ATOM     29  C   UNL     1    -103.330  26.331  20.307  1.00  0.00     0.118 C 
BRANCH  29  30
ATOM     30  O   UNL     1    -102.033  25.796  20.382  1.00  0.00    -0.393 OA
ATOM     31  H   UNL     1    -101.469  26.275  19.719  1.00  0.00     0.210 HD
ENDBRANCH  29  30
ENDBRANCH   9  11
ENDBRANCH   1   9
TORSDOF 7
ENDMDL
MODEL 3
REMARK VINA RESULT:    -4.381     14.991     17.431
REMARK INTER + INTRA:          -6.500
REMARK INTER:                  -5.773
REMARK INTRA:                  -0.727
REMARK UNBOUND:                -0.454
REMARK SMILES CC[C@@H](CC[C@@H](C)[C@H]1CC[C@@H]2[C@@H]3CC=C4C[C@@H](O)CC[C@]4(C)[C@@H]3CC[C@@]21C)C(C)C
REMARK SMILES IDX 5 1 4 2 3 3 2 4 1 5 28 6 29 7 30 8 6 9 7 10 8 11 9 12 26 13
REMARK SMILES IDX 10 14 11 15 25 16 27 17 12 18 24 19 23 20 13 21 21 22 14 23
REMARK SMILES IDX 15 24 20 25 22 26 16 27 19 28 17 29 18 30
REMARK H PARENT 18 31
REMARK Flexibility Score: inf
ROOT
ATOM      1  C   UNL     1    -113.036  26.337  19.986  1.00  0.00     0.004 C 
ENDROOT
BRANCH   1   2
ATOM      2  C   UNL     1    -112.743  25.196  18.979  1.00  0.00     0.004 C 
BRANCH   2   3
ATOM      3  C   UNL     1    -113.680  25.116  17.732  1.00  0.00    -0.009 C 
BRANCH   3   4
ATOM      4  C   UNL     1    -113.058  24.319  16.541  1.00  0.00     0.000 C 
ATOM      5  C   UNL     1    -112.256  23.091  16.983  1.00  0.00     0.004 C 
ENDBRANCH   3   4
BRANCH   3   6
ATOM      6  C   UNL     1    -114.284  26.512  17.351  1.00  0.00    -0.014 C 
ATOM      7  C   UNL     1    -115.811  26.477  17.198  1.00  0.00     0.007 C 
ATOM      8  C   UNL     1    -113.648  27.165  16.116  1.00  0.00     0.007 C 
ENDBRANCH   3   6
ENDBRANCH   2   3
ENDBRANCH   1   2
BRANCH   1   9
ATOM      9  C   UNL     1    -111.751  27.022  20.534  1.00  0.00    -0.011 C 
ATOM     10  C   UNL     1    -111.199  26.227  21.735  1.00  0.00     0.008 C 
BRANCH   9  11
ATOM     11  C   UNL     1    -110.616  27.218  19.459  1.00  0.00    -0.002 C 
ATOM     12  C   UNL     1    -111.022  27.925  18.168  1.00  0.00     0.005 C 
ATOM     13  C   UNL     1    -109.290  27.913  19.906  1.00  0.00    -0.026 C 
ATOM     14  C   UNL     1    -109.705  28.156  17.448  1.00  0.00     0.005 C 
ATOM     15  C   UNL     1    -108.674  28.423  18.561  1.00  0.00    -0.001 C 
ATOM     16  C   UNL     1    -108.371  26.899  20.644  1.00  0.00     0.007 C 
ATOM     17  C   UNL     1    -109.535  29.124  20.841  1.00  0.00     0.012 C 
ATOM     18  C   UNL     1    -107.228  27.936  18.253  1.00  0.00     0.000 C 
ATOM     19  C   UNL     1    -106.895  27.329  20.733  1.00  0.00     0.005 C 
ATOM     20  C   UNL     1    -106.336  28.124  19.505  1.00  0.00     0.003 C 
ATOM     21  C   UNL     1    -107.106  26.503  17.667  1.00  0.00     0.031 C 
ATOM     22  C   UNL     1    -104.835  27.780  19.178  1.00  0.00    -0.008 C 
ATOM     23  C   UNL     1    -105.767  25.834  17.892  1.00  0.00    -0.027 C 
ATOM     24  C   UNL     1    -104.755  26.355  18.625  1.00  0.00    -0.065 C 
ATOM     25  C   UNL     1    -103.948  27.953  20.460  1.00  0.00     0.014 C 
ATOM     26  C   UNL     1    -104.285  28.746  18.091  1.00  0.00     0.016 C 
ATOM     27  C   UNL     1    -103.432  25.617  18.662  1.00  0.00     0.063 C 
ATOM     28  C   UNL     1    -102.573  27.277  20.362  1.00  0.00     0.033 C 
ATOM     29  C   UNL     1    -102.732  25.791  20.015  1.00  0.00     0.118 C 
BRANCH  29  30
ATOM     30  O   UNL     1    -101.483  25.146  20.012  1.00  0.00    -0.393 OA
ATOM     31  H   UNL     1    -100.920  25.573  20.709  1.00  0.00     0.210 HD
ENDBRANCH  29  30
ENDBRANCH   9  11
ENDBRANCH   1   9
TORSDOF 7
ENDMDL
MODEL 4
REMARK VINA RESULT:    -4.377     15.383     17.901
REMARK INTER + INTRA:          -6.494
REMARK INTER:                  -5.030
REMARK INTRA:                  -1.464
REMARK UNBOUND:                -0.454
REMARK SMILES CC[C@@H](CC[C@@H](C)[C@H]1CC[C@@H]2[C@@H]3CC=C4C[C@@H](O)CC[C@]4(C)[C@@H]3CC[C@@]21C)C(C)C
REMARK SMILES IDX 5 1 4 2 3 3 2 4 1 5 28 6 29 7 30 8 6 9 7 10 8 11 9 12 26 13
REMARK SMILES IDX 10 14 11 15 25 16 27 17 12 18 24 19 23 20 13 21 21 22 14 23
REMARK SMILES IDX 15 24 20 25 22 26 16 27 19 28 17 29 18 30
REMARK H PARENT 18 31
REMARK Flexibility Score: inf
ROOT
ATOM      1  C   UNL     1    -111.040  28.157  18.405  1.00  0.00     0.004 C 
ENDROOT
BRANCH   1   2
ATOM      2  C   UNL     1    -112.328  27.591  19.057  1.00  0.00     0.004 C 
BRANCH   2   3
ATOM      3  C   UNL     1    -113.270  26.766  18.125  1.00  0.00    -0.009 C 
BRANCH   3   4
ATOM      4  C   UNL     1    -114.687  27.402  17.958  1.00  0.00     0.000 C 
ATOM      5  C   UNL     1    -115.409  27.636  19.289  1.00  0.00     0.004 C 
ENDBRANCH   3   4
BRANCH   3   6
ATOM      6  C   UNL     1    -113.267  25.238  18.476  1.00  0.00    -0.014 C 
ATOM      7  C   UNL     1    -113.061  24.973  19.974  1.00  0.00     0.007 C 
ATOM      8  C   UNL     1    -112.279  24.398  17.654  1.00  0.00     0.007 C 
ENDBRANCH   3   6
ENDBRANCH   2   3
ENDBRANCH   1   2
BRANCH   1   9
ATOM      9  C   UNL     1    -109.735  27.691  19.112  1.00  0.00    -0.011 C 
ATOM     10  C   UNL     1    -110.079  26.840  20.351  1.00  0.00     0.008 C 
BRANCH   9  11
ATOM     11  C   UNL     1    -108.744  26.897  18.180  1.00  0.00    -0.002 C 
ATOM     12  C   UNL     1    -109.246  26.578  16.774  1.00  0.00     0.005 C 
ATOM     13  C   UNL     1    -107.304  27.468  17.979  1.00  0.00    -0.026 C 
ATOM     14  C   UNL     1    -108.024  26.021  16.066  1.00  0.00     0.005 C 
ATOM     15  C   UNL     1    -106.828  26.799  16.647  1.00  0.00    -0.001 C 
ATOM     16  C   UNL     1    -106.403  27.103  19.193  1.00  0.00     0.007 C 
ATOM     17  C   UNL     1    -107.289  29.008  17.803  1.00  0.00     0.012 C 
ATOM     18  C   UNL     1    -105.497  25.996  16.733  1.00  0.00     0.000 C 
ATOM     19  C   UNL     1    -104.892  27.215  18.918  1.00  0.00     0.005 C 
ATOM     20  C   UNL     1    -104.427  26.837  17.472  1.00  0.00     0.003 C 
ATOM     21  C   UNL     1    -105.607  24.561  17.316  1.00  0.00     0.031 C 
ATOM     22  C   UNL     1    -103.030  26.112  17.442  1.00  0.00    -0.008 C 
ATOM     23  C   UNL     1    -104.327  24.014  17.911  1.00  0.00    -0.027 C 
ATOM     24  C   UNL     1    -103.176  24.713  18.044  1.00  0.00    -0.065 C 
ATOM     25  C   UNL     1    -101.961  26.964  18.214  1.00  0.00     0.014 C 
ATOM     26  C   UNL     1    -102.536  25.953  15.977  1.00  0.00     0.016 C 
ATOM     27  C   UNL     1    -101.945  23.991  18.555  1.00  0.00     0.063 C 
ATOM     28  C   UNL     1    -100.692  26.185  18.583  1.00  0.00     0.033 C 
ATOM     29  C   UNL     1    -101.051  24.924  19.381  1.00  0.00     0.118 C 
BRANCH  29  30
ATOM     30  O   UNL     1     -99.889  24.254  19.799  1.00  0.00    -0.393 OA
ATOM     31  H   UNL     1    -100.087  23.817  20.668  1.00  0.00     0.210 HD
ENDBRANCH  29  30
ENDBRANCH   9  11
ENDBRANCH   1   9
TORSDOF 7
ENDMDL
MODEL 5
REMARK VINA RESULT:    -4.241     16.016     18.319
REMARK INTER + INTRA:          -6.306
REMARK INTER:                  -6.202
REMARK INTRA:                  -0.105
REMARK UNBOUND:                -0.454
REMARK SMILES CC[C@@H](CC[C@@H](C)[C@H]1CC[C@@H]2[C@@H]3CC=C4C[C@@H](O)CC[C@]4(C)[C@@H]3CC[C@@]21C)C(C)C
REMARK SMILES IDX 5 1 4 2 3 3 2 4 1 5 28 6 29 7 30 8 6 9 7 10 8 11 9 12 26 13
REMARK SMILES IDX 10 14 11 15 25 16 27 17 12 18 24 19 23 20 13 21 21 22 14 23
REMARK SMILES IDX 15 24 20 25 22 26 16 27 19 28 17 29 18 30
REMARK H PARENT 18 31
REMARK Flexibility Score: inf
ROOT
ATOM      1  C   UNL     1    -110.641  26.774  20.420  1.00  0.00     0.004 C 
ENDROOT
BRANCH   1   2
ATOM      2  C   UNL     1    -111.326  27.927  21.197  1.00  0.00     0.004 C 
BRANCH   2   3
ATOM      3  C   UNL     1    -110.433  28.700  22.219  1.00  0.00    -0.009 C 
BRANCH   3   4
ATOM      4  C   UNL     1    -109.049  29.125  21.633  1.00  0.00     0.000 C 
ATOM      5  C   UNL     1    -107.861  28.467  22.343  1.00  0.00     0.004 C 
ENDBRANCH   3   4
BRANCH   3   6
ATOM      6  C   UNL     1    -110.372  27.988  23.614  1.00  0.00    -0.014 C 
ATOM      7  C   UNL     1    -110.467  26.460  23.507  1.00  0.00     0.007 C 
ATOM      8  C   UNL     1    -111.392  28.506  24.638  1.00  0.00     0.007 C 
ENDBRANCH   3   6
ENDBRANCH   2   3
ENDBRANCH   1   2
BRANCH   1   9
ATOM      9  C   UNL     1    -110.961  26.780  18.897  1.00  0.00    -0.011 C 
ATOM     10  C   UNL     1    -111.571  28.137  18.490  1.00  0.00     0.008 C 
BRANCH   9  11
ATOM     11  C   UNL     1    -109.726  26.454  17.976  1.00  0.00    -0.002 C 
ATOM     12  C   UNL     1    -109.958  26.561  16.471  1.00  0.00     0.005 C 
ATOM     13  C   UNL     1    -108.389  27.218  18.239  1.00  0.00    -0.026 C 
ATOM     14  C   UNL     1    -108.569  26.409  15.875  1.00  0.00     0.005 C 
ATOM     15  C   UNL     1    -107.619  27.083  16.883  1.00  0.00    -0.001 C 
ATOM     16  C   UNL     1    -107.626  26.578  19.433  1.00  0.00     0.007 C 
ATOM     17  C   UNL     1    -108.609  28.721  18.546  1.00  0.00     0.012 C 
ATOM     18  C   UNL     1    -106.198  26.452  16.975  1.00  0.00     0.000 C 
ATOM     19  C   UNL     1    -106.132  26.945  19.500  1.00  0.00     0.005 C 
ATOM     20  C   UNL     1    -105.404  27.118  18.125  1.00  0.00     0.003 C 
ATOM     21  C   UNL     1    -106.148  24.903  17.060  1.00  0.00     0.031 C 
ATOM     22  C   UNL     1    -103.916  26.607  18.145  1.00  0.00    -0.008 C 
ATOM     23  C   UNL     1    -104.895  24.338  17.695  1.00  0.00    -0.027 C 
ATOM     24  C   UNL     1    -103.910  25.080  18.252  1.00  0.00    -0.065 C 
ATOM     25  C   UNL     1    -103.130  27.273  19.329  1.00  0.00     0.014 C 
ATOM     26  C   UNL     1    -103.194  26.996  16.824  1.00  0.00     0.016 C 
ATOM     27  C   UNL     1    -102.663  24.375  18.745  1.00  0.00     0.063 C 
ATOM     28  C   UNL     1    -101.815  26.564  19.680  1.00  0.00     0.033 C 
ATOM     29  C   UNL     1    -102.068  25.079  19.972  1.00  0.00     0.118 C 
BRANCH  29  30
ATOM     30  O   UNL     1    -100.883  24.444  20.381  1.00  0.00    -0.393 OA
ATOM     31  H   UNL     1    -100.249  25.148  20.677  1.00  0.00     0.210 HD
ENDBRANCH  29  30
ENDBRANCH   9  11
ENDBRANCH   1   9
TORSDOF 7
ENDMDL
MODEL 6
REMARK VINA RESULT:    -4.223     15.577     18.727
REMARK INTER + INTRA:          -6.282
REMARK INTER:                  -5.569
REMARK INTRA:                  -0.713
REMARK UNBOUND:                -0.454
REMARK SMILES CC[C@@H](CC[C@@H](C)[C@H]1CC[C@@H]2[C@@H]3CC=C4C[C@@H](O)CC[C@]4(C)[C@@H]3CC[C@@]21C)C(C)C
REMARK SMILES IDX 5 1 4 2 3 3 2 4 1 5 28 6 29 7 30 8 6 9 7 10 8 11 9 12 26 13
REMARK SMILES IDX 10 14 11 15 25 16 27 17 12 18 24 19 23 20 13 21 21 22 14 23
REMARK SMILES IDX 15 24 20 25 22 26 16 27 19 28 17 29 18 30
REMARK H PARENT 18 31
REMARK Flexibility Score: inf
ROOT
ATOM      1  C   UNL     1    -104.639  25.746  18.181  1.00  0.00     0.004 C 
ENDROOT
BRANCH   1   2
ATOM      2  C   UNL     1    -103.492  26.588  17.564  1.00  0.00     0.004 C 
BRANCH   2   3
ATOM      3  C   UNL     1    -102.047  26.249  18.048  1.00  0.00    -0.009 C 
BRANCH   3   4
ATOM      4  C   UNL     1    -101.850  24.740  18.401  1.00  0.00     0.000 C 
ATOM      5  C   UNL     1    -101.384  24.508  19.842  1.00  0.00     0.004 C 
ENDBRANCH   3   4
BRANCH   3   6
ATOM      6  C   UNL     1    -101.531  27.256  19.133  1.00  0.00    -0.014 C 
ATOM      7  C   UNL     1    -102.616  27.647  20.146  1.00  0.00     0.007 C 
ATOM      8  C   UNL     1    -100.864  28.517  18.565  1.00  0.00     0.007 C 
ENDBRANCH   3   6
ENDBRANCH   2   3
ENDBRANCH   1   2
BRANCH   1   9
ATOM      9  C   UNL     1    -106.043  26.113  17.622  1.00  0.00    -0.011 C 
ATOM     10  C   UNL     1    -106.580  24.964  16.744  1.00  0.00     0.008 C 
BRANCH   9  11
ATOM     11  C   UNL     1    -107.104  26.477  18.728  1.00  0.00    -0.002 C 
ATOM     12  C   UNL     1    -106.551  27.038  20.036  1.00  0.00     0.005 C 
ATOM     13  C   UNL     1    -108.278  27.430  18.338  1.00  0.00    -0.026 C 
ATOM     14  C   UNL     1    -107.789  27.485  20.794  1.00  0.00     0.005 C 
ATOM     15  C   UNL     1    -108.766  27.991  19.716  1.00  0.00    -0.001 C 
ATOM     16  C   UNL     1    -109.386  26.642  17.583  1.00  0.00     0.007 C 
ATOM     17  C   UNL     1    -107.820  28.611  17.446  1.00  0.00     0.012 C 
ATOM     18  C   UNL     1    -110.274  27.776  20.037  1.00  0.00     0.000 C 
ATOM     19  C   UNL     1    -110.752  27.349  17.544  1.00  0.00     0.005 C 
ATOM     20  C   UNL     1    -111.131  28.183  18.813  1.00  0.00     0.003 C 
ATOM     21  C   UNL     1    -110.660  26.369  20.569  1.00  0.00     0.031 C 
ATOM     22  C   UNL     1    -112.665  28.118  19.161  1.00  0.00    -0.008 C 
ATOM     23  C   UNL     1    -112.105  25.978  20.349  1.00  0.00    -0.027 C 
ATOM     24  C   UNL     1    -113.009  26.713  19.660  1.00  0.00    -0.065 C 
ATOM     25  C   UNL     1    -113.522  28.512  17.906  1.00  0.00     0.014 C 
ATOM     26  C   UNL     1    -113.004  29.125  20.296  1.00  0.00     0.016 C 
ATOM     27  C   UNL     1    -114.449  26.243  19.624  1.00  0.00     0.063 C 
ATOM     28  C   UNL     1    -114.999  28.106  18.008  1.00  0.00     0.033 C 
ATOM     29  C   UNL     1    -115.123  26.604  18.294  1.00  0.00     0.118 C 
BRANCH  29  30
ATOM     30  O   UNL     1    -116.472  26.210  18.300  1.00  0.00    -0.393 OA
ATOM     31  H   UNL     1    -117.016  26.987  18.006  1.00  0.00     0.210 HD
ENDBRANCH  29  30
ENDBRANCH   9  11
ENDBRANCH   1   9
TORSDOF 7
ENDMDL
MODEL 7
REMARK VINA RESULT:    -4.148     15.926     18.414
REMARK INTER + INTRA:          -6.178
REMARK INTER:                  -5.634
REMARK INTRA:                  -0.544
REMARK UNBOUND:                -0.454
REMARK SMILES CC[C@@H](CC[C@@H](C)[C@H]1CC[C@@H]2[C@@H]3CC=C4C[C@@H](O)CC[C@]4(C)[C@@H]3CC[C@@]21C)C(C)C
REMARK SMILES IDX 5 1 4 2 3 3 2 4 1 5 28 6 29 7 30 8 6 9 7 10 8 11 9 12 26 13
REMARK SMILES IDX 10 14 11 15 25 16 27 17 12 18 24 19 23 20 13 21 21 22 14 23
REMARK SMILES IDX 15 24 20 25 22 26 16 27 19 28 17 29 18 30
REMARK H PARENT 18 31
REMARK Flexibility Score: inf
ROOT
ATOM      1  C   UNL     1    -109.106  28.346  19.979  1.00  0.00     0.004 C 
ENDROOT
BRANCH   1   2
ATOM      2  C   UNL     1    -110.202  28.872  20.941  1.00  0.00     0.004 C 
BRANCH   2   3
ATOM      3  C   UNL     1    -110.911  27.804  21.832  1.00  0.00    -0.009 C 
BRANCH   3   4
ATOM      4  C   UNL     1    -109.958  26.657  22.300  1.00  0.00     0.000 C 
ATOM      5  C   UNL     1    -110.356  26.049  23.649  1.00  0.00     0.004 C 
ENDBRANCH   3   4
BRANCH   3   6
ATOM      6  C   UNL     1    -112.272  27.325  21.219  1.00  0.00    -0.014 C 
ATOM      7  C   UNL     1    -112.143  26.009  20.439  1.00  0.00     0.007 C 
ATOM      8  C   UNL     1    -112.987  28.377  20.359  1.00  0.00     0.007 C 
ENDBRANCH   3   6
ENDBRANCH   2   3
ENDBRANCH   1   2
BRANCH   1   9
ATOM      9  C   UNL     1    -109.679  27.673  18.699  1.00  0.00    -0.011 C 
ATOM     10  C   UNL     1    -110.316  28.736  17.782  1.00  0.00     0.008 C 
BRANCH   9  11
ATOM     11  C   UNL     1    -108.626  26.830  17.885  1.00  0.00    -0.002 C 
ATOM     12  C   UNL     1    -109.014  26.461  16.456  1.00  0.00     0.005 C 
ATOM     13  C   UNL     1    -107.166  27.376  17.785  1.00  0.00    -0.026 C 
ATOM     14  C   UNL     1    -107.745  25.861  15.875  1.00  0.00     0.005 C 
ATOM     15  C   UNL     1    -106.590  26.647  16.524  1.00  0.00    -0.001 C 
ATOM     16  C   UNL     1    -106.375  27.048  19.083  1.00  0.00     0.007 C 
ATOM     17  C   UNL     1    -107.113  28.907  17.551  1.00  0.00     0.012 C 
ATOM     18  C   UNL     1    -105.283  25.833  16.754  1.00  0.00     0.000 C 
ATOM     19  C   UNL     1    -104.846  27.131  18.933  1.00  0.00     0.005 C 
ATOM     20  C   UNL     1    -104.266  26.690  17.547  1.00  0.00     0.003 C 
ATOM     21  C   UNL     1    -105.464  24.424  17.380  1.00  0.00     0.031 C 
ATOM     22  C   UNL     1    -102.883  25.948  17.663  1.00  0.00    -0.008 C 
ATOM     23  C   UNL     1    -104.247  23.886  18.102  1.00  0.00    -0.027 C 
ATOM     24  C   UNL     1    -103.100  24.576  18.304  1.00  0.00    -0.065 C 
ATOM     25  C   UNL     1    -101.870  26.817  18.488  1.00  0.00     0.014 C 
ATOM     26  C   UNL     1    -102.270  25.725  16.252  1.00  0.00     0.016 C 
ATOM     27  C   UNL     1    -101.928  23.860  18.944  1.00  0.00     0.063 C 
ATOM     28  C   UNL     1    -100.648  26.038  18.994  1.00  0.00     0.033 C 
ATOM     29  C   UNL     1    -101.092  24.815  19.806  1.00  0.00     0.118 C 
BRANCH  29  30
ATOM     30  O   UNL     1     -99.980  24.148  20.346  1.00  0.00    -0.393 OA
ATOM     31  H   UNL     1    -100.197  23.907  21.285  1.00  0.00     0.210 HD
ENDBRANCH  29  30
ENDBRANCH   9  11
ENDBRANCH   1   9
TORSDOF 7
ENDMDL
MODEL 8
REMARK VINA RESULT:    -4.138     16.165     18.719
REMARK INTER + INTRA:          -6.165
REMARK INTER:                  -4.639
REMARK INTRA:                  -1.526
REMARK UNBOUND:                -0.454
REMARK SMILES CC[C@@H](CC[C@@H](C)[C@H]1CC[C@@H]2[C@@H]3CC=C4C[C@@H](O)CC[C@]4(C)[C@@H]3CC[C@@]21C)C(C)C
REMARK SMILES IDX 5 1 4 2 3 3 2 4 1 5 28 6 29 7 30 8 6 9 7 10 8 11 9 12 26 13
REMARK SMILES IDX 10 14 11 15 25 16 27 17 12 18 24 19 23 20 13 21 21 22 14 23
REMARK SMILES IDX 15 24 20 25 22 26 16 27 19 28 17 29 18 30
REMARK H PARENT 18 31
REMARK Flexibility Score: inf
ROOT
ATOM      1  C   UNL     1    -111.011  28.429  18.379  1.00  0.00     0.004 C 
ENDROOT
BRANCH   1   2
ATOM      2  C   UNL     1    -111.317  28.709  19.873  1.00  0.00     0.004 C 
BRANCH   2   3
ATOM      3  C   UNL     1    -112.318  27.734  20.569  1.00  0.00    -0.009 C 
BRANCH   3   4
ATOM      4  C   UNL     1    -111.622  26.502  21.232  1.00  0.00     0.000 C 
ATOM      5  C   UNL     1    -110.474  26.884  22.171  1.00  0.00     0.004 C 
ENDBRANCH   3   4
BRANCH   3   6
ATOM      6  C   UNL     1    -113.546  27.390  19.657  1.00  0.00    -0.014 C 
ATOM      7  C   UNL     1    -114.781  28.244  19.975  1.00  0.00     0.007 C 
ATOM      8  C   UNL     1    -113.928  25.903  19.639  1.00  0.00     0.007 C 
ENDBRANCH   3   6
ENDBRANCH   2   3
ENDBRANCH   1   2
BRANCH   1   9
ATOM      9  C   UNL     1    -110.031  27.240  18.161  1.00  0.00    -0.011 C 
ATOM     10  C   UNL     1    -110.728  26.120  17.362  1.00  0.00     0.008 C 
BRANCH   9  11
ATOM     11  C   UNL     1    -108.681  27.637  17.454  1.00  0.00    -0.002 C 
ATOM     12  C   UNL     1    -108.723  28.877  16.563  1.00  0.00     0.005 C 
ATOM     13  C   UNL     1    -107.408  27.814  18.341  1.00  0.00    -0.026 C 
ATOM     14  C   UNL     1    -107.267  29.123  16.210  1.00  0.00     0.005 C 
ATOM     15  C   UNL     1    -106.469  28.703  17.459  1.00  0.00    -0.001 C 
ATOM     16  C   UNL     1    -106.787  26.430  18.678  1.00  0.00     0.007 C 
ATOM     17  C   UNL     1    -107.703  28.556  19.670  1.00  0.00     0.012 C 
ATOM     18  C   UNL     1    -105.056  28.115  17.174  1.00  0.00     0.000 C 
ATOM     19  C   UNL     1    -105.323  26.490  19.152  1.00  0.00     0.005 C 
ATOM     20  C   UNL     1    -104.432  27.594  18.492  1.00  0.00     0.003 C 
ATOM     21  C   UNL     1    -104.978  27.057  16.040  1.00  0.00     0.031 C 
ATOM     22  C   UNL     1    -102.945  27.132  18.260  1.00  0.00    -0.008 C 
ATOM     23  C   UNL     1    -103.802  26.109  16.132  1.00  0.00    -0.027 C 
ATOM     24  C   UNL     1    -102.914  26.075  17.153  1.00  0.00    -0.065 C 
ATOM     25  C   UNL     1    -102.333  26.585  19.597  1.00  0.00     0.014 C 
ATOM     26  C   UNL     1    -102.072  28.332  17.799  1.00  0.00     0.016 C 
ATOM     27  C   UNL     1    -101.722  25.146  17.045  1.00  0.00     0.063 C 
ATOM     28  C   UNL     1    -101.055  25.757  19.405  1.00  0.00     0.033 C 
ATOM     29  C   UNL     1    -101.306  24.607  18.420  1.00  0.00     0.118 C 
BRANCH  29  30
ATOM     30  O   UNL     1    -100.167  23.793  18.308  1.00  0.00    -0.393 OA
ATOM     31  H   UNL     1    -100.385  22.909  18.705  1.00  0.00     0.210 HD
ENDBRANCH  29  30
ENDBRANCH   9  11
ENDBRANCH   1   9
TORSDOF 7
ENDMDL
MODEL 9
REMARK VINA RESULT:    -4.117     16.666     19.080
REMARK INTER + INTRA:          -6.136
REMARK INTER:                  -5.355
REMARK INTRA:                  -0.781
REMARK UNBOUND:                -0.454
REMARK SMILES CC[C@@H](CC[C@@H](C)[C@H]1CC[C@@H]2[C@@H]3CC=C4C[C@@H](O)CC[C@]4(C)[C@@H]3CC[C@@]21C)C(C)C
REMARK SMILES IDX 5 1 4 2 3 3 2 4 1 5 28 6 29 7 30 8 6 9 7 10 8 11 9 12 26 13
REMARK SMILES IDX 10 14 11 15 25 16 27 17 12 18 24 19 23 20 13 21 21 22 14 23
REMARK SMILES IDX 15 24 20 25 22 26 16 27 19 28 17 29 18 30
REMARK H PARENT 18 31
REMARK Flexibility Score: inf
ROOT
ATOM      1  C   UNL     1    -110.449  28.597  19.986  1.00  0.00     0.004 C 
ENDROOT
BRANCH   1   2
ATOM      2  C   UNL     1    -111.624  28.265  20.941  1.00  0.00     0.004 C 
BRANCH   2   3
ATOM      3  C   UNL     1    -111.240  27.896  22.409  1.00  0.00    -0.009 C 
BRANCH   3   4
ATOM      4  C   UNL     1    -110.781  29.125  23.257  1.00  0.00     0.000 C 
ATOM      5  C   UNL     1    -111.302  29.098  24.697  1.00  0.00     0.004 C 
ENDBRANCH   3   4
BRANCH   3   6
ATOM      6  C   UNL     1    -110.289  26.650  22.480  1.00  0.00    -0.014 C 
ATOM      7  C   UNL     1    -110.736  25.620  23.526  1.00  0.00     0.007 C 
ATOM      8  C   UNL     1    -108.806  26.993  22.681  1.00  0.00     0.007 C 
ENDBRANCH   3   6
ENDBRANCH   2   3
ENDBRANCH   1   2
BRANCH   1   9
ATOM      9  C   UNL     1    -109.986  27.383  19.131  1.00  0.00    -0.011 C 
ATOM     10  C   UNL     1    -111.166  26.840  18.300  1.00  0.00     0.008 C 
BRANCH   9  11
ATOM     11  C   UNL     1    -108.764  27.687  18.185  1.00  0.00    -0.002 C 
ATOM     12  C   UNL     1    -108.973  28.782  17.142  1.00  0.00     0.005 C 
ATOM     13  C   UNL     1    -107.384  28.007  18.843  1.00  0.00    -0.026 C 
ATOM     14  C   UNL     1    -107.591  28.991  16.548  1.00  0.00     0.005 C 
ATOM     15  C   UNL     1    -106.610  28.768  17.715  1.00  0.00    -0.001 C 
ATOM     16  C   UNL     1    -106.676  26.694  19.280  1.00  0.00     0.007 C 
ATOM     17  C   UNL     1    -107.511  28.932  20.080  1.00  0.00     0.012 C 
ATOM     18  C   UNL     1    -105.233  28.161  17.314  1.00  0.00     0.000 C 
ATOM     19  C   UNL     1    -105.162  26.840  19.522  1.00  0.00     0.005 C 
ATOM     20  C   UNL     1    -104.411  27.846  18.587  1.00  0.00     0.003 C 
ATOM     21  C   UNL     1    -105.283  26.949  16.345  1.00  0.00     0.031 C 
ATOM     22  C   UNL     1    -102.958  27.372  18.210  1.00  0.00    -0.008 C 
ATOM     23  C   UNL     1    -104.075  26.038  16.399  1.00  0.00    -0.027 C 
ATOM     24  C   UNL     1    -103.051  26.165  17.274  1.00  0.00    -0.065 C 
ATOM     25  C   UNL     1    -102.143  27.035  19.508  1.00  0.00     0.014 C 
ATOM     26  C   UNL     1    -102.199  28.502  17.459  1.00  0.00     0.016 C 
ATOM     27  C   UNL     1    -101.856  25.243  17.128  1.00  0.00     0.063 C 
ATOM     28  C   UNL     1    -100.880  26.202  19.252  1.00  0.00     0.033 C 
ATOM     29  C   UNL     1    -101.231  24.917  18.490  1.00  0.00     0.118 C 
BRANCH  29  30
ATOM     30  O   UNL     1    -100.093  24.108  18.331  1.00  0.00    -0.393 OA
ATOM     31  H   UNL     1     -99.661  24.358  17.473  1.00  0.00     0.210 HD
ENDBRANCH  29  30
ENDBRANCH   9  11
ENDBRANCH   1   9
TORSDOF 7
ENDMDL
