MODEL 1
REMARK VINA RESULT:    -4.941      0.000      0.000
REMARK INTER + INTRA:          -8.942
REMARK INTER:                  -7.830
REMARK INTRA:                  -1.112
REMARK UNBOUND:                -1.112
REMARK SMILES CCCCCCCCCCCC(=O)[O-]
REMARK SMILES IDX 7 1 8 2 9 3 10 4 11 5 12 6 13 7 14 8 6 9 5 10 4 11 3 12 2 13
REMARK SMILES IDX 1 14
REMARK H PARENT
REMARK Flexibility Score: inf
ROOT
ATOM      1  C   UNL     1       9.779   7.316 -16.600  1.00  0.00     0.000 C 
ENDROOT
BRANCH   1   2
ATOM      2  C   UNL     1      10.743   8.362 -16.029  1.00  0.00     0.000 C 
BRANCH   2   3
ATOM      3  C   UNL     1      11.923   8.600 -16.979  1.00  0.00     0.000 C 
BRANCH   3   4
ATOM      4  C   UNL     1      13.244   8.160 -16.336  1.00  0.00     0.006 C 
BRANCH   4   5
ATOM      5  C   UNL     1      13.181   8.281 -14.811  1.00  0.00     0.053 C 
BRANCH   5   6
ATOM      6  C   UNL     1      14.401   8.972 -14.290  1.00  0.00     0.041 C 
ATOM      7  O   UNL     1      15.547   8.589 -14.646  1.00  0.00    -0.550 OA
ATOM      8  O   UNL     1      14.276  10.007 -13.372  1.00  0.00    -0.550 OA
ENDBRANCH   5   6
ENDBRANCH   4   5
ENDBRANCH   3   4
ENDBRANCH   2   3
ENDBRANCH   1   2
BRANCH   1   9
ATOM      9  C   UNL     1       9.637   6.120 -15.645  1.00  0.00     0.000 C 
BRANCH   9  10
ATOM     10  C   UNL     1      10.954   5.352 -15.456  1.00  0.00    -0.000 C 
BRANCH  10  11
ATOM     11  C   UNL     1      10.994   4.556 -14.143  1.00  0.00    -0.000 C 
BRANCH  11  12
ATOM     12  C   UNL     1      11.091   5.498 -12.934  1.00  0.00    -0.000 C 
BRANCH  12  13
ATOM     13  C   UNL     1       9.908   5.338 -11.965  1.00  0.00    -0.003 C 
ATOM     14  C   UNL     1       9.010   6.573 -11.919  1.00  0.00     0.004 C 
ENDBRANCH  12  13
ENDBRANCH  11  12
ENDBRANCH  10  11
ENDBRANCH   9  10
ENDBRANCH   1   9
TORSDOF 10
ENDMDL
MODEL 2
REMARK VINA RESULT:    -4.922      1.344      2.436
REMARK INTER + INTRA:          -8.911
REMARK INTER:                  -7.671
REMARK INTRA:                  -1.240
REMARK UNBOUND:                -1.112
REMARK SMILES CCCCCCCCCCCC(=O)[O-]
REMARK SMILES IDX 7 1 8 2 9 3 10 4 11 5 12 6 13 7 14 8 6 9 5 10 4 11 3 12 2 13
REMARK SMILES IDX 1 14
REMARK H PARENT
REMARK Flexibility Score: inf
ROOT
ATOM      1  C   UNL     1      11.987   4.462 -15.128  1.00  0.00     0.000 C 
ENDROOT
BRANCH   1   2
ATOM      2  C   UNL     1      12.356   5.777 -15.825  1.00  0.00     0.000 C 
BRANCH   2   3
ATOM      3  C   UNL     1      11.247   6.822 -15.654  1.00  0.00     0.000 C 
BRANCH   3   4
ATOM      4  C   UNL     1      11.837   8.222 -15.446  1.00  0.00     0.006 C 
BRANCH   4   5
ATOM      5  C   UNL     1      13.344   8.229 -15.718  1.00  0.00     0.053 C 
BRANCH   5   6
ATOM      6  C   UNL     1      14.089   8.724 -14.520  1.00  0.00     0.041 C 
ATOM      7  O   UNL     1      13.468   9.262 -13.565  1.00  0.00    -0.550 OA
ATOM      8  O   UNL     1      15.475   8.637 -14.477  1.00  0.00    -0.550 OA
ENDBRANCH   5   6
ENDBRANCH   4   5
ENDBRANCH   3   4
ENDBRANCH   2   3
ENDBRANCH   1   2
BRANCH   1   9
ATOM      9  C   UNL     1      11.788   4.675 -13.620  1.00  0.00     0.000 C 
BRANCH   9  10
ATOM     10  C   UNL     1      13.064   5.165 -12.917  1.00  0.00    -0.000 C 
BRANCH  10  11
ATOM     11  C   UNL     1      12.770   6.126 -11.755  1.00  0.00    -0.000 C 
BRANCH  11  12
ATOM     12  C   UNL     1      11.351   6.704 -11.867  1.00  0.00    -0.000 C 
BRANCH  12  13
ATOM     13  C   UNL     1      10.396   6.133 -10.807  1.00  0.00    -0.003 C 
ATOM     14  C   UNL     1       9.022   5.783 -11.376  1.00  0.00     0.004 C 
ENDBRANCH  12  13
ENDBRANCH  11  12
ENDBRANCH  10  11
ENDBRANCH   9  10
ENDBRANCH   1   9
TORSDOF 10
ENDMDL
MODEL 3
REMARK VINA RESULT:    -4.914      2.880      4.653
REMARK INTER + INTRA:          -8.898
REMARK INTER:                  -7.589
REMARK INTRA:                  -1.310
REMARK UNBOUND:                -1.112
REMARK SMILES CCCCCCCCCCCC(=O)[O-]
REMARK SMILES IDX 7 1 8 2 9 3 10 4 11 5 12 6 13 7 14 8 6 9 5 10 4 11 3 12 2 13
REMARK SMILES IDX 1 14
REMARK H PARENT
REMARK Flexibility Score: inf
ROOT
ATOM      1  C   UNL     1       8.737   7.361 -12.472  1.00  0.00     0.000 C 
ENDROOT
BRANCH   1   2
ATOM      2  C   UNL     1       8.771   6.024 -11.723  1.00  0.00     0.000 C 
BRANCH   2   3
ATOM      3  C   UNL     1       9.984   5.946 -10.788  1.00  0.00     0.000 C 
BRANCH   3   4
ATOM      4  C   UNL     1      11.171   6.730 -11.359  1.00  0.00     0.006 C 
BRANCH   4   5
ATOM      5  C   UNL     1      12.468   5.925 -11.242  1.00  0.00     0.053 C 
BRANCH   5   6
ATOM      6  C   UNL     1      13.206   6.302  -9.996  1.00  0.00     0.041 C 
ATOM      7  O   UNL     1      14.193   7.083 -10.056  1.00  0.00    -0.550 OA
ATOM      8  O   UNL     1      12.837   5.753  -8.775  1.00  0.00    -0.550 OA
ENDBRANCH   5   6
ENDBRANCH   4   5
ENDBRANCH   3   4
ENDBRANCH   2   3
ENDBRANCH   1   2
BRANCH   1   9
ATOM      9  C   UNL     1       7.671   7.345 -13.579  1.00  0.00     0.000 C 
BRANCH   9  10
ATOM     10  C   UNL     1       8.273   7.150 -14.979  1.00  0.00    -0.000 C 
BRANCH  10  11
ATOM     11  C   UNL     1       9.809   7.129 -14.967  1.00  0.00    -0.000 C 
BRANCH  11  12
ATOM     12  C   UNL     1      10.348   5.933 -15.766  1.00  0.00    -0.000 C 
BRANCH  12  13
ATOM     13  C   UNL     1      11.502   5.217 -15.049  1.00  0.00    -0.003 C 
ATOM     14  C   UNL     1      11.019   4.133 -14.086  1.00  0.00     0.004 C 
ENDBRANCH  12  13
ENDBRANCH  11  12
ENDBRANCH  10  11
ENDBRANCH   9  10
ENDBRANCH   1   9
TORSDOF 10
ENDMDL
MODEL 4
REMARK VINA RESULT:    -4.890      3.126      4.140
REMARK INTER + INTRA:          -8.860
REMARK INTER:                  -7.732
REMARK INTRA:                  -1.129
REMARK UNBOUND:                -1.112
REMARK SMILES CCCCCCCCCCCC(=O)[O-]
REMARK SMILES IDX 7 1 8 2 9 3 10 4 11 5 12 6 13 7 14 8 6 9 5 10 4 11 3 12 2 13
REMARK SMILES IDX 1 14
REMARK H PARENT
REMARK Flexibility Score: inf
ROOT
ATOM      1  C   UNL     1      12.089   4.966 -14.047  1.00  0.00     0.000 C 
ENDROOT
BRANCH   1   2
ATOM      2  C   UNL     1      12.519   6.420 -14.279  1.00  0.00     0.000 C 
BRANCH   2   3
ATOM      3  C   UNL     1      12.525   6.761 -15.774  1.00  0.00     0.000 C 
BRANCH   3   4
ATOM      4  C   UNL     1      11.982   8.174 -16.018  1.00  0.00     0.006 C 
BRANCH   4   5
ATOM      5  C   UNL     1      10.571   8.327 -15.444  1.00  0.00     0.053 C 
BRANCH   5   6
ATOM      6  C   UNL     1       9.581   7.580 -16.280  1.00  0.00     0.041 C 
ATOM      7  O   UNL     1       9.316   7.969 -17.449  1.00  0.00    -0.550 OA
ATOM      8  O   UNL     1       8.915   6.480 -15.754  1.00  0.00    -0.550 OA
ENDBRANCH   5   6
ENDBRANCH   4   5
ENDBRANCH   3   4
ENDBRANCH   2   3
ENDBRANCH   1   2
BRANCH   1   9
ATOM      9  C   UNL     1      10.804   4.900 -13.208  1.00  0.00     0.000 C 
BRANCH   9  10
ATOM     10  C   UNL     1      10.592   6.156 -12.348  1.00  0.00    -0.000 C 
BRANCH  10  11
ATOM     11  C   UNL     1       9.773   5.875 -11.079  1.00  0.00    -0.000 C 
BRANCH  11  12
ATOM     12  C   UNL     1      10.616   6.114  -9.817  1.00  0.00    -0.000 C 
BRANCH  12  13
ATOM     13  C   UNL     1      12.029   6.623 -10.140  1.00  0.00    -0.003 C 
ATOM     14  C   UNL     1      13.119   5.851  -9.398  1.00  0.00     0.004 C 
ENDBRANCH  12  13
ENDBRANCH  11  12
ENDBRANCH  10  11
ENDBRANCH   9  10
ENDBRANCH   1   9
TORSDOF 10
ENDMDL
MODEL 5
REMARK VINA RESULT:    -4.870      2.799      4.991
REMARK INTER + INTRA:          -8.828
REMARK INTER:                  -7.686
REMARK INTRA:                  -1.142
REMARK UNBOUND:                -1.112
REMARK SMILES CCCCCCCCCCCC(=O)[O-]
REMARK SMILES IDX 7 1 8 2 9 3 10 4 11 5 12 6 13 7 14 8 6 9 5 10 4 11 3 12 2 13
REMARK SMILES IDX 1 14
REMARK H PARENT
REMARK Flexibility Score: inf
ROOT
ATOM      1  C   UNL     1      10.298   5.977 -15.312  1.00  0.00     0.000 C 
ENDROOT
BRANCH   1   2
ATOM      2  C   UNL     1      11.596   5.169 -15.418  1.00  0.00     0.000 C 
BRANCH   2   3
ATOM      3  C   UNL     1      12.288   5.054 -14.055  1.00  0.00     0.000 C 
BRANCH   3   4
ATOM      4  C   UNL     1      11.259   4.933 -12.924  1.00  0.00     0.006 C 
BRANCH   4   5
ATOM      5  C   UNL     1      11.534   5.958 -11.820  1.00  0.00     0.053 C 
BRANCH   5   6
ATOM      6  C   UNL     1      10.390   6.008 -10.857  1.00  0.00     0.041 C 
ATOM      7  O   UNL     1      10.608   6.082  -9.618  1.00  0.00    -0.550 OA
ATOM      8  O   UNL     1       9.084   5.923 -11.322  1.00  0.00    -0.550 OA
ENDBRANCH   5   6
ENDBRANCH   4   5
ENDBRANCH   3   4
ENDBRANCH   2   3
ENDBRANCH   1   2
BRANCH   1   9
ATOM      9  C   UNL     1      10.297   7.151 -16.303  1.00  0.00     0.000 C 
BRANCH   9  10
ATOM     10  C   UNL     1      11.208   8.305 -15.857  1.00  0.00    -0.000 C 
BRANCH  10  11
ATOM     11  C   UNL     1      12.483   8.417 -16.706  1.00  0.00    -0.000 C 
BRANCH  11  12
ATOM     12  C   UNL     1      13.737   8.204 -15.845  1.00  0.00    -0.000 C 
BRANCH  12  13
ATOM     13  C   UNL     1      13.500   8.540 -14.364  1.00  0.00    -0.003 C 
ATOM     14  C   UNL     1      14.517   9.540 -13.815  1.00  0.00     0.004 C 
ENDBRANCH  12  13
ENDBRANCH  11  12
ENDBRANCH  10  11
ENDBRANCH   9  10
ENDBRANCH   1   9
TORSDOF 10
ENDMDL
MODEL 6
REMARK VINA RESULT:    -4.804      2.802      3.827
REMARK INTER + INTRA:          -8.724
REMARK INTER:                  -7.450
REMARK INTRA:                  -1.274
REMARK UNBOUND:                -1.112
REMARK SMILES CCCCCCCCCCCC(=O)[O-]
REMARK SMILES IDX 7 1 8 2 9 3 10 4 11 5 12 6 13 7 14 8 6 9 5 10 4 11 3 12 2 13
REMARK SMILES IDX 1 14
REMARK H PARENT
REMARK Flexibility Score: inf
ROOT
ATOM      1  C   UNL     1      14.021   7.152 -13.136  1.00  0.00     0.000 C 
ENDROOT
BRANCH   1   2
ATOM      2  C   UNL     1      13.056   8.073 -13.892  1.00  0.00     0.000 C 
BRANCH   2   3
ATOM      3  C   UNL     1      13.502   8.264 -15.347  1.00  0.00     0.000 C 
BRANCH   3   4
ATOM      4  C   UNL     1      12.337   8.027 -16.315  1.00  0.00     0.006 C 
BRANCH   4   5
ATOM      5  C   UNL     1      10.997   8.024 -15.572  1.00  0.00     0.053 C 
BRANCH   5   6
ATOM      6  C   UNL     1       9.953   7.320 -16.380  1.00  0.00     0.041 C 
ATOM      7  O   UNL     1       9.623   6.138 -16.097  1.00  0.00    -0.550 OA
ATOM      8  O   UNL     1       9.378   7.951 -17.475  1.00  0.00    -0.550 OA
ENDBRANCH   5   6
ENDBRANCH   4   5
ENDBRANCH   3   4
ENDBRANCH   2   3
ENDBRANCH   1   2
BRANCH   1   9
ATOM      9  C   UNL     1      13.275   5.955 -12.527  1.00  0.00     0.000 C 
BRANCH   9  10
ATOM     10  C   UNL     1      12.391   5.225 -13.550  1.00  0.00    -0.000 C 
BRANCH  10  11
ATOM     11  C   UNL     1      11.025   4.823 -12.974  1.00  0.00    -0.000 C 
BRANCH  11  12
ATOM     12  C   UNL     1      10.194   6.064 -12.615  1.00  0.00    -0.000 C 
BRANCH  12  13
ATOM     13  C   UNL     1       9.529   5.950 -11.235  1.00  0.00    -0.003 C 
ATOM     14  C   UNL     1      10.527   6.074 -10.085  1.00  0.00     0.004 C 
ENDBRANCH  12  13
ENDBRANCH  11  12
ENDBRANCH  10  11
ENDBRANCH   9  10
ENDBRANCH   1   9
TORSDOF 10
ENDMDL
MODEL 7
REMARK VINA RESULT:    -4.746      2.508      4.519
REMARK INTER + INTRA:          -8.632
REMARK INTER:                  -7.280
REMARK INTRA:                  -1.352
REMARK UNBOUND:                -1.112
REMARK SMILES CCCCCCCCCCCC(=O)[O-]
REMARK SMILES IDX 7 1 8 2 9 3 10 4 11 5 12 6 13 7 14 8 6 9 5 10 4 11 3 12 2 13
REMARK SMILES IDX 1 14
REMARK H PARENT
REMARK Flexibility Score: inf
ROOT
ATOM      1  C   UNL     1      13.243   5.375 -12.856  1.00  0.00     0.000 C 
ENDROOT
BRANCH   1   2
ATOM      2  C   UNL     1      13.328   6.311 -11.645  1.00  0.00     0.000 C 
BRANCH   2   3
ATOM      3  C   UNL     1      12.087   7.205 -11.550  1.00  0.00     0.000 C 
BRANCH   3   4
ATOM      4  C   UNL     1      12.266   8.486 -12.373  1.00  0.00     0.006 C 
BRANCH   4   5
ATOM      5  C   UNL     1      10.913   9.055 -12.807  1.00  0.00     0.053 C 
BRANCH   5   6
ATOM      6  C   UNL     1      10.816  10.505 -12.451  1.00  0.00     0.041 C 
ATOM      7  O   UNL     1       9.863  11.203 -12.889  1.00  0.00    -0.550 OA
ATOM      8  O   UNL     1      11.804  11.098 -11.676  1.00  0.00    -0.550 OA
ENDBRANCH   5   6
ENDBRANCH   4   5
ENDBRANCH   3   4
ENDBRANCH   2   3
ENDBRANCH   1   2
BRANCH   1   9
ATOM      9  C   UNL     1      11.810   4.854 -13.050  1.00  0.00     0.000 C 
BRANCH   9  10
ATOM     10  C   UNL     1      11.463   4.608 -14.526  1.00  0.00    -0.000 C 
BRANCH  10  11
ATOM     11  C   UNL     1      12.160   5.597 -15.473  1.00  0.00    -0.000 C 
BRANCH  11  12
ATOM     12  C   UNL     1      11.207   6.731 -15.879  1.00  0.00    -0.000 C 
BRANCH  12  13
ATOM     13  C   UNL     1      11.931   8.075 -16.055  1.00  0.00    -0.003 C 
ATOM     14  C   UNL     1      13.446   7.919 -16.180  1.00  0.00     0.004 C 
ENDBRANCH  12  13
ENDBRANCH  11  12
ENDBRANCH  10  11
ENDBRANCH   9  10
ENDBRANCH   1   9
TORSDOF 10
ENDMDL
MODEL 8
REMARK VINA RESULT:    -4.729      2.828      4.371
REMARK INTER + INTRA:          -8.605
REMARK INTER:                  -7.325
REMARK INTRA:                  -1.280
REMARK UNBOUND:                -1.112
REMARK SMILES CCCCCCCCCCCC(=O)[O-]
REMARK SMILES IDX 7 1 8 2 9 3 10 4 11 5 12 6 13 7 14 8 6 9 5 10 4 11 3 12 2 13
REMARK SMILES IDX 1 14
REMARK H PARENT
REMARK Flexibility Score: inf
ROOT
ATOM      1  C   UNL     1      12.609   6.383 -13.341  1.00  0.00     0.000 C 
ENDROOT
BRANCH   1   2
ATOM      2  C   UNL     1      12.170   5.042 -13.941  1.00  0.00     0.000 C 
BRANCH   2   3
ATOM      3  C   UNL     1      11.247   5.253 -15.147  1.00  0.00     0.000 C 
BRANCH   3   4
ATOM      4  C   UNL     1      10.912   6.738 -15.331  1.00  0.00     0.006 C 
BRANCH   4   5
ATOM      5  C   UNL     1       9.513   6.914 -15.928  1.00  0.00     0.053 C 
BRANCH   5   6
ATOM      6  C   UNL     1       9.292   8.338 -16.330  1.00  0.00     0.041 C 
ATOM      7  O   UNL     1      10.238   9.014 -16.814  1.00  0.00    -0.550 OA
ATOM      8  O   UNL     1       8.054   8.935 -16.127  1.00  0.00    -0.550 OA
ENDBRANCH   5   6
ENDBRANCH   4   5
ENDBRANCH   3   4
ENDBRANCH   2   3
ENDBRANCH   1   2
BRANCH   1   9
ATOM      9  C   UNL     1      13.575   6.170 -12.166  1.00  0.00     0.000 C 
BRANCH   9  10
ATOM     10  C   UNL     1      12.850   6.050 -10.816  1.00  0.00    -0.000 C 
BRANCH  10  11
ATOM     11  C   UNL     1      11.573   6.901 -10.751  1.00  0.00    -0.000 C 
BRANCH  11  12
ATOM     12  C   UNL     1      10.377   6.061 -10.277  1.00  0.00    -0.000 C 
BRANCH  12  13
ATOM     13  C   UNL     1       9.409   5.716 -11.419  1.00  0.00    -0.003 C 
ATOM     14  C   UNL     1       8.924   6.951 -12.178  1.00  0.00     0.004 C 
ENDBRANCH  12  13
ENDBRANCH  11  12
ENDBRANCH  10  11
ENDBRANCH   9  10
ENDBRANCH   1   9
TORSDOF 10
ENDMDL
MODEL 9
REMARK VINA RESULT:    -4.722      3.167      4.016
REMARK INTER + INTRA:          -8.594
REMARK INTER:                  -7.124
REMARK INTRA:                  -1.470
REMARK UNBOUND:                -1.112
REMARK SMILES CCCCCCCCCCCC(=O)[O-]
REMARK SMILES IDX 7 1 8 2 9 3 10 4 11 5 12 6 13 7 14 8 6 9 5 10 4 11 3 12 2 13
REMARK SMILES IDX 1 14
REMARK H PARENT
REMARK Flexibility Score: inf
ROOT
ATOM      1  C   UNL     1      12.463   6.768 -15.802  1.00  0.00     0.000 C 
ENDROOT
BRANCH   1   2
ATOM      2  C   UNL     1      11.220   7.660 -15.909  1.00  0.00     0.000 C 
BRANCH   2   3
ATOM      3  C   UNL     1       9.972   6.830 -16.231  1.00  0.00     0.000 C 
BRANCH   3   4
ATOM      4  C   UNL     1       8.873   7.061 -15.187  1.00  0.00     0.006 C 
BRANCH   4   5
ATOM      5  C   UNL     1       9.240   8.213 -14.248  1.00  0.00     0.053 C 
BRANCH   5   6
ATOM      6  C   UNL     1       8.010   8.943 -13.810  1.00  0.00     0.041 C 
ATOM      7  O   UNL     1       7.339   9.610 -14.641  1.00  0.00    -0.550 OA
ATOM      8  O   UNL     1       7.631   8.927 -12.473  1.00  0.00    -0.550 OA
ENDBRANCH   5   6
ENDBRANCH   4   5
ENDBRANCH   3   4
ENDBRANCH   2   3
ENDBRANCH   1   2
BRANCH   1   9
ATOM      9  C   UNL     1      12.069   5.304 -15.549  1.00  0.00     0.000 C 
BRANCH   9  10
ATOM     10  C   UNL     1      12.396   4.840 -14.122  1.00  0.00    -0.000 C 
BRANCH  10  11
ATOM     11  C   UNL     1      11.229   5.054 -13.146  1.00  0.00    -0.000 C 
BRANCH  11  12
ATOM     12  C   UNL     1      11.560   6.155 -12.128  1.00  0.00    -0.000 C 
BRANCH  12  13
ATOM     13  C   UNL     1      10.437   6.365 -11.100  1.00  0.00    -0.003 C 
ATOM     14  C   UNL     1       9.116   5.730 -11.530  1.00  0.00     0.004 C 
ENDBRANCH  12  13
ENDBRANCH  11  12
ENDBRANCH  10  11
ENDBRANCH   9  10
ENDBRANCH   1   9
TORSDOF 10
ENDMDL
