MODEL 1
REMARK VINA RESULT:    -5.761      0.000      0.000
REMARK INTER + INTRA:          -7.262
REMARK INTER:                  -6.939
REMARK INTRA:                  -0.323
REMARK UNBOUND:                -0.323
REMARK SMILES O=c1c(O)c(-c2ccc(O)c(O)c2)oc2cc(O)cc(O)c12
REMARK SMILES IDX 5 1 3 2 2 3 1 4 22 5 20 6 19 7 17 8 16 9 15 10 14 11 6 12
REMARK SMILES IDX 7 13 8 14 9 15 13 16 11 17 10 18 12 20 4 22 21 24 18 26
REMARK H PARENT 10 19 12 21 4 23 21 25 18 27
REMARK Flexibility Score: inf
ROOT
ATOM      1  C   UNL     1      -5.045  -9.628   8.077  1.00  0.00     0.180 A 
ATOM      2  C   UNL     1      -4.325 -10.395   7.143  1.00  0.00     0.208 A 
ATOM      3  C   UNL     1      -2.922 -10.385   7.191  1.00  0.00     0.238 A 
ATOM      4  O   UNL     1      -2.284 -11.030   6.319  1.00  0.00    -0.285 OA
ATOM      5  C   UNL     1      -2.257  -9.622   8.181  1.00  0.00     0.111 A 
ATOM      6  C   UNL     1      -0.840  -9.570   8.347  1.00  0.00     0.134 A 
ATOM      7  C   UNL     1      -0.286  -8.680   9.275  1.00  0.00     0.093 A 
ATOM      8  C   UNL     1      -1.100  -7.888  10.089  1.00  0.00     0.123 A 
ATOM      9  C   UNL     1      -2.485  -7.975   9.975  1.00  0.00     0.094 A 
ATOM     10  C   UNL     1      -3.066  -8.827   9.033  1.00  0.00     0.146 A 
ATOM     11  O   UNL     1      -4.391  -8.872   8.950  1.00  0.00    -0.452 OA
ENDROOT
BRANCH   1  12
ATOM     12  C   UNL     1      -6.526  -9.608   8.106  1.00  0.00     0.025 A 
ATOM     13  C   UNL     1      -7.216 -10.589   8.834  1.00  0.00     0.016 A 
ATOM     14  C   UNL     1      -8.612 -10.601   8.858  1.00  0.00     0.051 A 
ATOM     15  C   UNL     1      -9.340  -9.644   8.145  1.00  0.00     0.157 A 
ATOM     16  C   UNL     1      -7.260  -8.658   7.372  1.00  0.00     0.062 A 
ATOM     17  C   UNL     1      -8.662  -8.670   7.394  1.00  0.00     0.158 A 
BRANCH  15  18
ATOM     18  O   UNL     1     -10.734  -9.680   8.190  1.00  0.00    -0.504 OA
ATOM     19  H   UNL     1     -11.256  -9.320   8.981  1.00  0.00     0.293 HD
ENDBRANCH  15  18
BRANCH  17  20
ATOM     20  O   UNL     1      -9.382  -7.721   6.669  1.00  0.00    -0.504 OA
ATOM     21  H   UNL     1      -9.700  -6.859   7.094  1.00  0.00     0.293 HD
ENDBRANCH  17  20
ENDBRANCH   1  12
BRANCH   2  22
ATOM     22  O   UNL     1      -5.002 -11.123   6.161  1.00  0.00    -0.502 OA
ATOM     23  H   UNL     1      -5.224 -10.735   5.253  1.00  0.00     0.293 HD
ENDBRANCH   2  22
BRANCH   6  24
ATOM     24  O   UNL     1       0.058 -10.386   7.651  1.00  0.00    -0.507 OA
ATOM     25  H   UNL     1      -0.162 -10.894   6.808  1.00  0.00     0.293 HD
ENDBRANCH   6  24
BRANCH   8  26
ATOM     26  O   UNL     1      -0.540  -7.017  11.021  1.00  0.00    -0.508 OA
ATOM     27  H   UNL     1      -0.999  -6.152  11.280  1.00  0.00     0.293 HD
ENDBRANCH   8  26
TORSDOF 6
ENDMDL
MODEL 2
REMARK VINA RESULT:    -5.735      1.236      2.824
REMARK INTER + INTRA:          -7.231
REMARK INTER:                  -6.898
REMARK INTRA:                  -0.334
REMARK UNBOUND:                -0.323
REMARK SMILES O=c1c(O)c(-c2ccc(O)c(O)c2)oc2cc(O)cc(O)c12
REMARK SMILES IDX 5 1 3 2 2 3 1 4 22 5 20 6 19 7 17 8 16 9 15 10 14 11 6 12
REMARK SMILES IDX 7 13 8 14 9 15 13 16 11 17 10 18 12 20 4 22 21 24 18 26
REMARK H PARENT 10 19 12 21 4 23 21 25 18 27
REMARK Flexibility Score: inf
ROOT
ATOM      1  C   UNL     1      -4.975  -9.532   8.498  1.00  0.00     0.180 A 
ATOM      2  C   UNL     1      -4.436  -8.912   9.640  1.00  0.00     0.208 A 
ATOM      3  C   UNL     1      -3.045  -8.756   9.736  1.00  0.00     0.238 A 
ATOM      4  O   UNL     1      -2.565  -8.251  10.785  1.00  0.00    -0.285 OA
ATOM      5  C   UNL     1      -2.211  -9.206   8.684  1.00  0.00     0.111 A 
ATOM      6  C   UNL     1      -0.790  -9.062   8.659  1.00  0.00     0.134 A 
ATOM      7  C   UNL     1      -0.055  -9.661   7.628  1.00  0.00     0.093 A 
ATOM      8  C   UNL     1      -0.693 -10.341   6.588  1.00  0.00     0.123 A 
ATOM      9  C   UNL     1      -2.083 -10.435   6.573  1.00  0.00     0.094 A 
ATOM     10  C   UNL     1      -2.841  -9.880   7.606  1.00  0.00     0.146 A 
ATOM     11  O   UNL     1      -4.162 -10.001   7.559  1.00  0.00    -0.452 OA
ENDROOT
BRANCH   1  12
ATOM     12  C   UNL     1      -6.434  -9.710   8.312  1.00  0.00     0.025 A 
ATOM     13  C   UNL     1      -7.035 -10.922   8.686  1.00  0.00     0.016 A 
ATOM     14  C   UNL     1      -8.405 -11.119   8.501  1.00  0.00     0.051 A 
ATOM     15  C   UNL     1      -9.193 -10.116   7.928  1.00  0.00     0.157 A 
ATOM     16  C   UNL     1      -7.224  -8.710   7.717  1.00  0.00     0.062 A 
ATOM     17  C   UNL     1      -8.600  -8.906   7.529  1.00  0.00     0.158 A 
BRANCH  15  18
ATOM     18  O   UNL     1     -10.559 -10.341   7.758  1.00  0.00    -0.504 OA
ATOM     19  H   UNL     1     -11.254  -9.655   8.028  1.00  0.00     0.293 HD
ENDBRANCH  15  18
BRANCH  17  20
ATOM     20  O   UNL     1      -9.377  -7.908   6.943  1.00  0.00    -0.504 OA
ATOM     21  H   UNL     1     -10.036  -8.115   6.202  1.00  0.00     0.293 HD
ENDBRANCH  17  20
ENDBRANCH   1  12
BRANCH   2  22
ATOM     22  O   UNL     1      -5.277  -8.497  10.676  1.00  0.00    -0.502 OA
ATOM     23  H   UNL     1      -6.267  -8.335  10.541  1.00  0.00     0.293 HD
ENDBRANCH   2  22
BRANCH   6  24
ATOM     24  O   UNL     1      -0.063  -8.324   9.598  1.00  0.00    -0.507 OA
ATOM     25  H   UNL     1       0.834  -7.899   9.424  1.00  0.00     0.293 HD
ENDBRANCH   6  24
BRANCH   8  26
ATOM     26  O   UNL     1       0.046 -10.920   5.559  1.00  0.00    -0.508 OA
ATOM     27  H   UNL     1      -0.199 -11.825   5.174  1.00  0.00     0.293 HD
ENDBRANCH   8  26
TORSDOF 6
ENDMDL
MODEL 3
REMARK VINA RESULT:    -5.284      2.308      2.548
REMARK INTER + INTRA:          -6.688
REMARK INTER:                  -6.375
REMARK INTRA:                  -0.313
REMARK UNBOUND:                -0.323
REMARK SMILES O=c1c(O)c(-c2ccc(O)c(O)c2)oc2cc(O)cc(O)c12
REMARK SMILES IDX 5 1 3 2 2 3 1 4 22 5 20 6 19 7 17 8 16 9 15 10 14 11 6 12
REMARK SMILES IDX 7 13 8 14 9 15 13 16 11 17 10 18 12 20 4 22 21 24 18 26
REMARK H PARENT 10 19 12 21 4 23 21 25 18 27
REMARK Flexibility Score: inf
ROOT
ATOM      1  C   UNL     1      -6.352  -8.716   9.447  1.00  0.00     0.180 A 
ATOM      2  C   UNL     1      -5.669  -9.902   9.769  1.00  0.00     0.208 A 
ATOM      3  C   UNL     1      -4.295  -9.841  10.049  1.00  0.00     0.238 A 
ATOM      4  O   UNL     1      -3.678 -10.913  10.282  1.00  0.00    -0.285 OA
ATOM      5  C   UNL     1      -3.624  -8.595  10.020  1.00  0.00     0.111 A 
ATOM      6  C   UNL     1      -2.242  -8.411  10.327  1.00  0.00     0.134 A 
ATOM      7  C   UNL     1      -1.655  -7.153  10.139  1.00  0.00     0.093 A 
ATOM      8  C   UNL     1      -2.415  -6.058   9.719  1.00  0.00     0.123 A 
ATOM      9  C   UNL     1      -3.777  -6.215   9.475  1.00  0.00     0.094 A 
ATOM     10  C   UNL     1      -4.383  -7.465   9.618  1.00  0.00     0.146 A 
ATOM     11  O   UNL     1      -5.682  -7.573   9.365  1.00  0.00    -0.452 OA
ENDROOT
BRANCH   1  12
ATOM     12  C   UNL     1      -7.806  -8.696   9.165  1.00  0.00     0.025 A 
ATOM     13  C   UNL     1      -8.716  -8.651  10.232  1.00  0.00     0.016 A 
ATOM     14  C   UNL     1     -10.092  -8.653   9.989  1.00  0.00     0.051 A 
ATOM     15  C   UNL     1     -10.579  -8.713   8.680  1.00  0.00     0.157 A 
ATOM     16  C   UNL     1      -8.298  -8.779   7.849  1.00  0.00     0.062 A 
ATOM     17  C   UNL     1      -9.679  -8.782   7.604  1.00  0.00     0.158 A 
BRANCH  15  18
ATOM     18  O   UNL     1     -11.958  -8.711   8.469  1.00  0.00    -0.504 OA
ATOM     19  H   UNL     1     -12.550  -9.475   8.773  1.00  0.00     0.293 HD
ENDBRANCH  15  18
BRANCH  17  20
ATOM     20  O   UNL     1     -10.158  -8.858   6.297  1.00  0.00    -0.504 OA
ATOM     21  H   UNL     1      -9.801  -8.255   5.565  1.00  0.00     0.293 HD
ENDBRANCH  17  20
ENDBRANCH   1  12
BRANCH   2  22
ATOM     22  O   UNL     1      -6.345 -11.125   9.769  1.00  0.00    -0.502 OA
ATOM     23  H   UNL     1      -7.316 -11.209   9.493  1.00  0.00     0.293 HD
ENDBRANCH   2  22
BRANCH   6  24
ATOM     24  O   UNL     1      -1.416  -9.415  10.841  1.00  0.00    -0.507 OA
ATOM     25  H   UNL     1      -0.666  -9.262  11.498  1.00  0.00     0.293 HD
ENDBRANCH   6  24
BRANCH   8  26
ATOM     26  O   UNL     1      -1.826  -4.807   9.550  1.00  0.00    -0.508 OA
ATOM     27  H   UNL     1      -1.015  -4.526  10.089  1.00  0.00     0.293 HD
ENDBRANCH   8  26
TORSDOF 6
ENDMDL
MODEL 4
REMARK VINA RESULT:    -4.953      3.330      6.024
REMARK INTER + INTRA:          -6.290
REMARK INTER:                  -5.985
REMARK INTRA:                  -0.304
REMARK UNBOUND:                -0.323
REMARK SMILES O=c1c(O)c(-c2ccc(O)c(O)c2)oc2cc(O)cc(O)c12
REMARK SMILES IDX 5 1 3 2 2 3 1 4 22 5 20 6 19 7 17 8 16 9 15 10 14 11 6 12
REMARK SMILES IDX 7 13 8 14 9 15 13 16 11 17 10 18 12 20 4 22 21 24 18 26
REMARK H PARENT 10 19 12 21 4 23 21 25 18 27
REMARK Flexibility Score: inf
ROOT
ATOM      1  C   UNL     1       0.049  -8.193   8.810  1.00  0.00     0.180 A 
ATOM      2  C   UNL     1       1.053  -8.831   9.561  1.00  0.00     0.208 A 
ATOM      3  C   UNL     1       2.137  -8.073  10.031  1.00  0.00     0.238 A 
ATOM      4  O   UNL     1       3.059  -8.660  10.655  1.00  0.00    -0.285 OA
ATOM      5  C   UNL     1       2.196  -6.685   9.759  1.00  0.00     0.111 A 
ATOM      6  C   UNL     1       3.228  -5.812  10.220  1.00  0.00     0.134 A 
ATOM      7  C   UNL     1       3.255  -4.483   9.781  1.00  0.00     0.093 A 
ATOM      8  C   UNL     1       2.251  -3.978   8.950  1.00  0.00     0.123 A 
ATOM      9  C   UNL     1       1.208  -4.806   8.543  1.00  0.00     0.094 A 
ATOM     10  C   UNL     1       1.174  -6.146   8.936  1.00  0.00     0.146 A 
ATOM     11  O   UNL     1       0.167  -6.904   8.517  1.00  0.00    -0.452 OA
ENDROOT
BRANCH   1  12
ATOM     12  C   UNL     1      -1.137  -8.920   8.302  1.00  0.00     0.025 A 
ATOM     13  C   UNL     1      -2.326  -8.908   9.048  1.00  0.00     0.016 A 
ATOM     14  C   UNL     1      -3.451  -9.604   8.599  1.00  0.00     0.051 A 
ATOM     15  C   UNL     1      -3.401 -10.333   7.407  1.00  0.00     0.157 A 
ATOM     16  C   UNL     1      -1.083  -9.671   7.114  1.00  0.00     0.062 A 
ATOM     17  C   UNL     1      -2.210 -10.371   6.662  1.00  0.00     0.158 A 
BRANCH  15  18
ATOM     18  O   UNL     1      -4.541 -11.015   6.982  1.00  0.00    -0.504 OA
ATOM     19  H   UNL     1      -5.449 -10.860   7.404  1.00  0.00     0.293 HD
ENDBRANCH  15  18
BRANCH  17  20
ATOM     20  O   UNL     1      -2.150 -11.109   5.480  1.00  0.00    -0.504 OA
ATOM     21  H   UNL     1      -2.390 -12.092   5.457  1.00  0.00     0.293 HD
ENDBRANCH  17  20
ENDBRANCH   1  12
BRANCH   2  22
ATOM     22  O   UNL     1       0.985 -10.206   9.799  1.00  0.00    -0.502 OA
ATOM     23  H   UNL     1       1.764 -10.731  10.177  1.00  0.00     0.293 HD
ENDBRANCH   2  22
BRANCH   6  24
ATOM     24  O   UNL     1       4.224  -6.191  11.124  1.00  0.00    -0.507 OA
ATOM     25  H   UNL     1       4.904  -6.918  10.960  1.00  0.00     0.293 HD
ENDBRANCH   6  24
BRANCH   8  26
ATOM     26  O   UNL     1       2.278  -2.649   8.531  1.00  0.00    -0.508 OA
ATOM     27  H   UNL     1       2.289  -2.404   7.548  1.00  0.00     0.293 HD
ENDBRANCH   8  26
TORSDOF 6
ENDMDL
MODEL 5
REMARK VINA RESULT:    -4.937      2.065      3.254
REMARK INTER + INTRA:          -6.269
REMARK INTER:                  -5.973
REMARK INTRA:                  -0.296
REMARK UNBOUND:                -0.323
REMARK SMILES O=c1c(O)c(-c2ccc(O)c(O)c2)oc2cc(O)cc(O)c12
REMARK SMILES IDX 5 1 3 2 2 3 1 4 22 5 20 6 19 7 17 8 16 9 15 10 14 11 6 12
REMARK SMILES IDX 7 13 8 14 9 15 13 16 11 17 10 18 12 20 4 22 21 24 18 26
REMARK H PARENT 10 19 12 21 4 23 21 25 18 27
REMARK Flexibility Score: inf
ROOT
ATOM      1  C   UNL     1      -3.012  -8.932   9.186  1.00  0.00     0.180 A 
ATOM      2  C   UNL     1      -2.262  -9.854   9.938  1.00  0.00     0.208 A 
ATOM      3  C   UNL     1      -0.943  -9.530  10.291  1.00  0.00     0.238 A 
ATOM      4  O   UNL     1      -0.259 -10.382  10.917  1.00  0.00    -0.285 OA
ATOM      5  C   UNL     1      -0.395  -8.284   9.902  1.00  0.00     0.111 A 
ATOM      6  C   UNL     1       0.918  -7.836  10.239  1.00  0.00     0.134 A 
ATOM      7  C   UNL     1       1.401  -6.641   9.690  1.00  0.00     0.093 A 
ATOM      8  C   UNL     1       0.596  -5.848   8.869  1.00  0.00     0.123 A 
ATOM      9  C   UNL     1      -0.707  -6.247   8.583  1.00  0.00     0.094 A 
ATOM     10  C   UNL     1      -1.205  -7.452   9.086  1.00  0.00     0.146 A 
ATOM     11  O   UNL     1      -2.449  -7.801   8.781  1.00  0.00    -0.452 OA
ENDROOT
BRANCH   1  12
ATOM     12  C   UNL     1      -4.418  -9.191   8.797  1.00  0.00     0.025 A 
ATOM     13  C   UNL     1      -5.459  -8.663   9.578  1.00  0.00     0.016 A 
ATOM     14  C   UNL     1      -6.791  -8.912   9.242  1.00  0.00     0.051 A 
ATOM     15  C   UNL     1      -7.105  -9.702   8.132  1.00  0.00     0.157 A 
ATOM     16  C   UNL     1      -4.736 -10.004   7.694  1.00  0.00     0.062 A 
ATOM     17  C   UNL     1      -6.073 -10.256   7.356  1.00  0.00     0.158 A 
BRANCH  15  18
ATOM     18  O   UNL     1      -8.445  -9.931   7.820  1.00  0.00    -0.504 OA
ATOM     19  H   UNL     1      -8.790 -10.851   7.572  1.00  0.00     0.293 HD
ENDBRANCH  15  18
BRANCH  17  20
ATOM     20  O   UNL     1      -6.379 -11.057   6.257  1.00  0.00    -0.504 OA
ATOM     21  H   UNL     1      -5.959 -10.895   5.349  1.00  0.00     0.293 HD
ENDBRANCH  17  20
ENDBRANCH   1  12
BRANCH   2  22
ATOM     22  O   UNL     1      -2.816 -11.087  10.292  1.00  0.00    -0.502 OA
ATOM     23  H   UNL     1      -2.771 -11.452  11.236  1.00  0.00     0.293 HD
ENDBRANCH   2  22
BRANCH   6  24
ATOM     24  O   UNL     1       1.769  -8.506  11.123  1.00  0.00    -0.507 OA
ATOM     25  H   UNL     1       2.728  -8.252  11.301  1.00  0.00     0.293 HD
ENDBRANCH   6  24
BRANCH   8  26
ATOM     26  O   UNL     1       1.080  -4.653   8.340  1.00  0.00    -0.508 OA
ATOM     27  H   UNL     1       0.518  -4.081   7.722  1.00  0.00     0.293 HD
ENDBRANCH   8  26
TORSDOF 6
ENDMDL
MODEL 6
REMARK VINA RESULT:    -4.879      2.473      4.263
REMARK INTER + INTRA:          -6.200
REMARK INTER:                  -5.905
REMARK INTRA:                  -0.296
REMARK UNBOUND:                -0.323
REMARK SMILES O=c1c(O)c(-c2ccc(O)c(O)c2)oc2cc(O)cc(O)c12
REMARK SMILES IDX 5 1 3 2 2 3 1 4 22 5 20 6 19 7 17 8 16 9 15 10 14 11 6 12
REMARK SMILES IDX 7 13 8 14 9 15 13 16 11 17 10 18 12 20 4 22 21 24 18 26
REMARK H PARENT 10 19 12 21 4 23 21 25 18 27
REMARK Flexibility Score: inf
ROOT
ATOM      1  C   UNL     1      -1.624  -9.022   8.770  1.00  0.00     0.180 A 
ATOM      2  C   UNL     1      -0.746  -9.784   9.561  1.00  0.00     0.208 A 
ATOM      3  C   UNL     1       0.436  -9.190  10.032  1.00  0.00     0.238 A 
ATOM      4  O   UNL     1       1.244  -9.893  10.693  1.00  0.00    -0.285 OA
ATOM      5  C   UNL     1       0.717  -7.838   9.720  1.00  0.00     0.111 A 
ATOM      6  C   UNL     1       1.864  -7.123  10.178  1.00  0.00     0.134 A 
ATOM      7  C   UNL     1       2.106  -5.828   9.701  1.00  0.00     0.093 A 
ATOM      8  C   UNL     1       1.209  -5.200   8.835  1.00  0.00     0.123 A 
ATOM      9  C   UNL     1       0.056  -5.868   8.430  1.00  0.00     0.094 A 
ATOM     10  C   UNL     1      -0.195  -7.173   8.860  1.00  0.00     0.146 A 
ATOM     11  O   UNL     1      -1.300  -7.777   8.441  1.00  0.00    -0.452 OA
ENDROOT
BRANCH   1  12
ATOM     12  C   UNL     1      -2.901  -9.571   8.257  1.00  0.00     0.025 A 
ATOM     13  C   UNL     1      -2.896 -10.365   7.100  1.00  0.00     0.016 A 
ATOM     14  C   UNL     1      -4.091 -10.876   6.587  1.00  0.00     0.051 A 
ATOM     15  C   UNL     1      -5.308 -10.591   7.213  1.00  0.00     0.157 A 
ATOM     16  C   UNL     1      -4.128  -9.268   8.874  1.00  0.00     0.062 A 
ATOM     17  C   UNL     1      -5.329  -9.779   8.360  1.00  0.00     0.158 A 
BRANCH  15  18
ATOM     18  O   UNL     1      -6.484 -11.117   6.680  1.00  0.00    -0.504 OA
ATOM     19  H   UNL     1      -6.764 -12.078   6.840  1.00  0.00     0.293 HD
ENDBRANCH  15  18
BRANCH  17  20
ATOM     20  O   UNL     1      -6.541  -9.479   8.981  1.00  0.00    -0.504 OA
ATOM     21  H   UNL     1      -7.197  -8.823   8.573  1.00  0.00     0.293 HD
ENDBRANCH  17  20
ENDBRANCH   1  12
BRANCH   2  22
ATOM     22  O   UNL     1      -1.032 -11.124   9.837  1.00  0.00    -0.502 OA
ATOM     23  H   UNL     1      -1.974 -11.496   9.808  1.00  0.00     0.293 HD
ENDBRANCH   2  22
BRANCH   6  24
ATOM     24  O   UNL     1       2.774  -7.623  11.115  1.00  0.00    -0.507 OA
ATOM     25  H   UNL     1       3.741  -7.347  11.181  1.00  0.00     0.293 HD
ENDBRANCH   6  24
BRANCH   8  26
ATOM     26  O   UNL     1       1.450  -3.906   8.378  1.00  0.00    -0.508 OA
ATOM     27  H   UNL     1       0.782  -3.417   7.794  1.00  0.00     0.293 HD
ENDBRANCH   8  26
TORSDOF 6
ENDMDL
MODEL 7
REMARK VINA RESULT:    -4.860      2.019      3.242
REMARK INTER + INTRA:          -6.177
REMARK INTER:                  -5.922
REMARK INTRA:                  -0.255
REMARK UNBOUND:                -0.323
REMARK SMILES O=c1c(O)c(-c2ccc(O)c(O)c2)oc2cc(O)cc(O)c12
REMARK SMILES IDX 5 1 3 2 2 3 1 4 22 5 20 6 19 7 17 8 16 9 15 10 14 11 6 12
REMARK SMILES IDX 7 13 8 14 9 15 13 16 11 17 10 18 12 20 4 22 21 24 18 26
REMARK H PARENT 10 19 12 21 4 23 21 25 18 27
REMARK Flexibility Score: inf
ROOT
ATOM      1  C   UNL     1      -4.151  -7.894   9.229  1.00  0.00     0.180 A 
ATOM      2  C   UNL     1      -3.654  -6.583   9.345  1.00  0.00     0.208 A 
ATOM      3  C   UNL     1      -2.268  -6.373   9.277  1.00  0.00     0.238 A 
ATOM      4  O   UNL     1      -1.826  -5.205   9.436  1.00  0.00    -0.285 OA
ATOM      5  C   UNL     1      -1.398  -7.471   9.077  1.00  0.00     0.111 A 
ATOM      6  C   UNL     1       0.021  -7.369   8.951  1.00  0.00     0.134 A 
ATOM      7  C   UNL     1       0.793  -8.534   8.886  1.00  0.00     0.093 A 
ATOM      8  C   UNL     1       0.195  -9.797   8.877  1.00  0.00     0.123 A 
ATOM      9  C   UNL     1      -1.192  -9.905   8.939  1.00  0.00     0.094 A 
ATOM     10  C   UNL     1      -1.988  -8.761   9.040  1.00  0.00     0.146 A 
ATOM     11  O   UNL     1      -3.305  -8.909   9.108  1.00  0.00    -0.452 OA
ENDROOT
BRANCH   1  12
ATOM     12  C   UNL     1      -5.602  -8.192   9.267  1.00  0.00     0.025 A 
ATOM     13  C   UNL     1      -6.137  -8.883  10.366  1.00  0.00     0.016 A 
ATOM     14  C   UNL     1      -7.498  -9.193  10.412  1.00  0.00     0.051 A 
ATOM     15  C   UNL     1      -8.342  -8.832   9.357  1.00  0.00     0.157 A 
ATOM     16  C   UNL     1      -6.448  -7.849   8.197  1.00  0.00     0.062 A 
ATOM     17  C   UNL     1      -7.815  -8.161   8.241  1.00  0.00     0.158 A 
BRANCH  15  18
ATOM     18  O   UNL     1      -9.697  -9.154   9.433  1.00  0.00    -0.504 OA
ATOM     19  H   UNL     1     -10.208  -9.125  10.307  1.00  0.00     0.293 HD
ENDBRANCH  15  18
BRANCH  17  20
ATOM     20  O   UNL     1      -8.648  -7.811   7.179  1.00  0.00    -0.504 OA
ATOM     21  H   UNL     1      -8.317  -7.815   6.222  1.00  0.00     0.293 HD
ENDBRANCH  17  20
ENDBRANCH   1  12
BRANCH   2  22
ATOM     22  O   UNL     1      -4.530  -5.517   9.565  1.00  0.00    -0.502 OA
ATOM     23  H   UNL     1      -5.401  -5.624  10.070  1.00  0.00     0.293 HD
ENDBRANCH   2  22
BRANCH   6  24
ATOM     24  O   UNL     1       0.710  -6.156   8.858  1.00  0.00    -0.507 OA
ATOM     25  H   UNL     1       1.539  -5.924   9.383  1.00  0.00     0.293 HD
ENDBRANCH   6  24
BRANCH   8  26
ATOM     26  O   UNL     1       0.971 -10.951   8.796  1.00  0.00    -0.508 OA
ATOM     27  H   UNL     1       0.983 -11.635   9.543  1.00  0.00     0.293 HD
ENDBRANCH   8  26
TORSDOF 6
ENDMDL
MODEL 8
REMARK VINA RESULT:    -4.815     16.445     18.282
REMARK INTER + INTRA:          -6.123
REMARK INTER:                  -5.805
REMARK INTRA:                  -0.319
REMARK UNBOUND:                -0.323
REMARK SMILES O=c1c(O)c(-c2ccc(O)c(O)c2)oc2cc(O)cc(O)c12
REMARK SMILES IDX 5 1 3 2 2 3 1 4 22 5 20 6 19 7 17 8 16 9 15 10 14 11 6 12
REMARK SMILES IDX 7 13 8 14 9 15 13 16 11 17 10 18 12 20 4 22 21 24 18 26
REMARK H PARENT 10 19 12 21 4 23 21 25 18 27
REMARK Flexibility Score: inf
ROOT
ATOM      1  C   UNL     1       1.809  -2.804  -6.210  1.00  0.00     0.180 A 
ATOM      2  C   UNL     1       0.481  -2.776  -6.673  1.00  0.00     0.208 A 
ATOM      3  C   UNL     1       0.034  -3.802  -7.520  1.00  0.00     0.238 A 
ATOM      4  O   UNL     1      -1.138  -3.743  -7.974  1.00  0.00    -0.285 OA
ATOM      5  C   UNL     1       0.914  -4.851  -7.881  1.00  0.00     0.111 A 
ATOM      6  C   UNL     1       0.556  -5.963  -8.702  1.00  0.00     0.134 A 
ATOM      7  C   UNL     1       1.543  -6.872  -9.101  1.00  0.00     0.093 A 
ATOM      8  C   UNL     1       2.862  -6.746  -8.656  1.00  0.00     0.123 A 
ATOM      9  C   UNL     1       3.208  -5.698  -7.807  1.00  0.00     0.094 A 
ATOM     10  C   UNL     1       2.253  -4.755  -7.421  1.00  0.00     0.146 A 
ATOM     11  O   UNL     1       2.628  -3.765  -6.619  1.00  0.00    -0.452 OA
ENDROOT
BRANCH   1  12
ATOM     12  C   UNL     1       2.345  -1.771  -5.294  1.00  0.00     0.025 A 
ATOM     13  C   UNL     1       2.271  -1.973  -3.906  1.00  0.00     0.016 A 
ATOM     14  C   UNL     1       2.752  -1.003  -3.024  1.00  0.00     0.051 A 
ATOM     15  C   UNL     1       3.301   0.187  -3.511  1.00  0.00     0.157 A 
ATOM     16  C   UNL     1       2.878  -0.564  -5.782  1.00  0.00     0.062 A 
ATOM     17  C   UNL     1       3.360   0.412  -4.897  1.00  0.00     0.158 A 
BRANCH  15  18
ATOM     18  O   UNL     1       3.775   1.136  -2.605  1.00  0.00    -0.504 OA
ATOM     19  H   UNL     1       4.764   1.330  -2.498  1.00  0.00     0.293 HD
ENDBRANCH  15  18
BRANCH  17  20
ATOM     20  O   UNL     1       3.893   1.602  -5.389  1.00  0.00    -0.504 OA
ATOM     21  H   UNL     1       3.702   1.918  -6.332  1.00  0.00     0.293 HD
ENDBRANCH  17  20
ENDBRANCH   1  12
BRANCH   2  22
ATOM     22  O   UNL     1      -0.364  -1.720  -6.322  1.00  0.00    -0.502 OA
ATOM     23  H   UNL     1      -1.117  -1.404  -6.920  1.00  0.00     0.293 HD
ENDBRANCH   2  22
BRANCH   6  24
ATOM     24  O   UNL     1      -0.749  -6.233  -9.124  1.00  0.00    -0.507 OA
ATOM     25  H   UNL     1      -1.544  -6.327  -8.510  1.00  0.00     0.293 HD
ENDBRANCH   6  24
BRANCH   8  26
ATOM     26  O   UNL     1       3.834  -7.665  -9.046  1.00  0.00    -0.508 OA
ATOM     27  H   UNL     1       4.232  -8.326  -8.390  1.00  0.00     0.293 HD
ENDBRANCH   8  26
TORSDOF 6
ENDMDL
