MODEL 1
REMARK VINA RESULT:    -6.234      0.000      0.000
REMARK INTER + INTRA:          -7.453
REMARK INTER:                  -7.327
REMARK INTRA:                  -0.126
REMARK UNBOUND:                -0.126
REMARK SMILES O=C([O-])C=Cc1ccc(O)c(O)c1
REMARK SMILES IDX 6 1 13 2 7 3 11 4 8 5 9 6 5 7 4 8 2 9 1 10 3 11 12 12 10 14
REMARK H PARENT 12 13 10 15
REMARK Flexibility Score: inf
ROOT
ATOM      1  C   UNL     1     -14.191 -27.783 -11.928  1.00  0.00    -0.022 A 
ATOM      2  C   UNL     1     -13.869 -27.895 -13.290  1.00  0.00     0.058 A 
ATOM      3  C   UNL     1     -14.570 -26.524 -11.420  1.00  0.00     0.012 A 
ATOM      4  C   UNL     1     -13.948 -26.782 -14.139  1.00  0.00     0.157 A 
ATOM      5  C   UNL     1     -14.647 -25.415 -12.266  1.00  0.00     0.051 A 
ATOM      6  C   UNL     1     -14.340 -25.539 -13.626  1.00  0.00     0.157 A 
ENDROOT
BRANCH   1   7
ATOM      7  C   UNL     1     -14.081 -28.989 -11.070  1.00  0.00     0.010 C 
ATOM      8  C   UNL     1     -12.925 -29.611 -10.803  1.00  0.00     0.025 C 
BRANCH   8   9
ATOM      9  C   UNL     1     -12.863 -30.799  -9.937  1.00  0.00     0.064 C 
ATOM     10  O   UNL     1     -12.224 -30.746  -8.853  1.00  0.00    -0.545 OA
ATOM     11  O   UNL     1     -13.497 -31.983 -10.296  1.00  0.00    -0.545 OA
ENDBRANCH   8   9
ENDBRANCH   1   7
BRANCH   4  12
ATOM     12  O   UNL     1     -13.637 -26.902 -15.492  1.00  0.00    -0.504 OA
ATOM     13  H   UNL     1     -12.971 -26.282 -15.940  1.00  0.00     0.293 HD
ENDBRANCH   4  12
BRANCH   6  14
ATOM     14  O   UNL     1     -14.418 -24.435 -14.472  1.00  0.00    -0.504 OA
ATOM     15  H   UNL     1     -15.297 -24.143 -14.883  1.00  0.00     0.293 HD
ENDBRANCH   6  14
TORSDOF 4
ENDMDL
MODEL 2
REMARK VINA RESULT:    -6.097      1.070      1.991
REMARK INTER + INTRA:          -7.293
REMARK INTER:                  -7.156
REMARK INTRA:                  -0.136
REMARK UNBOUND:                -0.126
REMARK SMILES O=C([O-])C=Cc1ccc(O)c(O)c1
REMARK SMILES IDX 6 1 13 2 7 3 11 4 8 5 9 6 5 7 4 8 2 9 1 10 3 11 12 12 10 14
REMARK H PARENT 12 13 10 15
REMARK Flexibility Score: inf
ROOT
ATOM      1  C   UNL     1     -14.046 -27.677 -12.480  1.00  0.00    -0.022 A 
ATOM      2  C   UNL     1     -14.611 -26.400 -12.336  1.00  0.00     0.058 A 
ATOM      3  C   UNL     1     -13.333 -27.977 -13.658  1.00  0.00     0.012 A 
ATOM      4  C   UNL     1     -14.450 -25.429 -13.335  1.00  0.00     0.157 A 
ATOM      5  C   UNL     1     -13.173 -27.010 -14.653  1.00  0.00     0.051 A 
ATOM      6  C   UNL     1     -13.727 -25.734 -14.495  1.00  0.00     0.157 A 
ENDROOT
BRANCH   1   7
ATOM      7  C   UNL     1     -14.254 -28.672 -11.398  1.00  0.00     0.010 C 
ATOM      8  C   UNL     1     -13.329 -29.562 -11.016  1.00  0.00     0.025 C 
BRANCH   8   9
ATOM      9  C   UNL     1     -13.576 -30.523  -9.929  1.00  0.00     0.064 C 
ATOM     10  O   UNL     1     -14.581 -30.376  -9.186  1.00  0.00    -0.545 OA
ATOM     11  O   UNL     1     -12.715 -31.592  -9.707  1.00  0.00    -0.545 OA
ENDBRANCH   8   9
ENDBRANCH   1   7
BRANCH   4  12
ATOM     12  O   UNL     1     -15.005 -24.159 -13.183  1.00  0.00    -0.504 OA
ATOM     13  H   UNL     1     -15.480 -23.693 -13.948  1.00  0.00     0.293 HD
ENDBRANCH   4  12
BRANCH   6  14
ATOM     14  O   UNL     1     -13.568 -24.766 -15.485  1.00  0.00    -0.504 OA
ATOM     15  H   UNL     1     -14.236 -24.013 -15.602  1.00  0.00     0.293 HD
ENDBRANCH   6  14
TORSDOF 4
ENDMDL
MODEL 3
REMARK VINA RESULT:    -5.917      2.065      2.313
REMARK INTER + INTRA:          -7.081
REMARK INTER:                  -6.944
REMARK INTRA:                  -0.137
REMARK UNBOUND:                -0.126
REMARK SMILES O=C([O-])C=Cc1ccc(O)c(O)c1
REMARK SMILES IDX 6 1 13 2 7 3 11 4 8 5 9 6 5 7 4 8 2 9 1 10 3 11 12 12 10 14
REMARK H PARENT 12 13 10 15
REMARK Flexibility Score: inf
ROOT
ATOM      1  C   UNL     1     -13.811 -28.075 -13.401  1.00  0.00    -0.022 A 
ATOM      2  C   UNL     1     -13.259 -27.167 -14.319  1.00  0.00     0.058 A 
ATOM      3  C   UNL     1     -14.732 -27.601 -12.445  1.00  0.00     0.012 A 
ATOM      4  C   UNL     1     -13.635 -25.816 -14.305  1.00  0.00     0.157 A 
ATOM      5  C   UNL     1     -15.106 -26.254 -12.431  1.00  0.00     0.051 A 
ATOM      6  C   UNL     1     -14.563 -25.359 -13.360  1.00  0.00     0.157 A 
ENDROOT
BRANCH   1   7
ATOM      7  C   UNL     1     -13.372 -29.491 -13.452  1.00  0.00     0.010 C 
ATOM      8  C   UNL     1     -14.110 -30.517 -13.006  1.00  0.00     0.025 C 
BRANCH   8   9
ATOM      9  C   UNL     1     -13.638 -31.908 -13.087  1.00  0.00     0.064 C 
ATOM     10  O   UNL     1     -12.492 -32.202 -12.657  1.00  0.00    -0.545 OA
ATOM     11  O   UNL     1     -14.438 -32.907 -13.633  1.00  0.00    -0.545 OA
ENDBRANCH   8   9
ENDBRANCH   1   7
BRANCH   4  12
ATOM     12  O   UNL     1     -13.092 -24.921 -15.226  1.00  0.00    -0.504 OA
ATOM     13  H   UNL     1     -13.420 -23.964 -15.291  1.00  0.00     0.293 HD
ENDBRANCH   4  12
BRANCH   6  14
ATOM     14  O   UNL     1     -14.935 -24.017 -13.350  1.00  0.00    -0.504 OA
ATOM     15  H   UNL     1     -15.698 -23.683 -12.771  1.00  0.00     0.293 HD
ENDBRANCH   6  14
TORSDOF 4
ENDMDL
MODEL 4
REMARK VINA RESULT:    -5.887      1.992      2.316
REMARK INTER + INTRA:          -7.046
REMARK INTER:                  -6.918
REMARK INTRA:                  -0.128
REMARK UNBOUND:                -0.126
REMARK SMILES O=C([O-])C=Cc1ccc(O)c(O)c1
REMARK SMILES IDX 6 1 13 2 7 3 11 4 8 5 9 6 5 7 4 8 2 9 1 10 3 11 12 12 10 14
REMARK H PARENT 12 13 10 15
REMARK Flexibility Score: inf
ROOT
ATOM      1  C   UNL     1     -12.926 -27.147 -12.204  1.00  0.00    -0.022 A 
ATOM      2  C   UNL     1     -12.425 -26.470 -13.327  1.00  0.00     0.058 A 
ATOM      3  C   UNL     1     -14.149 -26.727 -11.646  1.00  0.00     0.012 A 
ATOM      4  C   UNL     1     -13.140 -25.409 -13.902  1.00  0.00     0.157 A 
ATOM      5  C   UNL     1     -14.861 -25.669 -12.218  1.00  0.00     0.051 A 
ATOM      6  C   UNL     1     -14.362 -25.010 -13.348  1.00  0.00     0.157 A 
ENDROOT
BRANCH   1   7
ATOM      7  C   UNL     1     -12.125 -28.256 -11.628  1.00  0.00     0.010 C 
ATOM      8  C   UNL     1     -10.863 -28.120 -11.199  1.00  0.00     0.025 C 
BRANCH   8   9
ATOM      9  C   UNL     1     -10.111 -29.246 -10.623  1.00  0.00     0.064 C 
ATOM     10  O   UNL     1     -10.581 -29.867  -9.634  1.00  0.00    -0.545 OA
ATOM     11  O   UNL     1      -8.886 -29.636 -11.154  1.00  0.00    -0.545 OA
ENDBRANCH   8   9
ENDBRANCH   1   7
BRANCH   4  12
ATOM     12  O   UNL     1     -12.642 -24.747 -15.023  1.00  0.00    -0.504 OA
ATOM     13  H   UNL     1     -12.406 -23.762 -14.995  1.00  0.00     0.293 HD
ENDBRANCH   4  12
BRANCH   6  14
ATOM     14  O   UNL     1     -15.070 -23.956 -13.922  1.00  0.00    -0.504 OA
ATOM     15  H   UNL     1     -15.752 -23.425 -13.392  1.00  0.00     0.293 HD
ENDBRANCH   6  14
TORSDOF 4
ENDMDL
MODEL 5
REMARK VINA RESULT:    -5.745      6.991      9.155
REMARK INTER + INTRA:          -6.878
REMARK INTER:                  -6.745
REMARK INTRA:                  -0.134
REMARK UNBOUND:                -0.126
REMARK SMILES O=C([O-])C=Cc1ccc(O)c(O)c1
REMARK SMILES IDX 6 1 13 2 7 3 11 4 8 5 9 6 5 7 4 8 2 9 1 10 3 11 12 12 10 14
REMARK H PARENT 12 13 10 15
REMARK Flexibility Score: inf
ROOT
ATOM      1  C   UNL     1     -16.991 -35.650 -12.458  1.00  0.00    -0.022 A 
ATOM      2  C   UNL     1     -17.980 -34.747 -12.881  1.00  0.00     0.058 A 
ATOM      3  C   UNL     1     -17.387 -36.840 -11.816  1.00  0.00     0.012 A 
ATOM      4  C   UNL     1     -19.340 -35.033 -12.693  1.00  0.00     0.157 A 
ATOM      5  C   UNL     1     -18.742 -37.125 -11.627  1.00  0.00     0.051 A 
ATOM      6  C   UNL     1     -19.721 -36.226 -12.067  1.00  0.00     0.157 A 
ENDROOT
BRANCH   1   7
ATOM      7  C   UNL     1     -15.566 -35.294 -12.672  1.00  0.00     0.010 C 
ATOM      8  C   UNL     1     -15.159 -34.132 -13.201  1.00  0.00     0.025 C 
BRANCH   8   9
ATOM      9  C   UNL     1     -13.733 -33.818 -13.384  1.00  0.00     0.064 C 
ATOM     10  O   UNL     1     -13.382 -32.628 -13.599  1.00  0.00    -0.545 OA
ATOM     11  O   UNL     1     -12.765 -34.814 -13.326  1.00  0.00    -0.545 OA
ENDBRANCH   8   9
ENDBRANCH   1   7
BRANCH   4  12
ATOM     12  O   UNL     1     -20.317 -34.137 -13.124  1.00  0.00    -0.504 OA
ATOM     13  H   UNL     1     -20.690 -33.424 -12.509  1.00  0.00     0.293 HD
ENDBRANCH   4  12
BRANCH   6  14
ATOM     14  O   UNL     1     -21.073 -36.508 -11.882  1.00  0.00    -0.504 OA
ATOM     15  H   UNL     1     -21.394 -37.082 -11.111  1.00  0.00     0.293 HD
ENDBRANCH   6  14
TORSDOF 4
ENDMDL
MODEL 6
REMARK VINA RESULT:    -5.335      2.230      2.931
REMARK INTER + INTRA:          -6.396
REMARK INTER:                  -6.261
REMARK INTRA:                  -0.136
REMARK UNBOUND:                -0.126
REMARK SMILES O=C([O-])C=Cc1ccc(O)c(O)c1
REMARK SMILES IDX 6 1 13 2 7 3 11 4 8 5 9 6 5 7 4 8 2 9 1 10 3 11 12 12 10 14
REMARK H PARENT 12 13 10 15
REMARK Flexibility Score: inf
ROOT
ATOM      1  C   UNL     1     -13.743 -28.512 -12.847  1.00  0.00    -0.022 A 
ATOM      2  C   UNL     1     -14.206 -27.705 -11.795  1.00  0.00     0.058 A 
ATOM      3  C   UNL     1     -13.456 -27.911 -14.089  1.00  0.00     0.012 A 
ATOM      4  C   UNL     1     -14.359 -26.321 -11.967  1.00  0.00     0.157 A 
ATOM      5  C   UNL     1     -13.609 -26.533 -14.260  1.00  0.00     0.051 A 
ATOM      6  C   UNL     1     -14.057 -25.734 -13.202  1.00  0.00     0.157 A 
ENDROOT
BRANCH   1   7
ATOM      7  C   UNL     1     -13.608 -29.971 -12.616  1.00  0.00     0.010 C 
ATOM      8  C   UNL     1     -14.131 -30.904 -13.423  1.00  0.00     0.025 C 
BRANCH   8   9
ATOM      9  C   UNL     1     -13.963 -32.343 -13.161  1.00  0.00     0.064 C 
ATOM     10  O   UNL     1     -12.912 -32.754 -12.603  1.00  0.00    -0.545 OA
ATOM     11  O   UNL     1     -14.946 -33.258 -13.521  1.00  0.00    -0.545 OA
ENDBRANCH   8   9
ENDBRANCH   1   7
BRANCH   4  12
ATOM     12  O   UNL     1     -14.810 -25.524 -10.916  1.00  0.00    -0.504 OA
ATOM     13  H   UNL     1     -15.059 -25.923 -10.018  1.00  0.00     0.293 HD
ENDBRANCH   4  12
BRANCH   6  14
ATOM     14  O   UNL     1     -14.209 -24.359 -13.369  1.00  0.00    -0.504 OA
ATOM     15  H   UNL     1     -13.408 -23.743 -13.450  1.00  0.00     0.293 HD
ENDBRANCH   6  14
TORSDOF 4
ENDMDL
MODEL 7
REMARK VINA RESULT:    -5.327      2.001      2.365
REMARK INTER + INTRA:          -6.387
REMARK INTER:                  -6.252
REMARK INTRA:                  -0.135
REMARK UNBOUND:                -0.126
REMARK SMILES O=C([O-])C=Cc1ccc(O)c(O)c1
REMARK SMILES IDX 6 1 13 2 7 3 11 4 8 5 9 6 5 7 4 8 2 9 1 10 3 11 12 12 10 14
REMARK H PARENT 12 13 10 15
REMARK Flexibility Score: inf
ROOT
ATOM      1  C   UNL     1     -12.841 -28.995 -12.335  1.00  0.00    -0.022 A 
ATOM      2  C   UNL     1     -13.346 -28.657 -13.602  1.00  0.00     0.058 A 
ATOM      3  C   UNL     1     -12.104 -28.031 -11.618  1.00  0.00     0.012 A 
ATOM      4  C   UNL     1     -13.143 -27.376 -14.135  1.00  0.00     0.157 A 
ATOM      5  C   UNL     1     -11.902 -26.755 -12.150  1.00  0.00     0.051 A 
ATOM      6  C   UNL     1     -12.422 -26.422 -13.407  1.00  0.00     0.157 A 
ENDROOT
BRANCH   1   7
ATOM      7  C   UNL     1     -13.075 -30.367 -11.821  1.00  0.00     0.010 C 
ATOM      8  C   UNL     1     -13.358 -31.417 -12.602  1.00  0.00     0.025 C 
BRANCH   8   9
ATOM      9  C   UNL     1     -13.571 -32.764 -12.049  1.00  0.00     0.064 C 
ATOM     10  O   UNL     1     -13.460 -32.951 -10.808  1.00  0.00    -0.545 OA
ATOM     11  O   UNL     1     -13.892 -33.837 -12.873  1.00  0.00    -0.545 OA
ENDBRANCH   8   9
ENDBRANCH   1   7
BRANCH   4  12
ATOM     12  O   UNL     1     -13.655 -27.043 -15.388  1.00  0.00    -0.504 OA
ATOM     13  H   UNL     1     -13.191 -27.330 -16.243  1.00  0.00     0.293 HD
ENDBRANCH   4  12
BRANCH   6  14
ATOM     14  O   UNL     1     -12.223 -25.151 -13.939  1.00  0.00    -0.504 OA
ATOM     15  H   UNL     1     -11.410 -24.596 -13.697  1.00  0.00     0.293 HD
ENDBRANCH   6  14
TORSDOF 4
ENDMDL
MODEL 8
REMARK VINA RESULT:    -5.249      1.606      5.740
REMARK INTER + INTRA:          -6.295
REMARK INTER:                  -6.169
REMARK INTRA:                  -0.126
REMARK UNBOUND:                -0.126
REMARK SMILES O=C([O-])C=Cc1ccc(O)c(O)c1
REMARK SMILES IDX 6 1 13 2 7 3 11 4 8 5 9 6 5 7 4 8 2 9 1 10 3 11 12 12 10 14
REMARK H PARENT 12 13 10 15
REMARK Flexibility Score: inf
ROOT
ATOM      1  C   UNL     1     -14.156 -29.055 -12.089  1.00  0.00    -0.022 A 
ATOM      2  C   UNL     1     -13.858 -30.060 -13.024  1.00  0.00     0.058 A 
ATOM      3  C   UNL     1     -14.108 -29.369 -10.716  1.00  0.00     0.012 A 
ATOM      4  C   UNL     1     -13.495 -31.347 -12.603  1.00  0.00     0.157 A 
ATOM      5  C   UNL     1     -13.747 -30.652 -10.296  1.00  0.00     0.051 A 
ATOM      6  C   UNL     1     -13.437 -31.643 -11.235  1.00  0.00     0.157 A 
ENDROOT
BRANCH   1   7
ATOM      7  C   UNL     1     -14.545 -27.713 -12.588  1.00  0.00     0.010 C 
ATOM      8  C   UNL     1     -13.731 -26.915 -13.292  1.00  0.00     0.025 C 
BRANCH   8   9
ATOM      9  C   UNL     1     -14.163 -25.595 -13.777  1.00  0.00     0.064 C 
ATOM     10  O   UNL     1     -13.783 -25.193 -14.908  1.00  0.00    -0.545 OA
ATOM     11  O   UNL     1     -14.985 -24.781 -13.005  1.00  0.00    -0.545 OA
ENDBRANCH   8   9
ENDBRANCH   1   7
BRANCH   4  12
ATOM     12  O   UNL     1     -13.191 -32.337 -13.535  1.00  0.00    -0.504 OA
ATOM     13  H   UNL     1     -13.664 -32.384 -14.431  1.00  0.00     0.293 HD
ENDBRANCH   4  12
BRANCH   6  14
ATOM     14  O   UNL     1     -13.075 -32.922 -10.819  1.00  0.00    -0.504 OA
ATOM     15  H   UNL     1     -12.351 -33.449 -11.295  1.00  0.00     0.293 HD
ENDBRANCH   6  14
TORSDOF 4
ENDMDL
MODEL 9
REMARK VINA RESULT:    -5.051      1.798      2.342
REMARK INTER + INTRA:          -6.063
REMARK INTER:                  -5.936
REMARK INTRA:                  -0.127
REMARK UNBOUND:                -0.126
REMARK SMILES O=C([O-])C=Cc1ccc(O)c(O)c1
REMARK SMILES IDX 6 1 13 2 7 3 11 4 8 5 9 6 5 7 4 8 2 9 1 10 3 11 12 12 10 14
REMARK H PARENT 12 13 10 15
REMARK Flexibility Score: inf
ROOT
ATOM      1  C   UNL     1     -12.647 -28.863 -11.596  1.00  0.00    -0.022 A 
ATOM      2  C   UNL     1     -13.988 -29.008 -11.988  1.00  0.00     0.058 A 
ATOM      3  C   UNL     1     -11.987 -27.648 -11.868  1.00  0.00     0.012 A 
ATOM      4  C   UNL     1     -14.669 -27.955 -12.616  1.00  0.00     0.157 A 
ATOM      5  C   UNL     1     -12.665 -26.599 -12.495  1.00  0.00     0.051 A 
ATOM      6  C   UNL     1     -14.007 -26.747 -12.867  1.00  0.00     0.157 A 
ENDROOT
BRANCH   1   7
ATOM      7  C   UNL     1     -11.970 -30.011 -10.944  1.00  0.00     0.010 C 
ATOM      8  C   UNL     1     -12.181 -30.377  -9.673  1.00  0.00     0.025 C 
BRANCH   8   9
ATOM      9  C   UNL     1     -11.495 -31.531  -9.071  1.00  0.00     0.064 C 
ATOM     10  O   UNL     1     -11.350 -32.587  -9.741  1.00  0.00    -0.545 OA
ATOM     11  O   UNL     1     -11.004 -31.476  -7.771  1.00  0.00    -0.545 OA
ENDBRANCH   8   9
ENDBRANCH   1   7
BRANCH   4  12
ATOM     12  O   UNL     1     -16.003 -28.101 -12.993  1.00  0.00    -0.504 OA
ATOM     13  H   UNL     1     -16.313 -27.891 -13.935  1.00  0.00     0.293 HD
ENDBRANCH   4  12
BRANCH   6  14
ATOM     14  O   UNL     1     -14.686 -25.703 -13.491  1.00  0.00    -0.504 OA
ATOM     15  H   UNL     1     -14.205 -25.038 -14.087  1.00  0.00     0.293 HD
ENDBRANCH   6  14
TORSDOF 4
ENDMDL
