MODEL 1
REMARK VINA RESULT:    -3.200      0.000      0.000
REMARK INTER + INTRA:          -7.054
REMARK INTER:                  -5.445
REMARK INTRA:                  -1.609
REMARK UNBOUND:                -1.609
REMARK SMILES CCCCCCCCCCCCCC(=O)[O-]
REMARK SMILES IDX 8 1 9 2 10 3 11 4 12 5 13 6 14 7 15 8 16 9 7 10 6 11 5 12
REMARK SMILES IDX 4 13 3 14 2 15 1 16
REMARK H PARENT
REMARK Flexibility Score: inf
ROOT
ATOM      1  C   UNL     1      31.387  12.515  20.877  1.00  0.00     0.000 C 
ENDROOT
BRANCH   1   2
ATOM      2  C   UNL     1      30.937  13.790  20.143  1.00  0.00     0.000 C 
BRANCH   2   3
ATOM      3  C   UNL     1      30.559  13.523  18.677  1.00  0.00     0.000 C 
BRANCH   3   4
ATOM      4  C   UNL     1      29.277  14.260  18.254  1.00  0.00     0.000 C 
BRANCH   4   5
ATOM      5  C   UNL     1      29.453  15.052  16.948  1.00  0.00     0.006 C 
BRANCH   5   6
ATOM      6  C   UNL     1      30.575  14.492  16.063  1.00  0.00     0.053 C 
BRANCH   6   7
ATOM      7  C   UNL     1      31.339  15.607  15.421  1.00  0.00     0.041 C 
ATOM      8  O   UNL     1      32.020  16.397  16.127  1.00  0.00    -0.550 OA
ATOM      9  O   UNL     1      31.337  15.746  14.039  1.00  0.00    -0.550 OA
ENDBRANCH   6   7
ENDBRANCH   5   6
ENDBRANCH   4   5
ENDBRANCH   3   4
ENDBRANCH   2   3
ENDBRANCH   1   2
BRANCH   1  10
ATOM     10  C   UNL     1      31.192  12.605  22.402  1.00  0.00     0.000 C 
BRANCH  10  11
ATOM     11  C   UNL     1      30.204  11.582  22.998  1.00  0.00    -0.000 C 
BRANCH  11  12
ATOM     12  C   UNL     1      29.706  10.505  22.012  1.00  0.00    -0.000 C 
BRANCH  12  13
ATOM     13  C   UNL     1      28.202  10.572  21.685  1.00  0.00    -0.000 C 
BRANCH  13  14
ATOM     14  C   UNL     1      27.828  11.511  20.521  1.00  0.00    -0.000 C 
BRANCH  14  15
ATOM     15  C   UNL     1      26.875  12.660  20.898  1.00  0.00    -0.003 C 
ATOM     16  C   UNL     1      27.564  13.772  21.686  1.00  0.00     0.004 C 
ENDBRANCH  14  15
ENDBRANCH  13  14
ENDBRANCH  12  13
ENDBRANCH  11  12
ENDBRANCH  10  11
ENDBRANCH   1  10
TORSDOF 12
ENDMDL
MODEL 2
REMARK VINA RESULT:    -3.188      3.765      6.211
REMARK INTER + INTRA:          -7.033
REMARK INTER:                  -5.192
REMARK INTRA:                  -1.841
REMARK UNBOUND:                -1.609
REMARK SMILES CCCCCCCCCCCCCC(=O)[O-]
REMARK SMILES IDX 8 1 9 2 10 3 11 4 12 5 13 6 14 7 15 8 16 9 7 10 6 11 5 12
REMARK SMILES IDX 4 13 3 14 2 15 1 16
REMARK H PARENT
REMARK Flexibility Score: inf
ROOT
ATOM      1  C   UNL     1      32.136  13.660  20.465  1.00  0.00     0.000 C 
ENDROOT
BRANCH   1   2
ATOM      2  C   UNL     1      31.154  12.667  21.110  1.00  0.00     0.000 C 
BRANCH   2   3
ATOM      3  C   UNL     1      30.149  13.358  22.047  1.00  0.00     0.000 C 
BRANCH   3   4
ATOM      4  C   UNL     1      28.703  13.270  21.529  1.00  0.00     0.000 C 
BRANCH   4   5
ATOM      5  C   UNL     1      28.383  11.907  20.894  1.00  0.00     0.006 C 
BRANCH   5   6
ATOM      6  C   UNL     1      27.655  10.961  21.858  1.00  0.00     0.053 C 
BRANCH   6   7
ATOM      7  C   UNL     1      28.401   9.671  21.986  1.00  0.00     0.041 C 
ATOM      8  O   UNL     1      27.773   8.583  22.079  1.00  0.00    -0.550 OA
ATOM      9  O   UNL     1      29.789   9.664  21.956  1.00  0.00    -0.550 OA
ENDBRANCH   6   7
ENDBRANCH   5   6
ENDBRANCH   4   5
ENDBRANCH   3   4
ENDBRANCH   2   3
ENDBRANCH   1   2
BRANCH   1  10
ATOM     10  C   UNL     1      31.937  15.104  20.962  1.00  0.00     0.000 C 
BRANCH  10  11
ATOM     11  C   UNL     1      31.515  16.118  19.879  1.00  0.00    -0.000 C 
BRANCH  11  12
ATOM     12  C   UNL     1      29.993  16.330  19.740  1.00  0.00    -0.000 C 
BRANCH  12  13
ATOM     13  C   UNL     1      29.412  15.969  18.360  1.00  0.00    -0.000 C 
BRANCH  13  14
ATOM     14  C   UNL     1      29.161  14.466  18.128  1.00  0.00    -0.000 C 
BRANCH  14  15
ATOM     15  C   UNL     1      30.293  13.728  17.392  1.00  0.00    -0.003 C 
ATOM     16  C   UNL     1      30.772  14.463  16.142  1.00  0.00     0.004 C 
ENDBRANCH  14  15
ENDBRANCH  13  14
ENDBRANCH  12  13
ENDBRANCH  11  12
ENDBRANCH  10  11
ENDBRANCH   1  10
TORSDOF 12
ENDMDL
MODEL 3
REMARK VINA RESULT:    -3.107      0.977      2.958
REMARK INTER + INTRA:          -6.896
REMARK INTER:                  -5.178
REMARK INTRA:                  -1.718
REMARK UNBOUND:                -1.609
REMARK SMILES CCCCCCCCCCCCCC(=O)[O-]
REMARK SMILES IDX 8 1 9 2 10 3 11 4 12 5 13 6 14 7 15 8 16 9 7 10 6 11 5 12
REMARK SMILES IDX 4 13 3 14 2 15 1 16
REMARK H PARENT
REMARK Flexibility Score: inf
ROOT
ATOM      1  C   UNL     1      27.695  11.796  20.533  1.00  0.00     0.000 C 
ENDROOT
BRANCH   1   2
ATOM      2  C   UNL     1      27.476  13.187  21.154  1.00  0.00     0.000 C 
BRANCH   2   3
ATOM      3  C   UNL     1      28.178  14.302  20.363  1.00  0.00     0.000 C 
BRANCH   3   4
ATOM      4  C   UNL     1      28.826  13.789  19.065  1.00  0.00     0.000 C 
BRANCH   4   5
ATOM      5  C   UNL     1      29.524  14.904  18.271  1.00  0.00     0.006 C 
BRANCH   5   6
ATOM      6  C   UNL     1      29.802  14.508  16.814  1.00  0.00     0.053 C 
BRANCH   6   7
ATOM      7  C   UNL     1      31.030  15.198  16.311  1.00  0.00     0.041 C 
ATOM      8  O   UNL     1      31.615  16.053  17.027  1.00  0.00    -0.550 OA
ATOM      9  O   UNL     1      31.557  14.863  15.070  1.00  0.00    -0.550 OA
ENDBRANCH   6   7
ENDBRANCH   5   6
ENDBRANCH   4   5
ENDBRANCH   3   4
ENDBRANCH   2   3
ENDBRANCH   1   2
BRANCH   1  10
ATOM     10  C   UNL     1      28.017  10.718  21.585  1.00  0.00     0.000 C 
BRANCH  10  11
ATOM     11  C   UNL     1      29.515  10.544  21.908  1.00  0.00    -0.000 C 
BRANCH  11  12
ATOM     12  C   UNL     1      30.043  11.430  23.054  1.00  0.00    -0.000 C 
BRANCH  12  13
ATOM     13  C   UNL     1      30.927  12.611  22.607  1.00  0.00    -0.000 C 
BRANCH  13  14
ATOM     14  C   UNL     1      31.435  12.532  21.154  1.00  0.00    -0.000 C 
BRANCH  14  15
ATOM     15  C   UNL     1      32.126  13.808  20.641  1.00  0.00    -0.003 C 
ATOM     16  C   UNL     1      31.886  15.020  21.539  1.00  0.00     0.004 C 
ENDBRANCH  14  15
ENDBRANCH  13  14
ENDBRANCH  12  13
ENDBRANCH  11  12
ENDBRANCH  10  11
ENDBRANCH   1  10
TORSDOF 12
ENDMDL
MODEL 4
REMARK VINA RESULT:    -3.041      3.880      6.434
REMARK INTER + INTRA:          -6.783
REMARK INTER:                  -5.272
REMARK INTRA:                  -1.511
REMARK UNBOUND:                -1.609
REMARK SMILES CCCCCCCCCCCCCC(=O)[O-]
REMARK SMILES IDX 8 1 9 2 10 3 11 4 12 5 13 6 14 7 15 8 16 9 7 10 6 11 5 12
REMARK SMILES IDX 4 13 3 14 2 15 1 16
REMARK H PARENT
REMARK Flexibility Score: inf
ROOT
ATOM      1  C   UNL     1      30.276  13.857  17.605  1.00  0.00     0.000 C 
ENDROOT
BRANCH   1   2
ATOM      2  C   UNL     1      29.683  13.082  18.795  1.00  0.00     0.000 C 
BRANCH   2   3
ATOM      3  C   UNL     1      28.601  13.881  19.538  1.00  0.00     0.000 C 
BRANCH   3   4
ATOM      4  C   UNL     1      28.199  13.232  20.873  1.00  0.00     0.000 C 
BRANCH   4   5
ATOM      5  C   UNL     1      27.806  11.754  20.717  1.00  0.00     0.006 C 
BRANCH   5   6
ATOM      6  C   UNL     1      27.730  11.017  22.061  1.00  0.00     0.053 C 
BRANCH   6   7
ATOM      7  C   UNL     1      28.477   9.723  21.990  1.00  0.00     0.041 C 
ATOM      8  O   UNL     1      29.734   9.721  21.903  1.00  0.00    -0.550 OA
ATOM      9  O   UNL     1      27.790   8.518  22.067  1.00  0.00    -0.550 OA
ENDBRANCH   6   7
ENDBRANCH   5   6
ENDBRANCH   4   5
ENDBRANCH   3   4
ENDBRANCH   2   3
ENDBRANCH   1   2
BRANCH   1  10
ATOM     10  C   UNL     1      30.310  15.378  17.842  1.00  0.00     0.000 C 
BRANCH  10  11
ATOM     11  C   UNL     1      31.511  15.886  18.665  1.00  0.00    -0.000 C 
BRANCH  11  12
ATOM     12  C   UNL     1      31.147  16.569  19.999  1.00  0.00    -0.000 C 
BRANCH  12  13
ATOM     13  C   UNL     1      31.480  15.749  21.260  1.00  0.00    -0.000 C 
BRANCH  13  14
ATOM     14  C   UNL     1      32.939  15.259  21.354  1.00  0.00    -0.000 C 
BRANCH  14  15
ATOM     15  C   UNL     1      33.100  13.766  21.690  1.00  0.00    -0.003 C 
ATOM     16  C   UNL     1      31.764  13.041  21.840  1.00  0.00     0.004 C 
ENDBRANCH  14  15
ENDBRANCH  13  14
ENDBRANCH  12  13
ENDBRANCH  11  12
ENDBRANCH  10  11
ENDBRANCH   1  10
TORSDOF 12
ENDMDL
MODEL 5
REMARK VINA RESULT:    -3.035      1.902      2.896
REMARK INTER + INTRA:          -6.773
REMARK INTER:                  -5.269
REMARK INTRA:                  -1.504
REMARK UNBOUND:                -1.609
REMARK SMILES CCCCCCCCCCCCCC(=O)[O-]
REMARK SMILES IDX 8 1 9 2 10 3 11 4 12 5 13 6 14 7 15 8 16 9 7 10 6 11 5 12
REMARK SMILES IDX 4 13 3 14 2 15 1 16
REMARK H PARENT
REMARK Flexibility Score: inf
ROOT
ATOM      1  C   UNL     1      31.273  13.039  20.164  1.00  0.00     0.000 C 
ENDROOT
BRANCH   1   2
ATOM      2  C   UNL     1      32.319  14.107  20.529  1.00  0.00     0.000 C 
BRANCH   2   3
ATOM      3  C   UNL     1      31.687  15.482  20.800  1.00  0.00     0.000 C 
BRANCH   3   4
ATOM      4  C   UNL     1      31.940  16.483  19.660  1.00  0.00     0.000 C 
BRANCH   4   5
ATOM      5  C   UNL     1      30.785  16.530  18.647  1.00  0.00     0.006 C 
BRANCH   5   6
ATOM      6  C   UNL     1      31.162  15.920  17.290  1.00  0.00     0.053 C 
BRANCH   6   7
ATOM      7  C   UNL     1      30.179  14.862  16.902  1.00  0.00     0.041 C 
ATOM      8  O   UNL     1      28.950  15.129  16.844  1.00  0.00    -0.550 OA
ATOM      9  O   UNL     1      30.624  13.591  16.559  1.00  0.00    -0.550 OA
ENDBRANCH   6   7
ENDBRANCH   5   6
ENDBRANCH   4   5
ENDBRANCH   3   4
ENDBRANCH   2   3
ENDBRANCH   1   2
BRANCH   1  10
ATOM     10  C   UNL     1      29.865  13.381  20.686  1.00  0.00     0.000 C 
BRANCH  10  11
ATOM     11  C   UNL     1      28.703  12.938  19.774  1.00  0.00    -0.000 C 
BRANCH  11  12
ATOM     12  C   UNL     1      27.531  12.245  20.500  1.00  0.00    -0.000 C 
BRANCH  12  13
ATOM     13  C   UNL     1      27.577  12.332  22.037  1.00  0.00    -0.000 C 
BRANCH  13  14
ATOM     14  C   UNL     1      27.628  10.975  22.767  1.00  0.00    -0.000 C 
BRANCH  14  15
ATOM     15  C   UNL     1      28.352   9.854  22.000  1.00  0.00    -0.003 C 
ATOM     16  C   UNL     1      29.872  10.000  22.023  1.00  0.00     0.004 C 
ENDBRANCH  14  15
ENDBRANCH  13  14
ENDBRANCH  12  13
ENDBRANCH  11  12
ENDBRANCH  10  11
ENDBRANCH   1  10
TORSDOF 12
ENDMDL
MODEL 6
REMARK VINA RESULT:    -2.977      3.545      5.978
REMARK INTER + INTRA:          -6.675
REMARK INTER:                  -5.041
REMARK INTRA:                  -1.634
REMARK UNBOUND:                -1.609
REMARK SMILES CCCCCCCCCCCCCC(=O)[O-]
REMARK SMILES IDX 8 1 9 2 10 3 11 4 12 5 13 6 14 7 15 8 16 9 7 10 6 11 5 12
REMARK SMILES IDX 4 13 3 14 2 15 1 16
REMARK H PARENT
REMARK Flexibility Score: inf
ROOT
ATOM      1  C   UNL     1      32.335  15.413  20.729  1.00  0.00     0.000 C 
ENDROOT
BRANCH   1   2
ATOM      2  C   UNL     1      32.913  14.352  21.681  1.00  0.00     0.000 C 
BRANCH   2   3
ATOM      3  C   UNL     1      32.087  13.055  21.688  1.00  0.00     0.000 C 
BRANCH   3   4
ATOM      4  C   UNL     1      31.419  12.788  23.047  1.00  0.00     0.000 C 
BRANCH   4   5
ATOM      5  C   UNL     1      30.482  11.569  23.016  1.00  0.00     0.006 C 
BRANCH   5   6
ATOM      6  C   UNL     1      30.015  11.218  21.597  1.00  0.00     0.053 C 
BRANCH   6   7
ATOM      7  C   UNL     1      28.689  10.526  21.640  1.00  0.00     0.041 C 
ATOM      8  O   UNL     1      28.567   9.428  22.244  1.00  0.00    -0.550 OA
ATOM      9  O   UNL     1      27.577  11.117  21.054  1.00  0.00    -0.550 OA
ENDBRANCH   6   7
ENDBRANCH   5   6
ENDBRANCH   4   5
ENDBRANCH   3   4
ENDBRANCH   2   3
ENDBRANCH   1   2
BRANCH   1  10
ATOM     10  C   UNL     1      30.941  15.906  21.160  1.00  0.00     0.000 C 
BRANCH  10  11
ATOM     11  C   UNL     1      29.830  15.734  20.105  1.00  0.00    -0.000 C 
BRANCH  11  12
ATOM     12  C   UNL     1      29.074  14.390  20.164  1.00  0.00    -0.000 C 
BRANCH  12  13
ATOM     13  C   UNL     1      29.180  13.530  18.890  1.00  0.00    -0.000 C 
BRANCH  13  14
ATOM     14  C   UNL     1      30.515  13.654  18.128  1.00  0.00    -0.000 C 
BRANCH  14  15
ATOM     15  C   UNL     1      30.376  13.981  16.630  1.00  0.00    -0.003 C 
ATOM     16  C   UNL     1      31.068  15.284  16.237  1.00  0.00     0.004 C 
ENDBRANCH  14  15
ENDBRANCH  13  14
ENDBRANCH  12  13
ENDBRANCH  11  12
ENDBRANCH  10  11
ENDBRANCH   1  10
TORSDOF 12
ENDMDL
MODEL 7
REMARK VINA RESULT:    -2.906      2.107      3.550
REMARK INTER + INTRA:          -6.554
REMARK INTER:                  -5.111
REMARK INTRA:                  -1.442
REMARK UNBOUND:                -1.609
REMARK SMILES CCCCCCCCCCCCCC(=O)[O-]
REMARK SMILES IDX 8 1 9 2 10 3 11 4 12 5 13 6 14 7 15 8 16 9 7 10 6 11 5 12
REMARK SMILES IDX 4 13 3 14 2 15 1 16
REMARK H PARENT
REMARK Flexibility Score: inf
ROOT
ATOM      1  C   UNL     1      30.381  13.709  22.042  1.00  0.00     0.000 C 
ENDROOT
BRANCH   1   2
ATOM      2  C   UNL     1      31.548  13.026  21.309  1.00  0.00     0.000 C 
BRANCH   2   3
ATOM      3  C   UNL     1      32.880  13.770  21.500  1.00  0.00     0.000 C 
BRANCH   3   4
ATOM      4  C   UNL     1      32.682  15.260  21.830  1.00  0.00     0.000 C 
BRANCH   4   5
ATOM      5  C   UNL     1      32.878  16.168  20.605  1.00  0.00     0.006 C 
BRANCH   5   6
ATOM      6  C   UNL     1      31.554  16.520  19.912  1.00  0.00     0.053 C 
BRANCH   6   7
ATOM      7  C   UNL     1      31.531  15.971  18.521  1.00  0.00     0.041 C 
ATOM      8  O   UNL     1      31.129  14.795  18.311  1.00  0.00    -0.550 OA
ATOM      9  O   UNL     1      31.908  16.771  17.450  1.00  0.00    -0.550 OA
ENDBRANCH   6   7
ENDBRANCH   5   6
ENDBRANCH   4   5
ENDBRANCH   3   4
ENDBRANCH   2   3
ENDBRANCH   1   2
BRANCH   1  10
ATOM     10  C   UNL     1      29.142  13.897  21.146  1.00  0.00     0.000 C 
BRANCH  10  11
ATOM     11  C   UNL     1      28.891  12.765  20.129  1.00  0.00    -0.000 C 
BRANCH  11  12
ATOM     12  C   UNL     1      27.656  11.888  20.420  1.00  0.00    -0.000 C 
BRANCH  12  13
ATOM     13  C   UNL     1      27.191  11.888  21.889  1.00  0.00    -0.000 C 
BRANCH  13  14
ATOM     14  C   UNL     1      27.765  10.749  22.755  1.00  0.00    -0.000 C 
BRANCH  14  15
ATOM     15  C   UNL     1      28.309   9.546  21.964  1.00  0.00    -0.003 C 
ATOM     16  C   UNL     1      27.571   8.245  22.273  1.00  0.00     0.004 C 
ENDBRANCH  14  15
ENDBRANCH  13  14
ENDBRANCH  12  13
ENDBRANCH  11  12
ENDBRANCH  10  11
ENDBRANCH   1  10
TORSDOF 12
ENDMDL
MODEL 8
REMARK VINA RESULT:    -2.902      1.789      3.041
REMARK INTER + INTRA:          -6.546
REMARK INTER:                  -4.836
REMARK INTRA:                  -1.710
REMARK UNBOUND:                -1.609
REMARK SMILES CCCCCCCCCCCCCC(=O)[O-]
REMARK SMILES IDX 8 1 9 2 10 3 11 4 12 5 13 6 14 7 15 8 16 9 7 10 6 11 5 12
REMARK SMILES IDX 4 13 3 14 2 15 1 16
REMARK H PARENT
REMARK Flexibility Score: inf
ROOT
ATOM      1  C   UNL     1      30.888  14.461  22.554  1.00  0.00     0.000 C 
ENDROOT
BRANCH   1   2
ATOM      2  C   UNL     1      31.417  13.249  21.768  1.00  0.00     0.000 C 
BRANCH   2   3
ATOM      3  C   UNL     1      31.992  13.642  20.397  1.00  0.00     0.000 C 
BRANCH   3   4
ATOM      4  C   UNL     1      31.831  15.142  20.097  1.00  0.00     0.000 C 
BRANCH   4   5
ATOM      5  C   UNL     1      31.387  15.411  18.650  1.00  0.00     0.006 C 
BRANCH   5   6
ATOM      6  C   UNL     1      29.861  15.504  18.507  1.00  0.00     0.053 C 
BRANCH   6   7
ATOM      7  C   UNL     1      29.421  14.907  17.209  1.00  0.00     0.041 C 
ATOM      8  O   UNL     1      30.050  13.935  16.713  1.00  0.00    -0.550 OA
ATOM      9  O   UNL     1      28.288  15.391  16.568  1.00  0.00    -0.550 OA
ENDBRANCH   6   7
ENDBRANCH   5   6
ENDBRANCH   4   5
ENDBRANCH   3   4
ENDBRANCH   2   3
ENDBRANCH   1   2
BRANCH   1  10
ATOM     10  C   UNL     1      29.382  14.363  22.861  1.00  0.00     0.000 C 
BRANCH  10  11
ATOM     11  C   UNL     1      28.452  14.907  21.758  1.00  0.00    -0.000 C 
BRANCH  11  12
ATOM     12  C   UNL     1      27.446  13.885  21.189  1.00  0.00    -0.000 C 
BRANCH  12  13
ATOM     13  C   UNL     1      28.061  12.811  20.270  1.00  0.00    -0.000 C 
BRANCH  13  14
ATOM     14  C   UNL     1      27.704  11.357  20.635  1.00  0.00    -0.000 C 
BRANCH  14  15
ATOM     15  C   UNL     1      28.645  10.696  21.658  1.00  0.00    -0.003 C 
ATOM     16  C   UNL     1      28.160   9.322  22.114  1.00  0.00     0.004 C 
ENDBRANCH  14  15
ENDBRANCH  13  14
ENDBRANCH  12  13
ENDBRANCH  11  12
ENDBRANCH  10  11
ENDBRANCH   1  10
TORSDOF 12
ENDMDL
MODEL 9
REMARK VINA RESULT:    -2.869      2.201      5.587
REMARK INTER + INTRA:          -6.490
REMARK INTER:                  -5.370
REMARK INTRA:                  -1.120
REMARK UNBOUND:                -1.609
REMARK SMILES CCCCCCCCCCCCCC(=O)[O-]
REMARK SMILES IDX 8 1 9 2 10 3 11 4 12 5 13 6 14 7 15 8 16 9 7 10 6 11 5 12
REMARK SMILES IDX 4 13 3 14 2 15 1 16
REMARK H PARENT
REMARK Flexibility Score: inf
ROOT
ATOM      1  C   UNL     1      27.726  11.393  20.728  1.00  0.00     0.000 C 
ENDROOT
BRANCH   1   2
ATOM      2  C   UNL     1      27.985  10.451  21.916  1.00  0.00     0.000 C 
BRANCH   2   3
ATOM      3  C   UNL     1      29.040  11.004  22.888  1.00  0.00     0.000 C 
BRANCH   3   4
ATOM      4  C   UNL     1      30.363  11.355  22.185  1.00  0.00     0.000 C 
BRANCH   4   5
ATOM      5  C   UNL     1      30.843  12.780  22.505  1.00  0.00     0.006 C 
BRANCH   5   6
ATOM      6  C   UNL     1      32.335  12.983  22.205  1.00  0.00     0.053 C 
BRANCH   6   7
ATOM      7  C   UNL     1      32.526  14.134  21.268  1.00  0.00     0.041 C 
ATOM      8  O   UNL     1      32.206  14.023  20.055  1.00  0.00    -0.550 OA
ATOM      9  O   UNL     1      33.015  15.344  21.744  1.00  0.00    -0.550 OA
ENDBRANCH   6   7
ENDBRANCH   5   6
ENDBRANCH   4   5
ENDBRANCH   3   4
ENDBRANCH   2   3
ENDBRANCH   1   2
BRANCH   1  10
ATOM     10  C   UNL     1      27.235  12.786  21.167  1.00  0.00     0.000 C 
BRANCH  10  11
ATOM     11  C   UNL     1      27.885  13.972  20.426  1.00  0.00    -0.000 C 
BRANCH  11  12
ATOM     12  C   UNL     1      28.899  13.583  19.331  1.00  0.00    -0.000 C 
BRANCH  12  13
ATOM     13  C   UNL     1      29.137  14.660  18.255  1.00  0.00    -0.000 C 
BRANCH  13  14
ATOM     14  C   UNL     1      29.995  14.207  17.057  1.00  0.00    -0.000 C 
BRANCH  14  15
ATOM     15  C   UNL     1      31.027  15.242  16.573  1.00  0.00    -0.003 C 
ATOM     16  C   UNL     1      31.478  15.006  15.133  1.00  0.00     0.004 C 
ENDBRANCH  14  15
ENDBRANCH  13  14
ENDBRANCH  12  13
ENDBRANCH  11  12
ENDBRANCH  10  11
ENDBRANCH   1  10
TORSDOF 12
ENDMDL
