MODEL 1
REMARK VINA RESULT:    -4.935      0.000      0.000
REMARK INTER + INTRA:         -11.640
REMARK INTER:                  -9.552
REMARK INTRA:                  -2.088
REMARK UNBOUND:                -2.088
REMARK SMILES CCCCCCCCCCCCCCCCCC(=O)[O-]
REMARK SMILES IDX 10 1 11 2 12 3 13 4 14 5 15 6 16 7 17 8 18 9 19 10 20 11
REMARK SMILES IDX 9 12 8 13 7 14 6 15 5 16 4 17 3 18 2 19 1 20
REMARK H PARENT
REMARK Flexibility Score: inf
ROOT
ATOM      1  C   UNL     1      15.120 -34.232  20.290  1.00  0.00     0.000 C 
ENDROOT
BRANCH   1   2
ATOM      2  C   UNL     1      15.195 -33.885  21.786  1.00  0.00     0.000 C 
BRANCH   2   3
ATOM      3  C   UNL     1      14.322 -32.675  22.169  1.00  0.00     0.000 C 
BRANCH   3   4
ATOM      4  C   UNL     1      13.794 -31.847  20.983  1.00  0.00     0.000 C 
BRANCH   4   5
ATOM      5  C   UNL     1      12.588 -30.968  21.353  1.00  0.00     0.000 C 
BRANCH   5   6
ATOM      6  C   UNL     1      12.773 -30.334  22.739  1.00  0.00     0.000 C 
BRANCH   6   7
ATOM      7  C   UNL     1      11.978 -29.030  22.904  1.00  0.00     0.006 C 
BRANCH   7   8
ATOM      8  C   UNL     1      12.212 -28.363  24.265  1.00  0.00     0.053 C 
BRANCH   8   9
ATOM      9  C   UNL     1      13.132 -27.193  24.124  1.00  0.00     0.041 C 
ATOM     10  O   UNL     1      13.550 -26.850  22.986  1.00  0.00    -0.550 OA
ATOM     11  O   UNL     1      13.496 -26.453  25.241  1.00  0.00    -0.550 OA
ENDBRANCH   8   9
ENDBRANCH   7   8
ENDBRANCH   6   7
ENDBRANCH   5   6
ENDBRANCH   4   5
ENDBRANCH   3   4
ENDBRANCH   2   3
ENDBRANCH   1   2
BRANCH   1  12
ATOM     12  C   UNL     1      15.922 -35.494  19.924  1.00  0.00     0.000 C 
BRANCH  12  13
ATOM     13  C   UNL     1      17.367 -35.248  19.452  1.00  0.00    -0.000 C 
BRANCH  13  14
ATOM     14  C   UNL     1      17.704 -33.755  19.303  1.00  0.00    -0.000 C 
BRANCH  14  15
ATOM     15  C   UNL     1      18.702 -33.258  20.364  1.00  0.00    -0.000 C 
BRANCH  15  16
ATOM     16  C   UNL     1      18.732 -31.730  20.579  1.00  0.00    -0.000 C 
BRANCH  16  17
ATOM     17  C   UNL     1      17.354 -31.053  20.680  1.00  0.00    -0.000 C 
BRANCH  17  18
ATOM     18  C   UNL     1      17.385 -29.759  21.514  1.00  0.00    -0.000 C 
BRANCH  18  19
ATOM     19  C   UNL     1      16.508 -29.850  22.772  1.00  0.00    -0.003 C 
ATOM     20  C   UNL     1      17.052 -30.835  23.807  1.00  0.00     0.004 C 
ENDBRANCH  18  19
ENDBRANCH  17  18
ENDBRANCH  16  17
ENDBRANCH  15  16
ENDBRANCH  14  15
ENDBRANCH  13  14
ENDBRANCH  12  13
ENDBRANCH   1  12
TORSDOF 16
ENDMDL
MODEL 2
REMARK VINA RESULT:    -4.884      2.374      4.513
REMARK INTER + INTRA:         -11.541
REMARK INTER:                  -8.877
REMARK INTRA:                  -2.664
REMARK UNBOUND:                -2.088
REMARK SMILES CCCCCCCCCCCCCCCCCC(=O)[O-]
REMARK SMILES IDX 10 1 11 2 12 3 13 4 14 5 15 6 16 7 17 8 18 9 19 10 20 11
REMARK SMILES IDX 9 12 8 13 7 14 6 15 5 16 4 17 3 18 2 19 1 20
REMARK H PARENT
REMARK Flexibility Score: inf
ROOT
ATOM      1  C   UNL     1      18.467 -31.719  22.054  1.00  0.00     0.000 C 
ENDROOT
BRANCH   1   2
ATOM      2  C   UNL     1      18.412 -32.588  23.321  1.00  0.00     0.000 C 
BRANCH   2   3
ATOM      3  C   UNL     1      17.110 -32.405  24.122  1.00  0.00     0.000 C 
BRANCH   3   4
ATOM      4  C   UNL     1      16.106 -33.568  24.016  1.00  0.00     0.000 C 
BRANCH   4   5
ATOM      5  C   UNL     1      14.861 -33.214  23.186  1.00  0.00     0.000 C 
BRANCH   5   6
ATOM      6  C   UNL     1      13.887 -32.347  23.996  1.00  0.00     0.000 C 
BRANCH   6   7
ATOM      7  C   UNL     1      13.883 -30.879  23.541  1.00  0.00     0.006 C 
BRANCH   7   8
ATOM      8  C   UNL     1      14.153 -30.727  22.038  1.00  0.00     0.053 C 
BRANCH   8   9
ATOM      9  C   UNL     1      12.912 -31.010  21.252  1.00  0.00     0.041 C 
ATOM     10  O   UNL     1      12.962 -31.746  20.232  1.00  0.00    -0.550 OA
ATOM     11  O   UNL     1      11.690 -30.496  21.669  1.00  0.00    -0.550 OA
ENDBRANCH   8   9
ENDBRANCH   7   8
ENDBRANCH   6   7
ENDBRANCH   5   6
ENDBRANCH   4   5
ENDBRANCH   3   4
ENDBRANCH   2   3
ENDBRANCH   1   2
BRANCH   1  12
ATOM     12  C   UNL     1      17.513 -32.207  20.948  1.00  0.00     0.000 C 
BRANCH  12  13
ATOM     13  C   UNL     1      18.188 -32.886  19.742  1.00  0.00    -0.000 C 
BRANCH  13  14
ATOM     14  C   UNL     1      17.205 -33.693  18.879  1.00  0.00    -0.000 C 
BRANCH  14  15
ATOM     15  C   UNL     1      15.874 -33.979  19.597  1.00  0.00    -0.000 C 
BRANCH  15  16
ATOM     16  C   UNL     1      15.677 -35.435  20.069  1.00  0.00    -0.000 C 
BRANCH  16  17
ATOM     17  C   UNL     1      16.730 -36.438  19.566  1.00  0.00    -0.000 C 
BRANCH  17  18
ATOM     18  C   UNL     1      17.573 -37.038  20.705  1.00  0.00    -0.000 C 
BRANCH  18  19
ATOM     19  C   UNL     1      17.951 -35.995  21.768  1.00  0.00    -0.003 C 
ATOM     20  C   UNL     1      19.450 -35.968  22.068  1.00  0.00     0.004 C 
ENDBRANCH  18  19
ENDBRANCH  17  18
ENDBRANCH  16  17
ENDBRANCH  15  16
ENDBRANCH  14  15
ENDBRANCH  13  14
ENDBRANCH  12  13
ENDBRANCH   1  12
TORSDOF 16
ENDMDL
MODEL 3
REMARK VINA RESULT:    -4.826      1.466      2.589
REMARK INTER + INTRA:         -11.429
REMARK INTER:                  -8.954
REMARK INTRA:                  -2.475
REMARK UNBOUND:                -2.088
REMARK SMILES CCCCCCCCCCCCCCCCCC(=O)[O-]
REMARK SMILES IDX 10 1 11 2 12 3 13 4 14 5 15 6 16 7 17 8 18 9 19 10 20 11
REMARK SMILES IDX 9 12 8 13 7 14 6 15 5 16 4 17 3 18 2 19 1 20
REMARK H PARENT
REMARK Flexibility Score: inf
ROOT
ATOM      1  C   UNL     1      16.874 -34.906  19.548  1.00  0.00     0.000 C 
ENDROOT
BRANCH   1   2
ATOM      2  C   UNL     1      15.854 -34.670  20.676  1.00  0.00     0.000 C 
BRANCH   2   3
ATOM      3  C   UNL     1      14.688 -33.759  20.252  1.00  0.00     0.000 C 
BRANCH   3   4
ATOM      4  C   UNL     1      14.256 -32.715  21.298  1.00  0.00     0.000 C 
BRANCH   4   5
ATOM      5  C   UNL     1      13.894 -31.356  20.679  1.00  0.00     0.000 C 
BRANCH   5   6
ATOM      6  C   UNL     1      12.491 -30.909  21.115  1.00  0.00     0.000 C 
BRANCH   6   7
ATOM      7  C   UNL     1      12.402 -30.625  22.622  1.00  0.00     0.006 C 
BRANCH   7   8
ATOM      8  C   UNL     1      13.295 -29.455  23.056  1.00  0.00     0.053 C 
BRANCH   8   9
ATOM      9  C   UNL     1      12.473 -28.226  23.282  1.00  0.00     0.041 C 
ATOM     10  O   UNL     1      13.030 -27.102  23.390  1.00  0.00    -0.550 OA
ATOM     11  O   UNL     1      11.087 -28.313  23.331  1.00  0.00    -0.550 OA
ENDBRANCH   8   9
ENDBRANCH   7   8
ENDBRANCH   6   7
ENDBRANCH   5   6
ENDBRANCH   4   5
ENDBRANCH   3   4
ENDBRANCH   2   3
ENDBRANCH   1   2
BRANCH   1  12
ATOM     12  C   UNL     1      17.643 -33.632  19.155  1.00  0.00     0.000 C 
BRANCH  12  13
ATOM     13  C   UNL     1      18.366 -32.912  20.309  1.00  0.00    -0.000 C 
BRANCH  13  14
ATOM     14  C   UNL     1      18.004 -31.421  20.408  1.00  0.00    -0.000 C 
BRANCH  14  15
ATOM     15  C   UNL     1      18.213 -30.848  21.821  1.00  0.00    -0.000 C 
BRANCH  15  16
ATOM     16  C   UNL     1      16.943 -30.304  22.509  1.00  0.00    -0.000 C 
BRANCH  16  17
ATOM     17  C   UNL     1      16.458 -31.110  23.727  1.00  0.00    -0.000 C 
BRANCH  17  18
ATOM     18  C   UNL     1      17.084 -32.514  23.801  1.00  0.00    -0.000 C 
BRANCH  18  19
ATOM     19  C   UNL     1      16.114 -33.560  24.372  1.00  0.00    -0.003 C 
ATOM     20  C   UNL     1      16.823 -34.656  25.167  1.00  0.00     0.004 C 
ENDBRANCH  18  19
ENDBRANCH  17  18
ENDBRANCH  16  17
ENDBRANCH  15  16
ENDBRANCH  14  15
ENDBRANCH  13  14
ENDBRANCH  12  13
ENDBRANCH   1  12
TORSDOF 16
ENDMDL
MODEL 4
REMARK VINA RESULT:    -4.797      3.576      5.716
REMARK INTER + INTRA:         -11.373
REMARK INTER:                  -8.690
REMARK INTRA:                  -2.683
REMARK UNBOUND:                -2.088
REMARK SMILES CCCCCCCCCCCCCCCCCC(=O)[O-]
REMARK SMILES IDX 10 1 11 2 12 3 13 4 14 5 15 6 16 7 17 8 18 9 19 10 20 11
REMARK SMILES IDX 9 12 8 13 7 14 6 15 5 16 4 17 3 18 2 19 1 20
REMARK H PARENT
REMARK Flexibility Score: inf
ROOT
ATOM      1  C   UNL     1      17.893 -33.464  19.542  1.00  0.00     0.000 C 
ENDROOT
BRANCH   1   2
ATOM      2  C   UNL     1      18.253 -32.557  20.731  1.00  0.00     0.000 C 
BRANCH   2   3
ATOM      3  C   UNL     1      17.799 -31.099  20.535  1.00  0.00     0.000 C 
BRANCH   3   4
ATOM      4  C   UNL     1      17.064 -30.473  21.734  1.00  0.00     0.000 C 
BRANCH   4   5
ATOM      5  C   UNL     1      17.643 -30.910  23.089  1.00  0.00     0.000 C 
BRANCH   5   6
ATOM      6  C   UNL     1      16.677 -31.852  23.823  1.00  0.00     0.000 C 
BRANCH   6   7
ATOM      7  C   UNL     1      17.407 -32.942  24.622  1.00  0.00     0.006 C 
BRANCH   7   8
ATOM      8  C   UNL     1      17.081 -34.357  24.124  1.00  0.00     0.053 C 
BRANCH   8   9
ATOM      9  C   UNL     1      18.337 -35.144  23.926  1.00  0.00     0.041 C 
ATOM     10  O   UNL     1      19.351 -34.908  24.633  1.00  0.00    -0.550 OA
ATOM     11  O   UNL     1      18.376 -36.168  22.988  1.00  0.00    -0.550 OA
ENDBRANCH   8   9
ENDBRANCH   7   8
ENDBRANCH   6   7
ENDBRANCH   5   6
ENDBRANCH   4   5
ENDBRANCH   3   4
ENDBRANCH   2   3
ENDBRANCH   1   2
BRANCH   1  12
ATOM     12  C   UNL     1      17.359 -34.841  19.977  1.00  0.00     0.000 C 
BRANCH  12  13
ATOM     13  C   UNL     1      16.002 -34.826  20.706  1.00  0.00    -0.000 C 
BRANCH  13  14
ATOM     14  C   UNL     1      14.985 -33.869  20.063  1.00  0.00    -0.000 C 
BRANCH  14  15
ATOM     15  C   UNL     1      14.378 -32.876  21.069  1.00  0.00    -0.000 C 
BRANCH  15  16
ATOM     16  C   UNL     1      13.342 -31.893  20.485  1.00  0.00    -0.000 C 
BRANCH  16  17
ATOM     17  C   UNL     1      12.699 -30.933  21.501  1.00  0.00    -0.000 C 
BRANCH  17  18
ATOM     18  C   UNL     1      13.198 -31.165  22.938  1.00  0.00    -0.000 C 
BRANCH  18  19
ATOM     19  C   UNL     1      13.297 -29.860  23.743  1.00  0.00    -0.003 C 
ATOM     20  C   UNL     1      13.966 -28.729  22.962  1.00  0.00     0.004 C 
ENDBRANCH  18  19
ENDBRANCH  17  18
ENDBRANCH  16  17
ENDBRANCH  15  16
ENDBRANCH  14  15
ENDBRANCH  13  14
ENDBRANCH  12  13
ENDBRANCH   1  12
TORSDOF 16
ENDMDL
MODEL 5
REMARK VINA RESULT:    -4.790      1.885      3.901
REMARK INTER + INTRA:         -11.358
REMARK INTER:                  -8.310
REMARK INTRA:                  -3.048
REMARK UNBOUND:                -2.088
REMARK SMILES CCCCCCCCCCCCCCCCCC(=O)[O-]
REMARK SMILES IDX 10 1 11 2 12 3 13 4 14 5 15 6 16 7 17 8 18 9 19 10 20 11
REMARK SMILES IDX 9 12 8 13 7 14 6 15 5 16 4 17 3 18 2 19 1 20
REMARK H PARENT
REMARK Flexibility Score: inf
ROOT
ATOM      1  C   UNL     1      17.135 -33.653  19.011  1.00  0.00     0.000 C 
ENDROOT
BRANCH   1   2
ATOM      2  C   UNL     1      18.484 -33.335  19.678  1.00  0.00     0.000 C 
BRANCH   2   3
ATOM      3  C   UNL     1      18.351 -32.383  20.881  1.00  0.00     0.000 C 
BRANCH   3   4
ATOM      4  C   UNL     1      17.571 -31.084  20.606  1.00  0.00     0.000 C 
BRANCH   4   5
ATOM      5  C   UNL     1      17.808 -30.003  21.672  1.00  0.00     0.000 C 
BRANCH   5   6
ATOM      6  C   UNL     1      16.556 -29.801  22.539  1.00  0.00     0.000 C 
BRANCH   6   7
ATOM      7  C   UNL     1      15.325 -29.393  21.713  1.00  0.00     0.006 C 
BRANCH   7   8
ATOM      8  C   UNL     1      14.304 -28.593  22.532  1.00  0.00     0.053 C 
BRANCH   8   9
ATOM      9  C   UNL     1      13.243 -29.497  23.074  1.00  0.00     0.041 C 
ATOM     10  O   UNL     1      13.515 -30.310  23.996  1.00  0.00    -0.550 OA
ATOM     11  O   UNL     1      11.944 -29.414  22.592  1.00  0.00    -0.550 OA
ENDBRANCH   8   9
ENDBRANCH   7   8
ENDBRANCH   6   7
ENDBRANCH   5   6
ENDBRANCH   4   5
ENDBRANCH   3   4
ENDBRANCH   2   3
ENDBRANCH   1   2
BRANCH   1  12
ATOM     12  C   UNL     1      16.536 -34.994  19.473  1.00  0.00     0.000 C 
BRANCH  12  13
ATOM     13  C   UNL     1      15.386 -34.890  20.492  1.00  0.00    -0.000 C 
BRANCH  13  14
ATOM     14  C   UNL     1      14.618 -33.561  20.397  1.00  0.00    -0.000 C 
BRANCH  14  15
ATOM     15  C   UNL     1      14.543 -32.815  21.741  1.00  0.00    -0.000 C 
BRANCH  15  16
ATOM     16  C   UNL     1      15.004 -33.623  22.972  1.00  0.00    -0.000 C 
BRANCH  16  17
ATOM     17  C   UNL     1      15.963 -32.885  23.922  1.00  0.00    -0.000 C 
BRANCH  17  18
ATOM     18  C   UNL     1      17.364 -33.521  23.967  1.00  0.00    -0.000 C 
BRANCH  18  19
ATOM     19  C   UNL     1      17.322 -35.048  23.804  1.00  0.00    -0.003 C 
ATOM     20  C   UNL     1      18.296 -35.560  22.743  1.00  0.00     0.004 C 
ENDBRANCH  18  19
ENDBRANCH  17  18
ENDBRANCH  16  17
ENDBRANCH  15  16
ENDBRANCH  14  15
ENDBRANCH  13  14
ENDBRANCH  12  13
ENDBRANCH   1  12
TORSDOF 16
ENDMDL
MODEL 6
REMARK VINA RESULT:    -4.769      1.894      3.695
REMARK INTER + INTRA:         -11.318
REMARK INTER:                  -8.421
REMARK INTRA:                  -2.896
REMARK UNBOUND:                -2.088
REMARK SMILES CCCCCCCCCCCCCCCCCC(=O)[O-]
REMARK SMILES IDX 10 1 11 2 12 3 13 4 14 5 15 6 16 7 17 8 18 9 19 10 20 11
REMARK SMILES IDX 9 12 8 13 7 14 6 15 5 16 4 17 3 18 2 19 1 20
REMARK H PARENT
REMARK Flexibility Score: inf
ROOT
ATOM      1  C   UNL     1      17.621 -35.862  21.741  1.00  0.00     0.000 C 
ENDROOT
BRANCH   1   2
ATOM      2  C   UNL     1      17.970 -35.585  20.269  1.00  0.00     0.000 C 
BRANCH   2   3
ATOM      3  C   UNL     1      16.840 -34.869  19.506  1.00  0.00     0.000 C 
BRANCH   3   4
ATOM      4  C   UNL     1      15.468 -34.879  20.204  1.00  0.00     0.000 C 
BRANCH   4   5
ATOM      5  C   UNL     1      14.605 -33.657  19.853  1.00  0.00     0.000 C 
BRANCH   5   6
ATOM      6  C   UNL     1      14.223 -32.872  21.117  1.00  0.00     0.000 C 
BRANCH   6   7
ATOM      7  C   UNL     1      13.329 -31.660  20.812  1.00  0.00     0.006 C 
BRANCH   7   8
ATOM      8  C   UNL     1      13.829 -30.374  21.482  1.00  0.00     0.053 C 
BRANCH   8   9
ATOM      9  C   UNL     1      13.089 -30.127  22.758  1.00  0.00     0.041 C 
ATOM     10  O   UNL     1      12.136 -29.305  22.788  1.00  0.00    -0.550 OA
ATOM     11  O   UNL     1      13.423 -30.835  23.905  1.00  0.00    -0.550 OA
ENDBRANCH   8   9
ENDBRANCH   7   8
ENDBRANCH   6   7
ENDBRANCH   5   6
ENDBRANCH   4   5
ENDBRANCH   3   4
ENDBRANCH   2   3
ENDBRANCH   1   2
BRANCH   1  12
ATOM     12  C   UNL     1      18.279 -34.866  22.713  1.00  0.00     0.000 C 
BRANCH  12  13
ATOM     13  C   UNL     1      17.620 -34.762  24.101  1.00  0.00    -0.000 C 
BRANCH  13  14
ATOM     14  C   UNL     1      17.453 -33.311  24.580  1.00  0.00    -0.000 C 
BRANCH  14  15
ATOM     15  C   UNL     1      16.562 -32.472  23.647  1.00  0.00    -0.000 C 
BRANCH  15  16
ATOM     16  C   UNL     1      16.867 -30.959  23.625  1.00  0.00    -0.000 C 
BRANCH  16  17
ATOM     17  C   UNL     1      17.523 -30.438  22.334  1.00  0.00    -0.000 C 
BRANCH  17  18
ATOM     18  C   UNL     1      17.497 -31.470  21.194  1.00  0.00    -0.000 C 
BRANCH  18  19
ATOM     19  C   UNL     1      18.905 -31.842  20.705  1.00  0.00    -0.003 C 
ATOM     20  C   UNL     1      19.967 -31.712  21.797  1.00  0.00     0.004 C 
ENDBRANCH  18  19
ENDBRANCH  17  18
ENDBRANCH  16  17
ENDBRANCH  15  16
ENDBRANCH  14  15
ENDBRANCH  13  14
ENDBRANCH  12  13
ENDBRANCH   1  12
TORSDOF 16
ENDMDL
MODEL 7
REMARK VINA RESULT:    -4.724      1.954      3.119
REMARK INTER + INTRA:         -11.232
REMARK INTER:                  -8.900
REMARK INTRA:                  -2.332
REMARK UNBOUND:                -2.088
REMARK SMILES CCCCCCCCCCCCCCCCCC(=O)[O-]
REMARK SMILES IDX 10 1 11 2 12 3 13 4 14 5 15 6 16 7 17 8 18 9 19 10 20 11
REMARK SMILES IDX 9 12 8 13 7 14 6 15 5 16 4 17 3 18 2 19 1 20
REMARK H PARENT
REMARK Flexibility Score: inf
ROOT
ATOM      1  C   UNL     1      17.440 -35.203  23.466  1.00  0.00     0.000 C 
ENDROOT
BRANCH   1   2
ATOM      2  C   UNL     1      17.336 -33.789  24.061  1.00  0.00     0.000 C 
BRANCH   2   3
ATOM      3  C   UNL     1      15.881 -33.337  24.290  1.00  0.00     0.000 C 
BRANCH   3   4
ATOM      4  C   UNL     1      15.408 -32.173  23.399  1.00  0.00     0.000 C 
BRANCH   4   5
ATOM      5  C   UNL     1      13.897 -31.913  23.502  1.00  0.00     0.000 C 
BRANCH   5   6
ATOM      6  C   UNL     1      13.357 -31.289  22.206  1.00  0.00     0.000 C 
BRANCH   6   7
ATOM      7  C   UNL     1      12.641 -29.951  22.449  1.00  0.00     0.006 C 
BRANCH   7   8
ATOM      8  C   UNL     1      13.327 -29.101  23.526  1.00  0.00     0.053 C 
BRANCH   8   9
ATOM      9  C   UNL     1      12.340 -28.184  24.177  1.00  0.00     0.041 C 
ATOM     10  O   UNL     1      11.119 -28.254  23.878  1.00  0.00    -0.550 OA
ATOM     11  O   UNL     1      12.761 -27.281  25.145  1.00  0.00    -0.550 OA
ENDBRANCH   8   9
ENDBRANCH   7   8
ENDBRANCH   6   7
ENDBRANCH   5   6
ENDBRANCH   4   5
ENDBRANCH   3   4
ENDBRANCH   2   3
ENDBRANCH   1   2
BRANCH   1  12
ATOM     12  C   UNL     1      18.885 -35.603  23.117  1.00  0.00     0.000 C 
BRANCH  12  13
ATOM     13  C   UNL     1      19.135 -35.961  21.640  1.00  0.00    -0.000 C 
BRANCH  13  14
ATOM     14  C   UNL     1      18.042 -36.864  21.047  1.00  0.00    -0.000 C 
BRANCH  14  15
ATOM     15  C   UNL     1      17.365 -36.250  19.808  1.00  0.00    -0.000 C 
BRANCH  15  16
ATOM     16  C   UNL     1      15.992 -35.594  20.062  1.00  0.00    -0.000 C 
BRANCH  16  17
ATOM     17  C   UNL     1      16.012 -34.062  20.209  1.00  0.00    -0.000 C 
BRANCH  17  18
ATOM     18  C   UNL     1      17.285 -33.424  19.627  1.00  0.00    -0.000 C 
BRANCH  18  19
ATOM     19  C   UNL     1      17.716 -32.166  20.397  1.00  0.00    -0.003 C 
ATOM     20  C   UNL     1      19.077 -32.321  21.074  1.00  0.00     0.004 C 
ENDBRANCH  18  19
ENDBRANCH  17  18
ENDBRANCH  16  17
ENDBRANCH  15  16
ENDBRANCH  14  15
ENDBRANCH  13  14
ENDBRANCH  12  13
ENDBRANCH   1  12
TORSDOF 16
ENDMDL
MODEL 8
REMARK VINA RESULT:    -4.714      1.365      3.964
REMARK INTER + INTRA:         -11.211
REMARK INTER:                  -8.870
REMARK INTRA:                  -2.342
REMARK UNBOUND:                -2.088
REMARK SMILES CCCCCCCCCCCCCCCCCC(=O)[O-]
REMARK SMILES IDX 10 1 11 2 12 3 13 4 14 5 15 6 16 7 17 8 18 9 19 10 20 11
REMARK SMILES IDX 9 12 8 13 7 14 6 15 5 16 4 17 3 18 2 19 1 20
REMARK H PARENT
REMARK Flexibility Score: inf
ROOT
ATOM      1  C   UNL     1      18.666 -32.124  20.784  1.00  0.00     0.000 C 
ENDROOT
BRANCH   1   2
ATOM      2  C   UNL     1      17.628 -31.001  20.620  1.00  0.00     0.000 C 
BRANCH   2   3
ATOM      3  C   UNL     1      17.186 -30.388  21.962  1.00  0.00     0.000 C 
BRANCH   3   4
ATOM      4  C   UNL     1      15.992 -29.421  21.880  1.00  0.00     0.000 C 
BRANCH   4   5
ATOM      5  C   UNL     1      14.711 -30.089  21.357  1.00  0.00     0.000 C 
BRANCH   5   6
ATOM      6  C   UNL     1      14.022 -30.901  22.464  1.00  0.00     0.000 C 
BRANCH   6   7
ATOM      7  C   UNL     1      13.452 -30.012  23.581  1.00  0.00     0.006 C 
BRANCH   7   8
ATOM      8  C   UNL     1      12.344 -29.075  23.083  1.00  0.00     0.053 C 
BRANCH   8   9
ATOM      9  C   UNL     1      12.500 -27.715  23.685  1.00  0.00     0.041 C 
ATOM     10  O   UNL     1      11.811 -27.382  24.685  1.00  0.00    -0.550 OA
ATOM     11  O   UNL     1      13.436 -26.828  23.170  1.00  0.00    -0.550 OA
ENDBRANCH   8   9
ENDBRANCH   7   8
ENDBRANCH   6   7
ENDBRANCH   5   6
ENDBRANCH   4   5
ENDBRANCH   3   4
ENDBRANCH   2   3
ENDBRANCH   1   2
BRANCH   1  12
ATOM     12  C   UNL     1      18.713 -32.695  22.214  1.00  0.00     0.000 C 
BRANCH  12  13
ATOM     13  C   UNL     1      18.664 -34.231  22.315  1.00  0.00    -0.000 C 
BRANCH  13  14
ATOM     14  C   UNL     1      17.334 -34.753  22.884  1.00  0.00    -0.000 C 
BRANCH  14  15
ATOM     15  C   UNL     1      16.167 -33.772  22.674  1.00  0.00    -0.000 C 
BRANCH  15  16
ATOM     16  C   UNL     1      15.352 -33.981  21.380  1.00  0.00    -0.000 C 
BRANCH  16  17
ATOM     17  C   UNL     1      15.734 -35.222  20.555  1.00  0.00    -0.000 C 
BRANCH  17  18
ATOM     18  C   UNL     1      16.636 -34.886  19.354  1.00  0.00    -0.000 C 
BRANCH  18  19
ATOM     19  C   UNL     1      17.708 -35.959  19.106  1.00  0.00    -0.003 C 
ATOM     20  C   UNL     1      17.633 -37.115  20.102  1.00  0.00     0.004 C 
ENDBRANCH  18  19
ENDBRANCH  17  18
ENDBRANCH  16  17
ENDBRANCH  15  16
ENDBRANCH  14  15
ENDBRANCH  13  14
ENDBRANCH  12  13
ENDBRANCH   1  12
TORSDOF 16
ENDMDL
MODEL 9
REMARK VINA RESULT:    -4.691      3.609      5.850
REMARK INTER + INTRA:         -11.167
REMARK INTER:                  -8.724
REMARK INTRA:                  -2.443
REMARK UNBOUND:                -2.088
REMARK SMILES CCCCCCCCCCCCCCCCCC(=O)[O-]
REMARK SMILES IDX 10 1 11 2 12 3 13 4 14 5 15 6 16 7 17 8 18 9 19 10 20 11
REMARK SMILES IDX 9 12 8 13 7 14 6 15 5 16 4 17 3 18 2 19 1 20
REMARK H PARENT
REMARK Flexibility Score: inf
ROOT
ATOM      1  C   UNL     1      18.405 -33.276  19.907  1.00  0.00     0.000 C 
ENDROOT
BRANCH   1   2
ATOM      2  C   UNL     1      17.033 -33.355  19.217  1.00  0.00     0.000 C 
BRANCH   2   3
ATOM      3  C   UNL     1      16.207 -34.578  19.657  1.00  0.00     0.000 C 
BRANCH   3   4
ATOM      4  C   UNL     1      15.962 -34.694  21.173  1.00  0.00     0.000 C 
BRANCH   4   5
ATOM      5  C   UNL     1      15.005 -33.620  21.711  1.00  0.00     0.000 C 
BRANCH   5   6
ATOM      6  C   UNL     1      15.161 -33.454  23.230  1.00  0.00     0.000 C 
BRANCH   6   7
ATOM      7  C   UNL     1      16.632 -33.433  23.674  1.00  0.00     0.006 C 
BRANCH   7   8
ATOM      8  C   UNL     1      16.834 -34.020  25.077  1.00  0.00     0.053 C 
BRANCH   8   9
ATOM      9  C   UNL     1      17.244 -35.456  24.991  1.00  0.00     0.041 C 
ATOM     10  O   UNL     1      16.882 -36.273  25.877  1.00  0.00    -0.550 OA
ATOM     11  O   UNL     1      17.992 -35.902  23.909  1.00  0.00    -0.550 OA
ENDBRANCH   8   9
ENDBRANCH   7   8
ENDBRANCH   6   7
ENDBRANCH   5   6
ENDBRANCH   4   5
ENDBRANCH   3   4
ENDBRANCH   2   3
ENDBRANCH   1   2
BRANCH   1  12
ATOM     12  C   UNL     1      18.541 -32.057  20.838  1.00  0.00     0.000 C 
BRANCH  12  13
ATOM     13  C   UNL     1      17.469 -30.965  20.660  1.00  0.00    -0.000 C 
BRANCH  13  14
ATOM     14  C   UNL     1      17.381 -30.009  21.861  1.00  0.00    -0.000 C 
BRANCH  14  15
ATOM     15  C   UNL     1      15.993 -30.011  22.526  1.00  0.00    -0.000 C 
BRANCH  15  16
ATOM     16  C   UNL     1      14.794 -29.957  21.556  1.00  0.00    -0.000 C 
BRANCH  16  17
ATOM     17  C   UNL     1      13.412 -30.136  22.208  1.00  0.00    -0.000 C 
BRANCH  17  18
ATOM     18  C   UNL     1      13.291 -29.411  23.560  1.00  0.00    -0.000 C 
BRANCH  18  19
ATOM     19  C   UNL     1      12.103 -28.438  23.601  1.00  0.00    -0.003 C 
ATOM     20  C   UNL     1      10.996 -28.810  22.615  1.00  0.00     0.004 C 
ENDBRANCH  18  19
ENDBRANCH  17  18
ENDBRANCH  16  17
ENDBRANCH  15  16
ENDBRANCH  14  15
ENDBRANCH  13  14
ENDBRANCH  12  13
ENDBRANCH   1  12
TORSDOF 16
ENDMDL
