MODEL 1
REMARK VINA RESULT:    -3.928      0.000      0.000
REMARK INTER + INTRA:         -11.825
REMARK INTER:                  -8.520
REMARK INTRA:                  -3.305
REMARK UNBOUND:                -3.305
REMARK SMILES CCCCCCCCCCCCCCCCCCCCCC(=O)[O-]
REMARK SMILES IDX 12 1 11 2 10 3 9 4 8 5 7 6 6 7 5 8 4 9 3 10 2 11 1 12 13 13
REMARK SMILES IDX 14 14 15 15 16 16 17 17 18 18 19 19 20 20 21 21 22 22 23 23
REMARK SMILES IDX 24 24
REMARK H PARENT
REMARK Flexibility Score: inf
ROOT
ATOM      1  C   UNL     1      77.651  81.511  78.697  1.00  0.00     0.000 C 
ENDROOT
BRANCH   1   2
ATOM      2  C   UNL     1      76.142  81.801  78.599  1.00  0.00     0.000 C 
BRANCH   2   3
ATOM      3  C   UNL     1      75.284  80.549  78.846  1.00  0.00     0.000 C 
BRANCH   3   4
ATOM      4  C   UNL     1      74.369  80.216  77.655  1.00  0.00    -0.000 C 
BRANCH   4   5
ATOM      5  C   UNL     1      74.803  78.938  76.918  1.00  0.00    -0.000 C 
BRANCH   5   6
ATOM      6  C   UNL     1      75.267  79.213  75.476  1.00  0.00    -0.000 C 
BRANCH   6   7
ATOM      7  C   UNL     1      75.749  80.658  75.278  1.00  0.00    -0.000 C 
BRANCH   7   8
ATOM      8  C   UNL     1      74.814  81.471  74.365  1.00  0.00    -0.000 C 
BRANCH   8   9
ATOM      9  C   UNL     1      74.805  82.969  74.712  1.00  0.00    -0.000 C 
BRANCH   9  10
ATOM     10  C   UNL     1      73.738  83.326  75.758  1.00  0.00    -0.000 C 
BRANCH  10  11
ATOM     11  C   UNL     1      72.482  82.465  75.575  1.00  0.00    -0.003 C 
ATOM     12  C   UNL     1      71.632  82.454  76.842  1.00  0.00     0.004 C 
ENDBRANCH  10  11
ENDBRANCH   9  10
ENDBRANCH   8   9
ENDBRANCH   7   8
ENDBRANCH   6   7
ENDBRANCH   5   6
ENDBRANCH   4   5
ENDBRANCH   3   4
ENDBRANCH   2   3
ENDBRANCH   1   2
BRANCH   1  13
ATOM     13  C   UNL     1      77.978  80.019  78.529  1.00  0.00     0.000 C 
BRANCH  13  14
ATOM     14  C   UNL     1      79.442  79.777  78.119  1.00  0.00     0.000 C 
BRANCH  14  15
ATOM     15  C   UNL     1      80.398  80.832  78.698  1.00  0.00     0.000 C 
BRANCH  15  16
ATOM     16  C   UNL     1      81.866  80.571  78.327  1.00  0.00     0.000 C 
BRANCH  16  17
ATOM     17  C   UNL     1      82.344  81.563  77.256  1.00  0.00     0.000 C 
BRANCH  17  18
ATOM     18  C   UNL     1      82.300  80.973  75.837  1.00  0.00     0.000 C 
BRANCH  18  19
ATOM     19  C   UNL     1      81.436  81.803  74.877  1.00  0.00     0.000 C 
BRANCH  19  20
ATOM     20  C   UNL     1      80.700  82.923  75.629  1.00  0.00     0.006 C 
BRANCH  20  21
ATOM     21  C   UNL     1      79.189  82.672  75.710  1.00  0.00     0.053 C 
BRANCH  21  22
ATOM     22  C   UNL     1      78.445  83.420  74.645  1.00  0.00     0.041 C 
ATOM     23  O   UNL     1      77.995  84.574  74.877  1.00  0.00    -0.550 OA
ATOM     24  O   UNL     1      78.277  82.856  73.387  1.00  0.00    -0.550 OA
ENDBRANCH  21  22
ENDBRANCH  20  21
ENDBRANCH  19  20
ENDBRANCH  18  19
ENDBRANCH  17  18
ENDBRANCH  16  17
ENDBRANCH  15  16
ENDBRANCH  14  15
ENDBRANCH  13  14
ENDBRANCH   1  13
TORSDOF 20
ENDMDL
MODEL 2
REMARK VINA RESULT:    -3.890      2.420      6.426
REMARK INTER + INTRA:         -11.744
REMARK INTER:                  -7.856
REMARK INTRA:                  -3.888
REMARK UNBOUND:                -3.305
REMARK SMILES CCCCCCCCCCCCCCCCCCCCCC(=O)[O-]
REMARK SMILES IDX 12 1 11 2 10 3 9 4 8 5 7 6 6 7 5 8 4 9 3 10 2 11 1 12 13 13
REMARK SMILES IDX 14 14 15 15 16 16 17 17 18 18 19 19 20 20 21 21 22 22 23 23
REMARK SMILES IDX 24 24
REMARK H PARENT
REMARK Flexibility Score: inf
ROOT
ATOM      1  C   UNL     1      74.356  80.290  77.982  1.00  0.00     0.000 C 
ENDROOT
BRANCH   1   2
ATOM      2  C   UNL     1      75.644  80.587  78.772  1.00  0.00     0.000 C 
BRANCH   2   3
ATOM      3  C   UNL     1      76.336  81.879  78.307  1.00  0.00     0.000 C 
BRANCH   3   4
ATOM      4  C   UNL     1      77.857  81.709  78.146  1.00  0.00    -0.000 C 
BRANCH   4   5
ATOM      5  C   UNL     1      78.223  80.601  77.145  1.00  0.00    -0.000 C 
BRANCH   5   6
ATOM      6  C   UNL     1      79.703  80.189  77.231  1.00  0.00    -0.000 C 
BRANCH   6   7
ATOM      7  C   UNL     1      80.616  81.356  77.641  1.00  0.00    -0.000 C 
BRANCH   7   8
ATOM      8  C   UNL     1      81.684  81.670  76.578  1.00  0.00    -0.000 C 
BRANCH   8   9
ATOM      9  C   UNL     1      81.083  82.277  75.300  1.00  0.00    -0.000 C 
BRANCH   9  10
ATOM     10  C   UNL     1      80.222  83.517  75.584  1.00  0.00    -0.000 C 
BRANCH  10  11
ATOM     11  C   UNL     1      78.876  83.428  74.855  1.00  0.00    -0.003 C 
ATOM     12  C   UNL     1      78.913  82.371  73.756  1.00  0.00     0.004 C 
ENDBRANCH  10  11
ENDBRANCH   9  10
ENDBRANCH   8   9
ENDBRANCH   7   8
ENDBRANCH   6   7
ENDBRANCH   5   6
ENDBRANCH   4   5
ENDBRANCH   3   4
ENDBRANCH   2   3
ENDBRANCH   1   2
BRANCH   1  13
ATOM     13  C   UNL     1      74.461  79.006  77.143  1.00  0.00     0.000 C 
BRANCH  13  14
ATOM     14  C   UNL     1      75.277  79.206  75.854  1.00  0.00     0.000 C 
BRANCH  14  15
ATOM     15  C   UNL     1      74.386  79.439  74.622  1.00  0.00     0.000 C 
BRANCH  15  16
ATOM     16  C   UNL     1      74.859  80.620  73.761  1.00  0.00     0.000 C 
BRANCH  16  17
ATOM     17  C   UNL     1      75.453  81.733  74.638  1.00  0.00     0.000 C 
BRANCH  17  18
ATOM     18  C   UNL     1      74.601  83.012  74.631  1.00  0.00     0.000 C 
BRANCH  18  19
ATOM     19  C   UNL     1      73.847  83.228  75.952  1.00  0.00     0.000 C 
BRANCH  19  20
ATOM     20  C   UNL     1      72.440  82.614  75.887  1.00  0.00     0.006 C 
BRANCH  20  21
ATOM     21  C   UNL     1      71.852  82.656  74.471  1.00  0.00     0.053 C 
BRANCH  21  22
ATOM     22  C   UNL     1      71.223  81.349  74.093  1.00  0.00     0.041 C 
ATOM     23  O   UNL     1      70.938  81.107  72.890  1.00  0.00    -0.550 OA
ATOM     24  O   UNL     1      70.981  80.386  75.064  1.00  0.00    -0.550 OA
ENDBRANCH  21  22
ENDBRANCH  20  21
ENDBRANCH  19  20
ENDBRANCH  18  19
ENDBRANCH  17  18
ENDBRANCH  16  17
ENDBRANCH  15  16
ENDBRANCH  14  15
ENDBRANCH  13  14
ENDBRANCH   1  13
TORSDOF 20
ENDMDL
MODEL 3
REMARK VINA RESULT:    -3.864      2.181      5.957
REMARK INTER + INTRA:         -11.688
REMARK INTER:                  -9.139
REMARK INTRA:                  -2.549
REMARK UNBOUND:                -3.305
REMARK SMILES CCCCCCCCCCCCCCCCCCCCCC(=O)[O-]
REMARK SMILES IDX 12 1 11 2 10 3 9 4 8 5 7 6 6 7 5 8 4 9 3 10 2 11 1 12 13 13
REMARK SMILES IDX 14 14 15 15 16 16 17 17 18 18 19 19 20 20 21 21 22 22 23 23
REMARK SMILES IDX 24 24
REMARK H PARENT
REMARK Flexibility Score: inf
ROOT
ATOM      1  C   UNL     1      74.757  78.148  81.506  1.00  0.00     0.000 C 
ENDROOT
BRANCH   1   2
ATOM      2  C   UNL     1      75.741  76.967  81.421  1.00  0.00     0.000 C 
BRANCH   2   3
ATOM      3  C   UNL     1      77.122  77.307  82.007  1.00  0.00     0.000 C 
BRANCH   3   4
ATOM      4  C   UNL     1      78.270  77.004  81.028  1.00  0.00    -0.000 C 
BRANCH   4   5
ATOM      5  C   UNL     1      77.945  77.432  79.588  1.00  0.00    -0.000 C 
BRANCH   5   6
ATOM      6  C   UNL     1      78.862  78.559  79.082  1.00  0.00    -0.000 C 
BRANCH   6   7
ATOM      7  C   UNL     1      78.830  78.702  77.553  1.00  0.00    -0.000 C 
BRANCH   7   8
ATOM      8  C   UNL     1      78.252  80.056  77.100  1.00  0.00    -0.000 C 
BRANCH   8   9
ATOM      9  C   UNL     1      78.783  81.233  77.934  1.00  0.00    -0.000 C 
BRANCH   9  10
ATOM     10  C   UNL     1      80.202  81.653  77.523  1.00  0.00    -0.000 C 
BRANCH  10  11
ATOM     11  C   UNL     1      80.349  81.671  75.997  1.00  0.00    -0.003 C 
ATOM     12  C   UNL     1      81.143  82.889  75.534  1.00  0.00     0.004 C 
ENDBRANCH  10  11
ENDBRANCH   9  10
ENDBRANCH   8   9
ENDBRANCH   7   8
ENDBRANCH   6   7
ENDBRANCH   5   6
ENDBRANCH   4   5
ENDBRANCH   3   4
ENDBRANCH   2   3
ENDBRANCH   1   2
BRANCH   1  13
ATOM     13  C   UNL     1      75.471  79.507  81.587  1.00  0.00     0.000 C 
BRANCH  13  14
ATOM     14  C   UNL     1      75.595  80.193  80.215  1.00  0.00     0.000 C 
BRANCH  14  15
ATOM     15  C   UNL     1      74.720  79.526  79.141  1.00  0.00     0.000 C 
BRANCH  15  16
ATOM     16  C   UNL     1      74.890  80.166  77.754  1.00  0.00     0.000 C 
BRANCH  16  17
ATOM     17  C   UNL     1      73.544  80.682  77.222  1.00  0.00     0.000 C 
BRANCH  17  18
ATOM     18  C   UNL     1      73.566  82.188  76.913  1.00  0.00     0.000 C 
BRANCH  18  19
ATOM     19  C   UNL     1      73.179  82.499  75.460  1.00  0.00     0.000 C 
BRANCH  19  20
ATOM     20  C   UNL     1      74.323  83.217  74.728  1.00  0.00     0.006 C 
BRANCH  20  21
ATOM     21  C   UNL     1      75.687  82.947  75.377  1.00  0.00     0.053 C 
BRANCH  21  22
ATOM     22  C   UNL     1      76.746  83.862  74.842  1.00  0.00     0.041 C 
ATOM     23  O   UNL     1      77.778  83.388  74.297  1.00  0.00    -0.550 OA
ATOM     24  O   UNL     1      76.579  85.239  74.916  1.00  0.00    -0.550 OA
ENDBRANCH  21  22
ENDBRANCH  20  21
ENDBRANCH  19  20
ENDBRANCH  18  19
ENDBRANCH  17  18
ENDBRANCH  16  17
ENDBRANCH  15  16
ENDBRANCH  14  15
ENDBRANCH  13  14
ENDBRANCH   1  13
TORSDOF 20
ENDMDL
MODEL 4
REMARK VINA RESULT:    -3.806      2.562      6.136
REMARK INTER + INTRA:         -11.562
REMARK INTER:                  -7.498
REMARK INTRA:                  -4.064
REMARK UNBOUND:                -3.305
REMARK SMILES CCCCCCCCCCCCCCCCCCCCCC(=O)[O-]
REMARK SMILES IDX 12 1 11 2 10 3 9 4 8 5 7 6 6 7 5 8 4 9 3 10 2 11 1 12 13 13
REMARK SMILES IDX 14 14 15 15 16 16 17 17 18 18 19 19 20 20 21 21 22 22 23 23
REMARK SMILES IDX 24 24
REMARK H PARENT
REMARK Flexibility Score: inf
ROOT
ATOM      1  C   UNL     1      75.307  81.761  78.494  1.00  0.00     0.000 C 
ENDROOT
BRANCH   1   2
ATOM      2  C   UNL     1      76.242  82.379  77.439  1.00  0.00     0.000 C 
BRANCH   2   3
ATOM      3  C   UNL     1      75.476  83.156  76.355  1.00  0.00     0.000 C 
BRANCH   3   4
ATOM      4  C   UNL     1      76.382  83.590  75.189  1.00  0.00    -0.000 C 
BRANCH   4   5
ATOM      5  C   UNL     1      76.770  82.416  74.276  1.00  0.00    -0.000 C 
BRANCH   5   6
ATOM      6  C   UNL     1      78.285  82.348  74.008  1.00  0.00    -0.000 C 
BRANCH   6   7
ATOM      7  C   UNL     1      79.090  83.253  74.953  1.00  0.00    -0.000 C 
BRANCH   7   8
ATOM      8  C   UNL     1      80.315  82.538  75.551  1.00  0.00    -0.000 C 
BRANCH   8   9
ATOM      9  C   UNL     1      80.091  82.100  77.007  1.00  0.00    -0.000 C 
BRANCH   9  10
ATOM     10  C   UNL     1      81.297  81.349  77.590  1.00  0.00    -0.000 C 
BRANCH  10  11
ATOM     11  C   UNL     1      81.002  80.858  79.012  1.00  0.00    -0.003 C 
ATOM     12  C   UNL     1      81.026  79.335  79.086  1.00  0.00     0.004 C 
ENDBRANCH  10  11
ENDBRANCH   9  10
ENDBRANCH   8   9
ENDBRANCH   7   8
ENDBRANCH   6   7
ENDBRANCH   5   6
ENDBRANCH   4   5
ENDBRANCH   3   4
ENDBRANCH   2   3
ENDBRANCH   1   2
BRANCH   1  13
ATOM     13  C   UNL     1      75.998  80.675  79.335  1.00  0.00     0.000 C 
BRANCH  13  14
ATOM     14  C   UNL     1      77.394  80.311  78.798  1.00  0.00     0.000 C 
BRANCH  14  15
ATOM     15  C   UNL     1      77.390  79.008  77.982  1.00  0.00     0.000 C 
BRANCH  15  16
ATOM     16  C   UNL     1      77.999  79.183  76.582  1.00  0.00     0.000 C 
BRANCH  16  17
ATOM     17  C   UNL     1      76.905  79.161  75.503  1.00  0.00     0.000 C 
BRANCH  17  18
ATOM     18  C   UNL     1      75.495  78.983  76.090  1.00  0.00     0.000 C 
BRANCH  18  19
ATOM     19  C   UNL     1      74.420  79.724  75.281  1.00  0.00     0.000 C 
BRANCH  19  20
ATOM     20  C   UNL     1      73.135  79.898  76.105  1.00  0.00     0.006 C 
BRANCH  20  21
ATOM     21  C   UNL     1      72.281  81.072  75.609  1.00  0.00     0.053 C 
BRANCH  21  22
ATOM     22  C   UNL     1      71.605  81.783  76.742  1.00  0.00     0.041 C 
ATOM     23  O   UNL     1      72.156  82.775  77.287  1.00  0.00    -0.550 OA
ATOM     24  O   UNL     1      70.350  81.369  77.173  1.00  0.00    -0.550 OA
ENDBRANCH  21  22
ENDBRANCH  20  21
ENDBRANCH  19  20
ENDBRANCH  18  19
ENDBRANCH  17  18
ENDBRANCH  16  17
ENDBRANCH  15  16
ENDBRANCH  14  15
ENDBRANCH  13  14
ENDBRANCH   1  13
TORSDOF 20
ENDMDL
MODEL 5
REMARK VINA RESULT:    -3.766      1.109      6.536
REMARK INTER + INTRA:         -11.475
REMARK INTER:                  -8.501
REMARK INTRA:                  -2.974
REMARK UNBOUND:                -3.305
REMARK SMILES CCCCCCCCCCCCCCCCCCCCCC(=O)[O-]
REMARK SMILES IDX 12 1 11 2 10 3 9 4 8 5 7 6 6 7 5 8 4 9 3 10 2 11 1 12 13 13
REMARK SMILES IDX 14 14 15 15 16 16 17 17 18 18 19 19 20 20 21 21 22 22 23 23
REMARK SMILES IDX 24 24
REMARK H PARENT
REMARK Flexibility Score: inf
ROOT
ATOM      1  C   UNL     1      74.722  80.649  78.126  1.00  0.00     0.000 C 
ENDROOT
BRANCH   1   2
ATOM      2  C   UNL     1      75.997  80.779  78.979  1.00  0.00     0.000 C 
BRANCH   2   3
ATOM      3  C   UNL     1      76.911  81.921  78.502  1.00  0.00     0.000 C 
BRANCH   3   4
ATOM      4  C   UNL     1      78.334  81.438  78.171  1.00  0.00    -0.000 C 
BRANCH   4   5
ATOM      5  C   UNL     1      78.456  79.906  78.190  1.00  0.00    -0.000 C 
BRANCH   5   6
ATOM      6  C   UNL     1      79.788  79.424  78.793  1.00  0.00    -0.000 C 
BRANCH   6   7
ATOM      7  C   UNL     1      80.842  80.540  78.858  1.00  0.00    -0.000 C 
BRANCH   7   8
ATOM      8  C   UNL     1      82.065  80.247  77.970  1.00  0.00    -0.000 C 
BRANCH   8   9
ATOM      9  C   UNL     1      82.907  81.503  77.693  1.00  0.00    -0.000 C 
BRANCH   9  10
ATOM     10  C   UNL     1      83.013  81.823  76.194  1.00  0.00    -0.000 C 
BRANCH  10  11
ATOM     11  C   UNL     1      81.765  82.567  75.703  1.00  0.00    -0.003 C 
ATOM     12  C   UNL     1      81.054  81.784  74.604  1.00  0.00     0.004 C 
ENDBRANCH  10  11
ENDBRANCH   9  10
ENDBRANCH   8   9
ENDBRANCH   7   8
ENDBRANCH   6   7
ENDBRANCH   5   6
ENDBRANCH   4   5
ENDBRANCH   3   4
ENDBRANCH   2   3
ENDBRANCH   1   2
BRANCH   1  13
ATOM     13  C   UNL     1      74.661  79.322  77.352  1.00  0.00     0.000 C 
BRANCH  13  14
ATOM     14  C   UNL     1      75.253  79.435  75.936  1.00  0.00     0.000 C 
BRANCH  14  15
ATOM     15  C   UNL     1      74.250  79.026  74.844  1.00  0.00     0.000 C 
BRANCH  15  16
ATOM     16  C   UNL     1      73.705  80.228  74.057  1.00  0.00     0.000 C 
BRANCH  16  17
ATOM     17  C   UNL     1      72.417  80.764  74.700  1.00  0.00     0.000 C 
BRANCH  17  18
ATOM     18  C   UNL     1      72.603  82.153  75.334  1.00  0.00     0.000 C 
BRANCH  18  19
ATOM     19  C   UNL     1      73.625  83.016  74.579  1.00  0.00     0.000 C 
BRANCH  19  20
ATOM     20  C   UNL     1      74.685  83.577  75.538  1.00  0.00     0.006 C 
BRANCH  20  21
ATOM     21  C   UNL     1      76.090  83.040  75.230  1.00  0.00     0.053 C 
BRANCH  21  22
ATOM     22  C   UNL     1      77.024  84.136  74.818  1.00  0.00     0.041 C 
ATOM     23  O   UNL     1      76.668  85.341  74.909  1.00  0.00    -0.550 OA
ATOM     24  O   UNL     1      78.301  83.828  74.365  1.00  0.00    -0.550 OA
ENDBRANCH  21  22
ENDBRANCH  20  21
ENDBRANCH  19  20
ENDBRANCH  18  19
ENDBRANCH  17  18
ENDBRANCH  16  17
ENDBRANCH  15  16
ENDBRANCH  14  15
ENDBRANCH  13  14
ENDBRANCH   1  13
TORSDOF 20
ENDMDL
MODEL 6
REMARK VINA RESULT:    -3.726      1.459      2.564
REMARK INTER + INTRA:         -11.387
REMARK INTER:                  -7.904
REMARK INTRA:                  -3.483
REMARK UNBOUND:                -3.305
REMARK SMILES CCCCCCCCCCCCCCCCCCCCCC(=O)[O-]
REMARK SMILES IDX 12 1 11 2 10 3 9 4 8 5 7 6 6 7 5 8 4 9 3 10 2 11 1 12 13 13
REMARK SMILES IDX 14 14 15 15 16 16 17 17 18 18 19 19 20 20 21 21 22 22 23 23
REMARK SMILES IDX 24 24
REMARK H PARENT
REMARK Flexibility Score: inf
ROOT
ATOM      1  C   UNL     1      75.841  80.400  79.852  1.00  0.00     0.000 C 
ENDROOT
BRANCH   1   2
ATOM      2  C   UNL     1      75.018  81.073  78.738  1.00  0.00     0.000 C 
BRANCH   2   3
ATOM      3  C   UNL     1      74.275  80.054  77.858  1.00  0.00     0.000 C 
BRANCH   3   4
ATOM      4  C   UNL     1      75.086  79.644  76.616  1.00  0.00    -0.000 C 
BRANCH   4   5
ATOM      5  C   UNL     1      74.192  79.292  75.417  1.00  0.00    -0.000 C 
BRANCH   5   6
ATOM      6  C   UNL     1      74.093  80.436  74.392  1.00  0.00    -0.000 C 
BRANCH   6   7
ATOM      7  C   UNL     1      75.198  81.488  74.577  1.00  0.00    -0.000 C 
BRANCH   7   8
ATOM      8  C   UNL     1      74.634  82.891  74.861  1.00  0.00    -0.000 C 
BRANCH   8   9
ATOM      9  C   UNL     1      73.110  82.884  75.066  1.00  0.00    -0.000 C 
BRANCH   9  10
ATOM     10  C   UNL     1      72.714  83.018  76.544  1.00  0.00    -0.000 C 
BRANCH  10  11
ATOM     11  C   UNL     1      71.482  82.161  76.861  1.00  0.00    -0.003 C 
ATOM     12  C   UNL     1      70.718  81.804  75.590  1.00  0.00     0.004 C 
ENDBRANCH  10  11
ENDBRANCH   9  10
ENDBRANCH   8   9
ENDBRANCH   7   8
ENDBRANCH   6   7
ENDBRANCH   5   6
ENDBRANCH   4   5
ENDBRANCH   3   4
ENDBRANCH   2   3
ENDBRANCH   1   2
BRANCH   1  13
ATOM     13  C   UNL     1      75.251  79.050  80.289  1.00  0.00     0.000 C 
BRANCH  13  14
ATOM     14  C   UNL     1      76.112  77.855  79.843  1.00  0.00     0.000 C 
BRANCH  14  15
ATOM     15  C   UNL     1      77.618  78.160  79.900  1.00  0.00     0.000 C 
BRANCH  15  16
ATOM     16  C   UNL     1      78.226  78.411  78.511  1.00  0.00     0.000 C 
BRANCH  16  17
ATOM     17  C   UNL     1      79.594  79.100  78.630  1.00  0.00     0.000 C 
BRANCH  17  18
ATOM     18  C   UNL     1      79.585  80.537  78.085  1.00  0.00     0.000 C 
BRANCH  18  19
ATOM     19  C   UNL     1      78.347  80.837  77.227  1.00  0.00     0.000 C 
BRANCH  19  20
ATOM     20  C   UNL     1      78.748  81.185  75.786  1.00  0.00     0.006 C 
BRANCH  20  21
ATOM     21  C   UNL     1      79.186  82.649  75.642  1.00  0.00     0.053 C 
BRANCH  21  22
ATOM     22  C   UNL     1      78.432  83.348  74.552  1.00  0.00     0.041 C 
ATOM     23  O   UNL     1      78.300  82.806  73.423  1.00  0.00    -0.550 OA
ATOM     24  O   UNL     1      77.848  84.585  74.793  1.00  0.00    -0.550 OA
ENDBRANCH  21  22
ENDBRANCH  20  21
ENDBRANCH  19  20
ENDBRANCH  18  19
ENDBRANCH  17  18
ENDBRANCH  16  17
ENDBRANCH  15  16
ENDBRANCH  14  15
ENDBRANCH  13  14
ENDBRANCH   1  13
TORSDOF 20
ENDMDL
MODEL 7
REMARK VINA RESULT:    -3.694      1.672      4.267
REMARK INTER + INTRA:         -11.318
REMARK INTER:                  -7.624
REMARK INTRA:                  -3.694
REMARK UNBOUND:                -3.305
REMARK SMILES CCCCCCCCCCCCCCCCCCCCCC(=O)[O-]
REMARK SMILES IDX 12 1 11 2 10 3 9 4 8 5 7 6 6 7 5 8 4 9 3 10 2 11 1 12 13 13
REMARK SMILES IDX 14 14 15 15 16 16 17 17 18 18 19 19 20 20 21 21 22 22 23 23
REMARK SMILES IDX 24 24
REMARK H PARENT
REMARK Flexibility Score: inf
ROOT
ATOM      1  C   UNL     1      74.368  82.509  74.564  1.00  0.00     0.000 C 
ENDROOT
BRANCH   1   2
ATOM      2  C   UNL     1      73.059  83.272  74.292  1.00  0.00     0.000 C 
BRANCH   2   3
ATOM      3  C   UNL     1      71.819  82.368  74.387  1.00  0.00     0.000 C 
BRANCH   3   4
ATOM      4  C   UNL     1      71.133  82.449  75.762  1.00  0.00    -0.000 C 
BRANCH   4   5
ATOM      5  C   UNL     1      71.568  81.315  76.705  1.00  0.00    -0.000 C 
BRANCH   5   6
ATOM      6  C   UNL     1      71.692  79.960  75.987  1.00  0.00    -0.000 C 
BRANCH   6   7
ATOM      7  C   UNL     1      73.042  79.275  76.251  1.00  0.00    -0.000 C 
BRANCH   7   8
ATOM      8  C   UNL     1      73.596  78.564  75.003  1.00  0.00    -0.000 C 
BRANCH   8   9
ATOM      9  C   UNL     1      72.824  78.929  73.725  1.00  0.00    -0.000 C 
BRANCH   9  10
ATOM     10  C   UNL     1      73.702  79.654  72.693  1.00  0.00    -0.000 C 
BRANCH  10  11
ATOM     11  C   UNL     1      75.186  79.339  72.918  1.00  0.00    -0.003 C 
ATOM     12  C   UNL     1      76.069  80.141  71.968  1.00  0.00     0.004 C 
ENDBRANCH  10  11
ENDBRANCH   9  10
ENDBRANCH   8   9
ENDBRANCH   7   8
ENDBRANCH   6   7
ENDBRANCH   5   6
ENDBRANCH   4   5
ENDBRANCH   3   4
ENDBRANCH   2   3
ENDBRANCH   1   2
BRANCH   1  13
ATOM     13  C   UNL     1      75.024  82.916  75.894  1.00  0.00     0.000 C 
BRANCH  13  14
ATOM     14  C   UNL     1      75.730  81.739  76.590  1.00  0.00     0.000 C 
BRANCH  14  15
ATOM     15  C   UNL     1      75.309  81.584  78.061  1.00  0.00     0.000 C 
BRANCH  15  16
ATOM     16  C   UNL     1      76.450  81.078  78.956  1.00  0.00     0.000 C 
BRANCH  16  17
ATOM     17  C   UNL     1      77.782  81.739  78.569  1.00  0.00     0.000 C 
BRANCH  17  18
ATOM     18  C   UNL     1      78.926  80.724  78.415  1.00  0.00     0.000 C 
BRANCH  18  19
ATOM     19  C   UNL     1      79.985  81.175  77.399  1.00  0.00     0.000 C 
BRANCH  19  20
ATOM     20  C   UNL     1      79.423  82.257  76.464  1.00  0.00     0.006 C 
BRANCH  20  21
ATOM     21  C   UNL     1      79.069  81.701  75.078  1.00  0.00     0.053 C 
BRANCH  21  22
ATOM     22  C   UNL     1      78.575  82.776  74.159  1.00  0.00     0.041 C 
ATOM     23  O   UNL     1      78.270  83.909  74.614  1.00  0.00    -0.550 OA
ATOM     24  O   UNL     1      78.484  82.535  72.793  1.00  0.00    -0.550 OA
ENDBRANCH  21  22
ENDBRANCH  20  21
ENDBRANCH  19  20
ENDBRANCH  18  19
ENDBRANCH  17  18
ENDBRANCH  16  17
ENDBRANCH  15  16
ENDBRANCH  14  15
ENDBRANCH  13  14
ENDBRANCH   1  13
TORSDOF 20
ENDMDL
MODEL 8
REMARK VINA RESULT:    -3.647      1.922      2.854
REMARK INTER + INTRA:         -11.217
REMARK INTER:                  -7.918
REMARK INTRA:                  -3.299
REMARK UNBOUND:                -3.305
REMARK SMILES CCCCCCCCCCCCCCCCCCCCCC(=O)[O-]
REMARK SMILES IDX 12 1 11 2 10 3 9 4 8 5 7 6 6 7 5 8 4 9 3 10 2 11 1 12 13 13
REMARK SMILES IDX 14 14 15 15 16 16 17 17 18 18 19 19 20 20 21 21 22 22 23 23
REMARK SMILES IDX 24 24
REMARK H PARENT
REMARK Flexibility Score: inf
ROOT
ATOM      1  C   UNL     1      76.848  77.340  81.436  1.00  0.00     0.000 C 
ENDROOT
BRANCH   1   2
ATOM      2  C   UNL     1      75.446  77.976  81.405  1.00  0.00     0.000 C 
BRANCH   2   3
ATOM      3  C   UNL     1      75.478  79.487  81.689  1.00  0.00     0.000 C 
BRANCH   3   4
ATOM      4  C   UNL     1      75.528  80.328  80.402  1.00  0.00    -0.000 C 
BRANCH   4   5
ATOM      5  C   UNL     1      74.834  79.636  79.217  1.00  0.00    -0.000 C 
BRANCH   5   6
ATOM      6  C   UNL     1      75.302  80.178  77.855  1.00  0.00    -0.000 C 
BRANCH   6   7
ATOM      7  C   UNL     1      75.626  81.679  77.900  1.00  0.00    -0.000 C 
BRANCH   7   8
ATOM      8  C   UNL     1      76.169  82.205  76.558  1.00  0.00    -0.000 C 
BRANCH   8   9
ATOM      9  C   UNL     1      75.466  83.494  76.102  1.00  0.00    -0.000 C 
BRANCH   9  10
ATOM     10  C   UNL     1      74.273  83.218  75.174  1.00  0.00    -0.000 C 
BRANCH  10  11
ATOM     11  C   UNL     1      74.504  81.947  74.348  1.00  0.00    -0.003 C 
ATOM     12  C   UNL     1      73.304  81.009  74.434  1.00  0.00     0.004 C 
ENDBRANCH  10  11
ENDBRANCH   9  10
ENDBRANCH   8   9
ENDBRANCH   7   8
ENDBRANCH   6   7
ENDBRANCH   5   6
ENDBRANCH   4   5
ENDBRANCH   3   4
ENDBRANCH   2   3
ENDBRANCH   1   2
BRANCH   1  13
ATOM     13  C   UNL     1      77.377  77.008  80.031  1.00  0.00     0.000 C 
BRANCH  13  14
ATOM     14  C   UNL     1      78.315  78.097  79.479  1.00  0.00     0.000 C 
BRANCH  14  15
ATOM     15  C   UNL     1      78.494  78.002  77.955  1.00  0.00     0.000 C 
BRANCH  15  16
ATOM     16  C   UNL     1      78.765  79.367  77.303  1.00  0.00     0.000 C 
BRANCH  16  17
ATOM     17  C   UNL     1      79.060  80.433  78.369  1.00  0.00     0.000 C 
BRANCH  17  18
ATOM     18  C   UNL     1      79.677  81.710  77.777  1.00  0.00     0.000 C 
BRANCH  18  19
ATOM     19  C   UNL     1      80.962  81.433  76.982  1.00  0.00     0.000 C 
BRANCH  19  20
ATOM     20  C   UNL     1      81.160  82.481  75.876  1.00  0.00     0.006 C 
BRANCH  20  21
ATOM     21  C   UNL     1      79.850  83.189  75.505  1.00  0.00     0.053 C 
BRANCH  21  22
ATOM     22  C   UNL     1      79.293  82.683  74.209  1.00  0.00     0.041 C 
ATOM     23  O   UNL     1      78.183  83.102  73.788  1.00  0.00    -0.550 OA
ATOM     24  O   UNL     1      80.017  81.772  73.450  1.00  0.00    -0.550 OA
ENDBRANCH  21  22
ENDBRANCH  20  21
ENDBRANCH  19  20
ENDBRANCH  18  19
ENDBRANCH  17  18
ENDBRANCH  16  17
ENDBRANCH  15  16
ENDBRANCH  14  15
ENDBRANCH  13  14
ENDBRANCH   1  13
TORSDOF 20
ENDMDL
MODEL 9
REMARK VINA RESULT:    -3.592      2.065      4.477
REMARK INTER + INTRA:         -11.098
REMARK INTER:                  -7.273
REMARK INTRA:                  -3.825
REMARK UNBOUND:                -3.305
REMARK SMILES CCCCCCCCCCCCCCCCCCCCCC(=O)[O-]
REMARK SMILES IDX 12 1 11 2 10 3 9 4 8 5 7 6 6 7 5 8 4 9 3 10 2 11 1 12 13 13
REMARK SMILES IDX 14 14 15 15 16 16 17 17 18 18 19 19 20 20 21 21 22 22 23 23
REMARK SMILES IDX 24 24
REMARK H PARENT
REMARK Flexibility Score: inf
ROOT
ATOM      1  C   UNL     1      75.410  79.236  75.348  1.00  0.00     0.000 C 
ENDROOT
BRANCH   1   2
ATOM      2  C   UNL     1      76.352  80.390  74.959  1.00  0.00     0.000 C 
BRANCH   2   3
ATOM      3  C   UNL     1      75.597  81.703  74.695  1.00  0.00     0.000 C 
BRANCH   3   4
ATOM      4  C   UNL     1      74.155  81.468  74.211  1.00  0.00    -0.000 C 
BRANCH   4   5
ATOM      5  C   UNL     1      73.188  82.565  74.685  1.00  0.00    -0.000 C 
BRANCH   5   6
ATOM      6  C   UNL     1      73.377  82.922  76.170  1.00  0.00    -0.000 C 
BRANCH   6   7
ATOM      7  C   UNL     1      72.183  82.491  77.036  1.00  0.00    -0.000 C 
BRANCH   7   8
ATOM      8  C   UNL     1      70.856  82.504  76.257  1.00  0.00    -0.000 C 
BRANCH   8   9
ATOM      9  C   UNL     1      70.154  81.136  76.264  1.00  0.00    -0.000 C 
BRANCH   9  10
ATOM     10  C   UNL     1      69.881  80.607  74.848  1.00  0.00    -0.000 C 
BRANCH  10  11
ATOM     11  C   UNL     1      70.938  79.576  74.435  1.00  0.00    -0.003 C 
ATOM     12  C   UNL     1      71.608  78.954  75.657  1.00  0.00     0.004 C 
ENDBRANCH  10  11
ENDBRANCH   9  10
ENDBRANCH   8   9
ENDBRANCH   7   8
ENDBRANCH   6   7
ENDBRANCH   5   6
ENDBRANCH   4   5
ENDBRANCH   3   4
ENDBRANCH   2   3
ENDBRANCH   1   2
BRANCH   1  13
ATOM     13  C   UNL     1      75.557  78.824  76.822  1.00  0.00     0.000 C 
BRANCH  13  14
ATOM     14  C   UNL     1      74.578  79.570  77.745  1.00  0.00     0.000 C 
BRANCH  14  15
ATOM     15  C   UNL     1      75.286  80.242  78.934  1.00  0.00     0.000 C 
BRANCH  15  16
ATOM     16  C   UNL     1      75.454  81.758  78.745  1.00  0.00     0.000 C 
BRANCH  16  17
ATOM     17  C   UNL     1      76.859  82.090  78.220  1.00  0.00     0.000 C 
BRANCH  17  18
ATOM     18  C   UNL     1      77.930  81.111  78.727  1.00  0.00     0.000 C 
BRANCH  18  19
ATOM     19  C   UNL     1      79.229  81.179  77.909  1.00  0.00     0.000 C 
BRANCH  19  20
ATOM     20  C   UNL     1      79.070  82.119  76.704  1.00  0.00     0.006 C 
BRANCH  20  21
ATOM     21  C   UNL     1      80.422  82.599  76.160  1.00  0.00     0.053 C 
BRANCH  21  22
ATOM     22  C   UNL     1      81.437  81.497  76.145  1.00  0.00     0.041 C 
ATOM     23  O   UNL     1      81.329  80.545  75.327  1.00  0.00    -0.550 OA
ATOM     24  O   UNL     1      82.522  81.539  77.013  1.00  0.00    -0.550 OA
ENDBRANCH  21  22
ENDBRANCH  20  21
ENDBRANCH  19  20
ENDBRANCH  18  19
ENDBRANCH  17  18
ENDBRANCH  16  17
ENDBRANCH  15  16
ENDBRANCH  14  15
ENDBRANCH  13  14
ENDBRANCH   1  13
TORSDOF 20
ENDMDL
