MODEL 1
REMARK VINA RESULT:    -4.616      0.000      0.000
REMARK INTER + INTRA:         -10.096
REMARK INTER:                  -8.394
REMARK INTRA:                  -1.702
REMARK UNBOUND:                -1.702
REMARK SMILES CCCCCCCCCCCCCCCC(=O)[O-]
REMARK SMILES IDX 9 1 10 2 11 3 12 4 13 5 14 6 15 7 16 8 17 9 18 10 8 11 7 12
REMARK SMILES IDX 6 13 5 14 4 15 3 16 2 17 1 18
REMARK H PARENT
REMARK Flexibility Score: inf
ROOT
ATOM      1  C   UNL     1      52.643  -1.103  10.281  1.00  0.00     0.000 C 
ENDROOT
BRANCH   1   2
ATOM      2  C   UNL     1      51.535  -0.993   9.222  1.00  0.00     0.000 C 
BRANCH   2   3
ATOM      3  C   UNL     1      51.834  -1.902   8.019  1.00  0.00     0.000 C 
BRANCH   3   4
ATOM      4  C   UNL     1      51.113  -3.258   8.105  1.00  0.00     0.000 C 
BRANCH   4   5
ATOM      5  C   UNL     1      52.043  -4.392   8.573  1.00  0.00     0.000 C 
BRANCH   5   6
ATOM      6  C   UNL     1      53.383  -4.413   7.816  1.00  0.00     0.006 C 
BRANCH   6   7
ATOM      7  C   UNL     1      54.624  -4.291   8.716  1.00  0.00     0.053 C 
BRANCH   7   8
ATOM      8  C   UNL     1      55.897  -4.489   7.951  1.00  0.00     0.041 C 
ATOM      9  O   UNL     1      56.932  -4.895   8.539  1.00  0.00    -0.550 OA
ATOM     10  O   UNL     1      55.928  -4.258   6.581  1.00  0.00    -0.550 OA
ENDBRANCH   7   8
ENDBRANCH   6   7
ENDBRANCH   5   6
ENDBRANCH   4   5
ENDBRANCH   3   4
ENDBRANCH   2   3
ENDBRANCH   1   2
BRANCH   1  11
ATOM     11  C   UNL     1      52.089  -1.226  11.710  1.00  0.00     0.000 C 
BRANCH  11  12
ATOM     12  C   UNL     1      51.131  -2.420  11.873  1.00  0.00    -0.000 C 
BRANCH  12  13
ATOM     13  C   UNL     1      51.761  -3.578  12.663  1.00  0.00    -0.000 C 
BRANCH  13  14
ATOM     14  C   UNL     1      53.123  -4.011  12.098  1.00  0.00    -0.000 C 
BRANCH  14  15
ATOM     15  C   UNL     1      54.189  -4.045  13.201  1.00  0.00    -0.000 C 
BRANCH  15  16
ATOM     16  C   UNL     1      54.655  -2.627  13.560  1.00  0.00    -0.000 C 
BRANCH  16  17
ATOM     17  C   UNL     1      56.050  -2.609  14.203  1.00  0.00    -0.003 C 
ATOM     18  C   UNL     1      56.954  -3.727  13.685  1.00  0.00     0.004 C 
ENDBRANCH  16  17
ENDBRANCH  15  16
ENDBRANCH  14  15
ENDBRANCH  13  14
ENDBRANCH  12  13
ENDBRANCH  11  12
ENDBRANCH   1  11
TORSDOF 14
ENDMDL
MODEL 2
REMARK VINA RESULT:    -4.441      2.288      5.171
REMARK INTER + INTRA:          -9.778
REMARK INTER:                  -8.413
REMARK INTRA:                  -1.365
REMARK UNBOUND:                -1.702
REMARK SMILES CCCCCCCCCCCCCCCC(=O)[O-]
REMARK SMILES IDX 9 1 10 2 11 3 12 4 13 5 14 6 15 7 16 8 17 9 18 10 8 11 7 12
REMARK SMILES IDX 6 13 5 14 4 15 3 16 2 17 1 18
REMARK H PARENT
REMARK Flexibility Score: inf
ROOT
ATOM      1  C   UNL     1      51.464  -1.470   8.697  1.00  0.00     0.000 C 
ENDROOT
BRANCH   1   2
ATOM      2  C   UNL     1      52.471  -1.933   9.761  1.00  0.00     0.000 C 
BRANCH   2   3
ATOM      3  C   UNL     1      52.011  -1.518  11.167  1.00  0.00     0.000 C 
BRANCH   3   4
ATOM      4  C   UNL     1      51.355  -2.673  11.942  1.00  0.00     0.000 C 
BRANCH   4   5
ATOM      5  C   UNL     1      52.387  -3.583  12.632  1.00  0.00     0.000 C 
BRANCH   5   6
ATOM      6  C   UNL     1      53.559  -2.795  13.246  1.00  0.00     0.006 C 
BRANCH   6   7
ATOM      7  C   UNL     1      54.949  -3.259  12.782  1.00  0.00     0.053 C 
BRANCH   7   8
ATOM      8  C   UNL     1      56.007  -2.977  13.805  1.00  0.00     0.041 C 
ATOM      9  O   UNL     1      55.779  -2.176  14.747  1.00  0.00    -0.550 OA
ATOM     10  O   UNL     1      57.233  -3.628  13.735  1.00  0.00    -0.550 OA
ENDBRANCH   7   8
ENDBRANCH   6   7
ENDBRANCH   5   6
ENDBRANCH   4   5
ENDBRANCH   3   4
ENDBRANCH   2   3
ENDBRANCH   1   2
BRANCH   1  11
ATOM     11  C   UNL     1      51.197  -2.539   7.625  1.00  0.00     0.000 C 
BRANCH  11  12
ATOM     12  C   UNL     1      51.625  -3.948   8.075  1.00  0.00    -0.000 C 
BRANCH  12  13
ATOM     13  C   UNL     1      52.566  -4.629   7.068  1.00  0.00    -0.000 C 
BRANCH  13  14
ATOM     14  C   UNL     1      53.621  -3.668   6.498  1.00  0.00    -0.000 C 
BRANCH  14  15
ATOM     15  C   UNL     1      55.036  -4.226   6.698  1.00  0.00    -0.000 C 
BRANCH  15  16
ATOM     16  C   UNL     1      55.306  -4.520   8.181  1.00  0.00    -0.000 C 
BRANCH  16  17
ATOM     17  C   UNL     1      56.705  -4.069   8.626  1.00  0.00    -0.003 C 
ATOM     18  C   UNL     1      57.825  -4.841   7.930  1.00  0.00     0.004 C 
ENDBRANCH  16  17
ENDBRANCH  15  16
ENDBRANCH  14  15
ENDBRANCH  13  14
ENDBRANCH  12  13
ENDBRANCH  11  12
ENDBRANCH   1  11
TORSDOF 14
ENDMDL
MODEL 3
REMARK VINA RESULT:    -4.429      2.737      5.718
REMARK INTER + INTRA:          -9.756
REMARK INTER:                  -8.077
REMARK INTRA:                  -1.679
REMARK UNBOUND:                -1.702
REMARK SMILES CCCCCCCCCCCCCCCC(=O)[O-]
REMARK SMILES IDX 9 1 10 2 11 3 12 4 13 5 14 6 15 7 16 8 17 9 18 10 8 11 7 12
REMARK SMILES IDX 6 13 5 14 4 15 3 16 2 17 1 18
REMARK H PARENT
REMARK Flexibility Score: inf
ROOT
ATOM      1  C   UNL     1      51.906  -1.161  11.993  1.00  0.00     0.000 C 
ENDROOT
BRANCH   1   2
ATOM      2  C   UNL     1      51.262  -2.551  11.880  1.00  0.00     0.000 C 
BRANCH   2   3
ATOM      3  C   UNL     1      51.906  -3.536  12.868  1.00  0.00     0.000 C 
BRANCH   3   4
ATOM      4  C   UNL     1      53.082  -4.312  12.252  1.00  0.00     0.000 C 
BRANCH   4   5
ATOM      5  C   UNL     1      54.385  -3.493  12.233  1.00  0.00     0.000 C 
BRANCH   5   6
ATOM      6  C   UNL     1      55.010  -3.334  13.631  1.00  0.00     0.006 C 
BRANCH   6   7
ATOM      7  C   UNL     1      55.004  -1.895  14.171  1.00  0.00     0.053 C 
BRANCH   7   8
ATOM      8  C   UNL     1      56.135  -1.644  15.120  1.00  0.00     0.041 C 
ATOM      9  O   UNL     1      55.920  -1.091  16.230  1.00  0.00    -0.550 OA
ATOM     10  O   UNL     1      57.421  -2.055  14.793  1.00  0.00    -0.550 OA
ENDBRANCH   7   8
ENDBRANCH   6   7
ENDBRANCH   5   6
ENDBRANCH   4   5
ENDBRANCH   3   4
ENDBRANCH   2   3
ENDBRANCH   1   2
BRANCH   1  11
ATOM     11  C   UNL     1      52.208  -0.532  10.623  1.00  0.00     0.000 C 
BRANCH  11  12
ATOM     12  C   UNL     1      52.650  -1.573   9.579  1.00  0.00    -0.000 C 
BRANCH  12  13
ATOM     13  C   UNL     1      51.742  -1.586   8.338  1.00  0.00    -0.000 C 
BRANCH  13  14
ATOM     14  C   UNL     1      50.978  -2.909   8.176  1.00  0.00    -0.000 C 
BRANCH  14  15
ATOM     15  C   UNL     1      51.860  -4.103   8.559  1.00  0.00    -0.000 C 
BRANCH  15  16
ATOM     16  C   UNL     1      52.562  -4.687   7.324  1.00  0.00    -0.000 C 
BRANCH  16  17
ATOM     17  C   UNL     1      53.892  -3.985   7.014  1.00  0.00    -0.003 C 
ATOM     18  C   UNL     1      55.067  -4.569   7.799  1.00  0.00     0.004 C 
ENDBRANCH  16  17
ENDBRANCH  15  16
ENDBRANCH  14  15
ENDBRANCH  13  14
ENDBRANCH  12  13
ENDBRANCH  11  12
ENDBRANCH   1  11
TORSDOF 14
ENDMDL
MODEL 4
REMARK VINA RESULT:    -4.351      6.510     10.476
REMARK INTER + INTRA:          -9.613
REMARK INTER:                  -8.512
REMARK INTRA:                  -1.101
REMARK UNBOUND:                -1.702
REMARK SMILES CCCCCCCCCCCCCCCC(=O)[O-]
REMARK SMILES IDX 9 1 10 2 11 3 12 4 13 5 14 6 15 7 16 8 17 9 18 10 8 11 7 12
REMARK SMILES IDX 6 13 5 14 4 15 3 16 2 17 1 18
REMARK H PARENT
REMARK Flexibility Score: inf
ROOT
ATOM      1  C   UNL     1      57.950  -0.594  18.279  1.00  0.00     0.000 C 
ENDROOT
BRANCH   1   2
ATOM      2  C   UNL     1      56.918  -1.234  19.219  1.00  0.00     0.000 C 
BRANCH   2   3
ATOM      3  C   UNL     1      57.194  -0.849  20.681  1.00  0.00     0.000 C 
BRANCH   3   4
ATOM      4  C   UNL     1      57.518  -2.064  21.565  1.00  0.00     0.000 C 
BRANCH   4   5
ATOM      5  C   UNL     1      57.194  -3.400  20.874  1.00  0.00     0.000 C 
BRANCH   5   6
ATOM      6  C   UNL     1      58.370  -4.394  20.916  1.00  0.00     0.006 C 
BRANCH   6   7
ATOM      7  C   UNL     1      59.581  -3.981  20.064  1.00  0.00     0.053 C 
BRANCH   7   8
ATOM      8  C   UNL     1      60.854  -3.986  20.855  1.00  0.00     0.041 C 
ATOM      9  O   UNL     1      61.908  -4.455  20.354  1.00  0.00    -0.550 OA
ATOM     10  O   UNL     1      60.880  -3.441  22.133  1.00  0.00    -0.550 OA
ENDBRANCH   7   8
ENDBRANCH   6   7
ENDBRANCH   5   6
ENDBRANCH   4   5
ENDBRANCH   3   4
ENDBRANCH   2   3
ENDBRANCH   1   2
BRANCH   1  11
ATOM     11  C   UNL     1      57.699  -0.932  16.800  1.00  0.00     0.000 C 
BRANCH  11  12
ATOM     12  C   UNL     1      56.225  -0.751  16.394  1.00  0.00    -0.000 C 
BRANCH  12  13
ATOM     13  C   UNL     1      55.804  -1.704  15.263  1.00  0.00    -0.000 C 
BRANCH  13  14
ATOM     14  C   UNL     1      57.003  -2.286  14.500  1.00  0.00    -0.000 C 
BRANCH  14  15
ATOM     15  C   UNL     1      56.602  -3.551  13.730  1.00  0.00    -0.000 C 
BRANCH  15  16
ATOM     16  C   UNL     1      55.079  -3.746  13.749  1.00  0.00    -0.000 C 
BRANCH  16  17
ATOM     17  C   UNL     1      54.418  -3.361  12.418  1.00  0.00    -0.003 C 
ATOM     18  C   UNL     1      53.070  -4.051  12.205  1.00  0.00     0.004 C 
ENDBRANCH  16  17
ENDBRANCH  15  16
ENDBRANCH  14  15
ENDBRANCH  13  14
ENDBRANCH  12  13
ENDBRANCH  11  12
ENDBRANCH   1  11
TORSDOF 14
ENDMDL
MODEL 5
REMARK VINA RESULT:    -4.325      6.527      9.909
REMARK INTER + INTRA:          -9.566
REMARK INTER:                  -8.377
REMARK INTRA:                  -1.189
REMARK UNBOUND:                -1.702
REMARK SMILES CCCCCCCCCCCCCCCC(=O)[O-]
REMARK SMILES IDX 9 1 10 2 11 3 12 4 13 5 14 6 15 7 16 8 17 9 18 10 8 11 7 12
REMARK SMILES IDX 6 13 5 14 4 15 3 16 2 17 1 18
REMARK H PARENT
REMARK Flexibility Score: inf
ROOT
ATOM      1  C   UNL     1      56.145  -1.934  20.497  1.00  0.00     0.000 C 
ENDROOT
BRANCH   1   2
ATOM      2  C   UNL     1      56.526  -0.648  19.746  1.00  0.00     0.000 C 
BRANCH   2   3
ATOM      3  C   UNL     1      56.239  -0.786  18.243  1.00  0.00     0.000 C 
BRANCH   3   4
ATOM      4  C   UNL     1      57.521  -0.889  17.400  1.00  0.00     0.000 C 
BRANCH   4   5
ATOM      5  C   UNL     1      57.323  -0.386  15.959  1.00  0.00     0.000 C 
BRANCH   5   6
ATOM      6  C   UNL     1      57.294  -1.530  14.928  1.00  0.00     0.006 C 
BRANCH   6   7
ATOM      7  C   UNL     1      55.903  -2.145  14.700  1.00  0.00     0.053 C 
BRANCH   7   8
ATOM      8  C   UNL     1      55.965  -3.376  13.848  1.00  0.00     0.041 C 
ATOM      9  O   UNL     1      57.078  -3.835  13.480  1.00  0.00    -0.550 OA
ATOM     10  O   UNL     1      54.796  -4.035  13.492  1.00  0.00    -0.550 OA
ENDBRANCH   7   8
ENDBRANCH   6   7
ENDBRANCH   5   6
ENDBRANCH   4   5
ENDBRANCH   3   4
ENDBRANCH   2   3
ENDBRANCH   1   2
BRANCH   1  11
ATOM     11  C   UNL     1      57.325  -2.540  21.274  1.00  0.00     0.000 C 
BRANCH  11  12
ATOM     12  C   UNL     1      57.644  -3.981  20.837  1.00  0.00    -0.000 C 
BRANCH  12  13
ATOM     13  C   UNL     1      58.918  -4.069  19.981  1.00  0.00    -0.000 C 
BRANCH  13  14
ATOM     14  C   UNL     1      60.054  -3.182  20.514  1.00  0.00    -0.000 C 
BRANCH  14  15
ATOM     15  C   UNL     1      61.291  -4.022  20.856  1.00  0.00    -0.000 C 
BRANCH  15  16
ATOM     16  C   UNL     1      61.450  -4.174  22.376  1.00  0.00    -0.000 C 
BRANCH  16  17
ATOM     17  C   UNL     1      60.712  -3.078  23.159  1.00  0.00    -0.003 C 
ATOM     18  C   UNL     1      61.626  -1.920  23.561  1.00  0.00     0.004 C 
ENDBRANCH  16  17
ENDBRANCH  15  16
ENDBRANCH  14  15
ENDBRANCH  13  14
ENDBRANCH  12  13
ENDBRANCH  11  12
ENDBRANCH   1  11
TORSDOF 14
ENDMDL
MODEL 6
REMARK VINA RESULT:    -4.321      2.112      4.066
REMARK INTER + INTRA:          -9.560
REMARK INTER:                  -8.456
REMARK INTRA:                  -1.104
REMARK UNBOUND:                -1.702
REMARK SMILES CCCCCCCCCCCCCCCC(=O)[O-]
REMARK SMILES IDX 9 1 10 2 11 3 12 4 13 5 14 6 15 7 16 8 17 9 18 10 8 11 7 12
REMARK SMILES IDX 6 13 5 14 4 15 3 16 2 17 1 18
REMARK H PARENT
REMARK Flexibility Score: inf
ROOT
ATOM      1  C   UNL     1      53.807  -3.455  12.449  1.00  0.00     0.000 C 
ENDROOT
BRANCH   1   2
ATOM      2  C   UNL     1      52.399  -3.756  12.985  1.00  0.00     0.000 C 
BRANCH   2   3
ATOM      3  C   UNL     1      51.324  -3.310  11.981  1.00  0.00     0.000 C 
BRANCH   3   4
ATOM      4  C   UNL     1      51.765  -2.104  11.135  1.00  0.00     0.000 C 
BRANCH   4   5
ATOM      5  C   UNL     1      51.730  -2.398   9.625  1.00  0.00     0.000 C 
BRANCH   5   6
ATOM      6  C   UNL     1      53.115  -2.753   9.054  1.00  0.00     0.006 C 
BRANCH   6   7
ATOM      7  C   UNL     1      53.278  -4.228   8.650  1.00  0.00     0.053 C 
BRANCH   7   8
ATOM      8  C   UNL     1      53.370  -4.397   7.164  1.00  0.00     0.041 C 
ATOM      9  O   UNL     1      54.359  -3.938   6.536  1.00  0.00    -0.550 OA
ATOM     10  O   UNL     1      52.382  -5.093   6.480  1.00  0.00    -0.550 OA
ENDBRANCH   7   8
ENDBRANCH   6   7
ENDBRANCH   5   6
ENDBRANCH   4   5
ENDBRANCH   3   4
ENDBRANCH   2   3
ENDBRANCH   1   2
BRANCH   1  11
ATOM     11  C   UNL     1      54.677  -2.692  13.461  1.00  0.00     0.000 C 
BRANCH  11  12
ATOM     12  C   UNL     1      55.758  -3.582  14.101  1.00  0.00    -0.000 C 
BRANCH  12  13
ATOM     13  C   UNL     1      57.139  -2.907  14.125  1.00  0.00    -0.000 C 
BRANCH  13  14
ATOM     14  C   UNL     1      57.103  -1.501  14.744  1.00  0.00    -0.000 C 
BRANCH  14  15
ATOM     15  C   UNL     1      57.642  -1.519  16.180  1.00  0.00    -0.000 C 
BRANCH  15  16
ATOM     16  C   UNL     1      57.114  -0.320  16.981  1.00  0.00    -0.000 C 
BRANCH  16  17
ATOM     17  C   UNL     1      55.747   0.169  16.480  1.00  0.00    -0.003 C 
ATOM     18  C   UNL     1      54.578  -0.546  17.159  1.00  0.00     0.004 C 
ENDBRANCH  16  17
ENDBRANCH  15  16
ENDBRANCH  14  15
ENDBRANCH  13  14
ENDBRANCH  12  13
ENDBRANCH  11  12
ENDBRANCH   1  11
TORSDOF 14
ENDMDL
MODEL 7
REMARK VINA RESULT:    -4.294      7.196     11.231
REMARK INTER + INTRA:          -9.510
REMARK INTER:                  -8.397
REMARK INTRA:                  -1.113
REMARK UNBOUND:                -1.702
REMARK SMILES CCCCCCCCCCCCCCCC(=O)[O-]
REMARK SMILES IDX 9 1 10 2 11 3 12 4 13 5 14 6 15 7 16 8 17 9 18 10 8 11 7 12
REMARK SMILES IDX 6 13 5 14 4 15 3 16 2 17 1 18
REMARK H PARENT
REMARK Flexibility Score: inf
ROOT
ATOM      1  C   UNL     1      56.162  -1.227  19.833  1.00  0.00     0.000 C 
ENDROOT
BRANCH   1   2
ATOM      2  C   UNL     1      56.207  -1.990  21.166  1.00  0.00     0.000 C 
BRANCH   2   3
ATOM      3  C   UNL     1      57.578  -2.651  21.373  1.00  0.00     0.000 C 
BRANCH   3   4
ATOM      4  C   UNL     1      57.716  -3.984  20.618  1.00  0.00     0.000 C 
BRANCH   4   5
ATOM      5  C   UNL     1      59.175  -4.305  20.250  1.00  0.00     0.000 C 
BRANCH   5   6
ATOM      6  C   UNL     1      60.181  -3.336  20.899  1.00  0.00     0.006 C 
BRANCH   6   7
ATOM      7  C   UNL     1      61.189  -4.007  21.847  1.00  0.00     0.053 C 
BRANCH   7   8
ATOM      8  C   UNL     1      62.552  -4.116  21.235  1.00  0.00     0.041 C 
ATOM      9  O   UNL     1      63.502  -3.422  21.681  1.00  0.00    -0.550 OA
ATOM     10  O   UNL     1      62.778  -5.009  20.196  1.00  0.00    -0.550 OA
ENDBRANCH   7   8
ENDBRANCH   6   7
ENDBRANCH   5   6
ENDBRANCH   4   5
ENDBRANCH   3   4
ENDBRANCH   2   3
ENDBRANCH   1   2
BRANCH   1  11
ATOM     11  C   UNL     1      57.544  -0.715  19.395  1.00  0.00     0.000 C 
BRANCH  11  12
ATOM     12  C   UNL     1      57.926  -1.180  17.978  1.00  0.00    -0.000 C 
BRANCH  12  13
ATOM     13  C   UNL     1      57.298  -0.306  16.881  1.00  0.00    -0.000 C 
BRANCH  13  14
ATOM     14  C   UNL     1      56.068  -0.960  16.232  1.00  0.00    -0.000 C 
BRANCH  14  15
ATOM     15  C   UNL     1      56.310  -1.226  14.741  1.00  0.00    -0.000 C 
BRANCH  15  16
ATOM     16  C   UNL     1      56.996  -2.583  14.528  1.00  0.00    -0.000 C 
BRANCH  16  17
ATOM     17  C   UNL     1      56.357  -3.395  13.391  1.00  0.00    -0.003 C 
ATOM     18  C   UNL     1      54.830  -3.410  13.460  1.00  0.00     0.004 C 
ENDBRANCH  16  17
ENDBRANCH  15  16
ENDBRANCH  14  15
ENDBRANCH  13  14
ENDBRANCH  12  13
ENDBRANCH  11  12
ENDBRANCH   1  11
TORSDOF 14
ENDMDL
MODEL 8
REMARK VINA RESULT:    -4.253      6.073      9.928
REMARK INTER + INTRA:          -9.436
REMARK INTER:                  -8.731
REMARK INTRA:                  -0.705
REMARK UNBOUND:                -1.702
REMARK SMILES CCCCCCCCCCCCCCCC(=O)[O-]
REMARK SMILES IDX 9 1 10 2 11 3 12 4 13 5 14 6 15 7 16 8 17 9 18 10 8 11 7 12
REMARK SMILES IDX 6 13 5 14 4 15 3 16 2 17 1 18
REMARK H PARENT
REMARK Flexibility Score: inf
ROOT
ATOM      1  C   UNL     1      56.150  -0.855  16.563  1.00  0.00     0.000 C 
ENDROOT
BRANCH   1   2
ATOM      2  C   UNL     1      57.610  -1.219  16.875  1.00  0.00     0.000 C 
BRANCH   2   3
ATOM      3  C   UNL     1      57.982  -0.806  18.308  1.00  0.00     0.000 C 
BRANCH   3   4
ATOM      4  C   UNL     1      58.678  -1.934  19.089  1.00  0.00     0.000 C 
BRANCH   4   5
ATOM      5  C   UNL     1      57.812  -2.476  20.240  1.00  0.00     0.000 C 
BRANCH   5   6
ATOM      6  C   UNL     1      58.340  -3.807  20.807  1.00  0.00     0.006 C 
BRANCH   6   7
ATOM      7  C   UNL     1      59.644  -4.301  20.159  1.00  0.00     0.053 C 
BRANCH   7   8
ATOM      8  C   UNL     1      60.849  -3.936  20.969  1.00  0.00     0.041 C 
ATOM      9  O   UNL     1      60.717  -3.314  22.055  1.00  0.00    -0.550 OA
ATOM     10  O   UNL     1      62.116  -4.313  20.542  1.00  0.00    -0.550 OA
ENDBRANCH   7   8
ENDBRANCH   6   7
ENDBRANCH   5   6
ENDBRANCH   4   5
ENDBRANCH   3   4
ENDBRANCH   2   3
ENDBRANCH   1   2
BRANCH   1  11
ATOM     11  C   UNL     1      55.708  -1.321  15.166  1.00  0.00     0.000 C 
BRANCH  11  12
ATOM     12  C   UNL     1      56.668  -2.357  14.556  1.00  0.00    -0.000 C 
BRANCH  12  13
ATOM     13  C   UNL     1      55.931  -3.448  13.761  1.00  0.00    -0.000 C 
BRANCH  13  14
ATOM     14  C   UNL     1      54.615  -2.949  13.147  1.00  0.00    -0.000 C 
BRANCH  14  15
ATOM     15  C   UNL     1      53.592  -4.087  13.042  1.00  0.00    -0.000 C 
BRANCH  15  16
ATOM     16  C   UNL     1      52.187  -3.540  12.751  1.00  0.00    -0.000 C 
BRANCH  16  17
ATOM     17  C   UNL     1      51.740  -3.802  11.305  1.00  0.00    -0.003 C 
ATOM     18  C   UNL     1      52.572  -4.882  10.615  1.00  0.00     0.004 C 
ENDBRANCH  16  17
ENDBRANCH  15  16
ENDBRANCH  14  15
ENDBRANCH  13  14
ENDBRANCH  12  13
ENDBRANCH  11  12
ENDBRANCH   1  11
TORSDOF 14
ENDMDL
MODEL 9
REMARK VINA RESULT:    -4.228      7.079     10.651
REMARK INTER + INTRA:          -9.390
REMARK INTER:                  -8.066
REMARK INTRA:                  -1.324
REMARK UNBOUND:                -1.702
REMARK SMILES CCCCCCCCCCCCCCCC(=O)[O-]
REMARK SMILES IDX 9 1 10 2 11 3 12 4 13 5 14 6 15 7 16 8 17 9 18 10 8 11 7 12
REMARK SMILES IDX 6 13 5 14 4 15 3 16 2 17 1 18
REMARK H PARENT
REMARK Flexibility Score: inf
ROOT
ATOM      1  C   UNL     1      59.297  -2.847  19.481  1.00  0.00     0.000 C 
ENDROOT
BRANCH   1   2
ATOM      2  C   UNL     1      58.287  -1.857  20.081  1.00  0.00     0.000 C 
BRANCH   2   3
ATOM      3  C   UNL     1      57.372  -1.279  18.989  1.00  0.00     0.000 C 
BRANCH   3   4
ATOM      4  C   UNL     1      58.020  -1.306  17.595  1.00  0.00     0.000 C 
BRANCH   4   5
ATOM      5  C   UNL     1      57.118  -0.688  16.513  1.00  0.00     0.000 C 
BRANCH   5   6
ATOM      6  C   UNL     1      57.200  -1.438  15.170  1.00  0.00     0.006 C 
BRANCH   6   7
ATOM      7  C   UNL     1      55.844  -1.920  14.627  1.00  0.00     0.053 C 
BRANCH   7   8
ATOM      8  C   UNL     1      55.992  -3.080  13.691  1.00  0.00     0.041 C 
ATOM      9  O   UNL     1      56.953  -3.882  13.825  1.00  0.00    -0.550 OA
ATOM     10  O   UNL     1      55.049  -3.294  12.694  1.00  0.00    -0.550 OA
ENDBRANCH   7   8
ENDBRANCH   6   7
ENDBRANCH   5   6
ENDBRANCH   4   5
ENDBRANCH   3   4
ENDBRANCH   2   3
ENDBRANCH   1   2
BRANCH   1  11
ATOM     11  C   UNL     1      59.271  -4.218  20.177  1.00  0.00     0.000 C 
BRANCH  11  12
ATOM     12  C   UNL     1      58.728  -4.141  21.615  1.00  0.00    -0.000 C 
BRANCH  12  13
ATOM     13  C   UNL     1      59.846  -4.144  22.669  1.00  0.00    -0.000 C 
BRANCH  13  14
ATOM     14  C   UNL     1      60.179  -2.736  23.186  1.00  0.00    -0.000 C 
BRANCH  14  15
ATOM     15  C   UNL     1      61.692  -2.486  23.163  1.00  0.00    -0.000 C 
BRANCH  15  16
ATOM     16  C   UNL     1      62.461  -3.788  22.895  1.00  0.00    -0.000 C 
BRANCH  16  17
ATOM     17  C   UNL     1      63.371  -3.693  21.662  1.00  0.00    -0.003 C 
ATOM     18  C   UNL     1      62.877  -4.547  20.495  1.00  0.00     0.004 C 
ENDBRANCH  16  17
ENDBRANCH  15  16
ENDBRANCH  14  15
ENDBRANCH  13  14
ENDBRANCH  12  13
ENDBRANCH  11  12
ENDBRANCH   1  11
TORSDOF 14
ENDMDL
