MODEL 1
REMARK VINA RESULT:    -6.228      0.000      0.000
REMARK INTER + INTRA:          -7.450
REMARK INTER:                  -7.320
REMARK INTRA:                  -0.130
REMARK UNBOUND:                -0.130
REMARK SMILES O=C([O-])C=Cc1ccc(O)c(O)c1
REMARK SMILES IDX 6 1 13 2 7 3 11 4 8 5 9 6 5 7 4 8 2 9 1 10 3 11 12 12 10 14
REMARK H PARENT 12 13 10 15
REMARK Flexibility Score: inf
ROOT
ATOM      1  C   UNL     1       5.655  -3.635  27.984  1.00  0.00    -0.022 A 
ATOM      2  C   UNL     1       6.369  -3.923  29.158  1.00  0.00     0.058 A 
ATOM      3  C   UNL     1       4.975  -2.405  27.885  1.00  0.00     0.012 A 
ATOM      4  C   UNL     1       6.388  -3.015  30.227  1.00  0.00     0.157 A 
ATOM      5  C   UNL     1       4.993  -1.501  28.950  1.00  0.00     0.051 A 
ATOM      6  C   UNL     1       5.693  -1.799  30.122  1.00  0.00     0.157 A 
ENDROOT
BRANCH   1   7
ATOM      7  C   UNL     1       5.677  -4.626  26.878  1.00  0.00     0.010 C 
ATOM      8  C   UNL     1       6.722  -5.421  26.611  1.00  0.00     0.025 C 
BRANCH   8   9
ATOM      9  C   UNL     1       6.713  -6.384  25.497  1.00  0.00     0.064 C 
ATOM     10  O   UNL     1       6.772  -5.998  24.299  1.00  0.00    -0.545 OA
ATOM     11  O   UNL     1       6.636  -7.743  25.772  1.00  0.00    -0.545 OA
ENDBRANCH   8   9
ENDBRANCH   1   7
BRANCH   4  12
ATOM     12  O   UNL     1       7.093  -3.318  31.391  1.00  0.00    -0.504 OA
ATOM     13  H   UNL     1       6.786  -2.988  32.298  1.00  0.00     0.293 HD
ENDBRANCH   4  12
BRANCH   6  14
ATOM     14  O   UNL     1       5.691  -0.876  31.167  1.00  0.00    -0.504 OA
ATOM     15  H   UNL     1       6.544  -0.583  31.628  1.00  0.00     0.293 HD
ENDBRANCH   6  14
TORSDOF 4
ENDMDL
MODEL 2
REMARK VINA RESULT:    -5.831      4.913      7.896
REMARK INTER + INTRA:          -6.983
REMARK INTER:                  -6.858
REMARK INTRA:                  -0.125
REMARK UNBOUND:                -0.130
REMARK SMILES O=C([O-])C=Cc1ccc(O)c(O)c1
REMARK SMILES IDX 6 1 13 2 7 3 11 4 8 5 9 6 5 7 4 8 2 9 1 10 3 11 12 12 10 14
REMARK H PARENT 12 13 10 15
REMARK Flexibility Score: inf
ROOT
ATOM      1  C   UNL     1       9.526  -2.217  32.878  1.00  0.00    -0.022 A 
ATOM      2  C   UNL     1       8.567  -1.193  32.801  1.00  0.00     0.058 A 
ATOM      3  C   UNL     1       9.293  -3.421  32.183  1.00  0.00     0.012 A 
ATOM      4  C   UNL     1       7.385  -1.372  32.067  1.00  0.00     0.157 A 
ATOM      5  C   UNL     1       8.115  -3.598  31.452  1.00  0.00     0.051 A 
ATOM      6  C   UNL     1       7.159  -2.582  31.392  1.00  0.00     0.157 A 
ENDROOT
BRANCH   1   7
ATOM      7  C   UNL     1      10.764  -1.973  33.659  1.00  0.00     0.010 C 
ATOM      8  C   UNL     1      11.726  -1.118  33.283  1.00  0.00     0.025 C 
BRANCH   8   9
ATOM      9  C   UNL     1      12.948  -0.911  34.079  1.00  0.00     0.064 C 
ATOM     10  O   UNL     1      13.939  -1.681  33.965  1.00  0.00    -0.545 OA
ATOM     11  O   UNL     1      13.008   0.151  34.971  1.00  0.00    -0.545 OA
ENDBRANCH   8   9
ENDBRANCH   1   7
BRANCH   4  12
ATOM     12  O   UNL     1       6.437  -0.351  32.007  1.00  0.00    -0.504 OA
ATOM     13  H   UNL     1       5.628  -0.342  32.617  1.00  0.00     0.293 HD
ENDBRANCH   4  12
BRANCH   6  14
ATOM     14  O   UNL     1       5.993  -2.790  30.655  1.00  0.00    -0.504 OA
ATOM     15  H   UNL     1       5.146  -2.261  30.826  1.00  0.00     0.293 HD
ENDBRANCH   6  14
TORSDOF 4
ENDMDL
MODEL 3
REMARK VINA RESULT:    -5.510      3.469      4.865
REMARK INTER + INTRA:          -6.607
REMARK INTER:                  -6.468
REMARK INTRA:                  -0.139
REMARK UNBOUND:                -0.130
REMARK SMILES O=C([O-])C=Cc1ccc(O)c(O)c1
REMARK SMILES IDX 6 1 13 2 7 3 11 4 8 5 9 6 5 7 4 8 2 9 1 10 3 11 12 12 10 14
REMARK H PARENT 12 13 10 15
REMARK Flexibility Score: inf
ROOT
ATOM      1  C   UNL     1       7.956  -2.585  31.567  1.00  0.00    -0.022 A 
ATOM      2  C   UNL     1       7.897  -1.378  32.283  1.00  0.00     0.058 A 
ATOM      3  C   UNL     1       8.991  -3.497  31.855  1.00  0.00     0.012 A 
ATOM      4  C   UNL     1       8.864  -1.070  33.251  1.00  0.00     0.157 A 
ATOM      5  C   UNL     1       9.954  -3.190  32.820  1.00  0.00     0.051 A 
ATOM      6  C   UNL     1       9.899  -1.981  33.518  1.00  0.00     0.157 A 
ENDROOT
BRANCH   1   7
ATOM      7  C   UNL     1       6.902  -2.867  30.560  1.00  0.00     0.010 C 
ATOM      8  C   UNL     1       7.054  -3.726  29.543  1.00  0.00     0.025 C 
BRANCH   8   9
ATOM      9  C   UNL     1       5.989  -3.972  28.556  1.00  0.00     0.064 C 
ATOM     10  O   UNL     1       4.875  -3.388  28.639  1.00  0.00    -0.545 OA
ATOM     11  O   UNL     1       6.215  -4.863  27.516  1.00  0.00    -0.545 OA
ENDBRANCH   8   9
ENDBRANCH   1   7
BRANCH   4  12
ATOM     12  O   UNL     1       8.798   0.136  33.948  1.00  0.00    -0.504 OA
ATOM     13  H   UNL     1       8.795   0.165  34.960  1.00  0.00     0.293 HD
ENDBRANCH   4  12
BRANCH   6  14
ATOM     14  O   UNL     1      10.876  -1.704  34.473  1.00  0.00    -0.504 OA
ATOM     15  H   UNL     1      10.745  -1.918  35.455  1.00  0.00     0.293 HD
ENDBRANCH   6  14
TORSDOF 4
ENDMDL
MODEL 4
REMARK VINA RESULT:    -5.496      2.284      7.035
REMARK INTER + INTRA:          -6.589
REMARK INTER:                  -6.463
REMARK INTRA:                  -0.127
REMARK UNBOUND:                -0.130
REMARK SMILES O=C([O-])C=Cc1ccc(O)c(O)c1
REMARK SMILES IDX 6 1 13 2 7 3 11 4 8 5 9 6 5 7 4 8 2 9 1 10 3 11 12 12 10 14
REMARK H PARENT 12 13 10 15
REMARK Flexibility Score: inf
ROOT
ATOM      1  C   UNL     1       6.809  -6.341  25.325  1.00  0.00    -0.022 A 
ATOM      2  C   UNL     1       6.932  -5.743  24.060  1.00  0.00     0.058 A 
ATOM      3  C   UNL     1       6.721  -7.744  25.410  1.00  0.00     0.012 A 
ATOM      4  C   UNL     1       6.942  -6.526  22.895  1.00  0.00     0.157 A 
ATOM      5  C   UNL     1       6.731  -8.524  24.249  1.00  0.00     0.051 A 
ATOM      6  C   UNL     1       6.838  -7.923  22.993  1.00  0.00     0.157 A 
ENDROOT
BRANCH   1   7
ATOM      7  C   UNL     1       6.814  -5.468  26.526  1.00  0.00     0.010 C 
ATOM      8  C   UNL     1       5.824  -4.618  26.834  1.00  0.00     0.025 C 
BRANCH   8   9
ATOM      9  C   UNL     1       5.869  -3.759  28.029  1.00  0.00     0.064 C 
ATOM     10  O   UNL     1       6.430  -4.145  29.089  1.00  0.00    -0.545 OA
ATOM     11  O   UNL     1       5.283  -2.501  27.987  1.00  0.00    -0.545 OA
ENDBRANCH   8   9
ENDBRANCH   1   7
BRANCH   4  12
ATOM     12  O   UNL     1       7.055  -5.920  21.645  1.00  0.00    -0.504 OA
ATOM     13  H   UNL     1       7.865  -5.366  21.395  1.00  0.00     0.293 HD
ENDBRANCH   4  12
BRANCH   6  14
ATOM     14  O   UNL     1       6.843  -8.728  21.854  1.00  0.00    -0.504 OA
ATOM     15  H   UNL     1       7.158  -9.692  21.878  1.00  0.00     0.293 HD
ENDBRANCH   6  14
TORSDOF 4
ENDMDL
MODEL 5
REMARK VINA RESULT:    -5.396      1.811      6.359
REMARK INTER + INTRA:          -6.473
REMARK INTER:                  -6.339
REMARK INTRA:                  -0.133
REMARK UNBOUND:                -0.130
REMARK SMILES O=C([O-])C=Cc1ccc(O)c(O)c1
REMARK SMILES IDX 6 1 13 2 7 3 11 4 8 5 9 6 5 7 4 8 2 9 1 10 3 11 12 12 10 14
REMARK H PARENT 12 13 10 15
REMARK Flexibility Score: inf
ROOT
ATOM      1  C   UNL     1       6.385  -5.795  25.872  1.00  0.00    -0.022 A 
ATOM      2  C   UNL     1       6.301  -7.032  26.534  1.00  0.00     0.058 A 
ATOM      3  C   UNL     1       6.750  -5.776  24.511  1.00  0.00     0.012 A 
ATOM      4  C   UNL     1       6.599  -8.226  25.862  1.00  0.00     0.157 A 
ATOM      5  C   UNL     1       7.047  -6.966  23.843  1.00  0.00     0.051 A 
ATOM      6  C   UNL     1       6.977  -8.191  24.510  1.00  0.00     0.157 A 
ENDROOT
BRANCH   1   7
ATOM      7  C   UNL     1       6.048  -4.562  26.626  1.00  0.00     0.010 C 
ATOM      8  C   UNL     1       6.037  -4.486  27.964  1.00  0.00     0.025 C 
BRANCH   8   9
ATOM      9  C   UNL     1       5.686  -3.247  28.678  1.00  0.00     0.064 C 
ATOM     10  O   UNL     1       5.826  -3.152  29.927  1.00  0.00    -0.545 OA
ATOM     11  O   UNL     1       5.193  -2.164  27.963  1.00  0.00    -0.545 OA
ENDBRANCH   8   9
ENDBRANCH   1   7
BRANCH   4  12
ATOM     12  O   UNL     1       6.521  -9.446  26.534  1.00  0.00    -0.504 OA
ATOM     13  H   UNL     1       6.765 -10.318  26.080  1.00  0.00     0.293 HD
ENDBRANCH   4  12
BRANCH   6  14
ATOM     14  O   UNL     1       7.281  -9.361  23.815  1.00  0.00    -0.504 OA
ATOM     15  H   UNL     1       8.235  -9.632  23.608  1.00  0.00     0.293 HD
ENDBRANCH   6  14
TORSDOF 4
ENDMDL
MODEL 6
REMARK VINA RESULT:    -5.280     16.044     17.608
REMARK INTER + INTRA:          -6.336
REMARK INTER:                  -6.206
REMARK INTRA:                  -0.130
REMARK UNBOUND:                -0.130
REMARK SMILES O=C([O-])C=Cc1ccc(O)c(O)c1
REMARK SMILES IDX 6 1 13 2 7 3 11 4 8 5 9 6 5 7 4 8 2 9 1 10 3 11 12 12 10 14
REMARK H PARENT 12 13 10 15
REMARK Flexibility Score: inf
ROOT
ATOM      1  C   UNL     1      18.569 -13.260  20.482  1.00  0.00    -0.022 A 
ATOM      2  C   UNL     1      18.055 -12.472  21.525  1.00  0.00     0.058 A 
ATOM      3  C   UNL     1      19.698 -14.065  20.730  1.00  0.00     0.012 A 
ATOM      4  C   UNL     1      18.668 -12.465  22.787  1.00  0.00     0.157 A 
ATOM      5  C   UNL     1      20.309 -14.057  21.987  1.00  0.00     0.051 A 
ATOM      6  C   UNL     1      19.803 -13.260  23.016  1.00  0.00     0.157 A 
ENDROOT
BRANCH   1   7
ATOM      7  C   UNL     1      17.876 -13.241  19.169  1.00  0.00     0.010 C 
ATOM      8  C   UNL     1      18.456 -12.849  18.026  1.00  0.00     0.025 C 
BRANCH   8   9
ATOM      9  C   UNL     1      17.733 -12.832  16.743  1.00  0.00     0.064 C 
ATOM     10  O   UNL     1      16.606 -13.381  16.622  1.00  0.00    -0.545 OA
ATOM     11  O   UNL     1      18.305 -12.200  15.647  1.00  0.00    -0.545 OA
ENDBRANCH   8   9
ENDBRANCH   1   7
BRANCH   4  12
ATOM     12  O   UNL     1      18.154 -11.670  23.810  1.00  0.00    -0.504 OA
ATOM     13  H   UNL     1      17.311 -11.123  23.684  1.00  0.00     0.293 HD
ENDBRANCH   4  12
BRANCH   6  14
ATOM     14  O   UNL     1      20.435 -13.273  24.258  1.00  0.00    -0.504 OA
ATOM     15  H   UNL     1      21.370 -13.645  24.383  1.00  0.00     0.293 HD
ENDBRANCH   6  14
TORSDOF 4
ENDMDL
MODEL 7
REMARK VINA RESULT:    -5.243     14.831     18.199
REMARK INTER + INTRA:          -6.293
REMARK INTER:                  -6.162
REMARK INTRA:                  -0.131
REMARK UNBOUND:                -0.130
REMARK SMILES O=C([O-])C=Cc1ccc(O)c(O)c1
REMARK SMILES IDX 6 1 13 2 7 3 11 4 8 5 9 6 5 7 4 8 2 9 1 10 3 11 12 12 10 14
REMARK H PARENT 12 13 10 15
REMARK Flexibility Score: inf
ROOT
ATOM      1  C   UNL     1      19.239 -13.112  21.717  1.00  0.00    -0.022 A 
ATOM      2  C   UNL     1      19.127 -12.953  20.325  1.00  0.00     0.058 A 
ATOM      3  C   UNL     1      19.963 -14.210  22.220  1.00  0.00     0.012 A 
ATOM      4  C   UNL     1      19.705 -13.884  19.449  1.00  0.00     0.157 A 
ATOM      5  C   UNL     1      20.538 -15.137  21.346  1.00  0.00     0.051 A 
ATOM      6  C   UNL     1      20.411 -14.982  19.964  1.00  0.00     0.157 A 
ENDROOT
BRANCH   1   7
ATOM      7  C   UNL     1      18.618 -12.093  22.600  1.00  0.00     0.010 C 
ATOM      8  C   UNL     1      18.511 -10.795  22.280  1.00  0.00     0.025 C 
BRANCH   8   9
ATOM      9  C   UNL     1      17.899  -9.810  23.187  1.00  0.00     0.064 C 
ATOM     10  O   UNL     1      16.784 -10.029  23.732  1.00  0.00    -0.545 OA
ATOM     11  O   UNL     1      18.563  -8.619  23.447  1.00  0.00    -0.545 OA
ENDBRANCH   8   9
ENDBRANCH   1   7
BRANCH   4  12
ATOM     12  O   UNL     1      19.578 -13.719  18.070  1.00  0.00    -0.504 OA
ATOM     13  H   UNL     1      19.032 -14.360  17.507  1.00  0.00     0.293 HD
ENDBRANCH   4  12
BRANCH   6  14
ATOM     14  O   UNL     1      20.995 -15.925  19.119  1.00  0.00    -0.504 OA
ATOM     15  H   UNL     1      20.505 -16.307  18.318  1.00  0.00     0.293 HD
ENDBRANCH   6  14
TORSDOF 4
ENDMDL
MODEL 8
REMARK VINA RESULT:    -5.227      8.297     10.212
REMARK INTER + INTRA:          -6.273
REMARK INTER:                  -6.148
REMARK INTRA:                  -0.126
REMARK UNBOUND:                -0.130
REMARK SMILES O=C([O-])C=Cc1ccc(O)c(O)c1
REMARK SMILES IDX 6 1 13 2 7 3 11 4 8 5 9 6 5 7 4 8 2 9 1 10 3 11 12 12 10 14
REMARK H PARENT 12 13 10 15
REMARK Flexibility Score: inf
ROOT
ATOM      1  C   UNL     1      13.209   0.443  32.558  1.00  0.00    -0.022 A 
ATOM      2  C   UNL     1      14.198  -0.161  31.764  1.00  0.00     0.058 A 
ATOM      3  C   UNL     1      13.538   1.599  33.293  1.00  0.00     0.012 A 
ATOM      4  C   UNL     1      15.500   0.360  31.721  1.00  0.00     0.157 A 
ATOM      5  C   UNL     1      14.836   2.117  33.250  1.00  0.00     0.051 A 
ATOM      6  C   UNL     1      15.819   1.503  32.471  1.00  0.00     0.157 A 
ENDROOT
BRANCH   1   7
ATOM      7  C   UNL     1      11.845  -0.142  32.560  1.00  0.00     0.010 C 
ATOM      8  C   UNL     1      11.482  -1.185  33.320  1.00  0.00     0.025 C 
BRANCH   8   9
ATOM      9  C   UNL     1      10.121  -1.747  33.286  1.00  0.00     0.064 C 
ATOM     10  O   UNL     1       9.930  -2.991  33.243  1.00  0.00    -0.545 OA
ATOM     11  O   UNL     1       9.029  -0.889  33.302  1.00  0.00    -0.545 OA
ENDBRANCH   8   9
ENDBRANCH   1   7
BRANCH   4  12
ATOM     12  O   UNL     1      16.475  -0.255  30.937  1.00  0.00    -0.504 OA
ATOM     13  H   UNL     1      16.234  -0.944  30.234  1.00  0.00     0.293 HD
ENDBRANCH   4  12
BRANCH   6  14
ATOM     14  O   UNL     1      17.104   2.045  32.450  1.00  0.00    -0.504 OA
ATOM     15  H   UNL     1      17.298   2.984  32.776  1.00  0.00     0.293 HD
ENDBRANCH   6  14
TORSDOF 4
ENDMDL
MODEL 9
REMARK VINA RESULT:    -5.049     17.238     18.265
REMARK INTER + INTRA:          -6.065
REMARK INTER:                  -5.932
REMARK INTRA:                  -0.133
REMARK UNBOUND:                -0.130
REMARK SMILES O=C([O-])C=Cc1ccc(O)c(O)c1
REMARK SMILES IDX 6 1 13 2 7 3 11 4 8 5 9 6 5 7 4 8 2 9 1 10 3 11 12 12 10 14
REMARK H PARENT 12 13 10 15
REMARK Flexibility Score: inf
ROOT
ATOM      1  C   UNL     1      18.764 -13.554  20.476  1.00  0.00    -0.022 A 
ATOM      2  C   UNL     1      20.167 -13.592  20.417  1.00  0.00     0.058 A 
ATOM      3  C   UNL     1      18.137 -13.528  21.738  1.00  0.00     0.012 A 
ATOM      4  C   UNL     1      20.934 -13.629  21.591  1.00  0.00     0.157 A 
ATOM      5  C   UNL     1      18.902 -13.566  22.907  1.00  0.00     0.051 A 
ATOM      6  C   UNL     1      20.296 -13.619  22.842  1.00  0.00     0.157 A 
ENDROOT
BRANCH   1   7
ATOM      7  C   UNL     1      18.000 -13.504  19.204  1.00  0.00     0.010 C 
ATOM      8  C   UNL     1      18.481 -12.982  18.067  1.00  0.00     0.025 C 
BRANCH   8   9
ATOM      9  C   UNL     1      17.689 -12.939  16.826  1.00  0.00     0.064 C 
ATOM     10  O   UNL     1      18.137 -12.389  15.785  1.00  0.00    -0.545 OA
ATOM     11  O   UNL     1      16.426 -13.515  16.803  1.00  0.00    -0.545 OA
ENDBRANCH   8   9
ENDBRANCH   1   7
BRANCH   4  12
ATOM     12  O   UNL     1      22.326 -13.677  21.517  1.00  0.00    -0.504 OA
ATOM     13  H   UNL     1      22.805 -14.418  21.022  1.00  0.00     0.293 HD
ENDBRANCH   4  12
BRANCH   6  14
ATOM     14  O   UNL     1      21.030 -13.658  24.027  1.00  0.00    -0.504 OA
ATOM     15  H   UNL     1      20.618 -13.426  24.923  1.00  0.00     0.293 HD
ENDBRANCH   6  14
TORSDOF 4
ENDMDL
